MODEL 1
REMARK minimizedAffinity -8.6442461
REMARK CNNscore 0.611799955
REMARK CNNaffinity 7.56462812
REMARK  14 active torsions:
REMARK  status: ('A' for Active; 'I' for Inactive)
REMARK    1  A    between atoms: O1_2  and  C2_3 
REMARK    2  A    between atoms: C2_3  and  C3_5 
REMARK    3  A    between atoms: C3_5  and  C4_6 
REMARK    4  A    between atoms: C3_5  and  N2_16 
REMARK    5  A    between atoms: C4_6  and  C5_7 
REMARK       I    between atoms: N2_16  and  C13_17 
REMARK    6  A    between atoms: C13_17  and  C14_19 
REMARK    7  A    between atoms: C14_19  and  C15_20 
REMARK    8  A    between atoms: C15_20  and  C16_21 
REMARK    9  A    between atoms: C16_21  and  O5_23 
REMARK   10  A    between atoms: O5_23  and  C17_24 
REMARK   11  A    between atoms: C17_24  and  C18_25 
REMARK   12  A    between atoms: C18_25  and  C19_27 
REMARK   13  A    between atoms: C19_27  and  O7_28 
REMARK   14  A    between atoms: C34_44  and  O9_45 
ROOT
HETATM    1  C17 UNL     1      -1.420  52.887 -12.045  1.00  0.00     0.260 C 
ENDROOT
BRANCH   1   2
HETATM    2  O5  UNL     1      -2.026  51.704 -12.558  1.00  0.00    -0.314 OA
BRANCH   2   3
HETATM    3  C16 UNL     1      -1.662  51.360 -13.826  1.00  0.00     0.259 C 
HETATM    4  O4  UNL     1      -0.555  51.534 -14.316  1.00  0.00    -0.265 OA
BRANCH   3   5
HETATM    5  C15 UNL     1      -2.798  50.680 -14.541  1.00  0.00     0.120 C 
BRANCH   5   6
HETATM    6  C14 UNL     1      -2.556  49.187 -14.693  1.00  0.00     0.112 C 
BRANCH   6   7
HETATM    7  C13 UNL     1      -2.438  48.795 -16.149  1.00  0.00     0.218 C 
HETATM    8  N2  UNL     1      -2.388  49.874 -16.998  1.00  0.00    -0.347 N 
HETATM    9  H13 UNL     1      -2.523  50.812 -16.640  1.00  0.00     0.163 HD
HETATM   10  O3  UNL     1      -2.395  47.634 -16.537  1.00  0.00    -0.274 OA
BRANCH   8  11
HETATM   11  C3  UNL     1      -2.335  49.722 -18.466  1.00  0.00     0.188 C 
BRANCH  11  12
HETATM   12  C2  UNL     1      -3.063  50.900 -19.147  1.00  0.00     0.281 C 
HETATM   13  O2  UNL     1      -3.101  52.050 -18.735  1.00  0.00    -0.263 OA
BRANCH  12  14
HETATM   14  O1  UNL     1      -3.686  50.490 -20.298  1.00  0.00    -0.325 OA
HETATM   15  C1  UNL     1      -3.958  49.087 -20.341  1.00  0.00     0.213 C 
ENDBRANCH  12  14
ENDBRANCH  11  12
BRANCH  11  16
HETATM   16  C4  UNL     1      -0.877  49.650 -18.944  1.00  0.00     0.076 C 
BRANCH  16  17
HETATM   17  C5  UNL     1      -0.170  50.972 -18.918  1.00  0.00    -0.028 A 
HETATM   18  C6  UNL     1       0.247  51.659 -17.795  1.00  0.00     0.096 A 
HETATM   19  N1  UNL     1       0.840  52.824 -18.198  1.00  0.00    -0.365 N 
HETATM   20  C7  UNL     1       0.831  52.914 -19.569  1.00  0.00     0.042 A 
HETATM   21  H8  UNL     1       1.224  53.525 -17.581  1.00  0.00     0.165 HD
HETATM   22  C8  UNL     1       1.325  53.919 -20.410  1.00  0.00     0.030 A 
HETATM   23  C12 UNL     1       0.203  51.765 -20.052  1.00  0.00    -0.002 A 
HETATM   24  C9  UNL     1       1.176  53.739 -21.788  1.00  0.00     0.002 A 
HETATM   25  C10 UNL     1       0.556  52.603 -22.301  1.00  0.00     0.001 A 
HETATM   26  C11 UNL     1       0.062  51.612 -21.447  1.00  0.00     0.014 A 
ENDBRANCH  16  17
ENDBRANCH  11  16
ENDBRANCH   8  11
ENDBRANCH   6   7
ENDBRANCH   5   6
ENDBRANCH   3   5
ENDBRANCH   2   3
ENDBRANCH   1   2
BRANCH   1  27
HETATM   27  C18 UNL     1      -1.623  53.113 -10.545  1.00  0.00     0.185 C 
HETATM   28  O6  UNL     1      -2.726  53.492 -10.137  1.00  0.00    -0.292 OA
BRANCH  27  29
HETATM   29  C19 UNL     1      -0.452  52.803  -9.562  1.00  0.00     0.128 C 
HETATM   30  C20 UNL     1       0.632  51.992 -10.294  1.00  0.00     0.047 C 
HETATM   31  C21 UNL     1       1.494  53.023 -10.998  1.00  0.00     0.009 C 
HETATM   32  C22 UNL     1       1.463  54.285 -10.116  1.00  0.00     0.002 C 
HETATM   33  C23 UNL     1       2.876  54.594  -9.549  1.00  0.00    -0.002 C 
HETATM   34  C36 UNL     1       0.357  54.047  -9.036  1.00  0.00     0.001 C 
HETATM   35  C24 UNL     1       3.774  55.197 -10.627  1.00  0.00     0.010 C 
HETATM   36  C33 UNL     1       2.795  55.522  -8.314  1.00  0.00     0.031 C 
HETATM   37  C25 UNL     1       5.215  55.288 -10.145  1.00  0.00     0.035 C 
HETATM   38  C26 UNL     1       5.374  55.662  -8.691  1.00  0.00    -0.068 C 
HETATM   39  C27 UNL     1       6.593  55.504  -8.136  1.00  0.00     0.053 C 
HETATM   40  C31 UNL     1       4.173  56.250  -7.939  1.00  0.00    -0.014 C 
HETATM   41  C28 UNL     1       6.907  55.975  -6.769  1.00  0.00     0.149 C 
HETATM   42  O8  UNL     1       8.031  55.787  -6.310  1.00  0.00    -0.293 OA
HETATM   43  C29 UNL     1       5.850  56.749  -6.028  1.00  0.00     0.084 C 
HETATM   44  C30 UNL     1       4.465  56.235  -6.405  1.00  0.00     0.022 C 
HETATM   45  C32 UNL     1       4.056  57.738  -8.375  1.00  0.00     0.020 C 
HETATM   46  C34 UNL     1       2.090  54.733  -7.184  1.00  0.00     0.124 C 
HETATM   47  C35 UNL     1       1.006  53.743  -7.657  1.00  0.00     0.045 C 
HETATM   48  C37 UNL     1      -0.536  55.294  -8.896  1.00  0.00     0.019 C 
BRANCH  29  49
HETATM   49  O7  UNL     1      -0.925  52.000  -8.484  1.00  0.00    -0.381 OA
HETATM   50  H20 UNL     1      -1.059  51.096  -8.828  1.00  0.00     0.211 HD
ENDBRANCH  29  49
BRANCH  46  51
HETATM   51  O9  UNL     1       1.541  55.638  -6.229  1.00  0.00    -0.395 OA
HETATM   52  H41 UNL     1       0.671  55.937  -6.540  1.00  0.00     0.210 HD
ENDBRANCH  46  51
ENDBRANCH  27  29
ENDBRANCH   1  27
TORSDOF 14
ENDMDL
MODEL 2
REMARK minimizedAffinity -10.019515
REMARK CNNscore 0.61063087
REMARK CNNaffinity 7.05285835
REMARK  14 active torsions:
REMARK  status: ('A' for Active; 'I' for Inactive)
REMARK    1  A    between atoms: O1_2  and  C2_3 
REMARK    2  A    between atoms: C2_3  and  C3_5 
REMARK    3  A    between atoms: C3_5  and  C4_6 
REMARK    4  A    between atoms: C3_5  and  N2_16 
REMARK    5  A    between atoms: C4_6  and  C5_7 
REMARK       I    between atoms: N2_16  and  C13_17 
REMARK    6  A    between atoms: C13_17  and  C14_19 
REMARK    7  A    between atoms: C14_19  and  C15_20 
REMARK    8  A    between atoms: C15_20  and  C16_21 
REMARK    9  A    between atoms: C16_21  and  O5_23 
REMARK   10  A    between atoms: O5_23  and  C17_24 
REMARK   11  A    between atoms: C17_24  and  C18_25 
REMARK   12  A    between atoms: C18_25  and  C19_27 
REMARK   13  A    between atoms: C19_27  and  O7_28 
REMARK   14  A    between atoms: C34_44  and  O9_45 
ROOT
HETATM    1  C17 UNL     1      -6.312  48.112 -28.972  1.00  0.00     0.260 C 
ENDROOT
BRANCH   1   2
HETATM    2  O5  UNL     1      -5.295  47.678 -28.075  1.00  0.00    -0.314 OA
BRANCH   2   3
HETATM    3  C16 UNL     1      -4.256  48.541 -27.900  1.00  0.00     0.259 C 
HETATM    4  O4  UNL     1      -3.982  49.478 -28.638  1.00  0.00    -0.265 OA
BRANCH   3   5
HETATM    5  C15 UNL     1      -3.504  48.224 -26.636  1.00  0.00     0.120 C 
BRANCH   5   6
HETATM    6  C14 UNL     1      -4.322  48.549 -25.397  1.00  0.00     0.112 C 
BRANCH   6   7
HETATM    7  C13 UNL     1      -3.571  49.480 -24.470  1.00  0.00     0.218 C 
HETATM    8  N2  UNL     1      -3.876  50.804 -24.671  1.00  0.00    -0.347 N 
HETATM    9  H13 UNL     1      -4.472  51.080 -25.443  1.00  0.00     0.163 HD
HETATM   10  O3  UNL     1      -2.770  49.096 -23.628  1.00  0.00    -0.274 OA
BRANCH   8  11
HETATM   11  C3  UNL     1      -3.213  51.889 -23.920  1.00  0.00     0.188 C 
BRANCH  11  12
HETATM   12  C2  UNL     1      -3.501  51.740 -22.410  1.00  0.00     0.281 C 
HETATM   13  O2  UNL     1      -2.663  51.735 -21.521  1.00  0.00    -0.263 OA
BRANCH  12  14
HETATM   14  O1  UNL     1      -4.846  51.601 -22.180  1.00  0.00    -0.325 OA
HETATM   15  C1  UNL     1      -5.168  50.597 -21.216  1.00  0.00     0.213 C 
ENDBRANCH  12  14
ENDBRANCH  11  12
BRANCH  11  16
HETATM   16  C4  UNL     1      -1.699  51.871 -24.176  1.00  0.00     0.076 C 
BRANCH  16  17
HETATM   17  C5  UNL     1      -1.334  51.971 -25.626  1.00  0.00    -0.028 A 
HETATM   18  C6  UNL     1      -2.197  52.209 -26.677  1.00  0.00     0.096 A 
HETATM   19  N1  UNL     1      -1.472  52.216 -27.837  1.00  0.00    -0.365 N 
HETATM   20  C7  UNL     1      -0.142  51.995 -27.571  1.00  0.00     0.042 A 
HETATM   21  H8  UNL     1      -1.855  52.355 -28.762  1.00  0.00     0.165 HD
HETATM   22  C8  UNL     1       0.951  51.923 -28.441  1.00  0.00     0.030 A 
HETATM   23  C12 UNL     1      -0.022  51.837 -26.189  1.00  0.00    -0.002 A 
HETATM   24  C9  UNL     1       2.209  51.684 -27.879  1.00  0.00     0.002 A 
HETATM   25  C10 UNL     1       2.363  51.524 -26.505  1.00  0.00     0.001 A 
HETATM   26  C11 UNL     1       1.258  51.594 -25.650  1.00  0.00     0.014 A 
ENDBRANCH  16  17
ENDBRANCH  11  16
ENDBRANCH   8  11
ENDBRANCH   6   7
ENDBRANCH   5   6
ENDBRANCH   3   5
ENDBRANCH   2   3
ENDBRANCH   1   2
BRANCH   1  27
HETATM   27  C18 UNL     1      -7.743  47.881 -28.482  1.00  0.00     0.185 C 
HETATM   28  O6  UNL     1      -7.932  47.562 -27.303  1.00  0.00    -0.292 OA
BRANCH  27  29
HETATM   29  C19 UNL     1      -8.932  48.111 -29.465  1.00  0.00     0.128 C 
HETATM   30  C20 UNL     1      -8.637  49.335 -30.351  1.00  0.00     0.047 C 
HETATM   31  C21 UNL     1      -7.792  48.804 -31.494  1.00  0.00     0.009 C 
HETATM   32  C22 UNL     1      -8.248  47.353 -31.730  1.00  0.00     0.002 C 
HETATM   33  C23 UNL     1      -8.897  47.201 -33.133  1.00  0.00    -0.002 C 
HETATM   34  C36 UNL     1      -9.178  46.978 -30.529  1.00  0.00     0.001 C 
HETATM   35  C24 UNL     1      -7.829  47.194 -34.226  1.00  0.00     0.010 C 
HETATM   36  C33 UNL     1      -9.777  45.931 -33.211  1.00  0.00     0.031 C 
HETATM   37  C25 UNL     1      -8.466  47.276 -35.607  1.00  0.00     0.035 C 
HETATM   38  C26 UNL     1      -9.752  46.499 -35.759  1.00  0.00    -0.068 C 
HETATM   39  C27 UNL     1     -10.499  46.738 -36.856  1.00  0.00     0.053 C 
HETATM   40  C31 UNL     1     -10.115  45.448 -34.702  1.00  0.00    -0.014 C 
HETATM   41  C28 UNL     1     -11.696  45.935 -37.189  1.00  0.00     0.149 C 
HETATM   42  O8  UNL     1     -12.347  46.211 -38.193  1.00  0.00    -0.293 OA
HETATM   43  C29 UNL     1     -12.015  44.748 -36.319  1.00  0.00     0.084 C 
HETATM   44  C30 UNL     1     -11.610  45.034 -34.877  1.00  0.00     0.022 C 
HETATM   45  C32 UNL     1      -9.247  44.194 -35.001  1.00  0.00     0.020 C 
HETATM   46  C34 UNL     1     -10.975  46.136 -32.253  1.00  0.00     0.124 C 
HETATM   47  C35 UNL     1     -10.664  46.958 -30.985  1.00  0.00     0.045 C 
HETATM   48  C37 UNL     1      -8.813  45.586 -29.981  1.00  0.00     0.019 C 
BRANCH  29  49
HETATM   49  O7  UNL     1     -10.119  48.397 -28.730  1.00  0.00    -0.381 OA
HETATM   50  H20 UNL     1     -10.042  49.310 -28.392  1.00  0.00     0.211 HD
ENDBRANCH  29  49
BRANCH  46  51
HETATM   51  O9  UNL     1     -11.531  44.874 -31.892  1.00  0.00    -0.395 OA
HETATM   52  H41 UNL     1     -11.023  44.505 -31.151  1.00  0.00     0.210 HD
ENDBRANCH  46  51
ENDBRANCH  27  29
ENDBRANCH   1  27
TORSDOF 14
ENDMDL
MODEL 3
REMARK minimizedAffinity -9.16024208
REMARK CNNscore 0.524485111
REMARK CNNaffinity 6.80010366
REMARK  14 active torsions:
REMARK  status: ('A' for Active; 'I' for Inactive)
REMARK    1  A    between atoms: O1_2  and  C2_3 
REMARK    2  A    between atoms: C2_3  and  C3_5 
REMARK    3  A    between atoms: C3_5  and  C4_6 
REMARK    4  A    between atoms: C3_5  and  N2_16 
REMARK    5  A    between atoms: C4_6  and  C5_7 
REMARK       I    between atoms: N2_16  and  C13_17 
REMARK    6  A    between atoms: C13_17  and  C14_19 
REMARK    7  A    between atoms: C14_19  and  C15_20 
REMARK    8  A    between atoms: C15_20  and  C16_21 
REMARK    9  A    between atoms: C16_21  and  O5_23 
REMARK   10  A    between atoms: O5_23  and  C17_24 
REMARK   11  A    between atoms: C17_24  and  C18_25 
REMARK   12  A    between atoms: C18_25  and  C19_27 
REMARK   13  A    between atoms: C19_27  and  O7_28 
REMARK   14  A    between atoms: C34_44  and  O9_45 
ROOT
HETATM    1  C17 UNL     1       0.609  51.181 -17.356  1.00  0.00     0.260 C 
ENDROOT
BRANCH   1   2
HETATM    2  O5  UNL     1       0.101  51.796 -16.176  1.00  0.00    -0.314 OA
BRANCH   2   3
HETATM    3  C16 UNL     1       0.333  51.123 -15.014  1.00  0.00     0.259 C 
HETATM    4  O4  UNL     1       0.281  49.908 -14.878  1.00  0.00    -0.265 OA
BRANCH   3   5
HETATM    5  C15 UNL     1       0.717  52.074 -13.913  1.00  0.00     0.120 C 
BRANCH   5   6
HETATM    6  C14 UNL     1      -0.480  52.462 -13.061  1.00  0.00     0.112 C 
BRANCH   6   7
HETATM    7  C13 UNL     1      -0.045  53.015 -11.721  1.00  0.00     0.218 C 
HETATM    8  N2  UNL     1       1.307  53.244 -11.644  1.00  0.00    -0.347 N 
HETATM    9  H13 UNL     1       1.918  52.958 -12.400  1.00  0.00     0.163 HD
HETATM   10  O3  UNL     1      -0.816  53.234 -10.796  1.00  0.00    -0.274 OA
BRANCH   8  11
HETATM   11  C3  UNL     1       1.957  53.724 -10.408  1.00  0.00     0.188 C 
BRANCH  11  12
HETATM   12  C2  UNL     1       2.862  52.619  -9.821  1.00  0.00     0.281 C 
HETATM   13  O2  UNL     1       3.753  52.035 -10.419  1.00  0.00    -0.263 OA
BRANCH  12  14
HETATM   14  O1  UNL     1       2.531  52.358  -8.516  1.00  0.00    -0.325 OA
HETATM   15  C1  UNL     1       1.269  52.899  -8.119  1.00  0.00     0.213 C 
ENDBRANCH  12  14
ENDBRANCH  11  12
BRANCH  11  16
HETATM   16  C4  UNL     1       2.781  54.989 -10.693  1.00  0.00     0.076 C 
BRANCH  16  17
HETATM   17  C5  UNL     1       3.369  55.612  -9.463  1.00  0.00    -0.028 A 
HETATM   18  C6  UNL     1       2.706  56.403  -8.544  1.00  0.00     0.096 A 
HETATM   19  N1  UNL     1       3.597  56.779  -7.577  1.00  0.00    -0.365 N 
HETATM   20  C7  UNL     1       4.836  56.241  -7.833  1.00  0.00     0.042 A 
HETATM   21  H8  UNL     1       3.384  57.371  -6.787  1.00  0.00     0.165 HD
HETATM   22  C8  UNL     1       6.033  56.354  -7.118  1.00  0.00     0.030 A 
HETATM   23  C12 UNL     1       4.725  55.502  -9.013  1.00  0.00    -0.002 A 
HETATM   24  C9  UNL     1       7.153  55.687  -7.623  1.00  0.00     0.002 A 
HETATM   25  C10 UNL     1       7.076  54.940  -8.796  1.00  0.00     0.001 A 
HETATM   26  C11 UNL     1       5.871  54.842  -9.502  1.00  0.00     0.014 A 
ENDBRANCH  16  17
ENDBRANCH  11  16
ENDBRANCH   8  11
ENDBRANCH   6   7
ENDBRANCH   5   6
ENDBRANCH   3   5
ENDBRANCH   2   3
ENDBRANCH   1   2
BRANCH   1  27
HETATM   27  C18 UNL     1      -0.456  50.582 -18.277  1.00  0.00     0.185 C 
HETATM   28  O6  UNL     1      -0.730  49.381 -18.179  1.00  0.00    -0.292 OA
BRANCH  27  29
HETATM   29  C19 UNL     1      -1.211  51.512 -19.276  1.00  0.00     0.128 C 
HETATM   30  C20 UNL     1      -0.448  52.841 -19.418  1.00  0.00     0.047 C 
HETATM   31  C21 UNL     1       0.617  52.577 -20.466  1.00  0.00     0.009 C 
HETATM   32  C22 UNL     1       0.025  51.533 -21.431  1.00  0.00     0.002 C 
HETATM   33  C23 UNL     1      -0.156  52.136 -22.851  1.00  0.00    -0.002 C 
HETATM   34  C36 UNL     1      -1.290  51.008 -20.765  1.00  0.00     0.001 C 
HETATM   35  C24 UNL     1       1.187  52.245 -23.569  1.00  0.00     0.010 C 
HETATM   36  C33 UNL     1      -1.165  51.313 -23.687  1.00  0.00     0.031 C 
HETATM   37  C25 UNL     1       1.049  53.041 -24.860  1.00  0.00     0.035 C 
HETATM   38  C26 UNL     1      -0.231  52.795 -25.622  1.00  0.00    -0.068 C 
HETATM   39  C27 UNL     1      -0.536  53.648 -26.620  1.00  0.00     0.053 C 
HETATM   40  C31 UNL     1      -1.084  51.570 -25.266  1.00  0.00    -0.014 C 
HETATM   41  C28 UNL     1      -1.680  53.423 -27.531  1.00  0.00     0.149 C 
HETATM   42  O8  UNL     1      -1.920  54.246 -28.412  1.00  0.00    -0.293 OA
HETATM   43  C29 UNL     1      -2.455  52.141 -27.390  1.00  0.00     0.084 C 
HETATM   44  C30 UNL     1      -2.491  51.710 -25.928  1.00  0.00     0.022 C 
HETATM   45  C32 UNL     1      -0.388  50.338 -25.912  1.00  0.00     0.020 C 
HETATM   46  C34 UNL     1      -2.554  51.466 -23.022  1.00  0.00     0.124 C 
HETATM   47  C35 UNL     1      -2.533  51.601 -21.486  1.00  0.00     0.045 C 
HETATM   48  C37 UNL     1      -1.358  49.472 -20.848  1.00  0.00     0.019 C 
BRANCH  29  49
HETATM   49  O7  UNL     1      -2.505  51.821 -18.765  1.00  0.00    -0.381 OA
HETATM   50  H20 UNL     1      -2.389  52.464 -18.040  1.00  0.00     0.211 HD
ENDBRANCH  29  49
BRANCH  46  51
HETATM   51  O9  UNL     1      -3.399  50.385 -23.406  1.00  0.00    -0.395 OA
HETATM   52  H41 UNL     1      -3.225  49.625 -22.826  1.00  0.00     0.210 HD
ENDBRANCH  46  51
ENDBRANCH  27  29
ENDBRANCH   1  27
TORSDOF 14
ENDMDL
MODEL 4
REMARK minimizedAffinity -9.38826752
REMARK CNNscore 0.42277208
REMARK CNNaffinity 6.57715797
REMARK  14 active torsions:
REMARK  status: ('A' for Active; 'I' for Inactive)
REMARK    1  A    between atoms: O1_2  and  C2_3 
REMARK    2  A    between atoms: C2_3  and  C3_5 
REMARK    3  A    between atoms: C3_5  and  C4_6 
REMARK    4  A    between atoms: C3_5  and  N2_16 
REMARK    5  A    between atoms: C4_6  and  C5_7 
REMARK       I    between atoms: N2_16  and  C13_17 
REMARK    6  A    between atoms: C13_17  and  C14_19 
REMARK    7  A    between atoms: C14_19  and  C15_20 
REMARK    8  A    between atoms: C15_20  and  C16_21 
REMARK    9  A    between atoms: C16_21  and  O5_23 
REMARK   10  A    between atoms: O5_23  and  C17_24 
REMARK   11  A    between atoms: C17_24  and  C18_25 
REMARK   12  A    between atoms: C18_25  and  C19_27 
REMARK   13  A    between atoms: C19_27  and  O7_28 
REMARK   14  A    between atoms: C34_44  and  O9_45 
ROOT
HETATM    1  C17 UNL     1      -3.784  49.088 -17.202  1.00  0.00     0.260 C 
ENDROOT
BRANCH   1   2
HETATM    2  O5  UNL     1      -2.674  49.214 -16.319  1.00  0.00    -0.314 OA
BRANCH   2   3
HETATM    3  C16 UNL     1      -2.578  50.403 -15.660  1.00  0.00     0.259 C 
HETATM    4  O4  UNL     1      -3.050  51.464 -16.044  1.00  0.00    -0.265 OA
BRANCH   3   5
HETATM    5  C15 UNL     1      -1.850  50.233 -14.355  1.00  0.00     0.120 C 
BRANCH   5   6
HETATM    6  C14 UNL     1      -1.401  51.567 -13.781  1.00  0.00     0.112 C 
BRANCH   6   7
HETATM    7  C13 UNL     1      -2.327  52.032 -12.679  1.00  0.00     0.218 C 
HETATM    8  N2  UNL     1      -1.730  52.906 -11.803  1.00  0.00    -0.347 N 
HETATM    9  H13 UNL     1      -0.739  53.106 -11.877  1.00  0.00     0.163 HD
HETATM   10  O3  UNL     1      -3.490  51.665 -12.571  1.00  0.00    -0.274 OA
BRANCH   8  11
HETATM   11  C3  UNL     1      -2.430  53.437 -10.617  1.00  0.00     0.188 C 
BRANCH  11  12
HETATM   12  C2  UNL     1      -2.218  52.496  -9.411  1.00  0.00     0.281 C 
HETATM   13  O2  UNL     1      -1.313  52.576  -8.595  1.00  0.00    -0.263 OA
BRANCH  12  14
HETATM   14  O1  UNL     1      -3.189  51.528  -9.371  1.00  0.00    -0.325 OA
HETATM   15  C1  UNL     1      -2.686  50.214  -9.117  1.00  0.00     0.213 C 
ENDBRANCH  12  14
ENDBRANCH  11  12
BRANCH  11  16
HETATM   16  C4  UNL     1      -1.925  54.849 -10.284  1.00  0.00     0.076 C 
BRANCH  16  17
HETATM   17  C5  UNL     1      -0.430  54.952 -10.219  1.00  0.00    -0.028 A 
HETATM   18  C6  UNL     1       0.469  54.459 -11.143  1.00  0.00     0.096 A 
HETATM   19  N1  UNL     1       1.734  54.752 -10.712  1.00  0.00    -0.365 N 
HETATM   20  C7  UNL     1       1.686  55.440  -9.524  1.00  0.00     0.042 A 
HETATM   21  H8  UNL     1       2.586  54.497 -11.191  1.00  0.00     0.165 HD
HETATM   22  C8  UNL     1       2.724  55.939  -8.729  1.00  0.00     0.030 A 
HETATM   23  C12 UNL     1       0.339  55.581  -9.186  1.00  0.00    -0.002 A 
HETATM   24  C9  UNL     1       2.373  56.609  -7.554  1.00  0.00     0.002 A 
HETATM   25  C10 UNL     1       1.039  56.769  -7.189  1.00  0.00     0.001 A 
HETATM   26  C11 UNL     1       0.014  56.258  -7.993  1.00  0.00     0.014 A 
ENDBRANCH  16  17
ENDBRANCH  11  16
ENDBRANCH   8  11
ENDBRANCH   6   7
ENDBRANCH   5   6
ENDBRANCH   3   5
ENDBRANCH   2   3
ENDBRANCH   1   2
BRANCH   1  27
HETATM   27  C18 UNL     1      -3.509  48.272 -18.467  1.00  0.00     0.185 C 
HETATM   28  O6  UNL     1      -4.376  47.496 -18.884  1.00  0.00    -0.292 OA
BRANCH  27  29
HETATM   29  C19 UNL     1      -2.168  48.483 -19.235  1.00  0.00     0.128 C 
HETATM   30  C20 UNL     1      -1.960  47.330 -20.232  1.00  0.00     0.047 C 
HETATM   31  C21 UNL     1      -2.736  47.731 -21.473  1.00  0.00     0.009 C 
HETATM   32  C22 UNL     1      -2.685  49.269 -21.534  1.00  0.00     0.002 C 
HETATM   33  C23 UNL     1      -1.901  49.744 -22.788  1.00  0.00    -0.002 C 
HETATM   34  C36 UNL     1      -2.098  49.750 -20.167  1.00  0.00     0.001 C 
HETATM   35  C24 UNL     1      -2.744  49.579 -24.050  1.00  0.00     0.010 C 
HETATM   36  C33 UNL     1      -1.421  51.206 -22.630  1.00  0.00     0.031 C 
HETATM   37  C25 UNL     1      -1.906  49.825 -25.298  1.00  0.00     0.035 C 
HETATM   38  C26 UNL     1      -0.891  50.935 -25.171  1.00  0.00    -0.068 C 
HETATM   39  C27 UNL     1       0.052  51.030 -26.130  1.00  0.00     0.053 C 
HETATM   40  C31 UNL     1      -1.012  51.923 -24.004  1.00  0.00    -0.014 C 
HETATM   41  C28 UNL     1       1.004  52.161 -26.195  1.00  0.00     0.149 C 
HETATM   42  O8  UNL     1       1.853  52.184 -27.082  1.00  0.00    -0.293 OA
HETATM   43  C29 UNL     1       0.832  53.287 -25.211  1.00  0.00     0.084 C 
HETATM   44  C30 UNL     1       0.310  52.746 -23.884  1.00  0.00     0.022 C 
HETATM   45  C32 UNL     1      -2.147  52.918 -24.375  1.00  0.00     0.020 C 
HETATM   46  C34 UNL     1      -0.377  51.232 -21.488  1.00  0.00     0.124 C 
HETATM   47  C35 UNL     1      -0.628  50.224 -20.349  1.00  0.00     0.045 C 
HETATM   48  C37 UNL     1      -2.927  50.921 -19.607  1.00  0.00     0.019 C 
BRANCH  29  49
HETATM   49  O7  UNL     1      -1.077  48.453 -18.319  1.00  0.00    -0.381 OA
HETATM   50  H20 UNL     1      -0.939  47.523 -18.057  1.00  0.00     0.211 HD
ENDBRANCH  29  49
BRANCH  46  51
HETATM   51  O9  UNL     1      -0.269  52.551 -20.957  1.00  0.00    -0.395 OA
HETATM   52  H41 UNL     1      -0.969  52.685 -20.297  1.00  0.00     0.210 HD
ENDBRANCH  46  51
ENDBRANCH  27  29
ENDBRANCH   1  27
TORSDOF 14
ENDMDL
MODEL 5
REMARK minimizedAffinity -9.46748638
REMARK CNNscore 0.418870181
REMARK CNNaffinity 6.99842453
REMARK  14 active torsions:
REMARK  status: ('A' for Active; 'I' for Inactive)
REMARK    1  A    between atoms: O1_2  and  C2_3 
REMARK    2  A    between atoms: C2_3  and  C3_5 
REMARK    3  A    between atoms: C3_5  and  C4_6 
REMARK    4  A    between atoms: C3_5  and  N2_16 
REMARK    5  A    between atoms: C4_6  and  C5_7 
REMARK       I    between atoms: N2_16  and  C13_17 
REMARK    6  A    between atoms: C13_17  and  C14_19 
REMARK    7  A    between atoms: C14_19  and  C15_20 
REMARK    8  A    between atoms: C15_20  and  C16_21 
REMARK    9  A    between atoms: C16_21  and  O5_23 
REMARK   10  A    between atoms: O5_23  and  C17_24 
REMARK   11  A    between atoms: C17_24  and  C18_25 
REMARK   12  A    between atoms: C18_25  and  C19_27 
REMARK   13  A    between atoms: C19_27  and  O7_28 
REMARK   14  A    between atoms: C34_44  and  O9_45 
ROOT
HETATM    1  C17 UNL     1      -5.168  47.612 -29.281  1.00  0.00     0.260 C 
ENDROOT
BRANCH   1   2
HETATM    2  O5  UNL     1      -4.989  48.208 -27.999  1.00  0.00    -0.314 OA
BRANCH   2   3
HETATM    3  C16 UNL     1      -3.909  49.030 -27.878  1.00  0.00     0.259 C 
HETATM    4  O4  UNL     1      -3.572  49.879 -28.691  1.00  0.00    -0.265 OA
BRANCH   3   5
HETATM    5  C15 UNL     1      -3.201  48.792 -26.572  1.00  0.00     0.120 C 
BRANCH   5   6
HETATM    6  C14 UNL     1      -4.172  48.421 -25.463  1.00  0.00     0.112 C 
BRANCH   6   7
HETATM    7  C13 UNL     1      -4.168  49.455 -24.359  1.00  0.00     0.218 C 
HETATM    8  N2  UNL     1      -3.103  50.320 -24.432  1.00  0.00    -0.347 N 
HETATM    9  H13 UNL     1      -2.370  50.172 -25.116  1.00  0.00     0.163 HD
HETATM   10  O3  UNL     1      -5.023  49.516 -23.485  1.00  0.00    -0.274 OA
BRANCH   8  11
HETATM   11  C3  UNL     1      -2.869  51.370 -23.421  1.00  0.00     0.188 C 
BRANCH  11  12
HETATM   12  C2  UNL     1      -2.019  50.808 -22.261  1.00  0.00     0.281 C 
HETATM   13  O2  UNL     1      -1.150  49.954 -22.362  1.00  0.00    -0.263 OA
BRANCH  12  14
HETATM   14  O1  UNL     1      -2.371  51.389 -21.070  1.00  0.00    -0.325 OA
HETATM   15  C1  UNL     1      -3.528  50.810 -20.463  1.00  0.00     0.213 C 
ENDBRANCH  12  14
ENDBRANCH  11  12
BRANCH  11  16
HETATM   16  C4  UNL     1      -2.165  52.579 -24.057  1.00  0.00     0.076 C 
BRANCH  16  17
HETATM   17  C5  UNL     1      -1.788  52.368 -25.492  1.00  0.00    -0.028 A 
HETATM   18  C6  UNL     1      -2.641  52.384 -26.578  1.00  0.00     0.096 A 
HETATM   19  N1  UNL     1      -1.907  52.141 -27.706  1.00  0.00    -0.365 N 
HETATM   20  C7  UNL     1      -0.581  51.974 -27.387  1.00  0.00     0.042 A 
HETATM   21  H8  UNL     1      -2.281  52.084 -28.643  1.00  0.00     0.165 HD
HETATM   22  C8  UNL     1       0.519  51.712 -28.211  1.00  0.00     0.030 A 
HETATM   23  C12 UNL     1      -0.473  52.110 -26.002  1.00  0.00    -0.002 A 
HETATM   24  C9  UNL     1       1.770  51.590 -27.600  1.00  0.00     0.002 A 
HETATM   25  C10 UNL     1       1.912  51.723 -26.222  1.00  0.00     0.001 A 
HETATM   26  C11 UNL     1       0.801  51.979 -25.411  1.00  0.00     0.014 A 
ENDBRANCH  16  17
ENDBRANCH  11  16
ENDBRANCH   8  11
ENDBRANCH   6   7
ENDBRANCH   5   6
ENDBRANCH   3   5
ENDBRANCH   2   3
ENDBRANCH   1   2
BRANCH   1  27
HETATM   27  C18 UNL     1      -6.544  47.843 -29.909  1.00  0.00     0.185 C 
HETATM   28  O6  UNL     1      -7.399  48.470 -29.275  1.00  0.00    -0.292 OA
BRANCH  27  29
HETATM   29  C19 UNL     1      -6.815  47.335 -31.359  1.00  0.00     0.128 C 
HETATM   30  C20 UNL     1      -5.550  47.528 -32.216  1.00  0.00     0.047 C 
HETATM   31  C21 UNL     1      -4.695  46.304 -31.944  1.00  0.00     0.009 C 
HETATM   32  C22 UNL     1      -5.673  45.149 -31.660  1.00  0.00     0.002 C 
HETATM   33  C23 UNL     1      -5.563  44.053 -32.755  1.00  0.00    -0.002 C 
HETATM   34  C36 UNL     1      -7.090  45.792 -31.510  1.00  0.00     0.001 C 
HETATM   35  C24 UNL     1      -4.298  43.219 -32.563  1.00  0.00     0.010 C 
HETATM   36  C33 UNL     1      -6.821  43.153 -32.778  1.00  0.00     0.031 C 
HETATM   37  C25 UNL     1      -4.067  42.301 -33.756  1.00  0.00     0.035 C 
HETATM   38  C26 UNL     1      -5.322  41.702 -34.347  1.00  0.00    -0.068 C 
HETATM   39  C27 UNL     1      -5.219  41.101 -35.549  1.00  0.00     0.053 C 
HETATM   40  C31 UNL     1      -6.623  41.755 -33.536  1.00  0.00    -0.014 C 
HETATM   41  C28 UNL     1      -6.340  40.350 -36.157  1.00  0.00     0.149 C 
HETATM   42  O8  UNL     1      -6.193  39.839 -37.264  1.00  0.00    -0.293 OA
HETATM   43  C29 UNL     1      -7.594  40.173 -35.344  1.00  0.00     0.084 C 
HETATM   44  C30 UNL     1      -7.826  41.397 -34.465  1.00  0.00     0.022 C 
HETATM   45  C32 UNL     1      -6.523  40.641 -32.456  1.00  0.00     0.020 C 
HETATM   46  C34 UNL     1      -8.013  44.032 -33.229  1.00  0.00     0.124 C 
HETATM   47  C35 UNL     1      -7.949  45.504 -32.774  1.00  0.00     0.045 C 
HETATM   48  C37 UNL     1      -7.815  45.216 -30.280  1.00  0.00     0.019 C 
BRANCH  29  49
HETATM   49  O7  UNL     1      -7.852  48.107 -31.957  1.00  0.00    -0.381 OA
HETATM   50  H20 UNL     1      -7.475  48.978 -32.185  1.00  0.00     0.211 HD
ENDBRANCH  29  49
BRANCH  46  51
HETATM   51  O9  UNL     1      -9.239  43.442 -32.805  1.00  0.00    -0.395 OA
HETATM   52  H41 UNL     1      -9.415  43.705 -31.886  1.00  0.00     0.210 HD
ENDBRANCH  46  51
ENDBRANCH  27  29
ENDBRANCH   1  27
TORSDOF 14
ENDMDL
MODEL 6
REMARK minimizedAffinity -9.07218361
REMARK CNNscore 0.377446949
REMARK CNNaffinity 7.05680847
REMARK  14 active torsions:
REMARK  status: ('A' for Active; 'I' for Inactive)
REMARK    1  A    between atoms: O1_2  and  C2_3 
REMARK    2  A    between atoms: C2_3  and  C3_5 
REMARK    3  A    between atoms: C3_5  and  C4_6 
REMARK    4  A    between atoms: C3_5  and  N2_16 
REMARK    5  A    between atoms: C4_6  and  C5_7 
REMARK       I    between atoms: N2_16  and  C13_17 
REMARK    6  A    between atoms: C13_17  and  C14_19 
REMARK    7  A    between atoms: C14_19  and  C15_20 
REMARK    8  A    between atoms: C15_20  and  C16_21 
REMARK    9  A    between atoms: C16_21  and  O5_23 
REMARK   10  A    between atoms: O5_23  and  C17_24 
REMARK   11  A    between atoms: C17_24  and  C18_25 
REMARK   12  A    between atoms: C18_25  and  C19_27 
REMARK   13  A    between atoms: C19_27  and  O7_28 
REMARK   14  A    between atoms: C34_44  and  O9_45 
ROOT
HETATM    1  C17 UNL     1      -0.077  50.358 -17.546  1.00  0.00     0.260 C 
ENDROOT
BRANCH   1   2
HETATM    2  O5  UNL     1      -0.500  50.914 -16.304  1.00  0.00    -0.314 OA
BRANCH   2   3
HETATM    3  C16 UNL     1       0.465  51.559 -15.590  1.00  0.00     0.259 C 
HETATM    4  O4  UNL     1       1.561  51.891 -16.020  1.00  0.00    -0.265 OA
BRANCH   3   5
HETATM    5  C15 UNL     1      -0.015  51.862 -14.197  1.00  0.00     0.120 C 
BRANCH   5   6
HETATM    6  C14 UNL     1       1.132  52.242 -13.275  1.00  0.00     0.112 C 
BRANCH   6   7
HETATM    7  C13 UNL     1       0.662  52.395 -11.845  1.00  0.00     0.218 C 
HETATM    8  N2  UNL     1       0.246  53.670 -11.546  1.00  0.00    -0.347 N 
HETATM    9  H13 UNL     1       0.360  54.416 -12.222  1.00  0.00     0.163 HD
HETATM   10  O3  UNL     1       0.655  51.479 -11.033  1.00  0.00    -0.274 OA
BRANCH   8  11
HETATM   11  C3  UNL     1      -0.195  54.059 -10.192  1.00  0.00     0.188 C 
BRANCH  11  12
HETATM   12  C2  UNL     1       0.763  55.118  -9.606  1.00  0.00     0.281 C 
HETATM   13  O2  UNL     1       0.521  55.855  -8.662  1.00  0.00    -0.263 OA
BRANCH  12  14
HETATM   14  O1  UNL     1       1.948  55.140 -10.297  1.00  0.00    -0.325 OA
HETATM   15  C1  UNL     1       3.052  55.636  -9.537  1.00  0.00     0.213 C 
ENDBRANCH  12  14
ENDBRANCH  11  12
BRANCH  11  16
HETATM   16  C4  UNL     1      -1.630  54.605 -10.232  1.00  0.00     0.076 C 
BRANCH  16  17
HETATM   17  C5  UNL     1      -2.670  53.547 -10.448  1.00  0.00    -0.028 A 
HETATM   18  C6  UNL     1      -3.738  53.610 -11.322  1.00  0.00     0.096 A 
HETATM   19  N1  UNL     1      -4.453  52.449 -11.212  1.00  0.00    -0.365 N 
HETATM   20  C7  UNL     1      -3.871  51.616 -10.287  1.00  0.00     0.042 A 
HETATM   21  H8  UNL     1      -5.293  52.232 -11.729  1.00  0.00     0.165 HD
HETATM   22  C8  UNL     1      -4.253  50.339  -9.858  1.00  0.00     0.030 A 
HETATM   23  C12 UNL     1      -2.748  52.277  -9.788  1.00  0.00    -0.002 A 
HETATM   24  C9  UNL     1      -3.458  49.719  -8.890  1.00  0.00     0.002 A 
HETATM   25  C10 UNL     1      -2.330  50.351  -8.374  1.00  0.00     0.001 A 
HETATM   26  C11 UNL     1      -1.966  51.629  -8.810  1.00  0.00     0.014 A 
ENDBRANCH  16  17
ENDBRANCH  11  16
ENDBRANCH   8  11
ENDBRANCH   6   7
ENDBRANCH   5   6
ENDBRANCH   3   5
ENDBRANCH   2   3
ENDBRANCH   1   2
BRANCH   1  27
HETATM   27  C18 UNL     1      -1.169  49.623 -18.325  1.00  0.00     0.185 C 
HETATM   28  O6  UNL     1      -1.426  48.448 -18.040  1.00  0.00    -0.292 OA
BRANCH  27  29
HETATM   29  C19 UNL     1      -1.973  50.390 -19.420  1.00  0.00     0.128 C 
HETATM   30  C20 UNL     1      -1.759  51.905 -19.246  1.00  0.00     0.047 C 
HETATM   31  C21 UNL     1      -0.466  52.210 -19.979  1.00  0.00     0.009 C 
HETATM   32  C22 UNL     1      -0.384  51.208 -21.145  1.00  0.00     0.002 C 
HETATM   33  C23 UNL     1      -0.453  51.945 -22.511  1.00  0.00    -0.002 C 
HETATM   34  C36 UNL     1      -1.515  50.154 -20.907  1.00  0.00     0.001 C 
HETATM   35  C24 UNL     1       0.874  52.634 -22.822  1.00  0.00     0.010 C 
HETATM   36  C33 UNL     1      -0.856  50.980 -23.651  1.00  0.00     0.031 C 
HETATM   37  C25 UNL     1       0.741  53.542 -24.038  1.00  0.00     0.035 C 
HETATM   38  C26 UNL     1      -0.141  53.003 -25.138  1.00  0.00    -0.068 C 
HETATM   39  C27 UNL     1      -0.512  53.855 -26.114  1.00  0.00     0.053 C 
HETATM   40  C31 UNL     1      -0.523  51.517 -25.123  1.00  0.00    -0.014 C 
HETATM   41  C28 UNL     1      -1.247  53.409 -27.318  1.00  0.00     0.149 C 
HETATM   42  O8  UNL     1      -1.574  54.236 -28.166  1.00  0.00    -0.293 OA
HETATM   43  C29 UNL     1      -1.488  51.934 -27.492  1.00  0.00     0.084 C 
HETATM   44  C30 UNL     1      -1.689  51.273 -26.133  1.00  0.00     0.022 C 
HETATM   45  C32 UNL     1       0.714  50.732 -25.645  1.00  0.00     0.020 C 
HETATM   46  C34 UNL     1      -2.312  50.527 -23.383  1.00  0.00     0.124 C 
HETATM   47  C35 UNL     1      -2.691  50.394 -21.894  1.00  0.00     0.045 C 
HETATM   48  C37 UNL     1      -0.975  48.728 -21.122  1.00  0.00     0.019 C 
BRANCH  29  49
HETATM   49  O7  UNL     1      -3.367  50.139 -19.261  1.00  0.00    -0.381 OA
HETATM   50  H20 UNL     1      -3.671  50.648 -18.486  1.00  0.00     0.211 HD
ENDBRANCH  29  49
BRANCH  46  51
HETATM   51  O9  UNL     1      -2.573  49.303 -24.065  1.00  0.00    -0.395 OA
HETATM   52  H41 UNL     1      -2.260  48.563 -23.518  1.00  0.00     0.210 HD
ENDBRANCH  46  51
ENDBRANCH  27  29
ENDBRANCH   1  27
TORSDOF 14
ENDMDL
MODEL 7
REMARK minimizedAffinity -9.6792841
REMARK CNNscore 0.36571905
REMARK CNNaffinity 7.54716349
REMARK  14 active torsions:
REMARK  status: ('A' for Active; 'I' for Inactive)
REMARK    1  A    between atoms: O1_2  and  C2_3 
REMARK    2  A    between atoms: C2_3  and  C3_5 
REMARK    3  A    between atoms: C3_5  and  C4_6 
REMARK    4  A    between atoms: C3_5  and  N2_16 
REMARK    5  A    between atoms: C4_6  and  C5_7 
REMARK       I    between atoms: N2_16  and  C13_17 
REMARK    6  A    between atoms: C13_17  and  C14_19 
REMARK    7  A    between atoms: C14_19  and  C15_20 
REMARK    8  A    between atoms: C15_20  and  C16_21 
REMARK    9  A    between atoms: C16_21  and  O5_23 
REMARK   10  A    between atoms: O5_23  and  C17_24 
REMARK   11  A    between atoms: C17_24  and  C18_25 
REMARK   12  A    between atoms: C18_25  and  C19_27 
REMARK   13  A    between atoms: C19_27  and  O7_28 
REMARK   14  A    between atoms: C34_44  and  O9_45 
ROOT
HETATM    1  C17 UNL     1      -3.653  50.474 -20.701  1.00  0.00     0.260 C 
ENDROOT
BRANCH   1   2
HETATM    2  O5  UNL     1      -4.427  49.286 -20.559  1.00  0.00    -0.314 OA
BRANCH   2   3
HETATM    3  C16 UNL     1      -4.814  48.693 -21.722  1.00  0.00     0.259 C 
HETATM    4  O4  UNL     1      -5.786  49.015 -22.391  1.00  0.00    -0.265 OA
BRANCH   3   5
HETATM    5  C15 UNL     1      -3.851  47.606 -22.114  1.00  0.00     0.120 C 
BRANCH   5   6
HETATM    6  C14 UNL     1      -2.526  48.173 -22.596  1.00  0.00     0.112 C 
BRANCH   6   7
HETATM    7  C13 UNL     1      -2.667  48.820 -23.957  1.00  0.00     0.218 C 
HETATM    8  N2  UNL     1      -1.930  49.972 -24.086  1.00  0.00    -0.347 N 
HETATM    9  H13 UNL     1      -1.441  50.359 -23.287  1.00  0.00     0.163 HD
HETATM   10  O3  UNL     1      -3.368  48.368 -24.853  1.00  0.00    -0.274 OA
BRANCH   8  11
HETATM   11  C3  UNL     1      -1.968  50.800 -25.309  1.00  0.00     0.188 C 
BRANCH  11  12
HETATM   12  C2  UNL     1      -2.758  52.100 -25.045  1.00  0.00     0.281 C 
HETATM   13  O2  UNL     1      -2.287  53.150 -24.634  1.00  0.00    -0.263 OA
BRANCH  12  14
HETATM   14  O1  UNL     1      -4.089  51.928 -25.326  1.00  0.00    -0.325 OA
HETATM   15  C1  UNL     1      -4.935  51.976 -24.175  1.00  0.00     0.213 C 
ENDBRANCH  12  14
ENDBRANCH  11  12
BRANCH  11  16
HETATM   16  C4  UNL     1      -0.542  51.130 -25.776  1.00  0.00     0.076 C 
BRANCH  16  17
HETATM   17  C5  UNL     1      -0.075  52.493 -25.360  1.00  0.00    -0.028 A 
HETATM   18  C6  UNL     1      -0.057  53.630 -26.144  1.00  0.00     0.096 A 
HETATM   19  N1  UNL     1       0.448  54.659 -25.397  1.00  0.00    -0.365 N 
HETATM   20  C7  UNL     1       0.756  54.224 -24.130  1.00  0.00     0.042 A 
HETATM   21  H8  UNL     1       0.585  55.604 -25.726  1.00  0.00     0.165 HD
HETATM   22  C8  UNL     1       1.287  54.924 -23.041  1.00  0.00     0.030 A 
HETATM   23  C12 UNL     1       0.438  52.866 -24.075  1.00  0.00    -0.002 A 
HETATM   24  C9  UNL     1       1.497  54.213 -21.857  1.00  0.00     0.002 A 
HETATM   25  C10 UNL     1       1.190  52.858 -21.768  1.00  0.00     0.001 A 
HETATM   26  C11 UNL     1       0.664  52.172 -22.869  1.00  0.00     0.014 A 
ENDBRANCH  16  17
ENDBRANCH  11  16
ENDBRANCH   8  11
ENDBRANCH   6   7
ENDBRANCH   5   6
ENDBRANCH   3   5
ENDBRANCH   2   3
ENDBRANCH   1   2
BRANCH   1  27
HETATM   27  C18 UNL     1      -2.917  50.917 -19.435  1.00  0.00     0.185 C 
HETATM   28  O6  UNL     1      -3.274  51.952 -18.862  1.00  0.00    -0.292 OA
BRANCH  27  29
HETATM   29  C19 UNL     1      -1.775  50.021 -18.864  1.00  0.00     0.128 C 
HETATM   30  C20 UNL     1      -0.466  50.317 -19.616  1.00  0.00     0.047 C 
HETATM   31  C21 UNL     1       0.130  51.526 -18.918  1.00  0.00     0.009 C 
HETATM   32  C22 UNL     1      -0.300  51.428 -17.443  1.00  0.00     0.002 C 
HETATM   33  C23 UNL     1       0.934  51.229 -16.522  1.00  0.00    -0.002 C 
HETATM   34  C36 UNL     1      -1.371  50.290 -17.366  1.00  0.00     0.001 C 
HETATM   35  C24 UNL     1       1.706  52.537 -16.358  1.00  0.00     0.010 C 
HETATM   36  C33 UNL     1       0.523  50.654 -15.146  1.00  0.00     0.031 C 
HETATM   37  C25 UNL     1       3.033  52.299 -15.651  1.00  0.00     0.035 C 
HETATM   38  C26 UNL     1       2.987  51.270 -14.546  1.00  0.00    -0.068 C 
HETATM   39  C27 UNL     1       4.162  50.822 -14.062  1.00  0.00     0.053 C 
HETATM   40  C31 UNL     1       1.624  50.832 -13.995  1.00  0.00    -0.014 C 
HETATM   41  C28 UNL     1       4.245  49.932 -12.883  1.00  0.00     0.149 C 
HETATM   42  O8  UNL     1       5.345  49.542 -12.498  1.00  0.00    -0.293 OA
HETATM   43  C29 UNL     1       2.971  49.611 -12.149  1.00  0.00     0.084 C 
HETATM   44  C30 UNL     1       1.805  49.546 -13.129  1.00  0.00     0.022 C 
HETATM   45  C32 UNL     1       1.138  51.965 -13.048  1.00  0.00     0.020 C 
HETATM   46  C34 UNL     1      -0.017  49.222 -15.384  1.00  0.00     0.124 C 
HETATM   47  C35 UNL     1      -0.757  49.016 -16.721  1.00  0.00     0.045 C 
HETATM   48  C37 UNL     1      -2.575  50.741 -16.518  1.00  0.00     0.019 C 
BRANCH  29  49
HETATM   49  O7  UNL     1      -2.085  48.647 -19.078  1.00  0.00    -0.381 OA
HETATM   50  H20 UNL     1      -1.945  48.459 -20.025  1.00  0.00     0.211 HD
ENDBRANCH  29  49
BRANCH  46  51
HETATM   51  O9  UNL     1      -0.853  48.832 -14.297  1.00  0.00    -0.395 OA
HETATM   52  H41 UNL     1      -1.749  49.176 -14.447  1.00  0.00     0.210 HD
ENDBRANCH  46  51
ENDBRANCH  27  29
ENDBRANCH   1  27
TORSDOF 14
ENDMDL
MODEL 8
REMARK minimizedAffinity -9.64433956
REMARK CNNscore 0.363640934
REMARK CNNaffinity 6.69170141
REMARK  14 active torsions:
REMARK  status: ('A' for Active; 'I' for Inactive)
REMARK    1  A    between atoms: O1_2  and  C2_3 
REMARK    2  A    between atoms: C2_3  and  C3_5 
REMARK    3  A    between atoms: C3_5  and  C4_6 
REMARK    4  A    between atoms: C3_5  and  N2_16 
REMARK    5  A    between atoms: C4_6  and  C5_7 
REMARK       I    between atoms: N2_16  and  C13_17 
REMARK    6  A    between atoms: C13_17  and  C14_19 
REMARK    7  A    between atoms: C14_19  and  C15_20 
REMARK    8  A    between atoms: C15_20  and  C16_21 
REMARK    9  A    between atoms: C16_21  and  O5_23 
REMARK   10  A    between atoms: O5_23  and  C17_24 
REMARK   11  A    between atoms: C17_24  and  C18_25 
REMARK   12  A    between atoms: C18_25  and  C19_27 
REMARK   13  A    between atoms: C19_27  and  O7_28 
REMARK   14  A    between atoms: C34_44  and  O9_45 
ROOT
HETATM    1  C17 UNL     1      -6.776  46.858 -28.457  1.00  0.00     0.260 C 
ENDROOT
BRANCH   1   2
HETATM    2  O5  UNL     1      -6.141  48.022 -27.937  1.00  0.00    -0.314 OA
BRANCH   2   3
HETATM    3  C16 UNL     1      -4.898  48.284 -28.430  1.00  0.00     0.259 C 
HETATM    4  O4  UNL     1      -4.620  48.420 -29.613  1.00  0.00    -0.265 OA
BRANCH   3   5
HETATM    5  C15 UNL     1      -3.902  48.438 -27.312  1.00  0.00     0.120 C 
BRANCH   5   6
HETATM    6  C14 UNL     1      -3.229  49.800 -27.341  1.00  0.00     0.112 C 
BRANCH   6   7
HETATM    7  C13 UNL     1      -2.390  50.025 -26.101  1.00  0.00     0.218 C 
HETATM    8  N2  UNL     1      -1.583  51.134 -26.189  1.00  0.00    -0.347 N 
HETATM    9  H13 UNL     1      -1.520  51.653 -27.056  1.00  0.00     0.163 HD
HETATM   10  O3  UNL     1      -2.422  49.294 -25.120  1.00  0.00    -0.274 OA
BRANCH   8  11
HETATM   11  C3  UNL     1      -0.637  51.507 -25.119  1.00  0.00     0.188 C 
BRANCH  11  12
HETATM   12  C2  UNL     1       0.647  52.105 -25.732  1.00  0.00     0.281 C 
HETATM   13  O2  UNL     1       1.666  51.485 -26.000  1.00  0.00    -0.263 OA
BRANCH  12  14
HETATM   14  O1  UNL     1       0.509  53.453 -25.938  1.00  0.00    -0.325 OA
HETATM   15  C1  UNL     1       0.049  53.795 -27.248  1.00  0.00     0.213 C 
ENDBRANCH  12  14
ENDBRANCH  11  12
BRANCH  11  16
HETATM   16  C4  UNL     1      -1.285  52.515 -24.158  1.00  0.00     0.076 C 
BRANCH  16  17
HETATM   17  C5  UNL     1      -1.229  52.095 -22.720  1.00  0.00    -0.028 A 
HETATM   18  C6  UNL     1      -2.056  51.180 -22.098  1.00  0.00     0.096 A 
HETATM   19  N1  UNL     1      -1.683  51.086 -20.784  1.00  0.00    -0.365 N 
HETATM   20  C7  UNL     1      -0.619  51.917 -20.530  1.00  0.00     0.042 A 
HETATM   21  H8  UNL     1      -2.128  50.498 -20.094  1.00  0.00     0.165 HD
HETATM   22  C8  UNL     1       0.085  52.141 -19.341  1.00  0.00     0.030 A 
HETATM   23  C12 UNL     1      -0.310  52.565 -21.726  1.00  0.00    -0.002 A 
HETATM   24  C9  UNL     1       1.141  53.056 -19.378  1.00  0.00     0.002 A 
HETATM   25  C10 UNL     1       1.476  53.718 -20.556  1.00  0.00     0.001 A 
HETATM   26  C11 UNL     1       0.759  53.486 -21.734  1.00  0.00     0.014 A 
ENDBRANCH  16  17
ENDBRANCH  11  16
ENDBRANCH   8  11
ENDBRANCH   6   7
ENDBRANCH   5   6
ENDBRANCH   3   5
ENDBRANCH   2   3
ENDBRANCH   1   2
BRANCH   1  27
HETATM   27  C18 UNL     1      -7.942  47.132 -29.408  1.00  0.00     0.185 C 
HETATM   28  O6  UNL     1      -7.865  46.751 -30.581  1.00  0.00    -0.292 OA
BRANCH  27  29
HETATM   29  C19 UNL     1      -9.225  47.831 -28.861  1.00  0.00     0.128 C 
HETATM   30  C20 UNL     1     -10.247  47.995 -30.000  1.00  0.00     0.047 C 
HETATM   31  C21 UNL     1     -10.990  46.673 -30.061  1.00  0.00     0.009 C 
HETATM   32  C22 UNL     1     -11.016  46.126 -28.623  1.00  0.00     0.002 C 
HETATM   33  C23 UNL     1     -12.472  46.059 -28.086  1.00  0.00    -0.002 C 
HETATM   34  C36 UNL     1     -10.046  47.024 -27.787  1.00  0.00     0.001 C 
HETATM   35  C24 UNL     1     -13.224  44.880 -28.700  1.00  0.00     0.010 C 
HETATM   36  C33 UNL     1     -12.499  45.988 -26.541  1.00  0.00     0.031 C 
HETATM   37  C25 UNL     1     -14.706  44.944 -28.358  1.00  0.00     0.035 C 
HETATM   38  C26 UNL     1     -15.014  45.430 -26.962  1.00  0.00    -0.068 C 
HETATM   39  C27 UNL     1     -16.292  45.760 -26.685  1.00  0.00     0.053 C 
HETATM   40  C31 UNL     1     -13.886  45.472 -25.924  1.00  0.00    -0.014 C 
HETATM   41  C28 UNL     1     -16.741  46.104 -25.318  1.00  0.00     0.149 C 
HETATM   42  O8  UNL     1     -17.915  46.414 -25.129  1.00  0.00    -0.293 OA
HETATM   43  C29 UNL     1     -15.749  45.974 -24.194  1.00  0.00     0.084 C 
HETATM   44  C30 UNL     1     -14.348  46.312 -24.692  1.00  0.00     0.022 C 
HETATM   45  C32 UNL     1     -13.672  44.011 -25.436  1.00  0.00     0.020 C 
HETATM   46  C34 UNL     1     -11.951  47.332 -26.004  1.00  0.00     0.124 C 
HETATM   47  C35 UNL     1     -10.855  47.984 -26.871  1.00  0.00     0.045 C 
HETATM   48  C37 UNL     1      -9.134  46.152 -26.903  1.00  0.00     0.019 C 
BRANCH  29  49
HETATM   49  O7  UNL     1      -8.902  49.136 -28.391  1.00  0.00    -0.381 OA
HETATM   50  H20 UNL     1      -8.761  49.703 -29.173  1.00  0.00     0.211 HD
ENDBRANCH  29  49
BRANCH  46  51
HETATM   51  O9  UNL     1     -11.483  47.167 -24.667  1.00  0.00    -0.395 OA
HETATM   52  H41 UNL     1     -10.574  46.825 -24.691  1.00  0.00     0.210 HD
ENDBRANCH  46  51
ENDBRANCH  27  29
ENDBRANCH   1  27
TORSDOF 14
ENDMDL
MODEL 9
REMARK minimizedAffinity -8.62037849
REMARK CNNscore 0.360305786
REMARK CNNaffinity 5.71562529
REMARK  14 active torsions:
REMARK  status: ('A' for Active; 'I' for Inactive)
REMARK    1  A    between atoms: O1_2  and  C2_3 
REMARK    2  A    between atoms: C2_3  and  C3_5 
REMARK    3  A    between atoms: C3_5  and  C4_6 
REMARK    4  A    between atoms: C3_5  and  N2_16 
REMARK    5  A    between atoms: C4_6  and  C5_7 
REMARK       I    between atoms: N2_16  and  C13_17 
REMARK    6  A    between atoms: C13_17  and  C14_19 
REMARK    7  A    between atoms: C14_19  and  C15_20 
REMARK    8  A    between atoms: C15_20  and  C16_21 
REMARK    9  A    between atoms: C16_21  and  O5_23 
REMARK   10  A    between atoms: O5_23  and  C17_24 
REMARK   11  A    between atoms: C17_24  and  C18_25 
REMARK   12  A    between atoms: C18_25  and  C19_27 
REMARK   13  A    between atoms: C19_27  and  O7_28 
REMARK   14  A    between atoms: C34_44  and  O9_45 
ROOT
HETATM    1  C17 UNL     1     -10.606  46.426 -21.125  1.00  0.00     0.260 C 
ENDROOT
BRANCH   1   2
HETATM    2  O5  UNL     1     -11.254  45.802 -22.229  1.00  0.00    -0.314 OA
BRANCH   2   3
HETATM    3  C16 UNL     1     -12.034  46.617 -22.992  1.00  0.00     0.259 C 
HETATM    4  O4  UNL     1     -11.753  47.020 -24.113  1.00  0.00    -0.265 OA
BRANCH   3   5
HETATM    5  C15 UNL     1     -13.330  46.924 -22.293  1.00  0.00     0.120 C 
BRANCH   5   6
HETATM    6  C14 UNL     1     -14.456  46.020 -22.769  1.00  0.00     0.112 C 
BRANCH   6   7
HETATM    7  C13 UNL     1     -15.427  46.770 -23.654  1.00  0.00     0.218 C 
HETATM    8  N2  UNL     1     -16.501  46.009 -24.045  1.00  0.00    -0.347 N 
HETATM    9  H13 UNL     1     -16.537  45.021 -23.820  1.00  0.00     0.163 HD
HETATM   10  O3  UNL     1     -15.273  47.937 -23.992  1.00  0.00    -0.274 OA
BRANCH   8  11
HETATM   11  C3  UNL     1     -17.540  46.520 -24.961  1.00  0.00     0.188 C 
BRANCH  11  12
HETATM   12  C2  UNL     1     -17.860  45.465 -26.041  1.00  0.00     0.281 C 
HETATM   13  O2  UNL     1     -18.802  45.503 -26.819  1.00  0.00    -0.263 OA
BRANCH  12  14
HETATM   14  O1  UNL     1     -16.942  44.446 -26.017  1.00  0.00    -0.325 OA
HETATM   15  C1  UNL     1     -17.516  43.155 -25.801  1.00  0.00     0.213 C 
ENDBRANCH  12  14
ENDBRANCH  11  12
BRANCH  11  16
HETATM   16  C4  UNL     1     -18.811  46.884 -24.180  1.00  0.00     0.076 C 
BRANCH  16  17
HETATM   17  C5  UNL     1     -19.227  45.837 -23.190  1.00  0.00    -0.028 A 
HETATM   18  C6  UNL     1     -19.969  44.703 -23.455  1.00  0.00     0.096 A 
HETATM   19  N1  UNL     1     -20.140  44.016 -22.284  1.00  0.00    -0.365 N 
HETATM   20  C7  UNL     1     -19.516  44.672 -21.251  1.00  0.00     0.042 A 
HETATM   21  H8  UNL     1     -20.655  43.154 -22.186  1.00  0.00     0.165 HD
HETATM   22  C8  UNL     1     -19.427  44.339 -19.894  1.00  0.00     0.030 A 
HETATM   23  C12 UNL     1     -18.933  45.822 -21.788  1.00  0.00    -0.002 A 
HETATM   24  C9  UNL     1     -18.715  45.207 -19.061  1.00  0.00     0.002 A 
HETATM   25  C10 UNL     1     -18.120  46.360 -19.566  1.00  0.00     0.001 A 
HETATM   26  C11 UNL     1     -18.224  46.681 -20.923  1.00  0.00     0.014 A 
ENDBRANCH  16  17
ENDBRANCH  11  16
ENDBRANCH   8  11
ENDBRANCH   6   7
ENDBRANCH   5   6
ENDBRANCH   3   5
ENDBRANCH   2   3
ENDBRANCH   1   2
BRANCH   1  27
HETATM   27  C18 UNL     1      -9.081  46.304 -21.121  1.00  0.00     0.185 C 
HETATM   28  O6  UNL     1      -8.559  45.269 -21.549  1.00  0.00    -0.292 OA
BRANCH  27  29
HETATM   29  C19 UNL     1      -8.220  47.511 -20.636  1.00  0.00     0.128 C 
HETATM   30  C20 UNL     1      -7.185  47.022 -19.607  1.00  0.00     0.047 C 
HETATM   31  C21 UNL     1      -6.015  46.515 -20.430  1.00  0.00     0.009 C 
HETATM   32  C22 UNL     1      -5.984  47.372 -21.709  1.00  0.00     0.002 C 
HETATM   33  C23 UNL     1      -4.686  48.223 -21.770  1.00  0.00    -0.002 C 
HETATM   34  C36 UNL     1      -7.314  48.195 -21.726  1.00  0.00     0.001 C 
HETATM   35  C24 UNL     1      -3.486  47.357 -22.150  1.00  0.00     0.010 C 
HETATM   36  C33 UNL     1      -4.840  49.414 -22.745  1.00  0.00     0.031 C 
HETATM   37  C25 UNL     1      -2.185  48.132 -21.987  1.00  0.00     0.035 C 
HETATM   38  C26 UNL     1      -2.260  49.587 -22.383  1.00  0.00    -0.068 C 
HETATM   39  C27 UNL     1      -1.236  50.385 -22.021  1.00  0.00     0.053 C 
HETATM   40  C31 UNL     1      -3.455  50.070 -23.215  1.00  0.00    -0.014 C 
HETATM   41  C28 UNL     1      -1.125  51.788 -22.478  1.00  0.00     0.149 C 
HETATM   42  O8  UNL     1      -0.178  52.472 -22.100  1.00  0.00    -0.293 OA
HETATM   43  C29 UNL     1      -2.144  52.292 -23.465  1.00  0.00     0.084 C 
HETATM   44  C30 UNL     1      -3.493  51.631 -23.206  1.00  0.00     0.022 C 
HETATM   45  C32 UNL     1      -3.192  49.621 -24.680  1.00  0.00     0.020 C 
HETATM   46  C34 UNL     1      -5.901  50.370 -22.147  1.00  0.00     0.124 C 
HETATM   47  C35 UNL     1      -7.033  49.680 -21.360  1.00  0.00     0.045 C 
HETATM   48  C37 UNL     1      -7.959  48.146 -23.123  1.00  0.00     0.019 C 
BRANCH  29  49
HETATM   49  O7  UNL     1      -9.050  48.464 -19.979  1.00  0.00    -0.381 OA
HETATM   50  H20 UNL     1      -9.281  48.100 -19.104  1.00  0.00     0.211 HD
ENDBRANCH  29  49
BRANCH  46  51
HETATM   51  O9  UNL     1      -6.451  51.190 -23.176  1.00  0.00    -0.395 OA
HETATM   52  H41 UNL     1      -7.164  50.703 -23.621  1.00  0.00     0.210 HD
ENDBRANCH  46  51
ENDBRANCH  27  29
ENDBRANCH   1  27
TORSDOF 14
ENDMDL
