MODEL 1
REMARK minimizedAffinity -9.31791687
REMARK  9 active torsions:
REMARK  status: ('A' for Active; 'I' for Inactive)
REMARK    1  A    between atoms: C12_14  and  C13_15 
REMARK    2  A    between atoms: C13_15  and  C15_17 
REMARK    3  A    between atoms: C15_17  and  C16_18 
REMARK    4  A    between atoms: C16_18  and  C17_19 
REMARK    5  A    between atoms: C18_20  and  C20_22 
REMARK    6  A    between atoms: C26_29  and  C27_30 
REMARK    7  A    between atoms: C27_30  and  C28_31 
REMARK    8  A    between atoms: C28_31  and  C29_32 
REMARK    9  A    between atoms: C29_32  and  O5_34 
ROOT
HETATM    1  C1  UNL     1       0.767  51.726 -17.123  1.00  0.00     0.025 C 
HETATM    2  C2  UNL     1      -0.283  51.233 -17.790  1.00  0.00     0.015 C 
HETATM    3  C3  UNL     1      -0.859  49.899 -17.500  1.00  0.00     0.289 C 
HETATM    4  O1  UNL     1      -0.339  49.009 -16.854  1.00  0.00    -0.260 OA
HETATM    5  O2  UNL     1      -2.085  49.846 -18.093  1.00  0.00    -0.311 OA
HETATM    6  C4  UNL     1      -2.436  51.161 -18.539  1.00  0.00     0.142 C 
HETATM    7  C5  UNL     1      -3.398  51.121 -19.715  1.00  0.00     0.039 C 
HETATM    8  C6  UNL     1      -2.787  50.407 -20.926  1.00  0.00     0.006 C 
HETATM    9  C7  UNL     1      -1.472  51.103 -21.362  1.00  0.00    -0.027 A 
HETATM   10  C8  UNL     1      -1.437  51.648 -22.795  1.00  0.00     0.011 C 
HETATM   11  C9  UNL     1      -2.103  50.794 -23.891  1.00  0.00     0.011 C 
HETATM   12  C10 UNL     1      -3.015  49.674 -23.368  1.00  0.00    -0.032 C 
HETATM   13  C11 UNL     1      -2.123  48.435 -23.076  1.00  0.00     0.016 C 
HETATM   14  C12 UNL     1      -4.199  49.256 -24.300  1.00  0.00    -0.002 C 
HETATM   15  C21 UNL     1      -5.263  48.698 -23.314  1.00  0.00     0.006 C 
HETATM   16  C22 UNL     1      -4.826  49.106 -21.896  1.00  0.00     0.011 C 
HETATM   17  C23 UNL     1      -3.783  50.221 -22.108  1.00  0.00    -0.032 C 
HETATM   18  C24 UNL     1      -4.593  51.535 -22.356  1.00  0.00     0.016 C 
HETATM   19  C25 UNL     1      -0.201  50.466 -20.847  1.00  0.00     0.022 A 
HETATM   20  C26 UNL     1      -0.599  51.811 -20.271  1.00  0.00    -0.021 A 
HETATM   21  C30 UNL     1      -1.132  51.891 -18.822  1.00  0.00     0.063 C 
ENDROOT
BRANCH  14  22
HETATM   22  C13 UNL     1      -4.014  48.393 -25.585  1.00  0.00    -0.014 C 
HETATM   23  C14 UNL     1      -2.979  48.880 -26.607  1.00  0.00     0.010 C 
BRANCH  22  24
HETATM   24  C15 UNL     1      -5.371  48.100 -26.264  1.00  0.00     0.008 C 
BRANCH  24  25
HETATM   25  C16 UNL     1      -5.339  48.268 -27.787  1.00  0.00     0.028 C 
BRANCH  25  26
HETATM   26  C17 UNL     1      -6.214  47.247 -28.466  1.00  0.00    -0.017 C 
HETATM   27  C18 UNL     1      -6.150  46.815 -29.740  1.00  0.00    -0.028 C 
HETATM   28  C19 UNL     1      -7.062  45.755 -30.279  1.00  0.00     0.051 C 
BRANCH  27  29
HETATM   29  C20 UNL     1      -5.185  47.363 -30.741  1.00  0.00     0.265 C 
HETATM   30  O3  UNL     1      -4.398  46.686 -31.389  1.00  0.00    -0.302 OA
ENDBRANCH  27  29
ENDBRANCH  25  26
ENDBRANCH  24  25
ENDBRANCH  22  24
ENDBRANCH  14  22
BRANCH  20  31
HETATM   31  C27 UNL     1       0.206  53.072 -20.649  1.00  0.00     0.021 C 
BRANCH  31  32
HETATM   32  C28 UNL     1       1.351  52.908 -21.642  1.00  0.00     0.111 C 
BRANCH  32  33
HETATM   33  C29 UNL     1       1.473  54.052 -22.606  1.00  0.00     0.139 C 
HETATM   34  O4  UNL     1       1.182  54.033 -23.789  1.00  0.00    -0.650 OA
BRANCH  33  35
HETATM   35  O5  UNL     1       1.909  55.188 -22.027  1.00  0.00    -0.776 OA
HETATM   36  H41 UNL     1       1.899  55.832 -22.767  1.00  0.00     0.167 HD
ENDBRANCH  33  35
ENDBRANCH  32  33
ENDBRANCH  31  32
ENDBRANCH  20  31
TORSDOF 9
ENDMDL
MODEL 2
REMARK minimizedAffinity -9.06547356
REMARK  9 active torsions:
REMARK  status: ('A' for Active; 'I' for Inactive)
REMARK    1  A    between atoms: C12_14  and  C13_15 
REMARK    2  A    between atoms: C13_15  and  C15_17 
REMARK    3  A    between atoms: C15_17  and  C16_18 
REMARK    4  A    between atoms: C16_18  and  C17_19 
REMARK    5  A    between atoms: C18_20  and  C20_22 
REMARK    6  A    between atoms: C26_29  and  C27_30 
REMARK    7  A    between atoms: C27_30  and  C28_31 
REMARK    8  A    between atoms: C28_31  and  C29_32 
REMARK    9  A    between atoms: C29_32  and  O5_34 
ROOT
HETATM    1  C1  UNL     1      -0.685  49.504 -16.462  1.00  0.00     0.025 C 
HETATM    2  C2  UNL     1      -1.619  49.587 -17.417  1.00  0.00     0.015 C 
HETATM    3  C3  UNL     1      -2.730  48.613 -17.536  1.00  0.00     0.289 C 
HETATM    4  O1  UNL     1      -2.801  47.525 -16.998  1.00  0.00    -0.260 OA
HETATM    5  O2  UNL     1      -3.665  49.160 -18.364  1.00  0.00    -0.311 OA
HETATM    6  C4  UNL     1      -3.333  50.535 -18.586  1.00  0.00     0.142 C 
HETATM    7  C5  UNL     1      -3.872  51.038 -19.915  1.00  0.00     0.039 C 
HETATM    8  C6  UNL     1      -3.287  50.260 -21.098  1.00  0.00     0.006 C 
HETATM    9  C7  UNL     1      -1.739  50.357 -21.102  1.00  0.00    -0.027 A 
HETATM   10  C8  UNL     1      -1.102  50.978 -22.351  1.00  0.00     0.011 C 
HETATM   11  C9  UNL     1      -1.725  50.617 -23.714  1.00  0.00     0.011 C 
HETATM   12  C10 UNL     1      -3.109  49.956 -23.634  1.00  0.00    -0.032 C 
HETATM   13  C11 UNL     1      -2.895  48.430 -23.432  1.00  0.00     0.016 C 
HETATM   14  C12 UNL     1      -4.059  50.193 -24.854  1.00  0.00    -0.002 C 
HETATM   15  C21 UNL     1      -5.482  50.053 -24.244  1.00  0.00     0.006 C 
HETATM   16  C22 UNL     1      -5.324  50.081 -22.713  1.00  0.00     0.011 C 
HETATM   17  C23 UNL     1      -3.911  50.648 -22.470  1.00  0.00    -0.032 C 
HETATM   18  C24 UNL     1      -4.037  52.201 -22.597  1.00  0.00     0.016 C 
HETATM   19  C25 UNL     1      -1.016  49.182 -20.485  1.00  0.00     0.022 A 
HETATM   20  C26 UNL     1      -0.992  50.498 -19.733  1.00  0.00    -0.021 A 
HETATM   21  C30 UNL     1      -1.824  50.651 -18.439  1.00  0.00     0.063 C 
ENDROOT
BRANCH  14  22
HETATM   22  C13 UNL     1      -3.886  49.473 -26.225  1.00  0.00    -0.014 C 
HETATM   23  C14 UNL     1      -4.622  48.139 -26.408  1.00  0.00     0.010 C 
BRANCH  22  24
HETATM   24  C15 UNL     1      -2.394  49.342 -26.606  1.00  0.00     0.008 C 
BRANCH  24  25
HETATM   25  C16 UNL     1      -1.773  50.652 -27.102  1.00  0.00     0.028 C 
BRANCH  25  26
HETATM   26  C17 UNL     1      -0.284  50.669 -26.878  1.00  0.00    -0.017 C 
HETATM   27  C18 UNL     1       0.507  51.733 -26.645  1.00  0.00    -0.028 C 
HETATM   28  C19 UNL     1       1.980  51.603 -26.394  1.00  0.00     0.051 C 
BRANCH  27  29
HETATM   29  C20 UNL     1       0.005  53.140 -26.637  1.00  0.00     0.265 C 
HETATM   30  O3  UNL     1       0.502  54.051 -25.988  1.00  0.00    -0.302 OA
ENDBRANCH  27  29
ENDBRANCH  25  26
ENDBRANCH  24  25
ENDBRANCH  22  24
ENDBRANCH  14  22
BRANCH  20  31
HETATM   31  C27 UNL     1       0.315  51.316 -19.667  1.00  0.00     0.021 C 
BRANCH  31  32
HETATM   32  C28 UNL     1       0.198  52.836 -19.656  1.00  0.00     0.111 C 
BRANCH  32  33
HETATM   33  C29 UNL     1       1.108  53.511 -20.640  1.00  0.00     0.139 C 
HETATM   34  O4  UNL     1       1.792  54.498 -20.431  1.00  0.00    -0.650 OA
BRANCH  33  35
HETATM   35  O5  UNL     1       1.159  52.884 -21.831  1.00  0.00    -0.776 OA
HETATM   36  H41 UNL     1       1.809  53.419 -22.336  1.00  0.00     0.167 HD
ENDBRANCH  33  35
ENDBRANCH  32  33
ENDBRANCH  31  32
ENDBRANCH  20  31
TORSDOF 9
ENDMDL
MODEL 3
REMARK minimizedAffinity -9.04814339
REMARK  9 active torsions:
REMARK  status: ('A' for Active; 'I' for Inactive)
REMARK    1  A    between atoms: C12_14  and  C13_15 
REMARK    2  A    between atoms: C13_15  and  C15_17 
REMARK    3  A    between atoms: C15_17  and  C16_18 
REMARK    4  A    between atoms: C16_18  and  C17_19 
REMARK    5  A    between atoms: C18_20  and  C20_22 
REMARK    6  A    between atoms: C26_29  and  C27_30 
REMARK    7  A    between atoms: C27_30  and  C28_31 
REMARK    8  A    between atoms: C28_31  and  C29_32 
REMARK    9  A    between atoms: C29_32  and  O5_34 
ROOT
HETATM    1  C1  UNL     1       1.498  54.636 -23.178  1.00  0.00     0.025 C 
HETATM    2  C2  UNL     1       0.818  53.848 -24.018  1.00  0.00     0.015 C 
HETATM    3  C3  UNL     1       0.154  54.364 -25.239  1.00  0.00     0.289 C 
HETATM    4  O1  UNL     1      -0.086  55.528 -25.496  1.00  0.00    -0.260 OA
HETATM    5  O2  UNL     1      -0.142  53.292 -26.027  1.00  0.00    -0.311 OA
HETATM    6  C4  UNL     1       0.517  52.137 -25.496  1.00  0.00     0.142 C 
HETATM    7  C5  UNL     1      -0.211  50.854 -25.862  1.00  0.00     0.039 C 
HETATM    8  C6  UNL     1      -1.637  50.828 -25.301  1.00  0.00     0.006 C 
HETATM    9  C7  UNL     1      -1.618  50.986 -23.759  1.00  0.00    -0.027 A 
HETATM   10  C8  UNL     1      -2.240  49.840 -22.953  1.00  0.00     0.011 C 
HETATM   11  C9  UNL     1      -3.522  49.197 -23.515  1.00  0.00     0.011 C 
HETATM   12  C10 UNL     1      -3.830  49.549 -24.978  1.00  0.00    -0.032 C 
HETATM   13  C11 UNL     1      -4.611  50.892 -24.988  1.00  0.00     0.016 C 
HETATM   14  C12 UNL     1      -4.625  48.477 -25.794  1.00  0.00    -0.002 C 
HETATM   15  C21 UNL     1      -4.195  48.740 -27.264  1.00  0.00     0.006 C 
HETATM   16  C22 UNL     1      -2.972  49.675 -27.218  1.00  0.00     0.011 C 
HETATM   17  C23 UNL     1      -2.468  49.596 -25.764  1.00  0.00    -0.032 C 
HETATM   18  C24 UNL     1      -1.612  48.290 -25.669  1.00  0.00     0.016 C 
HETATM   19  C25 UNL     1      -1.869  52.387 -23.249  1.00  0.00     0.022 A 
HETATM   20  C26 UNL     1      -0.468  51.824 -23.103  1.00  0.00    -0.021 A 
HETATM   21  C30 UNL     1       0.668  52.365 -24.001  1.00  0.00     0.063 C 
ENDROOT
BRANCH  14  22
HETATM   22  C13 UNL     1      -6.154  48.229 -25.619  1.00  0.00    -0.014 C 
HETATM   23  C14 UNL     1      -6.629  47.762 -24.237  1.00  0.00     0.010 C 
BRANCH  22  24
HETATM   24  C15 UNL     1      -6.705  47.312 -26.735  1.00  0.00     0.008 C 
BRANCH  24  25
HETATM   25  C16 UNL     1      -6.180  47.666 -28.130  1.00  0.00     0.028 C 
BRANCH  25  26
HETATM   26  C17 UNL     1      -7.305  48.042 -29.057  1.00  0.00    -0.017 C 
HETATM   27  C18 UNL     1      -7.240  48.316 -30.373  1.00  0.00    -0.028 C 
HETATM   28  C19 UNL     1      -8.454  48.637 -31.192  1.00  0.00     0.051 C 
BRANCH  27  29
HETATM   29  C20 UNL     1      -5.957  48.350 -31.139  1.00  0.00     0.265 C 
HETATM   30  O3  UNL     1      -4.974  49.003 -30.818  1.00  0.00    -0.302 OA
ENDBRANCH  27  29
ENDBRANCH  25  26
ENDBRANCH  24  25
ENDBRANCH  22  24
ENDBRANCH  14  22
BRANCH  20  31
HETATM   31  C27 UNL     1       0.053  51.426 -21.706  1.00  0.00     0.021 C 
BRANCH  31  32
HETATM   32  C28 UNL     1      -0.440  52.234 -20.511  1.00  0.00     0.111 C 
BRANCH  32  33
HETATM   33  C29 UNL     1       0.597  53.162 -19.950  1.00  0.00     0.139 C 
HETATM   34  O4  UNL     1       1.790  53.148 -20.201  1.00  0.00    -0.650 OA
BRANCH  33  35
HETATM   35  O5  UNL     1       0.081  54.103 -19.135  1.00  0.00    -0.776 OA
HETATM   36  H41 UNL     1       0.866  54.637 -18.887  1.00  0.00     0.167 HD
ENDBRANCH  33  35
ENDBRANCH  32  33
ENDBRANCH  31  32
ENDBRANCH  20  31
TORSDOF 9
ENDMDL
MODEL 4
REMARK minimizedAffinity -8.87742996
REMARK  9 active torsions:
REMARK  status: ('A' for Active; 'I' for Inactive)
REMARK    1  A    between atoms: C12_14  and  C13_15 
REMARK    2  A    between atoms: C13_15  and  C15_17 
REMARK    3  A    between atoms: C15_17  and  C16_18 
REMARK    4  A    between atoms: C16_18  and  C17_19 
REMARK    5  A    between atoms: C18_20  and  C20_22 
REMARK    6  A    between atoms: C26_29  and  C27_30 
REMARK    7  A    between atoms: C27_30  and  C28_31 
REMARK    8  A    between atoms: C28_31  and  C29_32 
REMARK    9  A    between atoms: C29_32  and  O5_34 
ROOT
HETATM    1  C1  UNL     1      -2.826  51.478 -27.588  1.00  0.00     0.025 C 
HETATM    2  C2  UNL     1      -2.926  51.672 -26.268  1.00  0.00     0.015 C 
HETATM    3  C3  UNL     1      -2.161  52.721 -25.554  1.00  0.00     0.289 C 
HETATM    4  O1  UNL     1      -1.200  53.333 -25.978  1.00  0.00    -0.260 OA
HETATM    5  O2  UNL     1      -2.732  52.878 -24.326  1.00  0.00    -0.311 OA
HETATM    6  C4  UNL     1      -3.973  52.166 -24.303  1.00  0.00     0.142 C 
HETATM    7  C5  UNL     1      -4.353  51.738 -22.894  1.00  0.00     0.039 C 
HETATM    8  C6  UNL     1      -3.309  50.798 -22.283  1.00  0.00     0.006 C 
HETATM    9  C7  UNL     1      -3.125  49.539 -23.169  1.00  0.00    -0.027 A 
HETATM   10  C8  UNL     1      -3.420  48.191 -22.501  1.00  0.00     0.011 C 
HETATM   11  C9  UNL     1      -2.969  48.016 -21.038  1.00  0.00     0.011 C 
HETATM   12  C10 UNL     1      -2.588  49.320 -20.322  1.00  0.00    -0.032 C 
HETATM   13  C11 UNL     1      -1.099  49.621 -20.646  1.00  0.00     0.016 C 
HETATM   14  C12 UNL     1      -2.800  49.344 -18.772  1.00  0.00    -0.002 C 
HETATM   15  C21 UNL     1      -3.014  50.850 -18.453  1.00  0.00     0.006 C 
HETATM   16  C22 UNL     1      -3.250  51.568 -19.795  1.00  0.00     0.011 C 
HETATM   17  C23 UNL     1      -3.585  50.443 -20.793  1.00  0.00    -0.032 C 
HETATM   18  C24 UNL     1      -5.097  50.106 -20.580  1.00  0.00     0.016 C 
HETATM   19  C25 UNL     1      -1.949  49.582 -24.119  1.00  0.00     0.022 A 
HETATM   20  C26 UNL     1      -3.340  49.671 -24.716  1.00  0.00    -0.021 A 
HETATM   21  C30 UNL     1      -3.839  51.017 -25.289  1.00  0.00     0.063 C 
ENDROOT
BRANCH  14  22
HETATM   22  C13 UNL     1      -1.857  48.614 -17.768  1.00  0.00    -0.014 C 
HETATM   23  C14 UNL     1      -2.426  48.308 -16.376  1.00  0.00     0.010 C 
BRANCH  22  24
HETATM   24  C15 UNL     1      -0.489  49.326 -17.665  1.00  0.00     0.008 C 
BRANCH  24  25
HETATM   25  C16 UNL     1      -0.546  50.648 -16.892  1.00  0.00     0.028 C 
BRANCH  25  26
HETATM   26  C17 UNL     1       0.746  51.410 -17.020  1.00  0.00    -0.017 C 
HETATM   27  C18 UNL     1       1.513  51.914 -16.035  1.00  0.00    -0.028 C 
HETATM   28  C19 UNL     1       2.809  52.620 -16.302  1.00  0.00     0.051 C 
BRANCH  27  29
HETATM   29  C20 UNL     1       1.141  51.840 -14.590  1.00  0.00     0.265 C 
HETATM   30  O3  UNL     1       0.346  52.590 -14.039  1.00  0.00    -0.302 OA
ENDBRANCH  27  29
ENDBRANCH  25  26
ENDBRANCH  24  25
ENDBRANCH  22  24
ENDBRANCH  14  22
BRANCH  20  31
HETATM   31  C27 UNL     1      -3.911  48.472 -25.503  1.00  0.00     0.021 C 
BRANCH  31  32
HETATM   32  C28 UNL     1      -3.432  48.276 -26.936  1.00  0.00     0.111 C 
BRANCH  32  33
HETATM   33  C29 UNL     1      -4.530  48.395 -27.953  1.00  0.00     0.139 C 
HETATM   34  O4  UNL     1      -4.394  48.400 -29.164  1.00  0.00    -0.650 OA
BRANCH  33  35
HETATM   35  O5  UNL     1      -5.758  48.452 -27.402  1.00  0.00    -0.776 OA
HETATM   36  H41 UNL     1      -6.351  48.491 -28.184  1.00  0.00     0.167 HD
ENDBRANCH  33  35
ENDBRANCH  32  33
ENDBRANCH  31  32
ENDBRANCH  20  31
TORSDOF 9
ENDMDL
MODEL 5
REMARK minimizedAffinity -8.83677864
REMARK  9 active torsions:
REMARK  status: ('A' for Active; 'I' for Inactive)
REMARK    1  A    between atoms: C12_14  and  C13_15 
REMARK    2  A    between atoms: C13_15  and  C15_17 
REMARK    3  A    between atoms: C15_17  and  C16_18 
REMARK    4  A    between atoms: C16_18  and  C17_19 
REMARK    5  A    between atoms: C18_20  and  C20_22 
REMARK    6  A    between atoms: C26_29  and  C27_30 
REMARK    7  A    between atoms: C27_30  and  C28_31 
REMARK    8  A    between atoms: C28_31  and  C29_32 
REMARK    9  A    between atoms: C29_32  and  O5_34 
ROOT
HETATM    1  C1  UNL     1      -3.057  52.416 -26.160  1.00  0.00     0.025 C 
HETATM    2  C2  UNL     1      -3.196  51.620 -25.093  1.00  0.00     0.015 C 
HETATM    3  C3  UNL     1      -4.482  51.461 -24.374  1.00  0.00     0.289 C 
HETATM    4  O1  UNL     1      -5.458  52.181 -24.468  1.00  0.00    -0.260 OA
HETATM    5  O2  UNL     1      -4.374  50.358 -23.583  1.00  0.00    -0.311 OA
HETATM    6  C4  UNL     1      -3.180  49.653 -23.938  1.00  0.00     0.142 C 
HETATM    7  C5  UNL     1      -2.637  48.837 -22.776  1.00  0.00     0.039 C 
HETATM    8  C6  UNL     1      -2.271  49.724 -21.580  1.00  0.00     0.006 C 
HETATM    9  C7  UNL     1      -1.223  50.789 -21.993  1.00  0.00    -0.027 A 
HETATM   10  C8  UNL     1       0.108  50.759 -21.234  1.00  0.00     0.011 C 
HETATM   11  C9  UNL     1       0.052  50.469 -19.722  1.00  0.00     0.011 C 
HETATM   12  C10 UNL     1      -1.289  49.910 -19.224  1.00  0.00    -0.032 C 
HETATM   13  C11 UNL     1      -2.226  51.115 -18.932  1.00  0.00     0.016 C 
HETATM   14  C12 UNL     1      -1.226  48.982 -17.966  1.00  0.00    -0.002 C 
HETATM   15  C21 UNL     1      -2.478  48.072 -18.118  1.00  0.00     0.006 C 
HETATM   16  C22 UNL     1      -3.004  48.260 -19.553  1.00  0.00     0.011 C 
HETATM   17  C23 UNL     1      -1.841  48.922 -20.318  1.00  0.00    -0.032 C 
HETATM   18  C24 UNL     1      -0.862  47.767 -20.708  1.00  0.00     0.016 C 
HETATM   19  C25 UNL     1      -1.784  52.154 -22.325  1.00  0.00     0.022 A 
HETATM   20  C26 UNL     1      -1.233  51.321 -23.466  1.00  0.00    -0.021 A 
HETATM   21  C30 UNL     1      -2.207  50.686 -24.485  1.00  0.00     0.063 C 
ENDROOT
BRANCH  14  22
HETATM   22  C13 UNL     1      -1.006  49.516 -16.519  1.00  0.00    -0.014 C 
HETATM   23  C14 UNL     1      -2.059  50.486 -15.968  1.00  0.00     0.010 C 
BRANCH  22  24
HETATM   24  C15 UNL     1       0.420  50.084 -16.341  1.00  0.00     0.008 C 
BRANCH  24  25
HETATM   25  C16 UNL     1       0.466  51.616 -16.304  1.00  0.00     0.028 C 
BRANCH  25  26
HETATM   26  C17 UNL     1       1.854  52.126 -16.588  1.00  0.00    -0.017 C 
HETATM   27  C18 UNL     1       2.932  52.089 -15.783  1.00  0.00    -0.028 C 
HETATM   28  C19 UNL     1       4.276  52.598 -16.210  1.00  0.00     0.051 C 
BRANCH  27  29
HETATM   29  C20 UNL     1       2.892  51.560 -14.386  1.00  0.00     0.265 C 
HETATM   30  O3  UNL     1       2.041  51.852 -13.557  1.00  0.00    -0.302 OA
ENDBRANCH  27  29
ENDBRANCH  25  26
ENDBRANCH  24  25
ENDBRANCH  22  24
ENDBRANCH  14  22
BRANCH  20  31
HETATM   31  C27 UNL     1       0.100  51.725 -24.131  1.00  0.00     0.021 C 
BRANCH  31  32
HETATM   32  C28 UNL     1       0.285  51.388 -25.606  1.00  0.00     0.111 C 
BRANCH  32  33
HETATM   33  C29 UNL     1       1.013  52.452 -26.375  1.00  0.00     0.139 C 
HETATM   34  O4  UNL     1       0.540  53.498 -26.783  1.00  0.00    -0.650 OA
BRANCH  33  35
HETATM   35  O5  UNL     1       2.320  52.178 -26.551  1.00  0.00    -0.776 OA
HETATM   36  H41 UNL     1       2.651  52.969 -27.028  1.00  0.00     0.167 HD
ENDBRANCH  33  35
ENDBRANCH  32  33
ENDBRANCH  31  32
ENDBRANCH  20  31
TORSDOF 9
ENDMDL
MODEL 6
REMARK minimizedAffinity -8.72088528
REMARK  9 active torsions:
REMARK  status: ('A' for Active; 'I' for Inactive)
REMARK    1  A    between atoms: C12_14  and  C13_15 
REMARK    2  A    between atoms: C13_15  and  C15_17 
REMARK    3  A    between atoms: C15_17  and  C16_18 
REMARK    4  A    between atoms: C16_18  and  C17_19 
REMARK    5  A    between atoms: C18_20  and  C20_22 
REMARK    6  A    between atoms: C26_29  and  C27_30 
REMARK    7  A    between atoms: C27_30  and  C28_31 
REMARK    8  A    between atoms: C28_31  and  C29_32 
REMARK    9  A    between atoms: C29_32  and  O5_34 
ROOT
HETATM    1  C1  UNL     1       0.304  53.544 -26.216  1.00  0.00     0.025 C 
HETATM    2  C2  UNL     1      -0.595  52.597 -25.924  1.00  0.00     0.015 C 
HETATM    3  C3  UNL     1      -1.878  52.460 -26.654  1.00  0.00     0.289 C 
HETATM    4  O1  UNL     1      -2.388  53.288 -27.384  1.00  0.00    -0.260 OA
HETATM    5  O2  UNL     1      -2.388  51.232 -26.357  1.00  0.00    -0.311 OA
HETATM    6  C4  UNL     1      -1.385  50.471 -25.674  1.00  0.00     0.142 C 
HETATM    7  C5  UNL     1      -1.996  49.414 -24.769  1.00  0.00     0.039 C 
HETATM    8  C6  UNL     1      -2.876  50.037 -23.680  1.00  0.00     0.006 C 
HETATM    9  C7  UNL     1      -2.056  51.036 -22.822  1.00  0.00    -0.027 A 
HETATM   10  C8  UNL     1      -1.971  50.731 -21.323  1.00  0.00     0.011 C 
HETATM   11  C9  UNL     1      -3.243  50.193 -20.639  1.00  0.00     0.011 C 
HETATM   12  C10 UNL     1      -4.335  49.708 -21.603  1.00  0.00    -0.032 C 
HETATM   13  C11 UNL     1      -5.189  50.941 -22.011  1.00  0.00     0.016 C 
HETATM   14  C12 UNL     1      -5.275  48.577 -21.069  1.00  0.00    -0.002 C 
HETATM   15  C21 UNL     1      -5.745  47.850 -22.360  1.00  0.00     0.006 C 
HETATM   16  C22 UNL     1      -4.842  48.337 -23.509  1.00  0.00     0.011 C 
HETATM   17  C23 UNL     1      -3.632  48.989 -22.813  1.00  0.00    -0.032 C 
HETATM   18  C24 UNL     1      -2.676  47.818 -22.411  1.00  0.00     0.016 C 
HETATM   19  C25 UNL     1      -2.198  52.491 -23.211  1.00  0.00     0.022 A 
HETATM   20  C26 UNL     1      -0.873  51.811 -23.497  1.00  0.00    -0.021 A 
HETATM   21  C30 UNL     1      -0.491  51.470 -24.955  1.00  0.00     0.063 C 
ENDROOT
BRANCH  14  22
HETATM   22  C13 UNL     1      -6.414  48.827 -20.035  1.00  0.00    -0.014 C 
HETATM   23  C14 UNL     1      -6.211  48.258 -18.625  1.00  0.00     0.010 C 
BRANCH  22  24
HETATM   24  C15 UNL     1      -7.790  48.418 -20.608  1.00  0.00     0.008 C 
BRANCH  24  25
HETATM   25  C16 UNL     1      -8.659  47.643 -19.611  1.00  0.00     0.028 C 
BRANCH  25  26
HETATM   26  C17 UNL     1     -10.122  47.932 -19.824  1.00  0.00    -0.017 C 
HETATM   27  C18 UNL     1     -11.138  47.745 -18.961  1.00  0.00    -0.028 C 
HETATM   28  C19 UNL     1     -12.553  48.119 -19.287  1.00  0.00     0.051 C 
BRANCH  27  29
HETATM   29  C20 UNL     1     -10.962  47.129 -17.611  1.00  0.00     0.265 C 
HETATM   30  O3  UNL     1     -10.974  47.751 -16.557  1.00  0.00    -0.302 OA
ENDBRANCH  27  29
ENDBRANCH  25  26
ENDBRANCH  24  25
ENDBRANCH  22  24
ENDBRANCH  14  22
BRANCH  20  31
HETATM   31  C27 UNL     1       0.368  52.174 -22.655  1.00  0.00     0.021 C 
BRANCH  31  32
HETATM   32  C28 UNL     1       0.154  53.035 -21.416  1.00  0.00     0.111 C 
BRANCH  32  33
HETATM   33  C29 UNL     1       1.249  54.037 -21.190  1.00  0.00     0.139 C 
HETATM   34  O4  UNL     1       1.814  54.694 -22.046  1.00  0.00    -0.650 OA
BRANCH  33  35
HETATM   35  O5  UNL     1       1.551  54.207 -19.888  1.00  0.00    -0.776 OA
HETATM   36  H41 UNL     1       2.243  54.903 -19.909  1.00  0.00     0.167 HD
ENDBRANCH  33  35
ENDBRANCH  32  33
ENDBRANCH  31  32
ENDBRANCH  20  31
TORSDOF 9
ENDMDL
MODEL 7
REMARK minimizedAffinity -8.52679634
REMARK  9 active torsions:
REMARK  status: ('A' for Active; 'I' for Inactive)
REMARK    1  A    between atoms: C12_14  and  C13_15 
REMARK    2  A    between atoms: C13_15  and  C15_17 
REMARK    3  A    between atoms: C15_17  and  C16_18 
REMARK    4  A    between atoms: C16_18  and  C17_19 
REMARK    5  A    between atoms: C18_20  and  C20_22 
REMARK    6  A    between atoms: C26_29  and  C27_30 
REMARK    7  A    between atoms: C27_30  and  C28_31 
REMARK    8  A    between atoms: C28_31  and  C29_32 
REMARK    9  A    between atoms: C29_32  and  O5_34 
ROOT
HETATM    1  C1  UNL     1       1.026  54.285 -24.706  1.00  0.00     0.025 C 
HETATM    2  C2  UNL     1       0.178  53.284 -24.965  1.00  0.00     0.015 C 
HETATM    3  C3  UNL     1      -0.567  53.178 -26.242  1.00  0.00     0.289 C 
HETATM    4  O1  UNL     1      -0.717  54.057 -27.069  1.00  0.00    -0.260 OA
HETATM    5  O2  UNL     1      -1.059  51.909 -26.324  1.00  0.00    -0.311 OA
HETATM    6  C4  UNL     1      -0.463  51.119 -25.289  1.00  0.00     0.142 C 
HETATM    7  C5  UNL     1      -1.354  49.957 -24.882  1.00  0.00     0.039 C 
HETATM    8  C6  UNL     1      -2.700  50.437 -24.331  1.00  0.00     0.006 C 
HETATM    9  C7  UNL     1      -2.488  51.373 -23.113  1.00  0.00    -0.027 A 
HETATM   10  C8  UNL     1      -3.125  50.922 -21.793  1.00  0.00     0.011 C 
HETATM   11  C9  UNL     1      -4.522  50.276 -21.869  1.00  0.00     0.011 C 
HETATM   12  C10 UNL     1      -4.960  49.853 -23.279  1.00  0.00    -0.032 C 
HETATM   13  C11 UNL     1      -5.597  51.091 -23.969  1.00  0.00     0.016 C 
HETATM   14  C12 UNL     1      -5.948  48.643 -23.362  1.00  0.00    -0.002 C 
HETATM   15  C21 UNL     1      -5.666  48.034 -24.764  1.00  0.00     0.006 C 
HETATM   16  C22 UNL     1      -4.357  48.663 -25.277  1.00  0.00     0.011 C 
HETATM   17  C23 UNL     1      -3.699  49.283 -24.029  1.00  0.00    -0.032 C 
HETATM   18  C24 UNL     1      -2.975  48.110 -23.290  1.00  0.00     0.016 C 
HETATM   19  C25 UNL     1      -2.536  52.853 -23.418  1.00  0.00     0.022 A 
HETATM   20  C26 UNL     1      -1.192  52.250 -23.056  1.00  0.00    -0.021 A 
HETATM   21  C30 UNL     1      -0.118  52.070 -24.154  1.00  0.00     0.063 C 
ENDROOT
BRANCH  14  22
HETATM   22  C13 UNL     1      -7.463  48.751 -23.014  1.00  0.00    -0.014 C 
HETATM   23  C14 UNL     1      -7.879  48.358 -21.590  1.00  0.00     0.010 C 
BRANCH  22  24
HETATM   24  C15 UNL     1      -8.333  48.026 -24.067  1.00  0.00     0.008 C 
BRANCH  24  25
HETATM   25  C16 UNL     1      -9.017  48.980 -25.053  1.00  0.00     0.028 C 
BRANCH  25  26
HETATM   26  C17 UNL     1      -9.005  48.419 -26.450  1.00  0.00    -0.017 C 
HETATM   27  C18 UNL     1     -10.032  47.887 -27.139  1.00  0.00    -0.028 C 
HETATM   28  C19 UNL     1      -9.891  47.401 -28.551  1.00  0.00     0.051 C 
BRANCH  27  29
HETATM   29  C20 UNL     1     -11.399  47.708 -26.562  1.00  0.00     0.265 C 
HETATM   30  O3  UNL     1     -11.674  47.837 -25.377  1.00  0.00    -0.302 OA
ENDBRANCH  27  29
ENDBRANCH  25  26
ENDBRANCH  24  25
ENDBRANCH  22  24
ENDBRANCH  14  22
BRANCH  20  31
HETATM   31  C27 UNL     1      -0.556  52.569 -21.687  1.00  0.00     0.021 C 
BRANCH  31  32
HETATM   32  C28 UNL     1       0.966  52.579 -21.599  1.00  0.00     0.111 C 
BRANCH  32  33
HETATM   33  C29 UNL     1       1.523  53.855 -21.036  1.00  0.00     0.139 C 
HETATM   34  O4  UNL     1       1.967  54.792 -21.676  1.00  0.00    -0.650 OA
BRANCH  33  35
HETATM   35  O5  UNL     1       1.447  53.918 -19.693  1.00  0.00    -0.776 OA
HETATM   36  H41 UNL     1       1.811  54.807 -19.491  1.00  0.00     0.167 HD
ENDBRANCH  33  35
ENDBRANCH  32  33
ENDBRANCH  31  32
ENDBRANCH  20  31
TORSDOF 9
ENDMDL
MODEL 8
REMARK minimizedAffinity -8.43162346
REMARK  9 active torsions:
REMARK  status: ('A' for Active; 'I' for Inactive)
REMARK    1  A    between atoms: C12_14  and  C13_15 
REMARK    2  A    between atoms: C13_15  and  C15_17 
REMARK    3  A    between atoms: C15_17  and  C16_18 
REMARK    4  A    between atoms: C16_18  and  C17_19 
REMARK    5  A    between atoms: C18_20  and  C20_22 
REMARK    6  A    between atoms: C26_29  and  C27_30 
REMARK    7  A    between atoms: C27_30  and  C28_31 
REMARK    8  A    between atoms: C28_31  and  C29_32 
REMARK    9  A    between atoms: C29_32  and  O5_34 
ROOT
HETATM    1  C1  UNL     1      -9.426  48.115 -19.941  1.00  0.00     0.025 C 
HETATM    2  C2  UNL     1      -8.091  48.047 -19.911  1.00  0.00     0.015 C 
HETATM    3  C3  UNL     1      -7.321  47.980 -18.646  1.00  0.00     0.289 C 
HETATM    4  O1  UNL     1      -7.735  48.234 -17.531  1.00  0.00    -0.260 OA
HETATM    5  O2  UNL     1      -6.056  47.581 -18.958  1.00  0.00    -0.311 OA
HETATM    6  C4  UNL     1      -6.035  47.147 -20.323  1.00  0.00     0.142 C 
HETATM    7  C5  UNL     1      -4.656  47.298 -20.943  1.00  0.00     0.039 C 
HETATM    8  C6  UNL     1      -4.192  48.758 -20.952  1.00  0.00     0.006 C 
HETATM    9  C7  UNL     1      -5.201  49.646 -21.724  1.00  0.00    -0.027 A 
HETATM   10  C8  UNL     1      -4.649  50.400 -22.939  1.00  0.00     0.011 C 
HETATM   11  C9  UNL     1      -3.235  50.999 -22.815  1.00  0.00     0.011 C 
HETATM   12  C10 UNL     1      -2.420  50.480 -21.622  1.00  0.00    -0.032 C 
HETATM   13  C11 UNL     1      -2.791  51.341 -20.383  1.00  0.00     0.016 C 
HETATM   14  C12 UNL     1      -0.866  50.467 -21.801  1.00  0.00    -0.002 C 
HETATM   15  C21 UNL     1      -0.395  49.334 -20.847  1.00  0.00     0.006 C 
HETATM   16  C22 UNL     1      -1.648  48.541 -20.431  1.00  0.00     0.011 C 
HETATM   17  C23 UNL     1      -2.730  48.946 -21.451  1.00  0.00    -0.032 C 
HETATM   18  C24 UNL     1      -2.471  48.081 -22.728  1.00  0.00     0.016 C 
HETATM   19  C25 UNL     1      -6.203  50.385 -20.865  1.00  0.00     0.022 A 
HETATM   20  C26 UNL     1      -6.715  49.241 -21.719  1.00  0.00    -0.021 A 
HETATM   21  C30 UNL     1      -7.132  47.914 -21.044  1.00  0.00     0.063 C 
ENDROOT
BRANCH  14  22
HETATM   22  C13 UNL     1       0.014  51.752 -21.737  1.00  0.00    -0.014 C 
HETATM   23  C14 UNL     1      -0.050  52.574 -20.443  1.00  0.00     0.010 C 
BRANCH  22  24
HETATM   24  C15 UNL     1      -0.210  52.647 -22.976  1.00  0.00     0.008 C 
BRANCH  24  25
HETATM   25  C16 UNL     1       0.655  52.252 -24.178  1.00  0.00     0.028 C 
BRANCH  25  26
HETATM   26  C17 UNL     1       0.118  52.845 -25.454  1.00  0.00    -0.017 C 
HETATM   27  C18 UNL     1       0.572  52.663 -26.709  1.00  0.00    -0.028 C 
HETATM   28  C19 UNL     1      -0.088  53.284 -27.903  1.00  0.00     0.051 C 
BRANCH  27  29
HETATM   29  C20 UNL     1       1.784  51.850 -27.030  1.00  0.00     0.265 C 
HETATM   30  O3  UNL     1       2.474  51.274 -26.199  1.00  0.00    -0.302 OA
ENDBRANCH  27  29
ENDBRANCH  25  26
ENDBRANCH  24  25
ENDBRANCH  22  24
ENDBRANCH  14  22
BRANCH  20  31
HETATM   31  C27 UNL     1      -7.581  49.543 -22.960  1.00  0.00     0.021 C 
BRANCH  31  32
HETATM   32  C28 UNL     1      -8.058  48.360 -23.795  1.00  0.00     0.111 C 
BRANCH  32  33
HETATM   33  C29 UNL     1      -8.533  48.750 -25.164  1.00  0.00     0.139 C 
HETATM   34  O4  UNL     1      -8.465  48.069 -26.172  1.00  0.00    -0.650 OA
BRANCH  33  35
HETATM   35  O5  UNL     1      -9.124  49.960 -25.195  1.00  0.00    -0.776 OA
HETATM   36  H41 UNL     1      -9.403  50.048 -26.132  1.00  0.00     0.167 HD
ENDBRANCH  33  35
ENDBRANCH  32  33
ENDBRANCH  31  32
ENDBRANCH  20  31
TORSDOF 9
ENDMDL
MODEL 9
REMARK minimizedAffinity -8.3564806
REMARK  9 active torsions:
REMARK  status: ('A' for Active; 'I' for Inactive)
REMARK    1  A    between atoms: C12_14  and  C13_15 
REMARK    2  A    between atoms: C13_15  and  C15_17 
REMARK    3  A    between atoms: C15_17  and  C16_18 
REMARK    4  A    between atoms: C16_18  and  C17_19 
REMARK    5  A    between atoms: C18_20  and  C20_22 
REMARK    6  A    between atoms: C26_29  and  C27_30 
REMARK    7  A    between atoms: C27_30  and  C28_31 
REMARK    8  A    between atoms: C28_31  and  C29_32 
REMARK    9  A    between atoms: C29_32  and  O5_34 
ROOT
HETATM    1  C1  UNL     1       0.184  53.849 -25.460  1.00  0.00     0.025 C 
HETATM    2  C2  UNL     1      -0.684  52.832 -25.409  1.00  0.00     0.015 C 
HETATM    3  C3  UNL     1      -1.696  52.589 -26.464  1.00  0.00     0.289 C 
HETATM    4  O1  UNL     1      -2.044  53.372 -27.328  1.00  0.00    -0.260 OA
HETATM    5  O2  UNL     1      -2.171  51.324 -26.292  1.00  0.00    -0.311 OA
HETATM    6  C4  UNL     1      -1.343  50.649 -25.337  1.00  0.00     0.142 C 
HETATM    7  C5  UNL     1      -2.099  49.548 -24.613  1.00  0.00     0.039 C 
HETATM    8  C6  UNL     1      -3.295  50.098 -23.829  1.00  0.00     0.006 C 
HETATM    9  C7  UNL     1      -2.830  51.162 -22.801  1.00  0.00    -0.027 A 
HETATM   10  C8  UNL     1      -3.145  50.867 -21.331  1.00  0.00     0.011 C 
HETATM   11  C9  UNL     1      -4.512  50.228 -21.016  1.00  0.00     0.011 C 
HETATM   12  C10 UNL     1      -5.248  49.654 -22.235  1.00  0.00    -0.032 C 
HETATM   13  C11 UNL     1      -6.047  50.812 -22.896  1.00  0.00     0.016 C 
HETATM   14  C12 UNL     1      -6.209  48.450 -21.958  1.00  0.00    -0.002 C 
HETATM   15  C21 UNL     1      -6.239  47.685 -23.310  1.00  0.00     0.006 C 
HETATM   16  C22 UNL     1      -5.092  48.243 -24.173  1.00  0.00     0.011 C 
HETATM   17  C23 UNL     1      -4.180  48.993 -23.182  1.00  0.00    -0.032 C 
HETATM   18  C24 UNL     1      -3.287  47.904 -22.501  1.00  0.00     0.016 C 
HETATM   19  C25 UNL     1      -2.970  52.599 -23.250  1.00  0.00     0.022 A 
HETATM   20  C26 UNL     1      -1.569  52.030 -23.137  1.00  0.00    -0.021 A 
HETATM   21  C30 UNL     1      -0.768  51.719 -24.422  1.00  0.00     0.063 C 
ENDROOT
BRANCH  14  22
HETATM   22  C13 UNL     1      -7.608  48.608 -21.290  1.00  0.00    -0.014 C 
HETATM   23  C14 UNL     1      -7.631  48.907 -19.785  1.00  0.00     0.010 C 
BRANCH  22  24
HETATM   24  C15 UNL     1      -8.531  47.418 -21.635  1.00  0.00     0.008 C 
BRANCH  24  25
HETATM   25  C16 UNL     1      -8.301  46.190 -20.748  1.00  0.00     0.028 C 
BRANCH  25  26
HETATM   26  C17 UNL     1      -8.033  44.961 -21.576  1.00  0.00    -0.017 C 
HETATM   27  C18 UNL     1      -6.863  44.319 -21.752  1.00  0.00    -0.028 C 
HETATM   28  C19 UNL     1      -6.743  43.071 -22.575  1.00  0.00     0.051 C 
BRANCH  27  29
HETATM   29  C20 UNL     1      -5.573  44.794 -21.166  1.00  0.00     0.265 C 
HETATM   30  O3  UNL     1      -5.096  44.388 -20.114  1.00  0.00    -0.302 OA
ENDBRANCH  27  29
ENDBRANCH  25  26
ENDBRANCH  24  25
ENDBRANCH  22  24
ENDBRANCH  14  22
BRANCH  20  31
HETATM   31  C27 UNL     1      -0.646  52.495 -21.991  1.00  0.00     0.021 C 
BRANCH  31  32
HETATM   32  C28 UNL     1       0.777  52.905 -22.352  1.00  0.00     0.111 C 
BRANCH  32  33
HETATM   33  C29 UNL     1       1.281  54.072 -21.554  1.00  0.00     0.139 C 
HETATM   34  O4  UNL     1       1.177  54.222 -20.349  1.00  0.00    -0.650 OA
BRANCH  33  35
HETATM   35  O5  UNL     1       1.942  54.977 -22.301  1.00  0.00    -0.776 OA
HETATM   36  H41 UNL     1       2.230  55.643 -21.639  1.00  0.00     0.167 HD
ENDBRANCH  33  35
ENDBRANCH  32  33
ENDBRANCH  31  32
ENDBRANCH  20  31
TORSDOF 9
ENDMDL
