MODEL 1
REMARK minimizedAffinity -10.3968697
REMARK CNNscore 0.339732438
REMARK CNNaffinity 7.3889823
REMARK  9 active torsions:
REMARK  status: ('A' for Active; 'I' for Inactive)
REMARK    1  A    between atoms: C2_2  and  O1_3 
REMARK    2  A    between atoms: O1_3  and  C3_4 
REMARK    3  A    between atoms: C3_4  and  C4_6 
REMARK    4  A    between atoms: C7_9  and  C8_10 
REMARK    5  A    between atoms: C8_10  and  N1_11 
REMARK    6  A    between atoms: C9_12  and  N2_13 
REMARK    7  A    between atoms: C13_22  and  N5_23 
REMARK    8  A    between atoms: C26_40  and  O5_42 
REMARK    9  A    between atoms: C29_44  and  O6_45 
ROOT
HETATM    1  C4  UNL     1      -1.115   7.953  14.589  1.00  0.00     0.151 C 
HETATM    2  C5  UNL     1      -1.608   7.193  13.594  1.00  0.00     0.055 C 
HETATM    3  C6  UNL     1      -0.689   6.446  12.757  1.00  0.00    -0.020 C 
HETATM    4  C7  UNL     1      -1.052   5.317  12.113  1.00  0.00     0.006 C 
HETATM    5  C17 UNL     1       0.735   6.897  12.762  1.00  0.00     0.042 C 
HETATM    6  C18 UNL     1       1.138   7.622  13.912  1.00  0.00     0.092 C 
HETATM    7  C19 UNL     1       2.473   7.958  14.133  1.00  0.00     0.075 C 
HETATM    8  C20 UNL     1       3.390   7.583  13.178  1.00  0.00     0.081 C 
HETATM    9  O4  UNL     1       4.733   7.810  13.288  1.00  0.00    -0.341 OA
HETATM   10  C21 UNL     1       5.319   6.956  12.256  1.00  0.00     0.171 C 
HETATM   11  C22 UNL     1       4.248   6.787  11.149  1.00  0.00     0.057 C 
HETATM   12  C23 UNL     1       4.382   7.815  10.015  1.00  0.00     0.012 C 
HETATM   13  C24 UNL     1       5.030   9.126  10.453  1.00  0.00     0.004 C 
HETATM   14  C25 UNL     1       6.403   8.952  11.110  1.00  0.00     0.040 C 
HETATM   15  C26 UNL     1       6.641   7.573  11.755  1.00  0.00     0.081 C 
HETATM   16  C27 UNL     1       7.370   6.615  10.802  1.00  0.00     0.049 C 
HETATM   17  C28 UNL     1       3.025   6.974  11.988  1.00  0.00     0.016 C 
HETATM   18  C29 UNL     1       1.691   6.660  11.749  1.00  0.00     0.091 C 
HETATM   19  O7  UNL     1       0.241   8.060  14.869  1.00  0.00    -0.303 OA
ENDROOT
BRANCH   4  20
HETATM   20  C8  UNL     1      -2.381   4.637  12.108  1.00  0.00     0.175 C 
BRANCH  20  21
HETATM   21  N1  UNL     1      -2.173   3.243  11.684  1.00  0.00    -0.188 N 
HETATM   22  C9  UNL     1      -3.080   2.248  11.519  1.00  0.00     0.693 A 
HETATM   23  N7  UNL     1      -2.355   1.186  11.115  1.00  0.00    -0.200 N 
HETATM   24  C15 UNL     1      -1.014   1.467  11.020  1.00  0.00     0.124 A 
HETATM   25  H13 UNL     1      -2.738   0.262  10.899  1.00  0.00     0.183 HD
HETATM   26  C16 UNL     1      -0.886   2.770  11.376  1.00  0.00     0.127 A 
BRANCH  22  27
HETATM   27  N2  UNL     1      -4.521   2.187  11.693  1.00  0.00    -0.125 N 
HETATM   28  C10 UNL     1      -5.375   1.305  11.317  1.00  0.00     0.209 A 
HETATM   29  N3  UNL     1      -6.709   1.579  11.626  1.00  0.00    -0.344 N 
HETATM   30  C11 UNL     1      -6.738   2.728  12.242  1.00  0.00     0.148 A 
ATOM     31  H3  UNL     1      -7.513   0.989  11.410  1.00  0.00     0.167 HD
HETATM   32  C12 UNL     1      -7.779   3.580  12.827  1.00  0.00     0.290 A 
HETATM   33  C14 UNL     1      -5.388   3.240  12.359  1.00  0.00     0.177 A 
HETATM   34  O3  UNL     1      -8.925   3.169  12.794  1.00  0.00    -0.265 OA
HETATM   35  N4  UNL     1      -7.361   4.769  13.367  1.00  0.00    -0.154 N 
HETATM   36  C13 UNL     1      -6.109   5.107  13.397  1.00  0.00     0.680 A 
ATOM     37  H4  UNL     1      -8.055   5.406  13.758  1.00  0.00     0.187 HD
HETATM   38  N6  UNL     1      -5.063   4.346  12.915  1.00  0.00    -0.173 N 
ATOM     39  H6  UNL     1      -4.091   4.646  12.997  1.00  0.00     0.186 HD
BRANCH  36  40
HETATM   40  N5  UNL     1      -5.790   6.307  13.922  1.00  0.00    -0.234 N 
HETATM   41  H11 UNL     1      -4.896   6.423  14.380  1.00  0.00     0.174 HD
HETATM   42  H12 UNL     1      -6.550   6.763  14.426  1.00  0.00     0.174 HD
ENDBRANCH  36  40
ENDBRANCH  22  27
ENDBRANCH  20  21
ENDBRANCH   4  20
BRANCH   1  43
HETATM   43  C3  UNL     1      -2.094   8.665  15.459  1.00  0.00     0.317 C 
HETATM   44  O2  UNL     1      -2.225   8.427  16.653  1.00  0.00    -0.257 OA
BRANCH  43  45
HETATM   45  O1  UNL     1      -2.785   9.575  14.736  1.00  0.00    -0.316 OA
BRANCH  45  46
HETATM   46  C2  UNL     1      -3.810  10.264  15.463  1.00  0.00     0.175 C 
HETATM   47  C1  UNL     1      -5.078   9.435  15.393  1.00  0.00     0.034 C 
ENDBRANCH  45  46
ENDBRANCH  43  45
ENDBRANCH   1  43
BRANCH  18  48
HETATM   48  O6  UNL     1       1.345   6.127  10.532  1.00  0.00    -0.354 OA
HETATM   49  C30 UNL     1       0.914   7.174   9.653  1.00  0.00     0.210 C 
ENDBRANCH  18  48
BRANCH  15  50
HETATM   50  O5  UNL     1       7.521   7.738  12.877  1.00  0.00    -0.388 OA
HETATM   51  H28 UNL     1       8.294   8.259  12.593  1.00  0.00     0.210 HD
ENDBRANCH  15  50
TORSDOF 9
ENDMDL
MODEL 2
REMARK minimizedAffinity -9.40522957
REMARK CNNscore 0.271540731
REMARK CNNaffinity 6.91871691
REMARK  9 active torsions:
REMARK  status: ('A' for Active; 'I' for Inactive)
REMARK    1  A    between atoms: C2_2  and  O1_3 
REMARK    2  A    between atoms: O1_3  and  C3_4 
REMARK    3  A    between atoms: C3_4  and  C4_6 
REMARK    4  A    between atoms: C7_9  and  C8_10 
REMARK    5  A    between atoms: C8_10  and  N1_11 
REMARK    6  A    between atoms: C9_12  and  N2_13 
REMARK    7  A    between atoms: C13_22  and  N5_23 
REMARK    8  A    between atoms: C26_40  and  O5_42 
REMARK    9  A    between atoms: C29_44  and  O6_45 
ROOT
HETATM    1  C4  UNL     1       2.575   6.287  10.778  1.00  0.00     0.151 C 
HETATM    2  C5  UNL     1       1.531   6.058  11.596  1.00  0.00     0.055 C 
HETATM    3  C6  UNL     1       1.143   7.083  12.546  1.00  0.00    -0.020 C 
HETATM    4  C7  UNL     1      -0.117   7.190  13.019  1.00  0.00     0.006 C 
HETATM    5  C17 UNL     1       2.167   8.123  12.861  1.00  0.00     0.042 C 
HETATM    6  C18 UNL     1       3.165   8.312  11.872  1.00  0.00     0.092 C 
HETATM    7  C19 UNL     1       4.083   9.359  11.950  1.00  0.00     0.075 C 
HETATM    8  C20 UNL     1       4.004  10.193  13.042  1.00  0.00     0.081 C 
HETATM    9  O4  UNL     1       4.811  11.282  13.223  1.00  0.00    -0.341 OA
HETATM   10  C21 UNL     1       4.151  12.035  14.288  1.00  0.00     0.171 C 
HETATM   11  C22 UNL     1       3.358  11.012  15.140  1.00  0.00     0.057 C 
HETATM   12  C23 UNL     1       4.149  10.488  16.349  1.00  0.00     0.012 C 
HETATM   13  C24 UNL     1       5.662  10.517  16.147  1.00  0.00     0.004 C 
HETATM   14  C25 UNL     1       6.213  11.896  15.770  1.00  0.00     0.040 C 
HETATM   15  C26 UNL     1       5.199  12.834  15.089  1.00  0.00     0.081 C 
HETATM   16  C27 UNL     1       4.521  13.773  16.099  1.00  0.00     0.049 C 
HETATM   17  C28 UNL     1       3.119   9.978  14.087  1.00  0.00     0.016 C 
HETATM   18  C29 UNL     1       2.218   8.920  14.027  1.00  0.00     0.091 C 
HETATM   19  O7  UNL     1       3.309   7.467  10.787  1.00  0.00    -0.303 OA
ENDROOT
BRANCH   4  20
HETATM   20  C8  UNL     1      -1.303   6.338  12.706  1.00  0.00     0.175 C 
BRANCH  20  21
HETATM   21  N1  UNL     1      -2.511   7.143  12.944  1.00  0.00    -0.188 N 
HETATM   22  C9  UNL     1      -3.807   6.750  13.012  1.00  0.00     0.693 A 
HETATM   23  N7  UNL     1      -4.497   7.883  13.254  1.00  0.00    -0.200 N 
HETATM   24  C15 UNL     1      -3.685   8.987  13.339  1.00  0.00     0.124 A 
HETATM   25  H13 UNL     1      -5.513   7.940  13.365  1.00  0.00     0.183 HD
HETATM   26  C16 UNL     1      -2.422   8.530  13.146  1.00  0.00     0.127 A 
BRANCH  22  27
HETATM   27  N2  UNL     1      -4.456   5.457  12.880  1.00  0.00    -0.125 N 
HETATM   28  C10 UNL     1      -4.006   4.332  12.456  1.00  0.00     0.209 A 
HETATM   29  N3  UNL     1      -4.925   3.280  12.431  1.00  0.00    -0.344 N 
HETATM   30  C11 UNL     1      -6.064   3.747  12.861  1.00  0.00     0.148 A 
ATOM     31  H3  UNL     1      -4.739   2.322  12.131  1.00  0.00     0.167 HD
HETATM   32  C12 UNL     1      -7.406   3.199  13.085  1.00  0.00     0.290 A 
HETATM   33  C14 UNL     1      -5.910   5.148  13.192  1.00  0.00     0.177 A 
HETATM   34  O3  UNL     1      -7.573   2.013  12.865  1.00  0.00    -0.265 OA
HETATM   35  N4  UNL     1      -8.357   4.080  13.533  1.00  0.00    -0.154 N 
HETATM   36  C13 UNL     1      -8.078   5.322  13.783  1.00  0.00     0.680 A 
ATOM     37  H4  UNL     1      -9.311   3.748  13.673  1.00  0.00     0.187 HD
HETATM   38  N6  UNL     1      -6.835   5.907  13.646  1.00  0.00    -0.173 N 
ATOM     39  H6  UNL     1      -6.665   6.882  13.893  1.00  0.00     0.186 HD
BRANCH  36  40
HETATM   40  N5  UNL     1      -9.081   6.124  14.193  1.00  0.00    -0.234 N 
HETATM   41  H11 UNL     1      -8.872   6.897  14.811  1.00  0.00     0.174 HD
HETATM   42  H12 UNL     1      -9.936   5.633  14.454  1.00  0.00     0.174 HD
ENDBRANCH  36  40
ENDBRANCH  22  27
ENDBRANCH  20  21
ENDBRANCH   4  20
BRANCH   1  43
HETATM   43  C3  UNL     1       2.912   5.231   9.782  1.00  0.00     0.317 C 
HETATM   44  O2  UNL     1       2.848   4.033  10.029  1.00  0.00    -0.257 OA
BRANCH  43  45
HETATM   45  O1  UNL     1       3.287   5.795   8.611  1.00  0.00    -0.316 OA
BRANCH  45  46
HETATM   46  C2  UNL     1       2.360   6.752   8.083  1.00  0.00     0.175 C 
HETATM   47  C1  UNL     1       2.171   6.460   6.607  1.00  0.00     0.034 C 
ENDBRANCH  45  46
ENDBRANCH  43  45
ENDBRANCH   1  43
BRANCH  18  48
HETATM   48  O6  UNL     1       1.404   8.682  15.107  1.00  0.00    -0.354 OA
HETATM   49  C30 UNL     1       2.005   7.694  15.954  1.00  0.00     0.210 C 
ENDBRANCH  18  48
BRANCH  15  50
HETATM   50  O5  UNL     1       5.905  13.695  14.184  1.00  0.00    -0.388 OA
HETATM   51  H28 UNL     1       6.661  14.089  14.655  1.00  0.00     0.210 HD
ENDBRANCH  15  50
TORSDOF 9
ENDMDL
MODEL 3
REMARK minimizedAffinity -10.1776314
REMARK CNNscore 0.162682429
REMARK CNNaffinity 7.23506689
REMARK  9 active torsions:
REMARK  status: ('A' for Active; 'I' for Inactive)
REMARK    1  A    between atoms: C2_2  and  O1_3 
REMARK    2  A    between atoms: O1_3  and  C3_4 
REMARK    3  A    between atoms: C3_4  and  C4_6 
REMARK    4  A    between atoms: C7_9  and  C8_10 
REMARK    5  A    between atoms: C8_10  and  N1_11 
REMARK    6  A    between atoms: C9_12  and  N2_13 
REMARK    7  A    between atoms: C13_22  and  N5_23 
REMARK    8  A    between atoms: C26_40  and  O5_42 
REMARK    9  A    between atoms: C29_44  and  O6_45 
ROOT
HETATM    1  C4  UNL     1      -0.898   4.778  11.356  1.00  0.00     0.151 C 
HETATM    2  C5  UNL     1      -1.526   5.752  12.040  1.00  0.00     0.055 C 
HETATM    3  C6  UNL     1      -0.849   7.020  12.240  1.00  0.00    -0.020 C 
HETATM    4  C7  UNL     1      -1.521   8.175  12.431  1.00  0.00     0.006 C 
HETATM    5  C17 UNL     1       0.634   7.020  12.068  1.00  0.00     0.042 C 
HETATM    6  C18 UNL     1       1.151   5.977  11.257  1.00  0.00     0.092 C 
HETATM    7  C19 UNL     1       2.490   5.948  10.871  1.00  0.00     0.075 C 
HETATM    8  C20 UNL     1       3.306   6.957  11.328  1.00  0.00     0.081 C 
HETATM    9  O4  UNL     1       4.626   7.075  10.991  1.00  0.00    -0.341 OA
HETATM   10  C21 UNL     1       4.973   8.434  11.401  1.00  0.00     0.171 C 
HETATM   11  C22 UNL     1       4.025   8.810  12.568  1.00  0.00     0.057 C 
HETATM   12  C23 UNL     1       4.622   8.513  13.953  1.00  0.00     0.012 C 
HETATM   13  C24 UNL     1       5.643   7.378  13.947  1.00  0.00     0.004 C 
HETATM   14  C25 UNL     1       6.795   7.584  12.958  1.00  0.00     0.040 C 
HETATM   15  C26 UNL     1       6.470   8.504  11.767  1.00  0.00     0.081 C 
HETATM   16  C27 UNL     1       6.906   9.954  12.029  1.00  0.00     0.049 C 
HETATM   17  C28 UNL     1       2.869   7.931  12.213  1.00  0.00     0.016 C 
HETATM   18  C29 UNL     1       1.541   7.950  12.623  1.00  0.00     0.091 C 
HETATM   19  O7  UNL     1       0.376   4.919  10.819  1.00  0.00    -0.303 OA
ENDROOT
BRANCH   4  20
HETATM   20  C8  UNL     1      -2.997   8.394  12.485  1.00  0.00     0.175 C 
BRANCH  20  21
HETATM   21  N1  UNL     1      -3.410   8.325  13.896  1.00  0.00    -0.188 N 
HETATM   22  C9  UNL     1      -4.223   7.432  14.513  1.00  0.00     0.693 A 
HETATM   23  N7  UNL     1      -4.256   7.829  15.800  1.00  0.00    -0.200 N 
HETATM   24  C15 UNL     1      -3.494   8.949  16.027  1.00  0.00     0.124 A 
HETATM   25  H13 UNL     1      -4.784   7.365  16.544  1.00  0.00     0.183 HD
HETATM   26  C16 UNL     1      -2.951   9.272  14.826  1.00  0.00     0.127 A 
BRANCH  22  27
HETATM   27  N2  UNL     1      -4.955   6.270  14.037  1.00  0.00    -0.125 N 
HETATM   28  C10 UNL     1      -4.539   5.158  13.549  1.00  0.00     0.209 A 
HETATM   29  N3  UNL     1      -5.531   4.257  13.155  1.00  0.00    -0.344 N 
HETATM   30  C11 UNL     1      -6.684   4.818  13.394  1.00  0.00     0.148 A 
ATOM     31  H3  UNL     1      -5.382   3.331  12.755  1.00  0.00     0.167 HD
HETATM   32  C12 UNL     1      -8.091   4.439  13.228  1.00  0.00     0.290 A 
HETATM   33  C14 UNL     1      -6.465   6.130  13.970  1.00  0.00     0.177 A 
HETATM   34  O3  UNL     1      -8.326   3.327  12.790  1.00  0.00    -0.265 OA
HETATM   35  N4  UNL     1      -9.022   5.378  13.591  1.00  0.00    -0.154 N 
HETATM   36  C13 UNL     1      -8.681   6.526  14.090  1.00  0.00     0.680 A 
ATOM     37  H4  UNL     1     -10.012   5.168  13.464  1.00  0.00     0.187 HD
HETATM   38  N6  UNL     1      -7.387   6.944  14.325  1.00  0.00    -0.173 N 
ATOM     39  H6  UNL     1      -7.177   7.845  14.754  1.00  0.00     0.186 HD
BRANCH  36  40
HETATM   40  N5  UNL     1      -9.661   7.400  14.393  1.00  0.00    -0.234 N 
HETATM   41  H11 UNL     1      -9.525   8.049  15.157  1.00  0.00     0.174 HD
HETATM   42  H12 UNL     1     -10.601   7.003  14.379  1.00  0.00     0.174 HD
ENDBRANCH  36  40
ENDBRANCH  22  27
ENDBRANCH  20  21
ENDBRANCH   4  20
BRANCH   1  43
HETATM   43  C3  UNL     1      -1.645   3.508  11.128  1.00  0.00     0.317 C 
HETATM   44  O2  UNL     1      -2.850   3.399  11.311  1.00  0.00    -0.257 OA
BRANCH  43  45
HETATM   45  O1  UNL     1      -0.801   2.539  10.708  1.00  0.00    -0.316 OA
BRANCH  45  46
HETATM   46  C2  UNL     1      -1.332   1.209  10.780  1.00  0.00     0.175 C 
HETATM   47  C1  UNL     1      -2.633   1.263  11.557  1.00  0.00     0.034 C 
ENDBRANCH  45  46
ENDBRANCH  43  45
ENDBRANCH   1  43
BRANCH  18  48
HETATM   48  O6  UNL     1       1.151   8.877  13.557  1.00  0.00    -0.354 OA
HETATM   49  C30 UNL     1       1.177   8.285  14.863  1.00  0.00     0.210 C 
ENDBRANCH  18  48
BRANCH  15  50
HETATM   50  O5  UNL     1       7.237   8.075  10.633  1.00  0.00    -0.388 OA
HETATM   51  H28 UNL     1       8.167   7.977  10.905  1.00  0.00     0.210 HD
ENDBRANCH  15  50
TORSDOF 9
ENDMDL
MODEL 4
REMARK minimizedAffinity -8.88241482
REMARK CNNscore 0.15402247
REMARK CNNaffinity 6.67395782
REMARK  9 active torsions:
REMARK  status: ('A' for Active; 'I' for Inactive)
REMARK    1  A    between atoms: C2_2  and  O1_3 
REMARK    2  A    between atoms: O1_3  and  C3_4 
REMARK    3  A    between atoms: C3_4  and  C4_6 
REMARK    4  A    between atoms: C7_9  and  C8_10 
REMARK    5  A    between atoms: C8_10  and  N1_11 
REMARK    6  A    between atoms: C9_12  and  N2_13 
REMARK    7  A    between atoms: C13_22  and  N5_23 
REMARK    8  A    between atoms: C26_40  and  O5_42 
REMARK    9  A    between atoms: C29_44  and  O6_45 
ROOT
HETATM    1  C4  UNL     1      -0.583   9.294  16.529  1.00  0.00     0.151 C 
HETATM    2  C5  UNL     1      -0.948   8.376  15.615  1.00  0.00     0.055 C 
HETATM    3  C6  UNL     1       0.078   7.572  14.977  1.00  0.00    -0.020 C 
HETATM    4  C7  UNL     1      -0.174   6.345  14.474  1.00  0.00     0.006 C 
HETATM    5  C17 UNL     1       1.474   8.099  15.039  1.00  0.00     0.042 C 
HETATM    6  C18 UNL     1       1.736   9.000  16.102  1.00  0.00     0.092 C 
HETATM    7  C19 UNL     1       3.028   9.439  16.386  1.00  0.00     0.075 C 
HETATM    8  C20 UNL     1       4.045   8.986  15.577  1.00  0.00     0.081 C 
HETATM    9  O4  UNL     1       5.362   9.302  15.768  1.00  0.00    -0.341 OA
HETATM   10  C21 UNL     1       6.078   8.347  14.925  1.00  0.00     0.171 C 
HETATM   11  C22 UNL     1       5.123   7.963  13.766  1.00  0.00     0.057 C 
HETATM   12  C23 UNL     1       5.316   8.828  12.510  1.00  0.00     0.012 C 
HETATM   13  C24 UNL     1       5.862  10.222  12.808  1.00  0.00     0.004 C 
HETATM   14  C25 UNL     1       7.175  10.220  13.599  1.00  0.00     0.040 C 
HETATM   15  C26 UNL     1       7.412   8.961  14.455  1.00  0.00     0.081 C 
HETATM   16  C27 UNL     1       8.268   7.921  13.716  1.00  0.00     0.049 C 
HETATM   17  C28 UNL     1       3.819   8.197  14.461  1.00  0.00     0.016 C 
HETATM   18  C29 UNL     1       2.529   7.777  14.157  1.00  0.00     0.091 C 
HETATM   19  O7  UNL     1       0.735   9.516  16.905  1.00  0.00    -0.303 OA
ENDROOT
BRANCH   4  20
HETATM   20  C8  UNL     1      -1.466   5.596  14.454  1.00  0.00     0.175 C 
BRANCH  20  21
HETATM   21  N1  UNL     1      -1.639   5.034  13.105  1.00  0.00    -0.188 N 
HETATM   22  C9  UNL     1      -2.777   4.662  12.467  1.00  0.00     0.693 A 
HETATM   23  N7  UNL     1      -2.365   4.222  11.260  1.00  0.00    -0.200 N 
HETATM   24  C15 UNL     1      -1.003   4.297  11.108  1.00  0.00     0.124 A 
HETATM   25  H13 UNL     1      -2.980   3.866  10.524  1.00  0.00     0.183 HD
HETATM   26  C16 UNL     1      -0.531   4.813  12.271  1.00  0.00     0.127 A 
BRANCH  22  27
HETATM   27  N2  UNL     1      -4.176   4.675  12.854  1.00  0.00    -0.125 N 
HETATM   28  C10 UNL     1      -4.832   5.484  13.606  1.00  0.00     0.209 A 
HETATM   29  N3  UNL     1      -6.181   5.179  13.798  1.00  0.00    -0.344 N 
HETATM   30  C11 UNL     1      -6.432   4.086  13.132  1.00  0.00     0.148 A 
ATOM     31  H3  UNL     1      -6.848   5.712  14.356  1.00  0.00     0.167 HD
HETATM   32  C12 UNL     1      -7.609   3.242  12.903  1.00  0.00     0.290 A 
HETATM   33  C14 UNL     1      -5.223   3.645  12.467  1.00  0.00     0.177 A 
HETATM   34  O3  UNL     1      -8.662   3.598  13.404  1.00  0.00    -0.265 OA
HETATM   35  N4  UNL     1      -7.418   2.123  12.135  1.00  0.00    -0.154 N 
HETATM   36  C13 UNL     1      -6.267   1.844  11.604  1.00  0.00     0.680 A 
ATOM     37  H4  UNL     1      -8.203   1.491  11.976  1.00  0.00     0.187 HD
HETATM   38  N6  UNL     1      -5.123   2.606  11.727  1.00  0.00    -0.173 N 
ATOM     39  H6  UNL     1      -4.253   2.357  11.257  1.00  0.00     0.186 HD
BRANCH  36  40
HETATM   40  N5  UNL     1      -6.161   0.708  10.886  1.00  0.00    -0.234 N 
HETATM   41  H11 UNL     1      -5.506   0.670  10.116  1.00  0.00     0.174 HD
HETATM   42  H12 UNL     1      -7.052   0.263  10.664  1.00  0.00     0.174 HD
ENDBRANCH  36  40
ENDBRANCH  22  27
ENDBRANCH  20  21
ENDBRANCH   4  20
BRANCH   1  43
HETATM   43  C3  UNL     1      -1.669  10.064  17.199  1.00  0.00     0.317 C 
HETATM   44  O2  UNL     1      -2.602   9.532  17.786  1.00  0.00    -0.257 OA
BRANCH  43  45
HETATM   45  O1  UNL     1      -1.460  11.392  17.051  1.00  0.00    -0.316 OA
BRANCH  45  46
HETATM   46  C2  UNL     1      -2.165  12.218  17.987  1.00  0.00     0.175 C 
HETATM   47  C1  UNL     1      -1.169  12.726  19.011  1.00  0.00     0.034 C 
ENDBRANCH  45  46
ENDBRANCH  43  45
ENDBRANCH   1  43
BRANCH  18  48
HETATM   48  O6  UNL     1       2.322   7.060  13.005  1.00  0.00    -0.354 OA
HETATM   49  C30 UNL     1       1.907   7.945  11.955  1.00  0.00     0.210 C 
ENDBRANCH  18  48
BRANCH  15  50
HETATM   50  O5  UNL     1       8.176   9.331  15.612  1.00  0.00    -0.388 OA
HETATM   51  H28 UNL     1       8.948   9.850  15.323  1.00  0.00     0.210 HD
ENDBRANCH  15  50
TORSDOF 9
ENDMDL
MODEL 5
REMARK minimizedAffinity -8.19409466
REMARK CNNscore 0.126092851
REMARK CNNaffinity 6.07590055
REMARK  9 active torsions:
REMARK  status: ('A' for Active; 'I' for Inactive)
REMARK    1  A    between atoms: C2_2  and  O1_3 
REMARK    2  A    between atoms: O1_3  and  C3_4 
REMARK    3  A    between atoms: C3_4  and  C4_6 
REMARK    4  A    between atoms: C7_9  and  C8_10 
REMARK    5  A    between atoms: C8_10  and  N1_11 
REMARK    6  A    between atoms: C9_12  and  N2_13 
REMARK    7  A    between atoms: C13_22  and  N5_23 
REMARK    8  A    between atoms: C26_40  and  O5_42 
REMARK    9  A    between atoms: C29_44  and  O6_45 
ROOT
HETATM    1  C4  UNL     1     -19.341   1.577  11.146  1.00  0.00     0.151 C 
HETATM    2  C5  UNL     1     -18.990   2.461  12.098  1.00  0.00     0.055 C 
HETATM    3  C6  UNL     1     -17.810   2.200  12.901  1.00  0.00    -0.020 C 
HETATM    4  C7  UNL     1     -17.099   3.189  13.484  1.00  0.00     0.006 C 
HETATM    5  C17 UNL     1     -17.319   0.790  12.928  1.00  0.00     0.042 C 
HETATM    6  C18 UNL     1     -17.703  -0.007  11.819  1.00  0.00     0.092 C 
HETATM    7  C19 UNL     1     -17.181  -1.285  11.623  1.00  0.00     0.075 C 
HETATM    8  C20 UNL     1     -16.297  -1.762  12.563  1.00  0.00     0.081 C 
HETATM    9  O4  UNL     1     -15.678  -2.978  12.472  1.00  0.00    -0.341 OA
HETATM   10  C21 UNL     1     -14.606  -2.901  13.463  1.00  0.00     0.171 C 
HETATM   11  C22 UNL     1     -15.069  -1.902  14.553  1.00  0.00     0.057 C 
HETATM   12  C23 UNL     1     -15.769  -2.583  15.740  1.00  0.00     0.012 C 
HETATM   13  C24 UNL     1     -16.447  -3.900  15.374  1.00  0.00     0.004 C 
HETATM   14  C25 UNL     1     -15.511  -4.920  14.716  1.00  0.00     0.040 C 
HETATM   15  C26 UNL     1     -14.290  -4.311  14.003  1.00  0.00     0.081 C 
HETATM   16  C27 UNL     1     -13.051  -4.288  14.910  1.00  0.00     0.049 C 
HETATM   17  C28 UNL     1     -15.983  -1.063  13.718  1.00  0.00     0.016 C 
HETATM   18  C29 UNL     1     -16.520   0.201  13.932  1.00  0.00     0.091 C 
HETATM   19  O7  UNL     1     -18.625   0.416  10.880  1.00  0.00    -0.303 OA
ENDROOT
BRANCH   4  20
HETATM   20  C8  UNL     1     -17.350   4.660  13.446  1.00  0.00     0.175 C 
BRANCH  20  21
HETATM   21  N1  UNL     1     -16.853   5.234  14.706  1.00  0.00    -0.188 N 
HETATM   22  C9  UNL     1     -15.966   6.241  14.903  1.00  0.00     0.693 A 
HETATM   23  N7  UNL     1     -15.876   6.363  16.243  1.00  0.00    -0.200 N 
HETATM   24  C15 UNL     1     -16.673   5.465  16.909  1.00  0.00     0.124 A 
HETATM   25  H13 UNL     1     -15.286   7.040  16.732  1.00  0.00     0.183 HD
HETATM   26  C16 UNL     1     -17.300   4.745  15.945  1.00  0.00     0.127 A 
BRANCH  22  27
HETATM   27  N2  UNL     1     -15.212   7.085  13.992  1.00  0.00    -0.125 N 
HETATM   28  C10 UNL     1     -15.598   7.815  13.009  1.00  0.00     0.209 A 
HETATM   29  N3  UNL     1     -14.588   8.481  12.312  1.00  0.00    -0.344 N 
HETATM   30  C11 UNL     1     -13.454   8.161  12.870  1.00  0.00     0.148 A 
ATOM     31  H3  UNL     1     -14.714   9.103  11.513  1.00  0.00     0.167 HD
HETATM   32  C12 UNL     1     -12.043   8.497  12.649  1.00  0.00     0.290 A 
HETATM   33  C14 UNL     1     -13.704   7.261  13.977  1.00  0.00     0.177 A 
HETATM   34  O3  UNL     1     -11.786   9.287  11.758  1.00  0.00    -0.265 OA
HETATM   35  N4  UNL     1     -11.135   7.890  13.477  1.00  0.00    -0.154 N 
HETATM   36  C13 UNL     1     -11.502   7.092  14.431  1.00  0.00     0.680 A 
ATOM     37  H4  UNL     1     -10.141   8.072  13.339  1.00  0.00     0.187 HD
HETATM   38  N6  UNL     1     -12.806   6.760  14.740  1.00  0.00    -0.173 N 
ATOM     39  H6  UNL     1     -13.040   6.154  15.526  1.00  0.00     0.186 HD
BRANCH  36  40
HETATM   40  N5  UNL     1     -10.541   6.517  15.180  1.00  0.00    -0.234 N 
HETATM   41  H11 UNL     1     -10.736   6.294  16.147  1.00  0.00     0.174 HD
HETATM   42  H12 UNL     1      -9.610   6.913  15.050  1.00  0.00     0.174 HD
ENDBRANCH  36  40
ENDBRANCH  22  27
ENDBRANCH  20  21
ENDBRANCH   4  20
BRANCH   1  43
HETATM   43  C3  UNL     1     -20.529   1.905  10.308  1.00  0.00     0.317 C 
HETATM   44  O2  UNL     1     -21.415   2.668  10.673  1.00  0.00    -0.257 OA
BRANCH  43  45
HETATM   45  O1  UNL     1     -20.467   1.244   9.130  1.00  0.00    -0.316 OA
BRANCH  45  46
HETATM   46  C2  UNL     1     -21.628   1.387   8.302  1.00  0.00     0.175 C 
HETATM   47  C1  UNL     1     -21.173   1.824   6.923  1.00  0.00     0.034 C 
ENDBRANCH  45  46
ENDBRANCH  43  45
ENDBRANCH   1  43
BRANCH  18  48
HETATM   48  O6  UNL     1     -16.254   0.840  15.118  1.00  0.00    -0.354 OA
HETATM   49  C30 UNL     1     -14.915   1.353  15.098  1.00  0.00     0.210 C 
ENDBRANCH  18  48
BRANCH  15  50
HETATM   50  O5  UNL     1     -13.937  -5.154  12.897  1.00  0.00    -0.388 OA
HETATM   51  H28 UNL     1     -13.882  -6.074  13.212  1.00  0.00     0.210 HD
ENDBRANCH  15  50
TORSDOF 9
ENDMDL
MODEL 6
REMARK minimizedAffinity -7.87029552
REMARK CNNscore 0.0971836299
REMARK CNNaffinity 6.34676361
REMARK  9 active torsions:
REMARK  status: ('A' for Active; 'I' for Inactive)
REMARK    1  A    between atoms: C2_2  and  O1_3 
REMARK    2  A    between atoms: O1_3  and  C3_4 
REMARK    3  A    between atoms: C3_4  and  C4_6 
REMARK    4  A    between atoms: C7_9  and  C8_10 
REMARK    5  A    between atoms: C8_10  and  N1_11 
REMARK    6  A    between atoms: C9_12  and  N2_13 
REMARK    7  A    between atoms: C13_22  and  N5_23 
REMARK    8  A    between atoms: C26_40  and  O5_42 
REMARK    9  A    between atoms: C29_44  and  O6_45 
ROOT
HETATM    1  C4  UNL     1      -4.143   8.665  14.324  1.00  0.00     0.151 C 
HETATM    2  C5  UNL     1      -3.425   8.795  15.455  1.00  0.00     0.055 C 
HETATM    3  C6  UNL     1      -2.000   9.046  15.359  1.00  0.00    -0.020 C 
HETATM    4  C7  UNL     1      -1.310   9.678  16.332  1.00  0.00     0.006 C 
HETATM    5  C17 UNL     1      -1.349   8.713  14.057  1.00  0.00     0.042 C 
HETATM    6  C18 UNL     1      -2.216   8.687  12.935  1.00  0.00     0.092 C 
HETATM    7  C19 UNL     1      -1.726   8.559  11.636  1.00  0.00     0.075 C 
HETATM    8  C20 UNL     1      -0.365   8.430  11.480  1.00  0.00     0.081 C 
HETATM    9  O4  UNL     1       0.252   8.340  10.263  1.00  0.00    -0.341 OA
HETATM   10  C21 UNL     1       1.663   8.571  10.567  1.00  0.00     0.171 C 
HETATM   11  C22 UNL     1       1.890   8.116  12.031  1.00  0.00     0.057 C 
HETATM   12  C23 UNL     1       2.368   6.659  12.145  1.00  0.00     0.012 C 
HETATM   13  C24 UNL     1       1.918   5.777  10.983  1.00  0.00     0.004 C 
HETATM   14  C25 UNL     1       2.322   6.311   9.605  1.00  0.00     0.040 C 
HETATM   15  C26 UNL     1       2.547   7.833   9.541  1.00  0.00     0.081 C 
HETATM   16  C27 UNL     1       4.027   8.201   9.725  1.00  0.00     0.049 C 
HETATM   17  C28 UNL     1       0.506   8.336  12.554  1.00  0.00     0.016 C 
HETATM   18  C29 UNL     1       0.021   8.437  13.852  1.00  0.00     0.091 C 
HETATM   19  O7  UNL     1      -3.592   8.764  13.053  1.00  0.00    -0.303 OA
ENDROOT
BRANCH   4  20
HETATM   20  C8  UNL     1      -1.815  10.212  17.632  1.00  0.00     0.175 C 
BRANCH  20  21
HETATM   21  N1  UNL     1      -0.794  11.126  18.170  1.00  0.00    -0.188 N 
HETATM   22  C9  UNL     1      -0.190  12.186  17.578  1.00  0.00     0.693 A 
HETATM   23  N7  UNL     1       0.652  12.669  18.514  1.00  0.00    -0.200 N 
HETATM   24  C15 UNL     1       0.608  11.951  19.684  1.00  0.00     0.124 A 
HETATM   25  H13 UNL     1       1.265  13.478  18.391  1.00  0.00     0.183 HD
HETATM   26  C16 UNL     1      -0.308  10.970  19.479  1.00  0.00     0.127 A 
BRANCH  22  27
HETATM   27  N2  UNL     1      -0.314  12.784  16.260  1.00  0.00    -0.125 N 
HETATM   28  C10 UNL     1       0.552  12.943  15.326  1.00  0.00     0.209 A 
HETATM   29  N3  UNL     1       0.098  13.598  14.179  1.00  0.00    -0.344 N 
HETATM   30  C11 UNL     1      -1.155  13.901  14.375  1.00  0.00     0.148 A 
ATOM     31  H3  UNL     1       0.645  13.803  13.343  1.00  0.00     0.167 HD
HETATM   32  C12 UNL     1      -2.207  14.571  13.602  1.00  0.00     0.290 A 
HETATM   33  C14 UNL     1      -1.560  13.432  15.684  1.00  0.00     0.177 A 
HETATM   34  O3  UNL     1      -1.927  14.942  12.476  1.00  0.00    -0.265 OA
HETATM   35  N4  UNL     1      -3.422  14.714  14.222  1.00  0.00    -0.154 N 
HETATM   36  C13 UNL     1      -3.644  14.248  15.412  1.00  0.00     0.680 A 
ATOM     37  H4  UNL     1      -4.172  15.201  13.733  1.00  0.00     0.187 HD
HETATM   38  N6  UNL     1      -2.729  13.564  16.188  1.00  0.00    -0.173 N 
ATOM     39  H6  UNL     1      -2.970  13.188  17.105  1.00  0.00     0.186 HD
BRANCH  36  40
HETATM   40  N5  UNL     1      -4.859  14.458  15.956  1.00  0.00    -0.234 N 
HETATM   41  H11 UNL     1      -5.233  13.779  16.606  1.00  0.00     0.174 HD
HETATM   42  H12 UNL     1      -5.562  14.802  15.302  1.00  0.00     0.174 HD
ENDBRANCH  36  40
ENDBRANCH  22  27
ENDBRANCH  20  21
ENDBRANCH   4  20
BRANCH   1  43
HETATM   43  C3  UNL     1      -5.613   8.459  14.464  1.00  0.00     0.317 C 
HETATM   44  O2  UNL     1      -6.299   9.066  15.276  1.00  0.00    -0.257 OA
BRANCH  43  45
HETATM   45  O1  UNL     1      -6.039   7.525  13.583  1.00  0.00    -0.316 OA
BRANCH  45  46
HETATM   46  C2  UNL     1      -6.052   6.185  14.091  1.00  0.00     0.175 C 
HETATM   47  C1  UNL     1      -6.078   6.254  15.606  1.00  0.00     0.034 C 
ENDBRANCH  45  46
ENDBRANCH  43  45
ENDBRANCH   1  43
BRANCH  18  48
HETATM   48  O6  UNL     1       0.892   8.265  14.899  1.00  0.00    -0.354 OA
HETATM   49  C30 UNL     1       1.725   9.425  15.027  1.00  0.00     0.210 C 
ENDBRANCH  18  48
BRANCH  15  50
HETATM   50  O5  UNL     1       2.201   8.294   8.227  1.00  0.00    -0.388 OA
HETATM   51  H28 UNL     1       2.648   7.729   7.571  1.00  0.00     0.210 HD
ENDBRANCH  15  50
TORSDOF 9
ENDMDL
MODEL 7
REMARK minimizedAffinity -7.96777773
REMARK CNNscore 0.0716250688
REMARK CNNaffinity 6.12509489
REMARK  9 active torsions:
REMARK  status: ('A' for Active; 'I' for Inactive)
REMARK    1  A    between atoms: C2_2  and  O1_3 
REMARK    2  A    between atoms: O1_3  and  C3_4 
REMARK    3  A    between atoms: C3_4  and  C4_6 
REMARK    4  A    between atoms: C7_9  and  C8_10 
REMARK    5  A    between atoms: C8_10  and  N1_11 
REMARK    6  A    between atoms: C9_12  and  N2_13 
REMARK    7  A    between atoms: C13_22  and  N5_23 
REMARK    8  A    between atoms: C26_40  and  O5_42 
REMARK    9  A    between atoms: C29_44  and  O6_45 
ROOT
HETATM    1  C4  UNL     1     -16.914   8.423  11.951  1.00  0.00     0.151 C 
HETATM    2  C5  UNL     1     -16.106   8.879  12.926  1.00  0.00     0.055 C 
HETATM    3  C6  UNL     1     -15.507   7.929  13.846  1.00  0.00    -0.020 C 
HETATM    4  C7  UNL     1     -14.347   8.178  14.488  1.00  0.00     0.006 C 
HETATM    5  C17 UNL     1     -16.154   6.586  13.933  1.00  0.00     0.042 C 
HETATM    6  C18 UNL     1     -16.914   6.203  12.798  1.00  0.00     0.092 C 
HETATM    7  C19 UNL     1     -17.432   4.916  12.666  1.00  0.00     0.075 C 
HETATM    8  C20 UNL     1     -17.203   4.030  13.694  1.00  0.00     0.081 C 
HETATM    9  O4  UNL     1     -17.615   2.727  13.675  1.00  0.00    -0.341 OA
HETATM   10  C21 UNL     1     -16.867   2.106  14.767  1.00  0.00     0.171 C 
HETATM   11  C22 UNL     1     -16.563   3.223  15.798  1.00  0.00     0.057 C 
HETATM   12  C23 UNL     1     -17.615   3.320  16.914  1.00  0.00     0.012 C 
HETATM   13  C24 UNL     1     -18.998   2.831  16.493  1.00  0.00     0.004 C 
HETATM   14  C25 UNL     1     -19.011   1.401  15.941  1.00  0.00     0.040 C 
HETATM   15  C26 UNL     1     -17.671   0.925  15.348  1.00  0.00     0.081 C 
HETATM   16  C27 UNL     1     -16.838   0.143  16.374  1.00  0.00     0.049 C 
HETATM   17  C28 UNL     1     -16.565   4.395  14.869  1.00  0.00     0.016 C 
HETATM   18  C29 UNL     1     -16.069   5.685  15.017  1.00  0.00     0.091 C 
HETATM   19  O7  UNL     1     -17.208   7.078  11.768  1.00  0.00    -0.303 OA
ENDROOT
BRANCH   4  20
HETATM   20  C8  UNL     1     -13.486   9.396  14.413  1.00  0.00     0.175 C 
BRANCH  20  21
HETATM   21  N1  UNL     1     -12.468   9.294  15.471  1.00  0.00    -0.188 N 
HETATM   22  C9  UNL     1     -11.299   8.606  15.477  1.00  0.00     0.693 A 
HETATM   23  N7  UNL     1     -10.756   8.862  16.684  1.00  0.00    -0.200 N 
HETATM   24  C15 UNL     1     -11.541   9.689  17.451  1.00  0.00     0.124 A 
HETATM   25  H13 UNL     1      -9.861   8.494  17.016  1.00  0.00     0.183 HD
HETATM   26  C16 UNL     1     -12.629   9.971  16.691  1.00  0.00     0.127 A 
BRANCH  22  27
HETATM   27  N2  UNL     1     -10.649   7.755  14.496  1.00  0.00    -0.125 N 
HETATM   28  C10 UNL     1     -10.979   7.458  13.291  1.00  0.00     0.209 A 
HETATM   29  N3  UNL     1     -10.131   6.568  12.629  1.00  0.00    -0.344 N 
HETATM   30  C11 UNL     1      -9.177   6.249  13.458  1.00  0.00     0.148 A 
ATOM     31  H3  UNL     1     -10.238   6.230  11.672  1.00  0.00     0.167 HD
HETATM   32  C12 UNL     1      -7.990   5.389  13.413  1.00  0.00     0.290 A 
HETATM   33  C14 UNL     1      -9.382   6.946  14.712  1.00  0.00     0.177 A 
HETATM   34  O3  UNL     1      -7.749   4.818  12.364  1.00  0.00    -0.265 OA
HETATM   35  N4  UNL     1      -7.249   5.311  14.564  1.00  0.00    -0.154 N 
HETATM   36  C13 UNL     1      -7.556   5.991  15.625  1.00  0.00     0.680 A 
ATOM     37  H4  UNL     1      -6.432   4.701  14.586  1.00  0.00     0.187 HD
HETATM   38  N6  UNL     1      -8.624   6.858  15.739  1.00  0.00    -0.173 N 
ATOM     39  H6  UNL     1      -8.798   7.396  16.588  1.00  0.00     0.186 HD
BRANCH  36  40
HETATM   40  N5  UNL     1      -6.788   5.833  16.722  1.00  0.00    -0.234 N 
HETATM   41  H11 UNL     1      -6.677   6.608  17.362  1.00  0.00     0.174 HD
HETATM   42  H12 UNL     1      -5.914   5.333  16.557  1.00  0.00     0.174 HD
ENDBRANCH  36  40
ENDBRANCH  22  27
ENDBRANCH  20  21
ENDBRANCH   4  20
BRANCH   1  43
HETATM   43  C3  UNL     1     -17.469   9.424  10.997  1.00  0.00     0.317 C 
HETATM   44  O2  UNL     1     -17.227  10.622  11.067  1.00  0.00    -0.257 OA
BRANCH  43  45
HETATM   45  O1  UNL     1     -18.254   8.811  10.081  1.00  0.00    -0.316 OA
BRANCH  45  46
HETATM   46  C2  UNL     1     -19.289   9.637   9.532  1.00  0.00     0.175 C 
HETATM   47  C1  UNL     1     -20.446   8.741   9.134  1.00  0.00     0.034 C 
ENDBRANCH  45  46
ENDBRANCH  43  45
ENDBRANCH   1  43
BRANCH  18  48
HETATM   48  O6  UNL     1     -15.508   6.043  16.218  1.00  0.00    -0.354 OA
HETATM   49  C30 UNL     1     -16.494   6.688  17.036  1.00  0.00     0.210 C 
ENDBRANCH  18  48
BRANCH  15  50
HETATM   50  O5  UNL     1     -17.943  -0.005  14.290  1.00  0.00    -0.388 OA
HETATM   51  H28 UNL     1     -18.572  -0.673  14.616  1.00  0.00     0.210 HD
ENDBRANCH  15  50
TORSDOF 9
ENDMDL
MODEL 8
REMARK minimizedAffinity -8.2733593
REMARK CNNscore 0.0669025257
REMARK CNNaffinity 5.99971819
REMARK  9 active torsions:
REMARK  status: ('A' for Active; 'I' for Inactive)
REMARK    1  A    between atoms: C2_2  and  O1_3 
REMARK    2  A    between atoms: O1_3  and  C3_4 
REMARK    3  A    between atoms: C3_4  and  C4_6 
REMARK    4  A    between atoms: C7_9  and  C8_10 
REMARK    5  A    between atoms: C8_10  and  N1_11 
REMARK    6  A    between atoms: C9_12  and  N2_13 
REMARK    7  A    between atoms: C13_22  and  N5_23 
REMARK    8  A    between atoms: C26_40  and  O5_42 
REMARK    9  A    between atoms: C29_44  and  O6_45 
ROOT
HETATM    1  C4  UNL     1       3.345   9.884  14.419  1.00  0.00     0.151 C 
HETATM    2  C5  UNL     1       2.016   9.684  14.500  1.00  0.00     0.055 C 
HETATM    3  C6  UNL     1       1.292  10.218  15.638  1.00  0.00    -0.020 C 
HETATM    4  C7  UNL     1      -0.021  10.525  15.579  1.00  0.00     0.006 C 
HETATM    5  C17 UNL     1       2.102  10.563  16.843  1.00  0.00     0.042 C 
HETATM    6  C18 UNL     1       3.474  10.825  16.597  1.00  0.00     0.092 C 
HETATM    7  C19 UNL     1       4.313  11.323  17.594  1.00  0.00     0.075 C 
HETATM    8  C20 UNL     1       3.768  11.527  18.840  1.00  0.00     0.081 C 
HETATM    9  O4  UNL     1       4.464  12.051  19.894  1.00  0.00    -0.341 OA
HETATM   10  C21 UNL     1       3.425  12.403  20.860  1.00  0.00     0.171 C 
HETATM   11  C22 UNL     1       2.228  11.452  20.604  1.00  0.00     0.057 C 
HETATM   12  C23 UNL     1       2.259  10.191  21.483  1.00  0.00     0.012 C 
HETATM   13  C24 UNL     1       3.665   9.780  21.911  1.00  0.00     0.004 C 
HETATM   14  C25 UNL     1       4.444  10.887  22.630  1.00  0.00     0.040 C 
HETATM   15  C26 UNL     1       3.992  12.320  22.293  1.00  0.00     0.081 C 
HETATM   16  C27 UNL     1       2.981  12.856  23.317  1.00  0.00     0.049 C 
HETATM   17  C28 UNL     1       2.463  11.178  19.154  1.00  0.00     0.016 C 
HETATM   18  C29 UNL     1       1.629  10.657  18.171  1.00  0.00     0.091 C 
HETATM   19  O7  UNL     1       4.071  10.587  15.373  1.00  0.00    -0.303 OA
ENDROOT
BRANCH   4  20
HETATM   20  C8  UNL     1      -0.957  10.388  14.423  1.00  0.00     0.175 C 
BRANCH  20  21
HETATM   21  N1  UNL     1      -2.302  10.768  14.885  1.00  0.00    -0.188 N 
HETATM   22  C9  UNL     1      -3.470  10.086  14.785  1.00  0.00     0.693 A 
HETATM   23  N7  UNL     1      -4.384  10.884  15.373  1.00  0.00    -0.200 N 
HETATM   24  C15 UNL     1      -3.840  12.054  15.843  1.00  0.00     0.124 A 
HETATM   25  H13 UNL     1      -5.379  10.665  15.470  1.00  0.00     0.183 HD
HETATM   26  C16 UNL     1      -2.518  11.990  15.541  1.00  0.00     0.127 A 
BRANCH  22  27
HETATM   27  N2  UNL     1      -3.816   8.797  14.212  1.00  0.00    -0.125 N 
HETATM   28  C10 UNL     1      -3.385   8.204  13.158  1.00  0.00     0.209 A 
HETATM   29  N3  UNL     1      -3.965   6.965  12.876  1.00  0.00    -0.344 N 
HETATM   30  C11 UNL     1      -4.847   6.727  13.807  1.00  0.00     0.148 A 
ATOM     31  H3  UNL     1      -3.741   6.358  12.088  1.00  0.00     0.167 HD
HETATM   32  C12 UNL     1      -5.784   5.641  14.114  1.00  0.00     0.290 A 
HETATM   33  C14 UNL     1      -4.859   7.831  14.746  1.00  0.00     0.177 A 
HETATM   34  O3  UNL     1      -5.778   4.669  13.379  1.00  0.00    -0.265 OA
HETATM   35  N4  UNL     1      -6.584   5.818  15.213  1.00  0.00    -0.154 N 
HETATM   36  C13 UNL     1      -6.491   6.869  15.967  1.00  0.00     0.680 A 
ATOM     37  H4  UNL     1      -7.271   5.101  15.446  1.00  0.00     0.187 HD
HETATM   38  N6  UNL     1      -5.607   7.913  15.780  1.00  0.00    -0.173 N 
ATOM     39  H6  UNL     1      -5.554   8.700  16.427  1.00  0.00     0.186 HD
BRANCH  36  40
HETATM   40  N5  UNL     1      -7.336   6.974  17.012  1.00  0.00    -0.234 N 
HETATM   41  H11 UNL     1      -7.035   7.468  17.842  1.00  0.00     0.174 HD
HETATM   42  H12 UNL     1      -7.848   6.119  17.230  1.00  0.00     0.174 HD
ENDBRANCH  36  40
ENDBRANCH  22  27
ENDBRANCH  20  21
ENDBRANCH   4  20
BRANCH   1  43
HETATM   43  C3  UNL     1       4.045   9.365  13.211  1.00  0.00     0.317 C 
HETATM   44  O2  UNL     1       5.257   9.196  13.161  1.00  0.00    -0.257 OA
BRANCH  43  45
HETATM   45  O1  UNL     1       3.155   9.128  12.221  1.00  0.00    -0.316 OA
BRANCH  45  46
HETATM   46  C2  UNL     1       3.323   7.871  11.553  1.00  0.00     0.175 C 
HETATM   47  C1  UNL     1       3.841   8.146  10.154  1.00  0.00     0.034 C 
ENDBRANCH  45  46
ENDBRANCH  43  45
ENDBRANCH   1  43
BRANCH  18  48
HETATM   48  O6  UNL     1       0.367  10.249  18.524  1.00  0.00    -0.354 OA
HETATM   49  C30 UNL     1      -0.449  11.395  18.801  1.00  0.00     0.210 C 
ENDBRANCH  18  48
BRANCH  15  50
HETATM   50  O5  UNL     1       5.127  13.194  22.385  1.00  0.00    -0.388 OA
HETATM   51  H28 UNL     1       5.574  13.034  23.235  1.00  0.00     0.210 HD
ENDBRANCH  15  50
TORSDOF 9
ENDMDL
MODEL 9
REMARK minimizedAffinity -9.4301815
REMARK CNNscore 0.0635550991
REMARK CNNaffinity 6.54590797
REMARK  9 active torsions:
REMARK  status: ('A' for Active; 'I' for Inactive)
REMARK    1  A    between atoms: C2_2  and  O1_3 
REMARK    2  A    between atoms: O1_3  and  C3_4 
REMARK    3  A    between atoms: C3_4  and  C4_6 
REMARK    4  A    between atoms: C7_9  and  C8_10 
REMARK    5  A    between atoms: C8_10  and  N1_11 
REMARK    6  A    between atoms: C9_12  and  N2_13 
REMARK    7  A    between atoms: C13_22  and  N5_23 
REMARK    8  A    between atoms: C26_40  and  O5_42 
REMARK    9  A    between atoms: C29_44  and  O6_45 
ROOT
HETATM    1  C4  UNL     1       2.702   7.094   8.940  1.00  0.00     0.151 C 
HETATM    2  C5  UNL     1       1.740   6.902   9.862  1.00  0.00     0.055 C 
HETATM    3  C6  UNL     1       1.861   7.556  11.151  1.00  0.00    -0.020 C 
HETATM    4  C7  UNL     1       0.788   7.854  11.914  1.00  0.00     0.006 C 
HETATM    5  C17 UNL     1       3.224   8.032  11.533  1.00  0.00     0.042 C 
HETATM    6  C18 UNL     1       4.110   8.267  10.452  1.00  0.00     0.092 C 
HETATM    7  C19 UNL     1       5.352   8.871  10.643  1.00  0.00     0.075 C 
HETATM    8  C20 UNL     1       5.703   9.209  11.929  1.00  0.00     0.081 C 
HETATM    9  O4  UNL     1       6.869   9.845  12.253  1.00  0.00    -0.341 OA
HETATM   10  C21 UNL     1       6.652  10.300  13.625  1.00  0.00     0.171 C 
HETATM   11  C22 UNL     1       5.632   9.325  14.268  1.00  0.00     0.057 C 
HETATM   12  C23 UNL     1       6.298   8.168  15.029  1.00  0.00     0.012 C 
HETATM   13  C24 UNL     1       7.684   7.807  14.499  1.00  0.00     0.004 C 
HETATM   14  C25 UNL     1       8.662   8.986  14.464  1.00  0.00     0.040 C 
HETATM   15  C26 UNL     1       7.999  10.374  14.372  1.00  0.00     0.081 C 
HETATM   16  C27 UNL     1       7.827  11.017  15.756  1.00  0.00     0.049 C 
HETATM   17  C28 UNL     1       4.918   8.895  13.027  1.00  0.00     0.016 C 
HETATM   18  C29 UNL     1       3.689   8.269  12.846  1.00  0.00     0.091 C 
HETATM   19  O7  UNL     1       3.815   7.896   9.152  1.00  0.00    -0.303 OA
ENDROOT
BRANCH   4  20
HETATM   20  C8  UNL     1      -0.655   7.591  11.631  1.00  0.00     0.175 C 
BRANCH  20  21
HETATM   21  N1  UNL     1      -0.950   6.210  12.045  1.00  0.00    -0.188 N 
HETATM   22  C9  UNL     1      -2.051   5.713  12.663  1.00  0.00     0.693 A 
HETATM   23  N7  UNL     1      -1.802   4.396  12.801  1.00  0.00    -0.200 N 
HETATM   24  C15 UNL     1      -0.577   4.034  12.295  1.00  0.00     0.124 A 
HETATM   25  H13 UNL     1      -2.437   3.720  13.232  1.00  0.00     0.183 HD
HETATM   26  C16 UNL     1      -0.028   5.177  11.811  1.00  0.00     0.127 A 
BRANCH  22  27
HETATM   27  N2  UNL     1      -3.284   6.325  13.126  1.00  0.00    -0.125 N 
HETATM   28  C10 UNL     1      -3.505   7.474  13.655  1.00  0.00     0.209 A 
HETATM   29  N3  UNL     1      -4.828   7.733  14.020  1.00  0.00    -0.344 N 
HETATM   30  C11 UNL     1      -5.529   6.676  13.717  1.00  0.00     0.148 A 
ATOM     31  H3  UNL     1      -5.181   8.590  14.444  1.00  0.00     0.167 HD
HETATM   32  C12 UNL     1      -6.938   6.285  13.823  1.00  0.00     0.290 A 
HETATM   33  C14 UNL     1      -4.659   5.679  13.126  1.00  0.00     0.177 A 
HETATM   34  O3  UNL     1      -7.718   7.107  14.272  1.00  0.00    -0.265 OA
HETATM   35  N4  UNL     1      -7.254   5.019  13.400  1.00  0.00    -0.154 N 
HETATM   36  C13 UNL     1      -6.363   4.223  12.894  1.00  0.00     0.680 A 
ATOM     37  H4  UNL     1      -8.217   4.695  13.485  1.00  0.00     0.187 HD
HETATM   38  N6  UNL     1      -5.029   4.526  12.712  1.00  0.00    -0.173 N 
ATOM     39  H6  UNL     1      -4.379   3.873  12.275  1.00  0.00     0.186 HD
BRANCH  36  40
HETATM   40  N5  UNL     1      -6.756   2.986  12.529  1.00  0.00    -0.234 N 
HETATM   41  H11 UNL     1      -6.286   2.526  11.760  1.00  0.00     0.174 HD
HETATM   42  H12 UNL     1      -7.766   2.852  12.507  1.00  0.00     0.174 HD
ENDBRANCH  36  40
ENDBRANCH  22  27
ENDBRANCH  20  21
ENDBRANCH   4  20
BRANCH   1  43
HETATM   43  C3  UNL     1       2.516   6.447   7.610  1.00  0.00     0.317 C 
HETATM   44  O2  UNL     1       1.914   6.977   6.686  1.00  0.00    -0.257 OA
BRANCH  43  45
HETATM   45  O1  UNL     1       3.097   5.225   7.600  1.00  0.00    -0.316 OA
BRANCH  45  46
HETATM   46  C2  UNL     1       3.203   4.623   6.304  1.00  0.00     0.175 C 
HETATM   47  C1  UNL     1       3.973   3.325   6.448  1.00  0.00     0.034 C 
ENDBRANCH  45  46
ENDBRANCH  43  45
ENDBRANCH   1  43
BRANCH  18  48
HETATM   48  O6  UNL     1       2.965   7.901  13.952  1.00  0.00    -0.354 OA
HETATM   49  C30 UNL     1       2.421   9.069  14.582  1.00  0.00     0.210 C 
ENDBRANCH  18  48
BRANCH  15  50
HETATM   50  O5  UNL     1       8.873  11.253  13.649  1.00  0.00    -0.388 OA
HETATM   51  H28 UNL     1       9.767  11.187  14.032  1.00  0.00     0.210 HD
ENDBRANCH  15  50
TORSDOF 9
ENDMDL
