MODEL 1
REMARK minimizedAffinity -8.40272141
REMARK CNNscore 0.743571043
REMARK CNNaffinity 7.4184041
REMARK  10 active torsions:
REMARK  status: ('A' for Active; 'I' for Inactive)
REMARK    1  A    between atoms: O1_2  and  C2_3 
REMARK    2  A    between atoms: C2_3  and  C3_5 
REMARK    3  A    between atoms: C3_5  and  C4_6 
REMARK    4  A    between atoms: C3_5  and  N1_13 
REMARK    5  A    between atoms: C4_6  and  C5_7 
REMARK       I    between atoms: N1_13  and  C11_14 
REMARK    6  A    between atoms: C11_14  and  C12_16 
REMARK    7  A    between atoms: C12_16  and  O4_17 
REMARK    8  A    between atoms: O4_17  and  N2_18 
REMARK    9  A    between atoms: C27_34  and  O5_35 
REMARK   10  A    between atoms: C27_34  and  C28_36 
ROOT
HETATM    1  N2  UNL     1       1.636  52.562 -17.267  1.00  0.00    -0.271 N 
ATOM      2  H2  UNL     1       2.066  53.467 -17.458  1.00  0.00     0.194 HD
HETATM    3  C13 UNL     1       0.652  52.067 -17.956  1.00  0.00     0.032 C 
HETATM    4  C14 UNL     1       0.000  50.748 -17.717  1.00  0.00     0.030 C 
HETATM    5  C15 UNL     1      -0.837  50.204 -18.621  1.00  0.00    -0.069 C 
HETATM    6  C16 UNL     1      -1.587  48.934 -18.281  1.00  0.00     0.035 C 
HETATM    7  C17 UNL     1      -1.937  48.062 -19.486  1.00  0.00     0.010 C 
HETATM    8  C18 UNL     1      -2.545  48.834 -20.676  1.00  0.00    -0.004 C 
HETATM    9  C19 UNL     1      -2.560  50.376 -20.436  1.00  0.00     0.002 C 
HETATM   10  C20 UNL     1      -3.156  51.135 -21.645  1.00  0.00     0.007 C 
HETATM   11  C21 UNL     1      -4.527  50.578 -22.077  1.00  0.00     0.013 C 
HETATM   12  C22 UNL     1      -4.483  49.064 -22.352  1.00  0.00    -0.002 C 
HETATM   13  C23 UNL     1      -3.594  48.793 -23.598  1.00  0.00     0.019 C 
HETATM   14  C24 UNL     1      -3.960  48.378 -21.056  1.00  0.00     0.002 C 
HETATM   15  C25 UNL     1      -4.204  46.897 -21.321  1.00  0.00     0.009 C 
HETATM   16  C26 UNL     1      -5.517  46.862 -22.127  1.00  0.00     0.047 C 
HETATM   17  C27 UNL     1      -5.853  48.333 -22.507  1.00  0.00     0.125 C 
HETATM   18  C30 UNL     1      -1.151  50.875 -19.961  1.00  0.00    -0.016 C 
HETATM   19  C31 UNL     1      -0.050  50.503 -20.985  1.00  0.00     0.020 C 
HETATM   20  C32 UNL     1      -1.147  52.406 -19.733  1.00  0.00     0.020 C 
HETATM   21  C33 UNL     1       0.148  52.920 -19.110  1.00  0.00     0.060 C 
ENDROOT
BRANCH   1  22
HETATM   22  O4  UNL     1       2.039  51.708 -16.229  1.00  0.00    -0.271 OA
BRANCH  22  23
HETATM   23  C12 UNL     1       3.208  52.248 -15.618  1.00  0.00     0.303 C 
BRANCH  23  24
HETATM   24  C11 UNL     1       3.371  51.644 -14.232  1.00  0.00     0.244 C 
HETATM   25  N1  UNL     1       2.746  52.365 -13.234  1.00  0.00    -0.345 N 
HETATM   26  H12 UNL     1       2.010  53.001 -13.531  1.00  0.00     0.163 HD
HETATM   27  O3  UNL     1       4.052  50.642 -14.024  1.00  0.00    -0.271 OA
BRANCH  25  28
HETATM   28  C3  UNL     1       2.726  51.916 -11.834  1.00  0.00     0.188 C 
BRANCH  28  29
HETATM   29  C2  UNL     1       1.557  50.951 -11.570  1.00  0.00     0.281 C 
HETATM   30  O2  UNL     1       1.557  49.762 -11.868  1.00  0.00    -0.263 OA
BRANCH  29  31
HETATM   31  O1  UNL     1       0.529  51.577 -10.914  1.00  0.00    -0.325 OA
HETATM   32  C1  UNL     1      -0.557  50.711 -10.578  1.00  0.00     0.213 C 
ENDBRANCH  29  31
ENDBRANCH  28  29
BRANCH  28  33
HETATM   33  C4  UNL     1       2.597  53.134 -10.902  1.00  0.00     0.074 C 
BRANCH  33  34
HETATM   34  C5  UNL     1       3.930  53.608 -10.371  1.00  0.00    -0.056 A 
HETATM   35  C6  UNL     1       4.319  54.947 -10.499  1.00  0.00     0.007 A 
HETATM   36  C7  UNL     1       5.551  55.375 -10.001  1.00  0.00     0.001 A 
HETATM   37  C8  UNL     1       6.400  54.472  -9.367  1.00  0.00     0.000 A 
HETATM   38  C9  UNL     1       6.018  53.139  -9.226  1.00  0.00     0.001 A 
HETATM   39  C10 UNL     1       4.788  52.707  -9.724  1.00  0.00     0.007 A 
ENDBRANCH  33  34
ENDBRANCH  28  33
ENDBRANCH  25  28
ENDBRANCH  23  24
ENDBRANCH  22  23
ENDBRANCH   1  22
BRANCH  17  40
HETATM   40  O5  UNL     1      -6.788  48.832 -21.541  1.00  0.00    -0.381 OA
HETATM   41  H34 UNL     1      -7.551  48.224 -21.524  1.00  0.00     0.211 HD
ENDBRANCH  17  40
BRANCH  17  42
HETATM   42  C28 UNL     1      -6.494  48.451 -23.910  1.00  0.00     0.158 C 
HETATM   43  C29 UNL     1      -7.822  49.160 -24.018  1.00  0.00     0.094 C 
HETATM   44  O6  UNL     1      -5.939  48.024 -24.927  1.00  0.00    -0.295 OA
ENDBRANCH  17  42
TORSDOF 10
ENDMDL
MODEL 2
REMARK minimizedAffinity -8.58139992
REMARK CNNscore 0.662147164
REMARK CNNaffinity 7.64520597
REMARK  10 active torsions:
REMARK  status: ('A' for Active; 'I' for Inactive)
REMARK    1  A    between atoms: O1_2  and  C2_3 
REMARK    2  A    between atoms: C2_3  and  C3_5 
REMARK    3  A    between atoms: C3_5  and  C4_6 
REMARK    4  A    between atoms: C3_5  and  N1_13 
REMARK    5  A    between atoms: C4_6  and  C5_7 
REMARK       I    between atoms: N1_13  and  C11_14 
REMARK    6  A    between atoms: C11_14  and  C12_16 
REMARK    7  A    between atoms: C12_16  and  O4_17 
REMARK    8  A    between atoms: O4_17  and  N2_18 
REMARK    9  A    between atoms: C27_34  and  O5_35 
REMARK   10  A    between atoms: C27_34  and  C28_36 
ROOT
HETATM    1  N2  UNL     1       0.946  53.398 -18.987  1.00  0.00    -0.271 N 
ATOM      2  H2  UNL     1       1.416  54.296 -19.101  1.00  0.00     0.194 HD
HETATM    3  C13 UNL     1       1.195  52.567 -18.020  1.00  0.00     0.032 C 
HETATM    4  C14 UNL     1       0.528  51.251 -17.813  1.00  0.00     0.030 C 
HETATM    5  C15 UNL     1       0.664  50.569 -16.659  1.00  0.00    -0.069 C 
HETATM    6  C16 UNL     1       0.088  49.174 -16.539  1.00  0.00     0.035 C 
HETATM    7  C17 UNL     1      -0.312  48.773 -15.120  1.00  0.00     0.010 C 
HETATM    8  C18 UNL     1       0.748  49.094 -14.045  1.00  0.00    -0.004 C 
HETATM    9  C19 UNL     1       1.964  49.879 -14.629  1.00  0.00     0.002 C 
HETATM   10  C20 UNL     1       3.008  50.207 -13.535  1.00  0.00     0.007 C 
HETATM   11  C21 UNL     1       3.426  48.966 -12.722  1.00  0.00     0.013 C 
HETATM   12  C22 UNL     1       2.216  48.229 -12.117  1.00  0.00    -0.002 C 
HETATM   13  C23 UNL     1       1.546  49.133 -11.044  1.00  0.00     0.019 C 
HETATM   14  C24 UNL     1       1.268  47.860 -13.296  1.00  0.00     0.002 C 
HETATM   15  C25 UNL     1       0.259  46.917 -12.651  1.00  0.00     0.009 C 
HETATM   16  C26 UNL     1       1.080  46.126 -11.615  1.00  0.00     0.047 C 
HETATM   17  C27 UNL     1       2.476  46.808 -11.527  1.00  0.00     0.125 C 
HETATM   18  C30 UNL     1       1.476  51.104 -15.477  1.00  0.00    -0.016 C 
HETATM   19  C31 UNL     1       0.582  52.049 -14.634  1.00  0.00     0.020 C 
HETATM   20  C32 UNL     1       2.672  51.902 -16.049  1.00  0.00     0.020 C 
HETATM   21  C33 UNL     1       2.254  53.003 -17.020  1.00  0.00     0.060 C 
ENDROOT
BRANCH   1  22
HETATM   22  O4  UNL     1      -0.045  52.919 -19.858  1.00  0.00    -0.271 OA
BRANCH  22  23
HETATM   23  C12 UNL     1       0.248  53.368 -21.179  1.00  0.00     0.303 C 
BRANCH  23  24
HETATM   24  C11 UNL     1      -0.132  52.280 -22.170  1.00  0.00     0.244 C 
HETATM   25  N1  UNL     1      -0.076  52.685 -23.490  1.00  0.00    -0.345 N 
HETATM   26  H12 UNL     1       0.490  53.507 -23.685  1.00  0.00     0.163 HD
HETATM   27  O3  UNL     1      -0.514  51.166 -21.816  1.00  0.00    -0.271 OA
BRANCH  25  28
HETATM   28  C3  UNL     1      -0.341  51.766 -24.607  1.00  0.00     0.188 C 
BRANCH  28  29
HETATM   29  C2  UNL     1       0.696  51.935 -25.731  1.00  0.00     0.281 C 
HETATM   30  O2  UNL     1       1.653  52.700 -25.684  1.00  0.00    -0.263 OA
BRANCH  29  31
HETATM   31  O1  UNL     1       0.444  51.087 -26.777  1.00  0.00    -0.325 OA
HETATM   32  C1  UNL     1       0.700  51.658 -28.062  1.00  0.00     0.213 C 
ENDBRANCH  29  31
ENDBRANCH  28  29
BRANCH  28  33
HETATM   33  C4  UNL     1      -1.747  52.030 -25.172  1.00  0.00     0.074 C 
BRANCH  33  34
HETATM   34  C5  UNL     1      -2.451  50.765 -25.605  1.00  0.00    -0.056 A 
HETATM   35  C6  UNL     1      -2.952  50.632 -26.906  1.00  0.00     0.007 A 
HETATM   36  C7  UNL     1      -3.596  49.457 -27.298  1.00  0.00     0.001 A 
HETATM   37  C8  UNL     1      -3.740  48.405 -26.396  1.00  0.00     0.000 A 
HETATM   38  C9  UNL     1      -3.236  48.524 -25.102  1.00  0.00     0.001 A 
HETATM   39  C10 UNL     1      -2.593  49.698 -24.707  1.00  0.00     0.007 A 
ENDBRANCH  33  34
ENDBRANCH  28  33
ENDBRANCH  25  28
ENDBRANCH  23  24
ENDBRANCH  22  23
ENDBRANCH   1  22
BRANCH  17  40
HETATM   40  O5  UNL     1       3.373  46.080 -12.377  1.00  0.00    -0.381 OA
HETATM   41  H34 UNL     1       3.351  45.145 -12.101  1.00  0.00     0.211 HD
ENDBRANCH  17  40
BRANCH  17  42
HETATM   42  C28 UNL     1       3.051  46.799 -10.092  1.00  0.00     0.158 C 
HETATM   43  C29 UNL     1       2.155  46.312  -8.979  1.00  0.00     0.094 C 
HETATM   44  O6  UNL     1       4.213  47.135  -9.845  1.00  0.00    -0.295 OA
ENDBRANCH  17  42
TORSDOF 10
ENDMDL
MODEL 3
REMARK minimizedAffinity -9.82067299
REMARK CNNscore 0.47630924
REMARK CNNaffinity 7.27305222
REMARK  10 active torsions:
REMARK  status: ('A' for Active; 'I' for Inactive)
REMARK    1  A    between atoms: O1_2  and  C2_3 
REMARK    2  A    between atoms: C2_3  and  C3_5 
REMARK    3  A    between atoms: C3_5  and  C4_6 
REMARK    4  A    between atoms: C3_5  and  N1_13 
REMARK    5  A    between atoms: C4_6  and  C5_7 
REMARK       I    between atoms: N1_13  and  C11_14 
REMARK    6  A    between atoms: C11_14  and  C12_16 
REMARK    7  A    between atoms: C12_16  and  O4_17 
REMARK    8  A    between atoms: O4_17  and  N2_18 
REMARK    9  A    between atoms: C27_34  and  O5_35 
REMARK   10  A    between atoms: C27_34  and  C28_36 
ROOT
HETATM    1  N2  UNL     1       1.431  52.946 -17.181  1.00  0.00    -0.271 N 
ATOM      2  H2  UNL     1       2.061  53.739 -17.054  1.00  0.00     0.194 HD
HETATM    3  C13 UNL     1       0.824  52.675 -18.297  1.00  0.00     0.032 C 
HETATM    4  C14 UNL     1      -0.097  51.526 -18.528  1.00  0.00     0.030 C 
HETATM    5  C15 UNL     1      -0.485  51.175 -19.770  1.00  0.00    -0.069 C 
HETATM    6  C16 UNL     1      -1.528  50.095 -19.953  1.00  0.00     0.035 C 
HETATM    7  C17 UNL     1      -1.416  49.320 -21.265  1.00  0.00     0.010 C 
HETATM    8  C18 UNL     1      -1.224  50.206 -22.513  1.00  0.00    -0.004 C 
HETATM    9  C19 UNL     1      -1.063  51.716 -22.149  1.00  0.00     0.002 C 
HETATM   10  C20 UNL     1      -0.855  52.587 -23.410  1.00  0.00     0.007 C 
HETATM   11  C21 UNL     1      -1.929  52.338 -24.488  1.00  0.00     0.013 C 
HETATM   12  C22 UNL     1      -2.043  50.849 -24.866  1.00  0.00    -0.002 C 
HETATM   13  C23 UNL     1      -0.735  50.397 -25.574  1.00  0.00     0.019 C 
HETATM   14  C24 UNL     1      -2.342  50.065 -23.555  1.00  0.00     0.002 C 
HETATM   15  C25 UNL     1      -2.702  48.671 -24.056  1.00  0.00     0.009 C 
HETATM   16  C26 UNL     1      -3.450  48.919 -25.380  1.00  0.00     0.047 C 
HETATM   17  C27 UNL     1      -3.281  50.429 -25.718  1.00  0.00     0.125 C 
HETATM   18  C30 UNL     1       0.012  51.901 -21.023  1.00  0.00    -0.016 C 
HETATM   19  C31 UNL     1       1.377  51.303 -21.447  1.00  0.00     0.020 C 
HETATM   20  C32 UNL     1       0.193  53.395 -20.662  1.00  0.00     0.020 C 
HETATM   21  C33 UNL     1       1.103  53.618 -19.456  1.00  0.00     0.060 C 
ENDROOT
BRANCH   1  22
HETATM   22  O4  UNL     1       1.121  52.024 -16.169  1.00  0.00    -0.271 OA
BRANCH  22  23
HETATM   23  C12 UNL     1       2.144  52.068 -15.178  1.00  0.00     0.303 C 
BRANCH  23  24
HETATM   24  C11 UNL     1       1.536  51.758 -13.820  1.00  0.00     0.244 C 
HETATM   25  N1  UNL     1       1.000  52.862 -13.185  1.00  0.00    -0.345 N 
HETATM   26  H12 UNL     1       0.776  53.658 -13.778  1.00  0.00     0.163 HD
HETATM   27  O3  UNL     1       1.582  50.638 -13.315  1.00  0.00    -0.271 OA
BRANCH  25  28
HETATM   28  C3  UNL     1       0.305  52.766 -11.893  1.00  0.00     0.188 C 
BRANCH  28  29
HETATM   29  C2  UNL     1      -1.198  52.497 -12.082  1.00  0.00     0.281 C 
HETATM   30  O2  UNL     1      -1.723  52.210 -13.152  1.00  0.00    -0.263 OA
BRANCH  29  31
HETATM   31  O1  UNL     1      -1.874  52.572 -10.893  1.00  0.00    -0.325 OA
HETATM   32  C1  UNL     1      -3.151  53.208 -10.989  1.00  0.00     0.213 C 
ENDBRANCH  29  31
ENDBRANCH  28  29
BRANCH  28  33
HETATM   33  C4  UNL     1       0.490  54.076 -11.108  1.00  0.00     0.074 C 
BRANCH  33  34
HETATM   34  C5  UNL     1       1.938  54.366 -10.786  1.00  0.00    -0.056 A 
HETATM   35  C6  UNL     1       2.456  55.661 -10.909  1.00  0.00     0.007 A 
HETATM   36  C7  UNL     1       3.794  55.918 -10.604  1.00  0.00     0.001 A 
HETATM   37  C8  UNL     1       4.622  54.886 -10.169  1.00  0.00     0.000 A 
HETATM   38  C9  UNL     1       4.113  53.596 -10.034  1.00  0.00     0.001 A 
HETATM   39  C10 UNL     1       2.777  53.335 -10.339  1.00  0.00     0.007 A 
ENDBRANCH  33  34
ENDBRANCH  28  33
ENDBRANCH  25  28
ENDBRANCH  23  24
ENDBRANCH  22  23
ENDBRANCH   1  22
BRANCH  17  40
HETATM   40  O5  UNL     1      -4.452  51.115 -25.254  1.00  0.00    -0.381 OA
HETATM   41  H34 UNL     1      -5.229  50.684 -25.658  1.00  0.00     0.211 HD
ENDBRANCH  17  40
BRANCH  17  42
HETATM   42  C28 UNL     1      -3.139  50.684 -27.236  1.00  0.00     0.158 C 
HETATM   43  C29 UNL     1      -2.774  52.079 -27.683  1.00  0.00     0.094 C 
HETATM   44  O6  UNL     1      -3.275  49.786 -28.072  1.00  0.00    -0.295 OA
ENDBRANCH  17  42
TORSDOF 10
ENDMDL
MODEL 4
REMARK minimizedAffinity -9.45590973
REMARK CNNscore 0.401696056
REMARK CNNaffinity 7.16418648
REMARK  10 active torsions:
REMARK  status: ('A' for Active; 'I' for Inactive)
REMARK    1  A    between atoms: O1_2  and  C2_3 
REMARK    2  A    between atoms: C2_3  and  C3_5 
REMARK    3  A    between atoms: C3_5  and  C4_6 
REMARK    4  A    between atoms: C3_5  and  N1_13 
REMARK    5  A    between atoms: C4_6  and  C5_7 
REMARK       I    between atoms: N1_13  and  C11_14 
REMARK    6  A    between atoms: C11_14  and  C12_16 
REMARK    7  A    between atoms: C12_16  and  O4_17 
REMARK    8  A    between atoms: O4_17  and  N2_18 
REMARK    9  A    between atoms: C27_34  and  O5_35 
REMARK   10  A    between atoms: C27_34  and  C28_36 
ROOT
HETATM    1  N2  UNL     1       1.318  52.581 -17.041  1.00  0.00    -0.271 N 
ATOM      2  H2  UNL     1       1.942  53.369 -16.862  1.00  0.00     0.194 HD
HETATM    3  C13 UNL     1       0.726  52.370 -18.178  1.00  0.00     0.032 C 
HETATM    4  C14 UNL     1      -0.184  51.231 -18.485  1.00  0.00     0.030 C 
HETATM    5  C15 UNL     1      -0.555  50.950 -19.749  1.00  0.00    -0.069 C 
HETATM    6  C16 UNL     1      -1.590  49.876 -20.006  1.00  0.00     0.035 C 
HETATM    7  C17 UNL     1      -1.457  49.177 -21.358  1.00  0.00     0.010 C 
HETATM    8  C18 UNL     1      -1.256  50.133 -22.552  1.00  0.00    -0.004 C 
HETATM    9  C19 UNL     1      -1.108  51.620 -22.101  1.00  0.00     0.002 C 
HETATM   10  C20 UNL     1      -0.890  52.562 -23.309  1.00  0.00     0.007 C 
HETATM   11  C21 UNL     1      -1.949  52.369 -24.412  1.00  0.00     0.013 C 
HETATM   12  C22 UNL     1      -2.050  50.903 -24.875  1.00  0.00    -0.002 C 
HETATM   13  C23 UNL     1      -0.731  50.498 -25.591  1.00  0.00     0.019 C 
HETATM   14  C24 UNL     1      -2.360  50.044 -23.614  1.00  0.00     0.002 C 
HETATM   15  C25 UNL     1      -2.706  48.679 -24.197  1.00  0.00     0.009 C 
HETATM   16  C26 UNL     1      -3.439  48.998 -25.514  1.00  0.00     0.047 C 
HETATM   17  C27 UNL     1      -3.275  50.525 -25.764  1.00  0.00     0.125 C 
HETATM   18  C30 UNL     1      -0.047  51.747 -20.953  1.00  0.00    -0.016 C 
HETATM   19  C31 UNL     1       1.326  51.181 -21.393  1.00  0.00     0.020 C 
HETATM   20  C32 UNL     1       0.121  53.219 -20.506  1.00  0.00     0.020 C 
HETATM   21  C33 UNL     1       1.014  53.378 -19.279  1.00  0.00     0.060 C 
ENDROOT
BRANCH   1  22
HETATM   22  O4  UNL     1       1.002  51.602 -16.087  1.00  0.00    -0.271 OA
BRANCH  22  23
HETATM   23  C12 UNL     1       1.750  51.856 -14.901  1.00  0.00     0.303 C 
BRANCH  23  24
HETATM   24  C11 UNL     1       0.826  52.435 -13.842  1.00  0.00     0.244 C 
HETATM   25  N1  UNL     1       1.465  52.754 -12.660  1.00  0.00    -0.345 N 
HETATM   26  H12 UNL     1       2.473  52.879 -12.712  1.00  0.00     0.163 HD
HETATM   27  O3  UNL     1      -0.387  52.543 -14.011  1.00  0.00    -0.271 OA
BRANCH  25  28
HETATM   28  C3  UNL     1       0.763  53.388 -11.533  1.00  0.00     0.188 C 
BRANCH  28  29
HETATM   29  C2  UNL     1       1.746  54.104 -10.591  1.00  0.00     0.281 C 
HETATM   30  O2  UNL     1       1.412  54.819  -9.651  1.00  0.00    -0.263 OA
BRANCH  29  31
HETATM   31  O1  UNL     1       3.047  53.807 -10.902  1.00  0.00    -0.325 OA
HETATM   32  C1  UNL     1       4.008  54.586 -10.188  1.00  0.00     0.213 C 
ENDBRANCH  29  31
ENDBRANCH  28  29
BRANCH  28  33
HETATM   33  C4  UNL     1      -0.010  52.320 -10.740  1.00  0.00     0.074 C 
BRANCH  33  34
HETATM   34  C5  UNL     1      -1.507  52.518 -10.799  1.00  0.00    -0.056 A 
HETATM   35  C6  UNL     1      -2.078  53.766 -10.519  1.00  0.00     0.007 A 
HETATM   36  C7  UNL     1      -3.462  53.939 -10.581  1.00  0.00     0.001 A 
HETATM   37  C8  UNL     1      -4.285  52.870 -10.929  1.00  0.00     0.000 A 
HETATM   38  C9  UNL     1      -3.726  51.627 -11.219  1.00  0.00     0.001 A 
HETATM   39  C10 UNL     1      -2.343  51.450 -11.156  1.00  0.00     0.007 A 
ENDBRANCH  33  34
ENDBRANCH  28  33
ENDBRANCH  25  28
ENDBRANCH  23  24
ENDBRANCH  22  23
ENDBRANCH   1  22
BRANCH  17  40
HETATM   40  O5  UNL     1      -4.456  51.178 -25.277  1.00  0.00    -0.381 OA
HETATM   41  H34 UNL     1      -5.225  50.766 -25.714  1.00  0.00     0.211 HD
ENDBRANCH  17  40
BRANCH  17  42
HETATM   42  C28 UNL     1      -3.115  50.866 -27.264  1.00  0.00     0.158 C 
HETATM   43  C29 UNL     1      -2.651  52.258 -27.623  1.00  0.00     0.094 C 
HETATM   44  O6  UNL     1      -3.316  50.035 -28.155  1.00  0.00    -0.295 OA
ENDBRANCH  17  42
TORSDOF 10
ENDMDL
MODEL 5
REMARK minimizedAffinity -8.09958649
REMARK CNNscore 0.301368505
REMARK CNNaffinity 6.51995897
REMARK  10 active torsions:
REMARK  status: ('A' for Active; 'I' for Inactive)
REMARK    1  A    between atoms: O1_2  and  C2_3 
REMARK    2  A    between atoms: C2_3  and  C3_5 
REMARK    3  A    between atoms: C3_5  and  C4_6 
REMARK    4  A    between atoms: C3_5  and  N1_13 
REMARK    5  A    between atoms: C4_6  and  C5_7 
REMARK       I    between atoms: N1_13  and  C11_14 
REMARK    6  A    between atoms: C11_14  and  C12_16 
REMARK    7  A    between atoms: C12_16  and  O4_17 
REMARK    8  A    between atoms: O4_17  and  N2_18 
REMARK    9  A    between atoms: C27_34  and  O5_35 
REMARK   10  A    between atoms: C27_34  and  C28_36 
ROOT
HETATM    1  N2  UNL     1       1.125  52.025 -13.086  1.00  0.00    -0.271 N 
ATOM      2  H2  UNL     1       2.113  52.220 -12.921  1.00  0.00     0.194 HD
HETATM    3  C13 UNL     1       0.616  51.812 -14.263  1.00  0.00     0.032 C 
HETATM    4  C14 UNL     1      -0.817  51.517 -14.548  1.00  0.00     0.030 C 
HETATM    5  C15 UNL     1      -1.214  51.065 -15.754  1.00  0.00    -0.069 C 
HETATM    6  C16 UNL     1      -2.691  50.913 -16.049  1.00  0.00     0.035 C 
HETATM    7  C17 UNL     1      -3.024  49.829 -17.073  1.00  0.00     0.010 C 
HETATM    8  C18 UNL     1      -2.145  49.858 -18.341  1.00  0.00    -0.004 C 
HETATM    9  C19 UNL     1      -1.009  50.926 -18.249  1.00  0.00     0.002 C 
HETATM   10  C20 UNL     1      -0.128  50.930 -19.520  1.00  0.00     0.007 C 
HETATM   11  C21 UNL     1      -0.955  51.038 -20.817  1.00  0.00     0.013 C 
HETATM   12  C22 UNL     1      -2.041  49.951 -20.910  1.00  0.00    -0.002 C 
HETATM   13  C23 UNL     1      -1.363  48.558 -21.050  1.00  0.00     0.019 C 
HETATM   14  C24 UNL     1      -2.931  50.081 -19.639  1.00  0.00     0.002 C 
HETATM   15  C25 UNL     1      -4.112  49.168 -19.944  1.00  0.00     0.009 C 
HETATM   16  C26 UNL     1      -4.336  49.322 -21.461  1.00  0.00     0.047 C 
HETATM   17  C27 UNL     1      -3.126  50.128 -22.017  1.00  0.00     0.125 C 
HETATM   18  C30 UNL     1      -0.231  50.790 -16.895  1.00  0.00    -0.016 C 
HETATM   19  C31 UNL     1       0.357  49.367 -16.726  1.00  0.00     0.020 C 
HETATM   20  C32 UNL     1       0.908  51.834 -16.797  1.00  0.00     0.020 C 
HETATM   21  C33 UNL     1       1.588  51.857 -15.430  1.00  0.00     0.060 C 
ENDROOT
BRANCH   1  22
HETATM   22  O4  UNL     1       0.160  51.959 -12.069  1.00  0.00    -0.271 OA
BRANCH  22  23
HETATM   23  C12 UNL     1      -0.026  53.263 -11.526  1.00  0.00     0.303 C 
BRANCH  23  24
HETATM   24  C11 UNL     1       1.015  53.506 -10.444  1.00  0.00     0.244 C 
HETATM   25  N1  UNL     1       1.014  54.796  -9.951  1.00  0.00    -0.345 N 
HETATM   26  H12 UNL     1       0.165  55.335 -10.101  1.00  0.00     0.163 HD
HETATM   27  O3  UNL     1       1.819  52.644 -10.096  1.00  0.00    -0.271 OA
BRANCH  25  28
HETATM   28  C3  UNL     1       1.897  55.218  -8.853  1.00  0.00     0.188 C 
BRANCH  28  29
HETATM   29  C2  UNL     1       1.095  55.831  -7.691  1.00  0.00     0.281 C 
HETATM   30  O2  UNL     1       0.147  56.596  -7.829  1.00  0.00    -0.263 OA
BRANCH  29  31
HETATM   31  O1  UNL     1       1.544  55.377  -6.479  1.00  0.00    -0.325 OA
HETATM   32  C1  UNL     1       2.076  54.051  -6.515  1.00  0.00     0.213 C 
ENDBRANCH  29  31
ENDBRANCH  28  29
BRANCH  28  33
HETATM   33  C4  UNL     1       2.907  56.256  -9.373  1.00  0.00     0.074 C 
BRANCH  33  34
HETATM   34  C5  UNL     1       4.330  55.938  -8.975  1.00  0.00    -0.056 A 
HETATM   35  C6  UNL     1       4.862  56.416  -7.772  1.00  0.00     0.007 A 
HETATM   36  C7  UNL     1       6.177  56.112  -7.411  1.00  0.00     0.001 A 
HETATM   37  C8  UNL     1       6.966  55.325  -8.246  1.00  0.00     0.000 A 
HETATM   38  C9  UNL     1       6.441  54.836  -9.441  1.00  0.00     0.001 A 
HETATM   39  C10 UNL     1       5.129  55.140  -9.805  1.00  0.00     0.007 A 
ENDBRANCH  33  34
ENDBRANCH  28  33
ENDBRANCH  25  28
ENDBRANCH  23  24
ENDBRANCH  22  23
ENDBRANCH   1  22
BRANCH  17  40
HETATM   40  O5  UNL     1      -3.519  51.504 -22.103  1.00  0.00    -0.381 OA
HETATM   41  H34 UNL     1      -4.330  51.549 -22.644  1.00  0.00     0.211 HD
ENDBRANCH  17  40
BRANCH  17  42
HETATM   42  C28 UNL     1      -2.697  49.656 -23.425  1.00  0.00     0.158 C 
HETATM   43  C29 UNL     1      -3.404  48.458 -24.011  1.00  0.00     0.094 C 
HETATM   44  O6  UNL     1      -1.836  50.246 -24.085  1.00  0.00    -0.295 OA
ENDBRANCH  17  42
TORSDOF 10
ENDMDL
MODEL 6
REMARK minimizedAffinity -8.9772253
REMARK CNNscore 0.23572126
REMARK CNNaffinity 6.15694571
REMARK  10 active torsions:
REMARK  status: ('A' for Active; 'I' for Inactive)
REMARK    1  A    between atoms: O1_2  and  C2_3 
REMARK    2  A    between atoms: C2_3  and  C3_5 
REMARK    3  A    between atoms: C3_5  and  C4_6 
REMARK    4  A    between atoms: C3_5  and  N1_13 
REMARK    5  A    between atoms: C4_6  and  C5_7 
REMARK       I    between atoms: N1_13  and  C11_14 
REMARK    6  A    between atoms: C11_14  and  C12_16 
REMARK    7  A    between atoms: C12_16  and  O4_17 
REMARK    8  A    between atoms: O4_17  and  N2_18 
REMARK    9  A    between atoms: C27_34  and  O5_35 
REMARK   10  A    between atoms: C27_34  and  C28_36 
ROOT
HETATM    1  N2  UNL     1      -8.910  47.547 -22.696  1.00  0.00    -0.271 N 
ATOM      2  H2  UNL     1      -9.425  47.764 -21.842  1.00  0.00     0.194 HD
HETATM    3  C13 UNL     1      -7.876  48.218 -23.108  1.00  0.00     0.032 C 
HETATM    4  C14 UNL     1      -7.091  47.930 -24.341  1.00  0.00     0.030 C 
HETATM    5  C15 UNL     1      -5.896  48.511 -24.564  1.00  0.00    -0.069 C 
HETATM    6  C16 UNL     1      -5.196  48.304 -25.890  1.00  0.00     0.035 C 
HETATM    7  C17 UNL     1      -3.672  48.392 -25.823  1.00  0.00     0.010 C 
HETATM    8  C18 UNL     1      -3.138  49.602 -25.030  1.00  0.00    -0.004 C 
HETATM    9  C19 UNL     1      -4.283  50.420 -24.355  1.00  0.00     0.002 C 
HETATM   10  C20 UNL     1      -3.729  51.620 -23.551  1.00  0.00     0.007 C 
HETATM   11  C21 UNL     1      -2.768  52.496 -24.378  1.00  0.00     0.013 C 
HETATM   12  C22 UNL     1      -1.620  51.679 -24.999  1.00  0.00    -0.002 C 
HETATM   13  C23 UNL     1      -0.702  51.138 -23.867  1.00  0.00     0.019 C 
HETATM   14  C24 UNL     1      -2.270  50.557 -25.860  1.00  0.00     0.002 C 
HETATM   15  C25 UNL     1      -1.090  49.984 -26.636  1.00  0.00     0.009 C 
HETATM   16  C26 UNL     1      -0.189  51.201 -26.920  1.00  0.00     0.047 C 
HETATM   17  C27 UNL     1      -0.757  52.388 -26.090  1.00  0.00     0.125 C 
HETATM   18  C30 UNL     1      -5.248  49.471 -23.563  1.00  0.00    -0.016 C 
HETATM   19  C31 UNL     1      -4.478  48.650 -22.499  1.00  0.00     0.020 C 
HETATM   20  C32 UNL     1      -6.381  50.271 -22.876  1.00  0.00     0.020 C 
HETATM   21  C33 UNL     1      -7.442  49.382 -22.233  1.00  0.00     0.060 C 
ENDROOT
BRANCH   1  22
HETATM   22  O4  UNL     1      -9.236  46.489 -23.558  1.00  0.00    -0.271 OA
BRANCH  22  23
HETATM   23  C12 UNL     1     -10.417  45.852 -23.078  1.00  0.00     0.303 C 
BRANCH  23  24
HETATM   24  C11 UNL     1     -11.606  46.315 -23.905  1.00  0.00     0.244 C 
HETATM   25  N1  UNL     1     -12.674  45.439 -23.881  1.00  0.00    -0.345 N 
HETATM   26  H12 UNL     1     -12.699  44.779 -23.108  1.00  0.00     0.163 HD
HETATM   27  O3  UNL     1     -11.582  47.342 -24.579  1.00  0.00    -0.271 OA
BRANCH  25  28
HETATM   28  C3  UNL     1     -13.945  45.732 -24.561  1.00  0.00     0.188 C 
BRANCH  28  29
HETATM   29  C2  UNL     1     -13.733  45.996 -26.062  1.00  0.00     0.281 C 
HETATM   30  O2  UNL     1     -14.002  47.051 -26.626  1.00  0.00    -0.263 OA
BRANCH  29  31
HETATM   31  O1  UNL     1     -13.158  44.919 -26.684  1.00  0.00    -0.325 OA
HETATM   32  C1  UNL     1     -12.053  45.255 -27.525  1.00  0.00     0.213 C 
ENDBRANCH  29  31
ENDBRANCH  28  29
BRANCH  28  33
HETATM   33  C4  UNL     1     -14.602  46.966 -23.918  1.00  0.00     0.074 C 
BRANCH  33  34
HETATM   34  C5  UNL     1     -16.073  46.766 -23.636  1.00  0.00    -0.056 A 
HETATM   35  C6  UNL     1     -16.514  46.381 -22.364  1.00  0.00     0.007 A 
HETATM   36  C7  UNL     1     -17.876  46.203 -22.112  1.00  0.00     0.001 A 
HETATM   37  C8  UNL     1     -18.807  46.413 -23.127  1.00  0.00     0.000 A 
HETATM   38  C9  UNL     1     -18.379  46.806 -24.394  1.00  0.00     0.001 A 
HETATM   39  C10 UNL     1     -17.018  46.983 -24.648  1.00  0.00     0.007 A 
ENDBRANCH  33  34
ENDBRANCH  28  33
ENDBRANCH  25  28
ENDBRANCH  23  24
ENDBRANCH  22  23
ENDBRANCH   1  22
BRANCH  17  40
HETATM   40  O5  UNL     1      -1.598  53.164 -26.954  1.00  0.00    -0.381 OA
HETATM   41  H34 UNL     1      -1.069  53.419 -27.733  1.00  0.00     0.211 HD
ENDBRANCH  17  40
BRANCH  17  42
HETATM   42  C28 UNL     1       0.354  53.310 -25.537  1.00  0.00     0.158 C 
HETATM   43  C29 UNL     1      -0.024  54.726 -25.173  1.00  0.00     0.094 C 
HETATM   44  O6  UNL     1       1.509  52.915 -25.353  1.00  0.00    -0.295 OA
ENDBRANCH  17  42
TORSDOF 10
ENDMDL
MODEL 7
REMARK minimizedAffinity -8.93553257
REMARK CNNscore 0.234446242
REMARK CNNaffinity 6.94766378
REMARK  10 active torsions:
REMARK  status: ('A' for Active; 'I' for Inactive)
REMARK    1  A    between atoms: O1_2  and  C2_3 
REMARK    2  A    between atoms: C2_3  and  C3_5 
REMARK    3  A    between atoms: C3_5  and  C4_6 
REMARK    4  A    between atoms: C3_5  and  N1_13 
REMARK    5  A    between atoms: C4_6  and  C5_7 
REMARK       I    between atoms: N1_13  and  C11_14 
REMARK    6  A    between atoms: C11_14  and  C12_16 
REMARK    7  A    between atoms: C12_16  and  O4_17 
REMARK    8  A    between atoms: O4_17  and  N2_18 
REMARK    9  A    between atoms: C27_34  and  O5_35 
REMARK   10  A    between atoms: C27_34  and  C28_36 
ROOT
HETATM    1  N2  UNL     1       1.482  52.967 -17.293  1.00  0.00    -0.271 N 
ATOM      2  H2  UNL     1       2.118  53.758 -17.191  1.00  0.00     0.194 HD
HETATM    3  C13 UNL     1       0.856  52.680 -18.396  1.00  0.00     0.032 C 
HETATM    4  C14 UNL     1      -0.075  51.532 -18.592  1.00  0.00     0.030 C 
HETATM    5  C15 UNL     1      -0.483  51.162 -19.821  1.00  0.00    -0.069 C 
HETATM    6  C16 UNL     1      -1.537  50.085 -19.968  1.00  0.00     0.035 C 
HETATM    7  C17 UNL     1      -1.448  49.286 -21.268  1.00  0.00     0.010 C 
HETATM    8  C18 UNL     1      -1.270  50.148 -22.535  1.00  0.00    -0.004 C 
HETATM    9  C19 UNL     1      -1.094  51.663 -22.201  1.00  0.00     0.002 C 
HETATM   10  C20 UNL     1      -0.899  52.509 -23.481  1.00  0.00     0.007 C 
HETATM   11  C21 UNL     1      -1.991  52.247 -24.538  1.00  0.00     0.013 C 
HETATM   12  C22 UNL     1      -2.120  50.753 -24.887  1.00  0.00    -0.002 C 
HETATM   13  C23 UNL     1      -0.825  50.279 -25.606  1.00  0.00     0.019 C 
HETATM   14  C24 UNL     1      -2.404  49.994 -23.557  1.00  0.00     0.002 C 
HETATM   15  C25 UNL     1      -2.780  48.594 -24.027  1.00  0.00     0.009 C 
HETATM   16  C26 UNL     1      -3.546  48.823 -25.344  1.00  0.00     0.047 C 
HETATM   17  C27 UNL     1      -3.373  50.325 -25.712  1.00  0.00     0.125 C 
HETATM   18  C30 UNL     1      -0.001  51.861 -21.094  1.00  0.00    -0.016 C 
HETATM   19  C31 UNL     1       1.354  51.247 -21.528  1.00  0.00     0.020 C 
HETATM   20  C32 UNL     1       0.195  53.360 -20.764  1.00  0.00     0.020 C 
HETATM   21  C33 UNL     1       1.124  53.599 -19.576  1.00  0.00     0.060 C 
ENDROOT
BRANCH   1  22
HETATM   22  O4  UNL     1       1.181  52.066 -16.261  1.00  0.00    -0.271 OA
BRANCH  22  23
HETATM   23  C12 UNL     1       0.471  50.959 -16.809  1.00  0.00     0.303 C 
BRANCH  23  24
HETATM   24  C11 UNL     1      -0.014  50.067 -15.677  1.00  0.00     0.244 C 
HETATM   25  N1  UNL     1       0.044  50.666 -14.433  1.00  0.00    -0.345 N 
HETATM   26  H12 UNL     1       0.086  51.682 -14.424  1.00  0.00     0.163 HD
HETATM   27  O3  UNL     1      -0.363  48.902 -15.857  1.00  0.00    -0.271 OA
BRANCH  25  28
HETATM   28  C3  UNL     1      -0.442  49.998 -13.216  1.00  0.00     0.188 C 
BRANCH  28  29
HETATM   29  C2  UNL     1       0.274  48.656 -12.988  1.00  0.00     0.281 C 
HETATM   30  O2  UNL     1       1.492  48.514 -12.955  1.00  0.00    -0.263 OA
BRANCH  29  31
HETATM   31  O1  UNL     1      -0.621  47.640 -12.778  1.00  0.00    -0.325 OA
HETATM   32  C1  UNL     1      -0.370  46.880 -11.593  1.00  0.00     0.213 C 
ENDBRANCH  29  31
ENDBRANCH  28  29
BRANCH  28  33
HETATM   33  C4  UNL     1      -1.956  49.751 -13.332  1.00  0.00     0.074 C 
BRANCH  33  34
HETATM   34  C5  UNL     1      -2.771  50.704 -12.489  1.00  0.00    -0.056 A 
HETATM   35  C6  UNL     1      -2.924  52.044 -12.865  1.00  0.00     0.007 A 
HETATM   36  C7  UNL     1      -3.683  52.915 -12.081  1.00  0.00     0.001 A 
HETATM   37  C8  UNL     1      -4.298  52.454 -10.920  1.00  0.00     0.000 A 
HETATM   38  C9  UNL     1      -4.159  51.119 -10.542  1.00  0.00     0.001 A 
HETATM   39  C10 UNL     1      -3.400  50.247 -11.323  1.00  0.00     0.007 A 
ENDBRANCH  33  34
ENDBRANCH  28  33
ENDBRANCH  25  28
ENDBRANCH  23  24
ENDBRANCH  22  23
ENDBRANCH   1  22
BRANCH  17  40
HETATM   40  O5  UNL     1      -4.533  51.027 -25.244  1.00  0.00    -0.381 OA
HETATM   41  H34 UNL     1      -5.318  50.594 -25.628  1.00  0.00     0.211 HD
ENDBRANCH  17  40
BRANCH  17  42
HETATM   42  C28 UNL     1      -3.251  50.552 -27.237  1.00  0.00     0.158 C 
HETATM   43  C29 UNL     1      -2.752  51.895 -27.710  1.00  0.00     0.094 C 
HETATM   44  O6  UNL     1      -3.509  49.667 -28.058  1.00  0.00    -0.295 OA
ENDBRANCH  17  42
TORSDOF 10
ENDMDL
MODEL 8
REMARK minimizedAffinity -8.60226536
REMARK CNNscore 0.208418623
REMARK CNNaffinity 6.79992628
REMARK  10 active torsions:
REMARK  status: ('A' for Active; 'I' for Inactive)
REMARK    1  A    between atoms: O1_2  and  C2_3 
REMARK    2  A    between atoms: C2_3  and  C3_5 
REMARK    3  A    between atoms: C3_5  and  C4_6 
REMARK    4  A    between atoms: C3_5  and  N1_13 
REMARK    5  A    between atoms: C4_6  and  C5_7 
REMARK       I    between atoms: N1_13  and  C11_14 
REMARK    6  A    between atoms: C11_14  and  C12_16 
REMARK    7  A    between atoms: C12_16  and  O4_17 
REMARK    8  A    between atoms: O4_17  and  N2_18 
REMARK    9  A    between atoms: C27_34  and  O5_35 
REMARK   10  A    between atoms: C27_34  and  C28_36 
ROOT
HETATM    1  N2  UNL     1      -4.785  50.393 -20.975  1.00  0.00    -0.271 N 
ATOM      2  H2  UNL     1      -5.579  49.752 -20.997  1.00  0.00     0.194 HD
HETATM    3  C13 UNL     1      -3.972  50.503 -19.967  1.00  0.00     0.032 C 
HETATM    4  C14 UNL     1      -2.797  51.418 -19.896  1.00  0.00     0.030 C 
HETATM    5  C15 UNL     1      -1.869  51.294 -18.928  1.00  0.00    -0.069 C 
HETATM    6  C16 UNL     1      -0.770  52.327 -18.806  1.00  0.00     0.035 C 
HETATM    7  C17 UNL     1       0.533  51.800 -18.204  1.00  0.00     0.010 C 
HETATM    8  C18 UNL     1       0.347  50.948 -16.932  1.00  0.00    -0.004 C 
HETATM    9  C19 UNL     1      -1.158  50.704 -16.597  1.00  0.00     0.002 C 
HETATM   10  C20 UNL     1      -1.325  49.834 -15.328  1.00  0.00     0.007 C 
HETATM   11  C21 UNL     1      -0.520  50.373 -14.129  1.00  0.00     0.013 C 
HETATM   12  C22 UNL     1       0.970  50.566 -14.465  1.00  0.00    -0.002 C 
HETATM   13  C23 UNL     1       1.624  49.178 -14.722  1.00  0.00     0.019 C 
HETATM   14  C24 UNL     1       1.044  51.522 -15.691  1.00  0.00     0.002 C 
HETATM   15  C25 UNL     1       2.526  51.866 -15.778  1.00  0.00     0.009 C 
HETATM   16  C26 UNL     1       2.994  51.925 -14.312  1.00  0.00     0.047 C 
HETATM   17  C27 UNL     1       1.827  51.375 -13.442  1.00  0.00     0.125 C 
HETATM   18  C30 UNL     1      -1.931  50.196 -17.863  1.00  0.00    -0.016 C 
HETATM   19  C31 UNL     1      -1.291  48.904 -18.430  1.00  0.00     0.020 C 
HETATM   20  C32 UNL     1      -3.422  49.935 -17.542  1.00  0.00     0.020 C 
HETATM   21  C33 UNL     1      -4.255  49.602 -18.777  1.00  0.00     0.060 C 
ENDROOT
BRANCH   1  22
HETATM   22  O4  UNL     1      -4.447  51.255 -22.029  1.00  0.00    -0.271 OA
BRANCH  22  23
HETATM   23  C12 UNL     1      -4.655  50.575 -23.264  1.00  0.00     0.303 C 
BRANCH  23  24
HETATM   24  C11 UNL     1      -3.386  50.654 -24.097  1.00  0.00     0.244 C 
HETATM   25  N1  UNL     1      -2.978  51.945 -24.370  1.00  0.00    -0.345 N 
HETATM   26  H12 UNL     1      -3.342  52.671 -23.758  1.00  0.00     0.163 HD
HETATM   27  O3  UNL     1      -2.821  49.654 -24.536  1.00  0.00    -0.271 OA
BRANCH  25  28
HETATM   28  C3  UNL     1      -1.738  52.239 -25.104  1.00  0.00     0.188 C 
BRANCH  28  29
HETATM   29  C2  UNL     1      -1.794  51.697 -26.542  1.00  0.00     0.281 C 
HETATM   30  O2  UNL     1      -2.733  51.867 -27.313  1.00  0.00    -0.263 OA
BRANCH  29  31
HETATM   31  O1  UNL     1      -0.640  51.038 -26.875  1.00  0.00    -0.325 OA
HETATM   32  C1  UNL     1       0.130  51.690 -27.888  1.00  0.00     0.213 C 
ENDBRANCH  29  31
ENDBRANCH  28  29
BRANCH  28  33
HETATM   33  C4  UNL     1      -0.542  51.606 -24.371  1.00  0.00     0.074 C 
BRANCH  33  34
HETATM   34  C5  UNL     1       0.230  52.605 -23.540  1.00  0.00    -0.056 A 
HETATM   35  C6  UNL     1       0.584  52.316 -22.216  1.00  0.00     0.007 A 
HETATM   36  C7  UNL     1       1.301  53.244 -21.459  1.00  0.00     0.001 A 
HETATM   37  C8  UNL     1       1.675  54.463 -22.018  1.00  0.00     0.000 A 
HETATM   38  C9  UNL     1       1.335  54.756 -23.338  1.00  0.00     0.001 A 
HETATM   39  C10 UNL     1       0.617  53.831 -24.097  1.00  0.00     0.007 A 
ENDBRANCH  33  34
ENDBRANCH  28  33
ENDBRANCH  25  28
ENDBRANCH  23  24
ENDBRANCH  22  23
ENDBRANCH   1  22
BRANCH  17  40
HETATM   40  O5  UNL     1       1.079  52.497 -12.954  1.00  0.00    -0.381 OA
HETATM   41  H34 UNL     1       1.699  53.088 -12.488  1.00  0.00     0.211 HD
ENDBRANCH  17  40
BRANCH  17  42
HETATM   42  C28 UNL     1       2.326  50.559 -12.228  1.00  0.00     0.158 C 
HETATM   43  C29 UNL     1       3.813  50.331 -12.097  1.00  0.00     0.094 C 
HETATM   44  O6  UNL     1       1.559  50.131 -11.359  1.00  0.00    -0.295 OA
ENDBRANCH  17  42
TORSDOF 10
ENDMDL
MODEL 9
REMARK minimizedAffinity -8.4045372
REMARK CNNscore 0.198257089
REMARK CNNaffinity 6.86764002
REMARK  10 active torsions:
REMARK  status: ('A' for Active; 'I' for Inactive)
REMARK    1  A    between atoms: O1_2  and  C2_3 
REMARK    2  A    between atoms: C2_3  and  C3_5 
REMARK    3  A    between atoms: C3_5  and  C4_6 
REMARK    4  A    between atoms: C3_5  and  N1_13 
REMARK    5  A    between atoms: C4_6  and  C5_7 
REMARK       I    between atoms: N1_13  and  C11_14 
REMARK    6  A    between atoms: C11_14  and  C12_16 
REMARK    7  A    between atoms: C12_16  and  O4_17 
REMARK    8  A    between atoms: O4_17  and  N2_18 
REMARK    9  A    between atoms: C27_34  and  O5_35 
REMARK   10  A    between atoms: C27_34  and  C28_36 
ROOT
HETATM    1  N2  UNL     1      -2.241  48.407 -16.601  1.00  0.00    -0.271 N 
ATOM      2  H2  UNL     1      -2.985  47.737 -16.405  1.00  0.00     0.194 HD
HETATM    3  C13 UNL     1      -1.973  48.865 -17.787  1.00  0.00     0.032 C 
HETATM    4  C14 UNL     1      -0.902  49.848 -18.116  1.00  0.00     0.030 C 
HETATM    5  C15 UNL     1      -0.852  50.456 -19.317  1.00  0.00    -0.069 C 
HETATM    6  C16 UNL     1       0.328  51.338 -19.664  1.00  0.00     0.035 C 
HETATM    7  C17 UNL     1       0.014  52.456 -20.657  1.00  0.00     0.010 C 
HETATM    8  C18 UNL     1      -0.797  52.004 -21.889  1.00  0.00    -0.004 C 
HETATM    9  C19 UNL     1      -1.232  50.507 -21.796  1.00  0.00     0.002 C 
HETATM   10  C20 UNL     1      -2.058  50.076 -23.031  1.00  0.00     0.007 C 
HETATM   11  C21 UNL     1      -1.360  50.419 -24.362  1.00  0.00     0.013 C 
HETATM   12  C22 UNL     1      -0.977  51.908 -24.454  1.00  0.00    -0.002 C 
HETATM   13  C23 UNL     1      -2.271  52.768 -24.514  1.00  0.00     0.019 C 
HETATM   14  C24 UNL     1      -0.076  52.227 -23.225  1.00  0.00     0.002 C 
HETATM   15  C25 UNL     1       0.465  53.617 -23.541  1.00  0.00     0.009 C 
HETATM   16  C26 UNL     1       0.655  53.618 -25.069  1.00  0.00     0.047 C 
HETATM   17  C27 UNL     1      -0.012  52.319 -25.609  1.00  0.00     0.125 C 
HETATM   18  C30 UNL     1      -1.899  50.212 -20.408  1.00  0.00    -0.016 C 
HETATM   19  C31 UNL     1      -3.114  51.139 -20.160  1.00  0.00     0.020 C 
HETATM   20  C32 UNL     1      -2.349  48.734 -20.306  1.00  0.00     0.020 C 
HETATM   21  C33 UNL     1      -2.850  48.351 -18.916  1.00  0.00     0.060 C 
ENDROOT
BRANCH   1  22
HETATM   22  O4  UNL     1      -1.389  48.938 -15.620  1.00  0.00    -0.271 OA
BRANCH  22  23
HETATM   23  C12 UNL     1      -2.152  49.768 -14.749  1.00  0.00     0.303 C 
BRANCH  23  24
HETATM   24  C11 UNL     1      -1.285  50.925 -14.277  1.00  0.00     0.244 C 
HETATM   25  N1  UNL     1       0.058  50.767 -14.562  1.00  0.00    -0.345 N 
HETATM   26  H12 UNL     1       0.287  50.105 -15.300  1.00  0.00     0.163 HD
HETATM   27  O3  UNL     1      -1.739  51.875 -13.643  1.00  0.00    -0.271 OA
BRANCH  25  28
HETATM   28  C3  UNL     1       1.055  51.802 -14.250  1.00  0.00     0.188 C 
BRANCH  28  29
HETATM   29  C2  UNL     1       1.930  52.126 -15.473  1.00  0.00     0.281 C 
HETATM   30  O2  UNL     1       1.498  52.500 -16.558  1.00  0.00    -0.263 OA
BRANCH  29  31
HETATM   31  O1  UNL     1       3.263  51.989 -15.186  1.00  0.00    -0.325 OA
HETATM   32  C1  UNL     1       4.130  52.576 -16.159  1.00  0.00     0.213 C 
ENDBRANCH  29  31
ENDBRANCH  28  29
BRANCH  28  33
HETATM   33  C4  UNL     1       1.954  51.322 -13.098  1.00  0.00     0.074 C 
BRANCH  33  34
HETATM   34  C5  UNL     1       1.873  52.216 -11.882  1.00  0.00    -0.056 A 
HETATM   35  C6  UNL     1       0.680  52.338 -11.159  1.00  0.00     0.007 A 
HETATM   36  C7  UNL     1       0.617  53.163 -10.034  1.00  0.00     0.001 A 
HETATM   37  C8  UNL     1       1.746  53.867  -9.620  1.00  0.00     0.000 A 
HETATM   38  C9  UNL     1       2.940  53.744 -10.327  1.00  0.00     0.001 A 
HETATM   39  C10 UNL     1       3.006  52.921 -11.453  1.00  0.00     0.007 A 
ENDBRANCH  33  34
ENDBRANCH  28  33
ENDBRANCH  25  28
ENDBRANCH  23  24
ENDBRANCH  22  23
ENDBRANCH   1  22
BRANCH  17  40
HETATM   40  O5  UNL     1       1.017  51.332 -25.765  1.00  0.00    -0.381 OA
HETATM   41  H34 UNL     1       1.709  51.712 -26.338  1.00  0.00     0.211 HD
ENDBRANCH  17  40
BRANCH  17  42
HETATM   42  C28 UNL     1      -0.695  52.529 -26.980  1.00  0.00     0.158 C 
HETATM   43  C29 UNL     1       0.116  52.242 -28.221  1.00  0.00     0.094 C 
HETATM   44  O6  UNL     1      -1.874  52.880 -27.083  1.00  0.00    -0.295 OA
ENDBRANCH  17  42
TORSDOF 10
ENDMDL
