MODEL 1
REMARK minimizedAffinity -10.5188484
REMARK  8 active torsions:
REMARK  status: ('A' for Active; 'I' for Inactive)
REMARK    1  A    between atoms: C2_2  and  C3_3 
REMARK    2  A    between atoms: C2_2  and  C27_30 
REMARK    3  A    between atoms: C3_3  and  C4_4 
REMARK    4  A    between atoms: C4_4  and  C5_5 
REMARK    5  A    between atoms: C5_5  and  C7_7 
REMARK    6  A    between atoms: C26_28  and  O3_29 
REMARK    7  A    between atoms: C27_30  and  C29_32 
REMARK    8  A    between atoms: C29_32  and  O5_34 
ROOT
HETATM    1  C7  UNL     1      -0.732  51.169 -23.197  1.00  0.00    -0.002 C 
HETATM    2  C8  UNL     1       0.098  52.476 -23.297  1.00  0.00     0.006 C 
HETATM    3  C9  UNL     1       0.480  52.857 -21.861  1.00  0.00     0.010 C 
HETATM    4  C10 UNL     1       0.207  51.590 -21.049  1.00  0.00     0.027 C 
HETATM    5  C11 UNL     1       0.196  51.572 -19.532  1.00  0.00    -0.036 C 
HETATM    6  C12 UNL     1      -0.421  50.562 -18.866  1.00  0.00     0.002 C 
HETATM    7  C13 UNL     1      -1.245  49.559 -19.657  1.00  0.00     0.157 C 
HETATM    8  O1  UNL     1      -1.865  48.662 -19.086  1.00  0.00    -0.293 OA
HETATM    9  C14 UNL     1      -1.287  49.634 -21.174  1.00  0.00     0.093 C 
HETATM   10  C15 UNL     1      -1.103  51.062 -21.685  1.00  0.00    -0.026 C 
HETATM   11  C16 UNL     1      -2.336  51.909 -21.304  1.00  0.00     0.016 C 
HETATM   12  C17 UNL     1      -0.334  50.375 -17.334  1.00  0.00    -0.008 C 
HETATM   13  C18 UNL     1      -1.682  50.868 -16.749  1.00  0.00     0.021 C 
HETATM   14  C19 UNL     1      -0.113  48.879 -16.928  1.00  0.00     0.022 C 
HETATM   15  C20 UNL     1       0.724  48.635 -15.674  1.00  0.00     0.080 C 
HETATM   16  C21 UNL     1       0.610  49.766 -14.690  1.00  0.00     0.131 C 
HETATM   17  O2  UNL     1       0.346  49.566 -13.505  1.00  0.00    -0.298 OA
HETATM   18  C22 UNL     1       0.927  51.160 -15.209  1.00  0.00     0.056 C 
HETATM   19  C23 UNL     1       2.286  51.584 -14.651  1.00  0.00     0.018 C 
HETATM   20  C24 UNL     1       0.883  51.183 -16.757  1.00  0.00     0.012 C 
HETATM   21  C25 UNL     1       0.892  52.613 -17.295  1.00  0.00     0.042 C 
HETATM   22  C26 UNL     1       0.991  52.641 -18.820  1.00  0.00     0.148 C 
ENDROOT
BRANCH   1  23
HETATM   23  C5  UNL     1      -1.785  51.005 -24.333  1.00  0.00    -0.014 C 
HETATM   24  C6  UNL     1      -2.673  52.226 -24.595  1.00  0.00     0.010 C 
BRANCH  23  25
HETATM   25  C4  UNL     1      -2.624  49.718 -24.138  1.00  0.00     0.009 C 
BRANCH  25  26
HETATM   26  C3  UNL     1      -2.633  48.752 -25.341  1.00  0.00     0.034 C 
BRANCH  26  27
HETATM   27  C2  UNL     1      -3.904  48.593 -26.159  1.00  0.00    -0.075 C 
HETATM   28  C1  UNL     1      -5.104  48.362 -25.593  1.00  0.00     0.015 C 
BRANCH  27  29
HETATM   29  C27 UNL     1      -3.779  48.647 -27.684  1.00  0.00     0.107 C 
HETATM   30  C28 UNL     1      -4.983  48.037 -28.401  1.00  0.00     0.026 C 
BRANCH  29  31
HETATM   31  C29 UNL     1      -3.524  50.061 -28.205  1.00  0.00     0.147 C 
HETATM   32  O4  UNL     1      -3.139  51.039 -27.586  1.00  0.00    -0.650 OA
BRANCH  31  33
HETATM   33  O5  UNL     1      -3.799  50.173 -29.524  1.00  0.00    -0.776 OA
HETATM   34  H42 UNL     1      -3.595  51.112 -29.723  1.00  0.00     0.167 HD
ENDBRANCH  31  33
ENDBRANCH  29  31
ENDBRANCH  27  29
ENDBRANCH  26  27
ENDBRANCH  25  26
ENDBRANCH  23  25
ENDBRANCH   1  23
BRANCH  22  35
HETATM   35  O3  UNL     1       0.531  53.922 -19.231  1.00  0.00    -0.391 OA
HETATM   36  H37 UNL     1       1.104  54.588 -18.816  1.00  0.00     0.210 HD
ENDBRANCH  22  35
TORSDOF 8
ENDMDL
MODEL 2
REMARK minimizedAffinity -10.4871683
REMARK  8 active torsions:
REMARK  status: ('A' for Active; 'I' for Inactive)
REMARK    1  A    between atoms: C2_2  and  C3_3 
REMARK    2  A    between atoms: C2_2  and  C27_30 
REMARK    3  A    between atoms: C3_3  and  C4_4 
REMARK    4  A    between atoms: C4_4  and  C5_5 
REMARK    5  A    between atoms: C5_5  and  C7_7 
REMARK    6  A    between atoms: C26_28  and  O3_29 
REMARK    7  A    between atoms: C27_30  and  C29_32 
REMARK    8  A    between atoms: C29_32  and  O5_34 
ROOT
HETATM    1  C7  UNL     1      -1.136  50.571 -23.719  1.00  0.00    -0.002 C 
HETATM    2  C8  UNL     1      -0.341  51.880 -23.964  1.00  0.00     0.006 C 
HETATM    3  C9  UNL     1       0.045  52.418 -22.580  1.00  0.00     0.010 C 
HETATM    4  C10 UNL     1      -0.188  51.236 -21.638  1.00  0.00     0.027 C 
HETATM    5  C11 UNL     1      -0.184  51.375 -20.128  1.00  0.00    -0.036 C 
HETATM    6  C12 UNL     1      -0.769  50.425 -19.353  1.00  0.00     0.002 C 
HETATM    7  C13 UNL     1      -1.574  49.326 -20.026  1.00  0.00     0.157 C 
HETATM    8  O1  UNL     1      -2.165  48.477 -19.358  1.00  0.00    -0.293 OA
HETATM    9  C14 UNL     1      -1.633  49.241 -21.541  1.00  0.00     0.093 C 
HETATM   10  C15 UNL     1      -1.490  50.612 -22.200  1.00  0.00    -0.026 C 
HETATM   11  C16 UNL     1      -2.741  51.464 -21.895  1.00  0.00     0.016 C 
HETATM   12  C17 UNL     1      -0.662  50.400 -17.811  1.00  0.00    -0.008 C 
HETATM   13  C18 UNL     1      -2.018  50.918 -17.264  1.00  0.00     0.021 C 
HETATM   14  C19 UNL     1      -0.400  48.961 -17.255  1.00  0.00     0.022 C 
HETATM   15  C20 UNL     1       0.456  48.869 -15.993  1.00  0.00     0.080 C 
HETATM   16  C21 UNL     1       0.321  50.093 -15.130  1.00  0.00     0.131 C 
HETATM   17  O2  UNL     1       0.073  50.011 -13.927  1.00  0.00    -0.298 OA
HETATM   18  C22 UNL     1       0.597  51.433 -15.794  1.00  0.00     0.056 C 
HETATM   19  C23 UNL     1       1.950  51.946 -15.300  1.00  0.00     0.018 C 
HETATM   20  C24 UNL     1       0.538  51.294 -17.336  1.00  0.00     0.012 C 
HETATM   21  C25 UNL     1       0.506  52.660 -18.019  1.00  0.00     0.042 C 
HETATM   22  C26 UNL     1       0.589  52.532 -19.539  1.00  0.00     0.148 C 
ENDROOT
BRANCH   1  23
HETATM   23  C5  UNL     1      -2.196  50.264 -24.819  1.00  0.00    -0.014 C 
HETATM   24  C6  UNL     1      -3.056  49.018 -24.581  1.00  0.00     0.010 C 
BRANCH  23  25
HETATM   25  C4  UNL     1      -1.556  50.257 -26.229  1.00  0.00     0.009 C 
BRANCH  25  26
HETATM   26  C3  UNL     1      -0.115  50.804 -26.298  1.00  0.00     0.034 C 
BRANCH  26  27
HETATM   27  C2  UNL     1       0.288  51.699 -27.459  1.00  0.00    -0.075 C 
HETATM   28  C1  UNL     1       1.363  51.446 -28.228  1.00  0.00     0.015 C 
BRANCH  27  29
HETATM   29  C27 UNL     1      -0.548  52.958 -27.707  1.00  0.00     0.107 C 
HETATM   30  C28 UNL     1      -2.037  52.746 -27.433  1.00  0.00     0.026 C 
BRANCH  29  31
HETATM   31  C29 UNL     1      -0.041  54.168 -26.923  1.00  0.00     0.147 C 
HETATM   32  O4  UNL     1       0.689  54.186 -25.947  1.00  0.00    -0.650 OA
BRANCH  31  33
HETATM   33  O5  UNL     1      -0.517  55.331 -27.421  1.00  0.00    -0.776 OA
HETATM   34  H42 UNL     1      -0.120  56.012 -26.837  1.00  0.00     0.167 HD
ENDBRANCH  31  33
ENDBRANCH  29  31
ENDBRANCH  27  29
ENDBRANCH  26  27
ENDBRANCH  25  26
ENDBRANCH  23  25
ENDBRANCH   1  23
BRANCH  22  35
HETATM   35  O3  UNL     1       0.092  53.751 -20.075  1.00  0.00    -0.391 OA
HETATM   36  H37 UNL     1       0.652  54.471 -19.738  1.00  0.00     0.210 HD
ENDBRANCH  22  35
TORSDOF 8
ENDMDL
MODEL 3
REMARK minimizedAffinity -10.439415
REMARK  8 active torsions:
REMARK  status: ('A' for Active; 'I' for Inactive)
REMARK    1  A    between atoms: C2_2  and  C3_3 
REMARK    2  A    between atoms: C2_2  and  C27_30 
REMARK    3  A    between atoms: C3_3  and  C4_4 
REMARK    4  A    between atoms: C4_4  and  C5_5 
REMARK    5  A    between atoms: C5_5  and  C7_7 
REMARK    6  A    between atoms: C26_28  and  O3_29 
REMARK    7  A    between atoms: C27_30  and  C29_32 
REMARK    8  A    between atoms: C29_32  and  O5_34 
ROOT
HETATM    1  C7  UNL     1      -0.821  51.102 -25.100  1.00  0.00    -0.002 C 
HETATM    2  C8  UNL     1       0.252  52.178 -25.408  1.00  0.00     0.006 C 
HETATM    3  C9  UNL     1       0.716  52.729 -24.054  1.00  0.00     0.010 C 
HETATM    4  C10 UNL     1       0.202  51.709 -23.036  1.00  0.00     0.027 C 
HETATM    5  C11 UNL     1       0.201  51.968 -21.542  1.00  0.00    -0.036 C 
HETATM    6  C12 UNL     1      -0.600  51.237 -20.723  1.00  0.00     0.002 C 
HETATM    7  C13 UNL     1      -1.615  50.292 -21.345  1.00  0.00     0.157 C 
HETATM    8  O1  UNL     1      -2.397  49.654 -20.640  1.00  0.00    -0.293 OA
HETATM    9  C14 UNL     1      -1.655  50.098 -22.851  1.00  0.00     0.093 C 
HETATM   10  C15 UNL     1      -1.193  51.345 -23.604  1.00  0.00    -0.026 C 
HETATM   11  C16 UNL     1      -2.228  52.475 -23.415  1.00  0.00     0.016 C 
HETATM   12  C17 UNL     1      -0.539  51.316 -19.181  1.00  0.00    -0.008 C 
HETATM   13  C18 UNL     1      -1.756  52.165 -18.731  1.00  0.00     0.021 C 
HETATM   14  C19 UNL     1      -0.618  49.905 -18.508  1.00  0.00     0.022 C 
HETATM   15  C20 UNL     1       0.164  49.730 -17.208  1.00  0.00     0.080 C 
HETATM   16  C21 UNL     1       0.287  51.020 -16.446  1.00  0.00     0.131 C 
HETATM   17  O2  UNL     1      -0.001  51.094 -15.252  1.00  0.00    -0.298 OA
HETATM   18  C22 UNL     1       0.872  52.207 -17.196  1.00  0.00     0.056 C 
HETATM   19  C23 UNL     1       2.293  52.446 -16.686  1.00  0.00     0.018 C 
HETATM   20  C24 UNL     1       0.820  51.958 -18.724  1.00  0.00     0.012 C 
HETATM   21  C25 UNL     1       1.110  53.236 -19.508  1.00  0.00     0.042 C 
HETATM   22  C26 UNL     1       1.199  52.969 -21.010  1.00  0.00     0.148 C 
ENDROOT
BRANCH   1  23
HETATM   23  C5  UNL     1      -1.896  50.948 -26.217  1.00  0.00    -0.014 C 
HETATM   24  C6  UNL     1      -3.171  51.776 -26.028  1.00  0.00     0.010 C 
BRANCH  23  25
HETATM   25  C4  UNL     1      -2.216  49.457 -26.486  1.00  0.00     0.009 C 
BRANCH  25  26
HETATM   26  C3  UNL     1      -2.953  48.727 -25.344  1.00  0.00     0.034 C 
BRANCH  26  27
HETATM   27  C2  UNL     1      -4.436  48.425 -25.489  1.00  0.00    -0.075 C 
HETATM   28  C1  UNL     1      -5.010  48.171 -26.680  1.00  0.00     0.015 C 
BRANCH  27  29
HETATM   29  C27 UNL     1      -5.296  48.471 -24.223  1.00  0.00     0.107 C 
HETATM   30  C28 UNL     1      -4.557  47.968 -22.983  1.00  0.00     0.026 C 
BRANCH  29  31
HETATM   31  C29 UNL     1      -5.879  49.858 -23.955  1.00  0.00     0.147 C 
HETATM   32  O4  UNL     1      -5.326  50.831 -23.471  1.00  0.00    -0.650 OA
BRANCH  31  33
HETATM   33  O5  UNL     1      -7.182  49.939 -24.307  1.00  0.00    -0.776 OA
HETATM   34  H42 UNL     1      -7.424  50.863 -24.086  1.00  0.00     0.167 HD
ENDBRANCH  31  33
ENDBRANCH  29  31
ENDBRANCH  27  29
ENDBRANCH  26  27
ENDBRANCH  25  26
ENDBRANCH  23  25
ENDBRANCH   1  23
BRANCH  22  35
HETATM   35  O3  UNL     1       1.001  54.220 -21.656  1.00  0.00    -0.391 OA
HETATM   36  H37 UNL     1       1.700  54.823 -21.351  1.00  0.00     0.210 HD
ENDBRANCH  22  35
TORSDOF 8
ENDMDL
MODEL 4
REMARK minimizedAffinity -10.3447752
REMARK  8 active torsions:
REMARK  status: ('A' for Active; 'I' for Inactive)
REMARK    1  A    between atoms: C2_2  and  C3_3 
REMARK    2  A    between atoms: C2_2  and  C27_30 
REMARK    3  A    between atoms: C3_3  and  C4_4 
REMARK    4  A    between atoms: C4_4  and  C5_5 
REMARK    5  A    between atoms: C5_5  and  C7_7 
REMARK    6  A    between atoms: C26_28  and  O3_29 
REMARK    7  A    between atoms: C27_30  and  C29_32 
REMARK    8  A    between atoms: C29_32  and  O5_34 
ROOT
HETATM    1  C7  UNL     1      -0.688  51.154 -25.182  1.00  0.00    -0.002 C 
HETATM    2  C8  UNL     1       0.311  52.324 -25.380  1.00  0.00     0.006 C 
HETATM    3  C9  UNL     1       0.654  52.843 -23.978  1.00  0.00     0.010 C 
HETATM    4  C10 UNL     1       0.167  51.739 -23.038  1.00  0.00     0.027 C 
HETATM    5  C11 UNL     1       0.064  51.925 -21.536  1.00  0.00    -0.036 C 
HETATM    6  C12 UNL     1      -0.721  51.097 -20.798  1.00  0.00     0.002 C 
HETATM    7  C13 UNL     1      -1.621  50.107 -21.519  1.00  0.00     0.157 C 
HETATM    8  O1  UNL     1      -2.387  49.377 -20.889  1.00  0.00    -0.293 OA
HETATM    9  C14 UNL     1      -1.562  49.983 -23.031  1.00  0.00     0.093 C 
HETATM   10  C15 UNL     1      -1.160  51.296 -23.701  1.00  0.00    -0.026 C 
HETATM   11  C16 UNL     1      -2.291  52.333 -23.525  1.00  0.00     0.016 C 
HETATM   12  C17 UNL     1      -0.751  51.107 -19.252  1.00  0.00    -0.008 C 
HETATM   13  C18 UNL     1      -2.055  51.836 -18.838  1.00  0.00     0.021 C 
HETATM   14  C19 UNL     1      -0.755  49.663 -18.648  1.00  0.00     0.022 C 
HETATM   15  C20 UNL     1      -0.033  49.487 -17.313  1.00  0.00     0.080 C 
HETATM   16  C21 UNL     1      -0.056  50.745 -16.489  1.00  0.00     0.131 C 
HETATM   17  O2  UNL     1      -0.415  50.740 -15.312  1.00  0.00    -0.298 OA
HETATM   18  C22 UNL     1       0.473  52.008 -17.151  1.00  0.00     0.056 C 
HETATM   19  C23 UNL     1       1.840  52.331 -16.549  1.00  0.00     0.018 C 
HETATM   20  C24 UNL     1       0.525  51.829 -18.690  1.00  0.00     0.012 C 
HETATM   21  C25 UNL     1       0.756  53.162 -19.399  1.00  0.00     0.042 C 
HETATM   22  C26 UNL     1       0.948  52.974 -20.904  1.00  0.00     0.148 C 
ENDROOT
BRANCH   1  23
HETATM   23  C5  UNL     1      -1.685  50.971 -26.365  1.00  0.00    -0.014 C 
HETATM   24  C6  UNL     1      -2.856  51.958 -26.405  1.00  0.00     0.010 C 
BRANCH  23  25
HETATM   25  C4  UNL     1      -2.168  49.504 -26.470  1.00  0.00     0.009 C 
BRANCH  25  26
HETATM   26  C3  UNL     1      -3.316  49.261 -27.472  1.00  0.00     0.034 C 
BRANCH  26  27
HETATM   27  C2  UNL     1      -4.544  48.485 -27.023  1.00  0.00    -0.075 C 
HETATM   28  C1  UNL     1      -4.952  48.456 -25.741  1.00  0.00     0.015 C 
BRANCH  27  29
HETATM   29  C27 UNL     1      -5.295  47.673 -28.081  1.00  0.00     0.107 C 
HETATM   30  C28 UNL     1      -6.812  47.719 -27.900  1.00  0.00     0.026 C 
BRANCH  29  31
HETATM   31  C29 UNL     1      -4.929  48.080 -29.508  1.00  0.00     0.147 C 
HETATM   32  O4  UNL     1      -4.703  47.361 -30.467  1.00  0.00    -0.650 OA
BRANCH  31  33
HETATM   33  O5  UNL     1      -4.846  49.422 -29.648  1.00  0.00    -0.776 OA
HETATM   34  H42 UNL     1      -4.610  49.542 -30.592  1.00  0.00     0.167 HD
ENDBRANCH  31  33
ENDBRANCH  29  31
ENDBRANCH  27  29
ENDBRANCH  26  27
ENDBRANCH  25  26
ENDBRANCH  23  25
ENDBRANCH   1  23
BRANCH  22  35
HETATM   35  O3  UNL     1       0.687  54.235 -21.505  1.00  0.00    -0.391 OA
HETATM   36  H37 UNL     1       1.318  54.875 -21.134  1.00  0.00     0.210 HD
ENDBRANCH  22  35
TORSDOF 8
ENDMDL
MODEL 5
REMARK minimizedAffinity -9.91039371
REMARK  8 active torsions:
REMARK  status: ('A' for Active; 'I' for Inactive)
REMARK    1  A    between atoms: C2_2  and  C3_3 
REMARK    2  A    between atoms: C2_2  and  C27_30 
REMARK    3  A    between atoms: C3_3  and  C4_4 
REMARK    4  A    between atoms: C4_4  and  C5_5 
REMARK    5  A    between atoms: C5_5  and  C7_7 
REMARK    6  A    between atoms: C26_28  and  O3_29 
REMARK    7  A    between atoms: C27_30  and  C29_32 
REMARK    8  A    between atoms: C29_32  and  O5_34 
ROOT
HETATM    1  C7  UNL     1       0.009  50.455 -18.072  1.00  0.00    -0.002 C 
HETATM    2  C8  UNL     1      -0.761  49.143 -17.770  1.00  0.00     0.006 C 
HETATM    3  C9  UNL     1      -1.536  48.791 -19.047  1.00  0.00     0.010 C 
HETATM    4  C10 UNL     1      -0.895  49.664 -20.128  1.00  0.00     0.027 C 
HETATM    5  C11 UNL     1      -1.504  49.844 -21.505  1.00  0.00    -0.036 C 
HETATM    6  C12 UNL     1      -1.142  50.901 -22.279  1.00  0.00     0.002 C 
HETATM    7  C13 UNL     1      -0.263  51.983 -21.674  1.00  0.00     0.157 C 
HETATM    8  O1  UNL     1       0.043  52.983 -22.323  1.00  0.00    -0.293 OA
HETATM    9  C14 UNL     1       0.280  51.826 -20.264  1.00  0.00     0.093 C 
HETATM   10  C15 UNL     1      -0.649  50.997 -19.379  1.00  0.00    -0.026 C 
HETATM   11  C16 UNL     1      -1.952  51.785 -19.118  1.00  0.00     0.016 C 
HETATM   12  C17 UNL     1      -1.580  51.067 -23.752  1.00  0.00    -0.008 C 
HETATM   13  C18 UNL     1      -2.708  52.131 -23.762  1.00  0.00     0.021 C 
HETATM   14  C19 UNL     1      -0.408  51.550 -24.671  1.00  0.00     0.022 C 
HETATM   15  C20 UNL     1      -0.422  51.036 -26.109  1.00  0.00     0.080 C 
HETATM   16  C21 UNL     1      -1.818  50.763 -26.598  1.00  0.00     0.131 C 
HETATM   17  O2  UNL     1      -2.226  51.213 -27.668  1.00  0.00    -0.298 OA
HETATM   18  C22 UNL     1      -2.669  49.829 -25.753  1.00  0.00     0.056 C 
HETATM   19  C23 UNL     1      -2.778  48.488 -26.478  1.00  0.00     0.018 C 
HETATM   20  C24 UNL     1      -2.070  49.692 -24.330  1.00  0.00     0.012 C 
HETATM   21  C25 UNL     1      -3.052  49.017 -23.374  1.00  0.00     0.042 C 
HETATM   22  C26 UNL     1      -2.418  48.752 -22.009  1.00  0.00     0.148 C 
ENDROOT
BRANCH   1  23
HETATM   23  C5  UNL     1       0.242  51.349 -16.818  1.00  0.00    -0.014 C 
HETATM   24  C6  UNL     1       1.650  51.935 -16.674  1.00  0.00     0.010 C 
BRANCH  23  25
HETATM   25  C4  UNL     1      -0.215  50.632 -15.524  1.00  0.00     0.009 C 
BRANCH  25  26
HETATM   26  C3  UNL     1      -1.656  50.947 -15.073  1.00  0.00     0.034 C 
BRANCH  26  27
HETATM   27  C2  UNL     1      -1.885  51.623 -13.730  1.00  0.00    -0.075 C 
HETATM   28  C1  UNL     1      -0.884  52.172 -13.017  1.00  0.00     0.015 C 
BRANCH  27  29
HETATM   29  C27 UNL     1      -3.309  51.617 -13.167  1.00  0.00     0.107 C 
HETATM   30  C28 UNL     1      -3.507  50.580 -12.062  1.00  0.00     0.026 C 
BRANCH  29  31
HETATM   31  C29 UNL     1      -3.754  52.994 -12.675  1.00  0.00     0.147 C 
HETATM   32  O4  UNL     1      -3.711  53.444 -11.542  1.00  0.00    -0.650 OA
BRANCH  31  33
HETATM   33  O5  UNL     1      -4.268  53.749 -13.672  1.00  0.00    -0.776 OA
HETATM   34  H42 UNL     1      -4.508  54.588 -13.226  1.00  0.00     0.167 HD
ENDBRANCH  31  33
ENDBRANCH  29  31
ENDBRANCH  27  29
ENDBRANCH  26  27
ENDBRANCH  25  26
ENDBRANCH  23  25
ENDBRANCH   1  23
BRANCH  22  35
HETATM   35  O3  UNL     1      -3.490  48.575 -21.093  1.00  0.00    -0.391 OA
HETATM   36  H37 UNL     1      -4.020  47.821 -21.401  1.00  0.00     0.210 HD
ENDBRANCH  22  35
TORSDOF 8
ENDMDL
MODEL 6
REMARK minimizedAffinity -9.88776875
REMARK  8 active torsions:
REMARK  status: ('A' for Active; 'I' for Inactive)
REMARK    1  A    between atoms: C2_2  and  C3_3 
REMARK    2  A    between atoms: C2_2  and  C27_30 
REMARK    3  A    between atoms: C3_3  and  C4_4 
REMARK    4  A    between atoms: C4_4  and  C5_5 
REMARK    5  A    between atoms: C5_5  and  C7_7 
REMARK    6  A    between atoms: C26_28  and  O3_29 
REMARK    7  A    between atoms: C27_30  and  C29_32 
REMARK    8  A    between atoms: C29_32  and  O5_34 
ROOT
HETATM    1  C7  UNL     1      -0.299  49.768 -18.527  1.00  0.00    -0.002 C 
HETATM    2  C8  UNL     1      -1.219  48.550 -18.248  1.00  0.00     0.006 C 
HETATM    3  C9  UNL     1      -2.053  48.337 -19.519  1.00  0.00     0.010 C 
HETATM    4  C10 UNL     1      -1.328  49.159 -20.587  1.00  0.00     0.027 C 
HETATM    5  C11 UNL     1      -1.933  49.456 -21.945  1.00  0.00    -0.036 C 
HETATM    6  C12 UNL     1      -1.457  50.484 -22.694  1.00  0.00     0.002 C 
HETATM    7  C13 UNL     1      -0.441  51.431 -22.076  1.00  0.00     0.157 C 
HETATM    8  O1  UNL     1      -0.026  52.406 -22.702  1.00  0.00    -0.293 OA
HETATM    9  C14 UNL     1       0.102  51.164 -20.683  1.00  0.00     0.093 C 
HETATM   10  C15 UNL     1      -0.908  50.427 -19.804  1.00  0.00    -0.026 C 
HETATM   11  C16 UNL     1      -2.099  51.360 -19.493  1.00  0.00     0.016 C 
HETATM   12  C17 UNL     1      -1.896  50.749 -24.153  1.00  0.00    -0.008 C 
HETATM   13  C18 UNL     1      -2.884  51.943 -24.109  1.00  0.00     0.021 C 
HETATM   14  C19 UNL     1      -0.689  51.114 -25.081  1.00  0.00     0.022 C 
HETATM   15  C20 UNL     1      -0.790  50.652 -26.533  1.00  0.00     0.080 C 
HETATM   16  C21 UNL     1      -2.217  50.568 -27.001  1.00  0.00     0.131 C 
HETATM   17  O2  UNL     1      -2.585  51.098 -28.048  1.00  0.00    -0.298 OA
HETATM   18  C22 UNL     1      -3.162  49.718 -26.167  1.00  0.00     0.056 C 
HETATM   19  C23 UNL     1      -3.447  48.424 -26.929  1.00  0.00     0.018 C 
HETATM   20  C24 UNL     1      -2.561  49.464 -24.761  1.00  0.00     0.012 C 
HETATM   21  C25 UNL     1      -3.602  48.884 -23.805  1.00  0.00     0.042 C 
HETATM   22  C26 UNL     1      -2.982  48.500 -22.462  1.00  0.00     0.148 C 
ENDROOT
BRANCH   1  23
HETATM   23  C5  UNL     1       0.063  50.587 -17.252  1.00  0.00    -0.014 C 
HETATM   24  C6  UNL     1      -1.110  50.927 -16.327  1.00  0.00     0.010 C 
BRANCH  23  25
HETATM   25  C4  UNL     1       0.894  51.843 -17.609  1.00  0.00     0.009 C 
BRANCH  25  26
HETATM   26  C3  UNL     1       1.476  52.610 -16.404  1.00  0.00     0.034 C 
BRANCH  26  27
HETATM   27  C2  UNL     1       2.745  52.101 -15.740  1.00  0.00    -0.075 C 
HETATM   28  C1  UNL     1       3.973  52.491 -16.133  1.00  0.00     0.015 C 
BRANCH  27  29
HETATM   29  C27 UNL     1       2.596  51.068 -14.620  1.00  0.00     0.107 C 
HETATM   30  C28 UNL     1       3.935  50.493 -14.159  1.00  0.00     0.026 C 
BRANCH  29  31
HETATM   31  C29 UNL     1       1.819  51.606 -13.420  1.00  0.00     0.147 C 
HETATM   32  O4  UNL     1       0.714  51.277 -13.022  1.00  0.00    -0.650 OA
BRANCH  31  33
HETATM   33  O5  UNL     1       2.495  52.583 -12.773  1.00  0.00    -0.776 OA
HETATM   34  H42 UNL     1       1.894  52.833 -12.040  1.00  0.00     0.167 HD
ENDBRANCH  31  33
ENDBRANCH  29  31
ENDBRANCH  27  29
ENDBRANCH  26  27
ENDBRANCH  25  26
ENDBRANCH  23  25
ENDBRANCH   1  23
BRANCH  22  35
HETATM   35  O3  UNL     1      -4.053  48.427 -21.529  1.00  0.00    -0.391 OA
HETATM   36  H37 UNL     1      -4.677  47.753 -21.849  1.00  0.00     0.210 HD
ENDBRANCH  22  35
TORSDOF 8
ENDMDL
MODEL 7
REMARK minimizedAffinity -9.86000061
REMARK  8 active torsions:
REMARK  status: ('A' for Active; 'I' for Inactive)
REMARK    1  A    between atoms: C2_2  and  C3_3 
REMARK    2  A    between atoms: C2_2  and  C27_30 
REMARK    3  A    between atoms: C3_3  and  C4_4 
REMARK    4  A    between atoms: C4_4  and  C5_5 
REMARK    5  A    between atoms: C5_5  and  C7_7 
REMARK    6  A    between atoms: C26_28  and  O3_29 
REMARK    7  A    between atoms: C27_30  and  C29_32 
REMARK    8  A    between atoms: C29_32  and  O5_34 
ROOT
HETATM    1  C7  UNL     1      -0.078  50.377 -18.739  1.00  0.00    -0.002 C 
HETATM    2  C8  UNL     1      -0.853  49.093 -18.342  1.00  0.00     0.006 C 
HETATM    3  C9  UNL     1      -1.724  48.721 -19.548  1.00  0.00     0.010 C 
HETATM    4  C10 UNL     1      -1.143  49.544 -20.700  1.00  0.00     0.027 C 
HETATM    5  C11 UNL     1      -1.844  49.695 -22.036  1.00  0.00    -0.036 C 
HETATM    6  C12 UNL     1      -1.515  50.718 -22.868  1.00  0.00     0.002 C 
HETATM    7  C13 UNL     1      -0.571  51.797 -22.362  1.00  0.00     0.157 C 
HETATM    8  O1  UNL     1      -0.291  52.769 -23.064  1.00  0.00    -0.293 OA
HETATM    9  C14 UNL     1       0.067  51.671 -20.989  1.00  0.00     0.093 C 
HETATM   10  C15 UNL     1      -0.816  50.893 -20.014  1.00  0.00    -0.026 C 
HETATM   11  C16 UNL     1      -2.078  51.720 -19.688  1.00  0.00     0.016 C 
HETATM   12  C17 UNL     1      -2.052  50.848 -24.311  1.00  0.00    -0.008 C 
HETATM   13  C18 UNL     1      -3.155  51.939 -24.277  1.00  0.00     0.021 C 
HETATM   14  C19 UNL     1      -0.939  51.274 -25.325  1.00  0.00     0.022 C 
HETATM   15  C20 UNL     1      -1.065  50.716 -26.742  1.00  0.00     0.080 C 
HETATM   16  C21 UNL     1      -2.498  50.462 -27.122  1.00  0.00     0.131 C 
HETATM   17  O2  UNL     1      -2.972  50.887 -28.174  1.00  0.00    -0.298 OA
HETATM   18  C22 UNL     1      -3.307  49.575 -26.189  1.00  0.00     0.056 C 
HETATM   19  C23 UNL     1      -3.497  48.214 -26.860  1.00  0.00     0.018 C 
HETATM   20  C24 UNL     1      -2.612  49.468 -24.808  1.00  0.00     0.012 C 
HETATM   21  C25 UNL     1      -3.538  48.847 -23.764  1.00  0.00     0.042 C 
HETATM   22  C26 UNL     1      -2.814  48.610 -22.439  1.00  0.00     0.148 C 
ENDROOT
BRANCH   1  23
HETATM   23  C5  UNL     1       0.263  51.304 -17.535  1.00  0.00    -0.014 C 
HETATM   24  C6  UNL     1       0.934  52.635 -17.892  1.00  0.00     0.010 C 
BRANCH  23  25
HETATM   25  C4  UNL     1       1.051  50.539 -16.444  1.00  0.00     0.009 C 
BRANCH  25  26
HETATM   26  C3  UNL     1       1.388  51.359 -15.181  1.00  0.00     0.034 C 
BRANCH  26  27
HETATM   27  C2  UNL     1       2.842  51.655 -14.850  1.00  0.00    -0.075 C 
HETATM   28  C1  UNL     1       3.698  52.172 -15.751  1.00  0.00     0.015 C 
BRANCH  27  29
HETATM   29  C27 UNL     1       3.339  51.291 -13.448  1.00  0.00     0.107 C 
HETATM   30  C28 UNL     1       2.347  51.670 -12.349  1.00  0.00     0.026 C 
BRANCH  29  31
HETATM   31  C29 UNL     1       3.719  49.817 -13.321  1.00  0.00     0.147 C 
HETATM   32  O4  UNL     1       3.125  48.930 -12.731  1.00  0.00    -0.650 OA
BRANCH  31  33
HETATM   33  O5  UNL     1       4.881  49.535 -13.952  1.00  0.00    -0.776 OA
HETATM   34  H42 UNL     1       5.003  48.575 -13.793  1.00  0.00     0.167 HD
ENDBRANCH  31  33
ENDBRANCH  29  31
ENDBRANCH  27  29
ENDBRANCH  26  27
ENDBRANCH  25  26
ENDBRANCH  23  25
ENDBRANCH   1  23
BRANCH  22  35
HETATM   35  O3  UNL     1      -3.823  48.488 -21.443  1.00  0.00    -0.391 OA
HETATM   36  H37 UNL     1      -4.390  47.737 -21.689  1.00  0.00     0.210 HD
ENDBRANCH  22  35
TORSDOF 8
ENDMDL
MODEL 8
REMARK minimizedAffinity -9.71821785
REMARK  8 active torsions:
REMARK  status: ('A' for Active; 'I' for Inactive)
REMARK    1  A    between atoms: C2_2  and  C3_3 
REMARK    2  A    between atoms: C2_2  and  C27_30 
REMARK    3  A    between atoms: C3_3  and  C4_4 
REMARK    4  A    between atoms: C4_4  and  C5_5 
REMARK    5  A    between atoms: C5_5  and  C7_7 
REMARK    6  A    between atoms: C26_28  and  O3_29 
REMARK    7  A    between atoms: C27_30  and  C29_32 
REMARK    8  A    between atoms: C29_32  and  O5_34 
ROOT
HETATM    1  C7  UNL     1      -0.190  51.243 -23.811  1.00  0.00    -0.002 C 
HETATM    2  C8  UNL     1       0.618  52.567 -23.827  1.00  0.00     0.006 C 
HETATM    3  C9  UNL     1       0.793  52.986 -22.362  1.00  0.00     0.010 C 
HETATM    4  C10 UNL     1       0.439  51.729 -21.566  1.00  0.00     0.027 C 
HETATM    5  C11 UNL     1       0.223  51.741 -20.065  1.00  0.00    -0.036 C 
HETATM    6  C12 UNL     1      -0.458  50.730 -19.465  1.00  0.00     0.002 C 
HETATM    7  C13 UNL     1      -1.146  49.692 -20.338  1.00  0.00     0.157 C 
HETATM    8  O1  UNL     1      -1.819  48.792 -19.835  1.00  0.00    -0.293 OA
HETATM    9  C14 UNL     1      -0.983  49.736 -21.847  1.00  0.00     0.093 C 
HETATM   10  C15 UNL     1      -0.761  51.157 -22.361  1.00  0.00    -0.026 C 
HETATM   11  C16 UNL     1      -2.052  51.983 -22.171  1.00  0.00     0.016 C 
HETATM   12  C17 UNL     1      -0.576  50.575 -17.932  1.00  0.00    -0.008 C 
HETATM   13  C18 UNL     1      -2.001  51.048 -17.546  1.00  0.00     0.021 C 
HETATM   14  C19 UNL     1      -0.381  49.093 -17.466  1.00  0.00     0.022 C 
HETATM   15  C20 UNL     1       0.283  48.894 -16.105  1.00  0.00     0.080 C 
HETATM   16  C21 UNL     1       0.012  50.041 -15.171  1.00  0.00     0.131 C 
HETATM   17  O2  UNL     1      -0.406  49.859 -14.029  1.00  0.00    -0.298 OA
HETATM   18  C22 UNL     1       0.368  51.432 -15.674  1.00  0.00     0.056 C 
HETATM   19  C23 UNL     1       1.629  51.899 -14.947  1.00  0.00     0.018 C 
HETATM   20  C24 UNL     1       0.534  51.423 -17.214  1.00  0.00     0.012 C 
HETATM   21  C25 UNL     1       0.587  52.842 -17.778  1.00  0.00     0.042 C 
HETATM   22  C26 UNL     1       0.891  52.842 -19.276  1.00  0.00     0.148 C 
ENDROOT
BRANCH   1  23
HETATM   23  C5  UNL     1      -1.076  51.032 -25.075  1.00  0.00    -0.014 C 
HETATM   24  C6  UNL     1      -0.317  50.823 -26.389  1.00  0.00     0.010 C 
BRANCH  23  25
HETATM   25  C4  UNL     1      -2.147  52.143 -25.201  1.00  0.00     0.009 C 
BRANCH  25  26
HETATM   26  C3  UNL     1      -3.533  51.667 -25.683  1.00  0.00     0.034 C 
BRANCH  26  27
HETATM   27  C2  UNL     1      -3.734  50.204 -26.046  1.00  0.00    -0.075 C 
HETATM   28  C1  UNL     1      -3.462  49.720 -27.273  1.00  0.00     0.015 C 
BRANCH  27  29
HETATM   29  C27 UNL     1      -4.318  49.280 -24.974  1.00  0.00     0.107 C 
HETATM   30  C28 UNL     1      -3.258  48.409 -24.300  1.00  0.00     0.026 C 
BRANCH  29  31
HETATM   31  C29 UNL     1      -5.120  50.037 -23.916  1.00  0.00     0.147 C 
HETATM   32  O4  UNL     1      -4.800  50.306 -22.771  1.00  0.00    -0.650 OA
BRANCH  31  33
HETATM   33  O5  UNL     1      -6.338  50.409 -24.372  1.00  0.00    -0.776 OA
HETATM   34  H42 UNL     1      -6.738  50.875 -23.608  1.00  0.00     0.167 HD
ENDBRANCH  31  33
ENDBRANCH  29  31
ENDBRANCH  27  29
ENDBRANCH  26  27
ENDBRANCH  25  26
ENDBRANCH  23  25
ENDBRANCH   1  23
BRANCH  22  35
HETATM   35  O3  UNL     1       0.464  54.104 -19.775  1.00  0.00    -0.391 OA
HETATM   36  H37 UNL     1       0.962  54.791 -19.301  1.00  0.00     0.210 HD
ENDBRANCH  22  35
TORSDOF 8
ENDMDL
MODEL 9
REMARK minimizedAffinity -9.60250378
REMARK  8 active torsions:
REMARK  status: ('A' for Active; 'I' for Inactive)
REMARK    1  A    between atoms: C2_2  and  C3_3 
REMARK    2  A    between atoms: C2_2  and  C27_30 
REMARK    3  A    between atoms: C3_3  and  C4_4 
REMARK    4  A    between atoms: C4_4  and  C5_5 
REMARK    5  A    between atoms: C5_5  and  C7_7 
REMARK    6  A    between atoms: C26_28  and  O3_29 
REMARK    7  A    between atoms: C27_30  and  C29_32 
REMARK    8  A    between atoms: C29_32  and  O5_34 
ROOT
HETATM    1  C7  UNL     1      -2.824  48.771 -25.608  1.00  0.00    -0.002 C 
HETATM    2  C8  UNL     1      -1.978  49.848 -26.337  1.00  0.00     0.006 C 
HETATM    3  C9  UNL     1      -1.408  50.764 -25.246  1.00  0.00     0.010 C 
HETATM    4  C10 UNL     1      -1.611  49.976 -23.950  1.00  0.00     0.027 C 
HETATM    5  C11 UNL     1      -1.431  50.594 -22.577  1.00  0.00    -0.036 C 
HETATM    6  C12 UNL     1      -1.986  50.006 -21.485  1.00  0.00     0.002 C 
HETATM    7  C13 UNL     1      -2.930  48.832 -21.688  1.00  0.00     0.157 C 
HETATM    8  O1  UNL     1      -3.496  48.306 -20.730  1.00  0.00    -0.293 OA
HETATM    9  C14 UNL     1      -3.161  48.269 -23.080  1.00  0.00     0.093 C 
HETATM   10  C15 UNL     1      -3.004  49.334 -24.164  1.00  0.00    -0.026 C 
HETATM   11  C16 UNL     1      -4.156  50.356 -24.054  1.00  0.00     0.016 C 
HETATM   12  C17 UNL     1      -1.711  50.469 -20.036  1.00  0.00    -0.008 C 
HETATM   13  C18 UNL     1      -2.962  51.265 -19.580  1.00  0.00     0.021 C 
HETATM   14  C19 UNL     1      -1.482  49.267 -19.060  1.00  0.00     0.022 C 
HETATM   15  C20 UNL     1      -0.500  49.505 -17.915  1.00  0.00     0.080 C 
HETATM   16  C21 UNL     1      -0.459  50.949 -17.497  1.00  0.00     0.131 C 
HETATM   17  O2  UNL     1      -0.577  51.284 -16.319  1.00  0.00    -0.298 OA
HETATM   18  C22 UNL     1      -0.172  51.970 -18.587  1.00  0.00     0.056 C 
HETATM   19  C23 UNL     1       1.257  52.481 -18.404  1.00  0.00     0.018 C 
HETATM   20  C24 UNL     1      -0.411  51.347 -19.985  1.00  0.00     0.012 C 
HETATM   21  C25 UNL     1      -0.431  52.417 -21.076  1.00  0.00     0.042 C 
HETATM   22  C26 UNL     1      -0.524  51.798 -22.470  1.00  0.00     0.148 C 
ENDROOT
BRANCH   1  23
HETATM   23  C5  UNL     1      -4.016  48.230 -26.452  1.00  0.00    -0.014 C 
HETATM   24  C6  UNL     1      -4.195  48.869 -27.833  1.00  0.00     0.010 C 
BRANCH  23  25
HETATM   25  C4  UNL     1      -5.333  48.247 -25.638  1.00  0.00     0.009 C 
BRANCH  25  26
HETATM   26  C3  UNL     1      -6.560  47.658 -26.363  1.00  0.00     0.034 C 
BRANCH  26  27
HETATM   27  C2  UNL     1      -7.737  47.152 -25.545  1.00  0.00    -0.075 C 
HETATM   28  C1  UNL     1      -7.906  45.850 -25.248  1.00  0.00     0.015 C 
BRANCH  27  29
HETATM   29  C27 UNL     1      -8.784  48.177 -25.098  1.00  0.00     0.107 C 
HETATM   30  C28 UNL     1      -8.225  49.209 -24.119  1.00  0.00     0.026 C 
BRANCH  29  31
HETATM   31  C29 UNL     1      -9.456  48.885 -26.274  1.00  0.00     0.147 C 
HETATM   32  O4  UNL     1      -9.685  48.450 -27.389  1.00  0.00    -0.650 OA
BRANCH  31  33
HETATM   33  O5  UNL     1      -9.798  50.158 -25.972  1.00  0.00    -0.776 OA
HETATM   34  H42 UNL     1     -10.211  50.488 -26.798  1.00  0.00     0.167 HD
ENDBRANCH  31  33
ENDBRANCH  29  31
ENDBRANCH  27  29
ENDBRANCH  26  27
ENDBRANCH  25  26
ENDBRANCH  23  25
ENDBRANCH   1  23
BRANCH  22  35
HETATM   35  O3  UNL     1      -0.998  52.822 -23.336  1.00  0.00    -0.391 OA
HETATM   36  H37 UNL     1      -0.359  53.554 -23.304  1.00  0.00     0.210 HD
ENDBRANCH  22  35
TORSDOF 8
ENDMDL
