MODEL 1
REMARK minimizedAffinity -9.26366138
REMARK  5 active torsions:
REMARK  status: ('A' for Active; 'I' for Inactive)
REMARK    1  A    between atoms: C4_4  and  C5_5 
REMARK    2  A    between atoms: C5_5  and  C6_6 
REMARK    3  A    between atoms: C6_6  and  C7_7 
REMARK    4  A    between atoms: C7_7  and  C9_9 
REMARK    5  A    between atoms: C26_29  and  O4_30 
ROOT
HETATM    1  C9  UNL     1      -0.744  50.990 -21.020  1.00  0.00    -0.001 C 
HETATM    2  C10 UNL     1      -1.310  51.841 -19.842  1.00  0.00     0.007 C 
HETATM    3  C11 UNL     1      -2.768  51.409 -19.604  1.00  0.00     0.024 C 
HETATM    4  C12 UNL     1      -2.959  50.221 -20.515  1.00  0.00     0.092 C 
HETATM    5  C13 UNL     1      -2.541  48.896 -19.831  1.00  0.00     0.272 C 
HETATM    6  O1  UNL     1      -1.731  48.742 -18.932  1.00  0.00    -0.264 OA
HETATM    7  O2  UNL     1      -3.241  47.861 -20.420  1.00  0.00    -0.305 OA
HETATM    8  C14 UNL     1      -4.113  48.406 -21.443  1.00  0.00     0.113 C 
HETATM    9  C15 UNL     1      -3.266  48.461 -22.753  1.00  0.00     0.043 C 
HETATM   10  C16 UNL     1      -1.905  49.194 -22.576  1.00  0.00     0.014 C 
HETATM   11  C17 UNL     1      -2.039  50.500 -21.748  1.00  0.00    -0.020 C 
HETATM   12  C18 UNL     1      -2.597  51.613 -22.673  1.00  0.00     0.017 C 
HETATM   13  C19 UNL     1      -4.312  49.801 -20.934  1.00  0.00     0.137 A 
HETATM   14  O3  UNL     1      -5.228  50.693 -21.542  1.00  0.00    -0.364 OA
HETATM   15  C20 UNL     1      -5.580  50.221 -20.225  1.00  0.00     0.162 A 
HETATM   16  C21 UNL     1      -6.749  49.283 -20.167  1.00  0.00     0.041 C 
HETATM   17  C22 UNL     1      -6.275  47.813 -20.221  1.00  0.00     0.009 C 
HETATM   18  C23 UNL     1      -7.349  46.705 -19.837  1.00  0.00    -0.017 C 
HETATM   19  C24 UNL     1      -6.823  45.963 -18.573  1.00  0.00     0.018 C 
HETATM   20  C25 UNL     1      -8.717  47.305 -19.434  1.00  0.00     0.018 C 
HETATM   21  C26 UNL     1      -7.576  45.621 -20.929  1.00  0.00     0.126 C 
HETATM   22  C27 UNL     1      -6.322  45.127 -21.654  1.00  0.00     0.033 C 
HETATM   23  C28 UNL     1      -5.107  46.048 -21.573  1.00  0.00     0.015 C 
HETATM   24  C29 UNL     1      -5.440  47.556 -21.532  1.00  0.00    -0.004 C 
HETATM   25  C30 UNL     1      -6.203  47.953 -22.823  1.00  0.00     0.019 C 
ENDROOT
BRANCH   1  26
HETATM   26  C7  UNL     1       0.346  51.756 -21.828  1.00  0.00    -0.014 C 
HETATM   27  C8  UNL     1       0.935  52.920 -21.021  1.00  0.00     0.010 C 
BRANCH  26  28
HETATM   28  C6  UNL     1      -0.226  52.303 -23.170  1.00  0.00     0.008 C 
BRANCH  28  29
HETATM   29  C5  UNL     1       0.845  52.582 -24.237  1.00  0.00     0.028 C 
BRANCH  29  30
HETATM   30  C4  UNL     1       0.384  52.325 -25.644  1.00  0.00    -0.025 C 
HETATM   31  C2  UNL     1       1.097  51.841 -26.680  1.00  0.00    -0.091 C 
HETATM   32  C1  UNL     1       2.548  51.449 -26.631  1.00  0.00     0.042 C 
HETATM   33  C3  UNL     1       0.457  51.671 -28.033  1.00  0.00     0.042 C 
ENDBRANCH  29  30
ENDBRANCH  28  29
ENDBRANCH  26  28
ENDBRANCH   1  26
BRANCH  21  34
HETATM   34  O4  UNL     1      -8.525  46.078 -21.893  1.00  0.00    -0.395 OA
HETATM   35  H39 UNL     1      -8.745  45.327 -22.472  1.00  0.00     0.210 HD
ENDBRANCH  21  34
TORSDOF 5
ENDMDL
MODEL 2
REMARK minimizedAffinity -9.16772652
REMARK  5 active torsions:
REMARK  status: ('A' for Active; 'I' for Inactive)
REMARK    1  A    between atoms: C4_4  and  C5_5 
REMARK    2  A    between atoms: C5_5  and  C6_6 
REMARK    3  A    between atoms: C6_6  and  C7_7 
REMARK    4  A    between atoms: C7_7  and  C9_9 
REMARK    5  A    between atoms: C26_29  and  O4_30 
ROOT
HETATM    1  C9  UNL     1      -0.825  52.449 -21.316  1.00  0.00    -0.001 C 
HETATM    2  C10 UNL     1      -0.433  51.888 -22.718  1.00  0.00     0.007 C 
HETATM    3  C11 UNL     1      -1.360  50.700 -23.028  1.00  0.00     0.024 C 
HETATM    4  C12 UNL     1      -2.363  50.704 -21.900  1.00  0.00     0.092 C 
HETATM    5  C13 UNL     1      -3.573  51.622 -22.206  1.00  0.00     0.272 C 
HETATM    6  O1  UNL     1      -3.605  52.596 -22.939  1.00  0.00    -0.264 OA
HETATM    7  O2  UNL     1      -4.660  51.166 -21.486  1.00  0.00    -0.305 OA
HETATM    8  C14 UNL     1      -4.264  49.993 -20.730  1.00  0.00     0.113 C 
HETATM    9  C15 UNL     1      -3.699  50.521 -19.374  1.00  0.00     0.043 C 
HETATM   10  C16 UNL     1      -2.599  51.607 -19.545  1.00  0.00     0.014 C 
HETATM   11  C17 UNL     1      -1.581  51.248 -20.661  1.00  0.00    -0.020 C 
HETATM   12  C18 UNL     1      -0.571  50.217 -20.090  1.00  0.00     0.017 C 
HETATM   13  C19 UNL     1      -3.128  49.485 -21.565  1.00  0.00     0.137 A 
HETATM   14  O3  UNL     1      -2.499  48.247 -21.294  1.00  0.00    -0.364 OA
HETATM   15  C20 UNL     1      -3.286  48.308 -22.502  1.00  0.00     0.162 A 
HETATM   16  C21 UNL     1      -4.555  47.507 -22.486  1.00  0.00     0.041 C 
HETATM   17  C22 UNL     1      -5.749  48.381 -22.039  1.00  0.00     0.009 C 
HETATM   18  C23 UNL     1      -7.201  47.782 -22.288  1.00  0.00    -0.017 C 
HETATM   19  C24 UNL     1      -7.937  48.736 -23.275  1.00  0.00     0.018 C 
HETATM   20  C25 UNL     1      -7.171  46.399 -22.983  1.00  0.00     0.018 C 
HETATM   21  C26 UNL     1      -8.087  47.687 -21.014  1.00  0.00     0.126 C 
HETATM   22  C27 UNL     1      -7.999  48.870 -20.047  1.00  0.00     0.033 C 
HETATM   23  C28 UNL     1      -6.756  49.746 -20.187  1.00  0.00     0.015 C 
HETATM   24  C29 UNL     1      -5.477  48.990 -20.612  1.00  0.00    -0.004 C 
HETATM   25  C30 UNL     1      -5.134  47.913 -19.550  1.00  0.00     0.019 C 
ENDROOT
BRANCH   1  26
HETATM   26  C7  UNL     1       0.391  53.086 -20.578  1.00  0.00    -0.014 C 
HETATM   27  C8  UNL     1       1.720  52.485 -21.052  1.00  0.00     0.010 C 
BRANCH  26  28
HETATM   28  C6  UNL     1       0.271  52.906 -19.036  1.00  0.00     0.008 C 
BRANCH  28  29
HETATM   29  C5  UNL     1       1.619  52.942 -18.296  1.00  0.00     0.028 C 
BRANCH  29  30
HETATM   30  C4  UNL     1       1.570  52.358 -16.912  1.00  0.00    -0.025 C 
HETATM   31  C2  UNL     1       2.580  52.216 -16.031  1.00  0.00    -0.091 C 
HETATM   32  C1  UNL     1       4.007  52.628 -16.267  1.00  0.00     0.042 C 
HETATM   33  C3  UNL     1       2.335  51.582 -14.687  1.00  0.00     0.042 C 
ENDBRANCH  29  30
ENDBRANCH  28  29
ENDBRANCH  26  28
ENDBRANCH   1  26
BRANCH  21  34
HETATM   34  O4  UNL     1      -7.808  46.479 -20.304  1.00  0.00    -0.395 OA
HETATM   35  H39 UNL     1      -8.474  46.388 -19.600  1.00  0.00     0.210 HD
ENDBRANCH  21  34
TORSDOF 5
ENDMDL
MODEL 3
REMARK minimizedAffinity -9.05565834
REMARK  5 active torsions:
REMARK  status: ('A' for Active; 'I' for Inactive)
REMARK    1  A    between atoms: C4_4  and  C5_5 
REMARK    2  A    between atoms: C5_5  and  C6_6 
REMARK    3  A    between atoms: C6_6  and  C7_7 
REMARK    4  A    between atoms: C7_7  and  C9_9 
REMARK    5  A    between atoms: C26_29  and  O4_30 
ROOT
HETATM    1  C9  UNL     1      -2.270  51.126 -22.663  1.00  0.00    -0.001 C 
HETATM    2  C10 UNL     1      -3.319  52.181 -23.131  1.00  0.00     0.007 C 
HETATM    3  C11 UNL     1      -4.720  51.620 -22.831  1.00  0.00     0.024 C 
HETATM    4  C12 UNL     1      -4.457  50.353 -22.055  1.00  0.00     0.092 C 
HETATM    5  C13 UNL     1      -4.330  50.623 -20.535  1.00  0.00     0.272 C 
HETATM    6  O1  UNL     1      -3.983  51.655 -19.985  1.00  0.00    -0.264 OA
HETATM    7  O2  UNL     1      -4.669  49.468 -19.856  1.00  0.00    -0.305 OA
HETATM    8  C14 UNL     1      -5.031  48.447 -20.820  1.00  0.00     0.113 C 
HETATM    9  C15 UNL     1      -3.704  47.723 -21.207  1.00  0.00     0.043 C 
HETATM   10  C16 UNL     1      -2.580  48.699 -21.660  1.00  0.00     0.014 C 
HETATM   11  C17 UNL     1      -3.104  49.804 -22.615  1.00  0.00    -0.020 C 
HETATM   12  C18 UNL     1      -3.246  49.199 -24.036  1.00  0.00     0.017 C 
HETATM   13  C19 UNL     1      -5.480  49.290 -21.974  1.00  0.00     0.137 A 
HETATM   14  O3  UNL     1      -6.073  48.721 -23.127  1.00  0.00    -0.364 OA
HETATM   15  C20 UNL     1      -6.944  49.507 -22.286  1.00  0.00     0.162 A 
HETATM   16  C21 UNL     1      -7.990  48.734 -21.539  1.00  0.00     0.041 C 
HETATM   17  C22 UNL     1      -7.487  48.357 -20.126  1.00  0.00     0.009 C 
HETATM   18  C23 UNL     1      -8.582  47.835 -19.098  1.00  0.00    -0.017 C 
HETATM   19  C24 UNL     1      -8.628  48.844 -17.913  1.00  0.00     0.018 C 
HETATM   20  C25 UNL     1     -10.010  47.820 -19.694  1.00  0.00     0.018 C 
HETATM   21  C26 UNL     1      -8.277  46.440 -18.484  1.00  0.00     0.126 C 
HETATM   22  C27 UNL     1      -6.816  46.177 -18.110  1.00  0.00     0.033 C 
HETATM   23  C28 UNL     1      -5.788  47.079 -18.789  1.00  0.00     0.015 C 
HETATM   24  C29 UNL     1      -6.159  47.516 -20.224  1.00  0.00    -0.004 C 
HETATM   25  C30 UNL     1      -6.302  46.263 -21.126  1.00  0.00     0.019 C 
ENDROOT
BRANCH   1  26
HETATM   26  C7  UNL     1      -0.965  51.178 -23.514  1.00  0.00    -0.014 C 
HETATM   27  C8  UNL     1       0.102  52.065 -22.860  1.00  0.00     0.010 C 
BRANCH  26  28
HETATM   28  C6  UNL     1      -1.250  51.700 -24.953  1.00  0.00     0.008 C 
BRANCH  28  29
HETATM   29  C5  UNL     1      -0.777  50.752 -26.067  1.00  0.00     0.028 C 
BRANCH  29  30
HETATM   30  C4  UNL     1       0.672  50.912 -26.429  1.00  0.00    -0.025 C 
HETATM   31  C2  UNL     1       1.214  51.714 -27.367  1.00  0.00    -0.091 C 
HETATM   32  C1  UNL     1       0.447  52.639 -28.270  1.00  0.00     0.042 C 
HETATM   33  C3  UNL     1       2.702  51.719 -27.599  1.00  0.00     0.042 C 
ENDBRANCH  29  30
ENDBRANCH  28  29
ENDBRANCH  26  28
ENDBRANCH   1  26
BRANCH  21  34
HETATM   34  O4  UNL     1      -8.731  45.403 -19.356  1.00  0.00    -0.395 OA
HETATM   35  H39 UNL     1      -8.652  44.558 -18.879  1.00  0.00     0.210 HD
ENDBRANCH  21  34
TORSDOF 5
ENDMDL
MODEL 4
REMARK minimizedAffinity -9.04749775
REMARK  5 active torsions:
REMARK  status: ('A' for Active; 'I' for Inactive)
REMARK    1  A    between atoms: C4_4  and  C5_5 
REMARK    2  A    between atoms: C5_5  and  C6_6 
REMARK    3  A    between atoms: C6_6  and  C7_7 
REMARK    4  A    between atoms: C7_7  and  C9_9 
REMARK    5  A    between atoms: C26_29  and  O4_30 
ROOT
HETATM    1  C9  UNL     1      -3.929  48.675 -20.816  1.00  0.00    -0.001 C 
HETATM    2  C10 UNL     1      -3.508  47.344 -21.511  1.00  0.00     0.007 C 
HETATM    3  C11 UNL     1      -2.896  47.697 -22.878  1.00  0.00     0.024 C 
HETATM    4  C12 UNL     1      -2.819  49.205 -22.875  1.00  0.00     0.092 C 
HETATM    5  C13 UNL     1      -1.498  49.713 -22.244  1.00  0.00     0.272 C 
HETATM    6  O1  UNL     1      -0.799  49.151 -21.419  1.00  0.00    -0.264 OA
HETATM    7  O2  UNL     1      -1.218  50.961 -22.767  1.00  0.00    -0.305 OA
HETATM    8  C14 UNL     1      -2.253  51.316 -23.718  1.00  0.00     0.113 C 
HETATM    9  C15 UNL     1      -3.381  52.013 -22.893  1.00  0.00     0.043 C 
HETATM   10  C16 UNL     1      -3.856  51.177 -21.670  1.00  0.00     0.014 C 
HETATM   11  C17 UNL     1      -4.037  49.674 -22.014  1.00  0.00    -0.020 C 
HETATM   12  C18 UNL     1      -5.392  49.498 -22.748  1.00  0.00     0.017 C 
HETATM   13  C19 UNL     1      -2.729  49.959 -24.141  1.00  0.00     0.137 A 
HETATM   14  O3  UNL     1      -3.663  49.791 -25.191  1.00  0.00    -0.364 OA
HETATM   15  C20 UNL     1      -2.318  49.343 -25.460  1.00  0.00     0.162 A 
HETATM   16  C21 UNL     1      -1.553  50.159 -26.460  1.00  0.00     0.041 C 
HETATM   17  C22 UNL     1      -0.712  51.245 -25.752  1.00  0.00     0.009 C 
HETATM   18  C23 UNL     1       0.400  51.968 -26.630  1.00  0.00    -0.017 C 
HETATM   19  C24 UNL     1       1.782  51.649 -25.987  1.00  0.00     0.018 C 
HETATM   20  C25 UNL     1       0.473  51.424 -28.077  1.00  0.00     0.018 C 
HETATM   21  C26 UNL     1       0.277  53.517 -26.679  1.00  0.00     0.126 C 
HETATM   22  C27 UNL     1      -0.098  54.202 -25.362  1.00  0.00     0.033 C 
HETATM   23  C28 UNL     1      -0.750  53.304 -24.313  1.00  0.00     0.015 C 
HETATM   24  C29 UNL     1      -1.641  52.179 -24.888  1.00  0.00    -0.004 C 
HETATM   25  C30 UNL     1      -2.799  52.805 -25.708  1.00  0.00     0.019 C 
ENDROOT
BRANCH   1  26
HETATM   26  C7  UNL     1      -5.149  48.481 -19.866  1.00  0.00    -0.014 C 
HETATM   27  C8  UNL     1      -5.883  47.165 -20.149  1.00  0.00     0.010 C 
BRANCH  26  28
HETATM   28  C6  UNL     1      -6.155  49.664 -19.993  1.00  0.00     0.008 C 
BRANCH  28  29
HETATM   29  C5  UNL     1      -7.628  49.227 -20.051  1.00  0.00     0.028 C 
BRANCH  29  30
HETATM   30  C4  UNL     1      -8.217  48.888 -18.711  1.00  0.00    -0.025 C 
HETATM   31  C2  UNL     1      -9.456  48.434 -18.435  1.00  0.00    -0.091 C 
HETATM   32  C1  UNL     1     -10.532  48.168 -19.451  1.00  0.00     0.042 C 
HETATM   33  C3  UNL     1      -9.871  48.168 -17.012  1.00  0.00     0.042 C 
ENDBRANCH  29  30
ENDBRANCH  28  29
ENDBRANCH  26  28
ENDBRANCH   1  26
BRANCH  21  34
HETATM   34  O4  UNL     1      -0.651  53.910 -27.692  1.00  0.00    -0.395 OA
HETATM   35  H39 UNL     1      -0.594  54.878 -27.787  1.00  0.00     0.210 HD
ENDBRANCH  21  34
TORSDOF 5
ENDMDL
MODEL 5
REMARK minimizedAffinity -8.85307693
REMARK  5 active torsions:
REMARK  status: ('A' for Active; 'I' for Inactive)
REMARK    1  A    between atoms: C4_4  and  C5_5 
REMARK    2  A    between atoms: C5_5  and  C6_6 
REMARK    3  A    between atoms: C6_6  and  C7_7 
REMARK    4  A    between atoms: C7_7  and  C9_9 
REMARK    5  A    between atoms: C26_29  and  O4_30 
ROOT
HETATM    1  C9  UNL     1      -2.839  49.473 -22.526  1.00  0.00    -0.001 C 
HETATM    2  C10 UNL     1      -1.453  50.090 -22.887  1.00  0.00     0.007 C 
HETATM    3  C11 UNL     1      -0.746  50.467 -21.574  1.00  0.00     0.024 C 
HETATM    4  C12 UNL     1      -1.644  49.915 -20.494  1.00  0.00     0.092 C 
HETATM    5  C13 UNL     1      -1.304  48.441 -20.158  1.00  0.00     0.272 C 
HETATM    6  O1  UNL     1      -0.785  47.610 -20.884  1.00  0.00    -0.264 OA
HETATM    7  O2  UNL     1      -1.703  48.186 -18.860  1.00  0.00    -0.305 OA
HETATM    8  C14 UNL     1      -2.273  49.395 -18.297  1.00  0.00     0.113 C 
HETATM    9  C15 UNL     1      -3.788  49.377 -18.673  1.00  0.00     0.043 C 
HETATM   10  C16 UNL     1      -4.044  49.164 -20.192  1.00  0.00     0.014 C 
HETATM   11  C17 UNL     1      -3.091  50.009 -21.078  1.00  0.00    -0.020 C 
HETATM   12  C18 UNL     1      -3.625  51.465 -21.123  1.00  0.00     0.017 C 
HETATM   13  C19 UNL     1      -1.582  50.444 -19.116  1.00  0.00     0.137 A 
HETATM   14  O3  UNL     1      -1.716  51.823 -18.827  1.00  0.00    -0.364 OA
HETATM   15  C20 UNL     1      -0.418  51.244 -18.574  1.00  0.00     0.162 A 
HETATM   16  C21 UNL     1      -0.037  51.122 -17.128  1.00  0.00     0.041 C 
HETATM   17  C22 UNL     1      -0.416  49.729 -16.577  1.00  0.00     0.009 C 
HETATM   18  C23 UNL     1       0.214  49.323 -15.174  1.00  0.00    -0.017 C 
HETATM   19  C24 UNL     1       1.112  48.073 -15.410  1.00  0.00     0.018 C 
HETATM   20  C25 UNL     1       1.151  50.412 -14.597  1.00  0.00     0.018 C 
HETATM   21  C26 UNL     1      -0.827  48.927 -14.090  1.00  0.00     0.126 C 
HETATM   22  C27 UNL     1      -2.008  48.081 -14.572  1.00  0.00     0.033 C 
HETATM   23  C28 UNL     1      -2.280  48.122 -16.074  1.00  0.00     0.015 C 
HETATM   24  C29 UNL     1      -1.961  49.473 -16.752  1.00  0.00    -0.004 C 
HETATM   25  C30 UNL     1      -2.834  50.588 -16.121  1.00  0.00     0.019 C 
ENDROOT
BRANCH   1  26
HETATM   26  C7  UNL     1      -3.903  49.730 -23.634  1.00  0.00    -0.014 C 
HETATM   27  C8  UNL     1      -5.001  48.658 -23.625  1.00  0.00     0.010 C 
BRANCH  26  28
HETATM   28  C6  UNL     1      -3.248  49.776 -25.046  1.00  0.00     0.008 C 
BRANCH  28  29
HETATM   29  C5  UNL     1      -3.194  48.412 -25.755  1.00  0.00     0.028 C 
BRANCH  29  30
HETATM   30  C4  UNL     1      -3.637  48.454 -27.191  1.00  0.00    -0.025 C 
HETATM   31  C2  UNL     1      -4.853  48.167 -27.696  1.00  0.00    -0.091 C 
HETATM   32  C1  UNL     1      -6.049  47.733 -26.896  1.00  0.00     0.042 C 
HETATM   33  C3  UNL     1      -5.099  48.249 -29.180  1.00  0.00     0.042 C 
ENDBRANCH  29  30
ENDBRANCH  28  29
ENDBRANCH  26  28
ENDBRANCH   1  26
BRANCH  21  34
HETATM   34  O4  UNL     1      -1.324  50.092 -13.429  1.00  0.00    -0.395 OA
HETATM   35  H39 UNL     1      -1.859  49.797 -12.670  1.00  0.00     0.210 HD
ENDBRANCH  21  34
TORSDOF 5
ENDMDL
MODEL 6
REMARK minimizedAffinity -8.8225708
REMARK  5 active torsions:
REMARK  status: ('A' for Active; 'I' for Inactive)
REMARK    1  A    between atoms: C4_4  and  C5_5 
REMARK    2  A    between atoms: C5_5  and  C6_6 
REMARK    3  A    between atoms: C6_6  and  C7_7 
REMARK    4  A    between atoms: C7_7  and  C9_9 
REMARK    5  A    between atoms: C26_29  and  O4_30 
ROOT
HETATM    1  C9  UNL     1      -3.831  48.828 -20.590  1.00  0.00    -0.001 C 
HETATM    2  C10 UNL     1      -3.517  47.475 -21.300  1.00  0.00     0.007 C 
HETATM    3  C11 UNL     1      -2.959  47.793 -22.698  1.00  0.00     0.024 C 
HETATM    4  C12 UNL     1      -2.803  49.294 -22.706  1.00  0.00     0.092 C 
HETATM    5  C13 UNL     1      -1.426  49.734 -22.147  1.00  0.00     0.272 C 
HETATM    6  O1  UNL     1      -0.716  49.137 -21.356  1.00  0.00    -0.264 OA
HETATM    7  O2  UNL     1      -1.108  50.964 -22.689  1.00  0.00    -0.305 OA
HETATM    8  C14 UNL     1      -2.172  51.371 -23.587  1.00  0.00     0.113 C 
HETATM    9  C15 UNL     1      -3.217  52.128 -22.709  1.00  0.00     0.043 C 
HETATM   10  C16 UNL     1      -3.671  51.321 -21.460  1.00  0.00     0.014 C 
HETATM   11  C17 UNL     1      -3.948  49.829 -21.786  1.00  0.00    -0.020 C 
HETATM   12  C18 UNL     1      -5.347  49.723 -22.448  1.00  0.00     0.017 C 
HETATM   13  C19 UNL     1      -2.739  50.040 -23.980  1.00  0.00     0.137 A 
HETATM   14  O3  UNL     1      -3.733  49.919 -24.979  1.00  0.00    -0.364 OA
HETATM   15  C20 UNL     1      -2.429  49.400 -25.314  1.00  0.00     0.162 A 
HETATM   16  C21 UNL     1      -1.676  50.173 -26.356  1.00  0.00     0.041 C 
HETATM   17  C22 UNL     1      -0.743  51.215 -25.698  1.00  0.00     0.009 C 
HETATM   18  C23 UNL     1       0.358  51.876 -26.635  1.00  0.00    -0.017 C 
HETATM   19  C24 UNL     1       1.753  51.487 -26.063  1.00  0.00     0.018 C 
HETATM   20  C25 UNL     1       0.327  51.326 -28.082  1.00  0.00     0.018 C 
HETATM   21  C26 UNL     1       0.314  53.429 -26.686  1.00  0.00     0.126 C 
HETATM   22  C27 UNL     1       0.044  54.136 -25.355  1.00  0.00     0.033 C 
HETATM   23  C28 UNL     1      -0.599  53.275 -24.269  1.00  0.00     0.015 C 
HETATM   24  C29 UNL     1      -1.576  52.198 -24.792  1.00  0.00    -0.004 C 
HETATM   25  C30 UNL     1      -2.741  52.882 -25.554  1.00  0.00     0.019 C 
ENDROOT
BRANCH   1  26
HETATM   26  C7  UNL     1      -5.009  48.701 -19.579  1.00  0.00    -0.014 C 
HETATM   27  C8  UNL     1      -5.237  47.245 -19.154  1.00  0.00     0.010 C 
BRANCH  26  28
HETATM   28  C6  UNL     1      -6.330  49.270 -20.176  1.00  0.00     0.008 C 
BRANCH  28  29
HETATM   29  C5  UNL     1      -7.552  48.357 -19.975  1.00  0.00     0.028 C 
BRANCH  29  30
HETATM   30  C4  UNL     1      -8.366  48.145 -21.219  1.00  0.00    -0.025 C 
HETATM   31  C2  UNL     1      -8.115  47.311 -22.248  1.00  0.00    -0.091 C 
HETATM   32  C1  UNL     1      -6.928  46.395 -22.357  1.00  0.00     0.042 C 
HETATM   33  C3  UNL     1      -9.049  47.255 -23.428  1.00  0.00     0.042 C 
ENDBRANCH  29  30
ENDBRANCH  28  29
ENDBRANCH  26  28
ENDBRANCH   1  26
BRANCH  21  34
HETATM   34  O4  UNL     1      -0.643  53.869 -27.651  1.00  0.00    -0.395 OA
HETATM   35  H39 UNL     1      -0.540  54.831 -27.754  1.00  0.00     0.210 HD
ENDBRANCH  21  34
TORSDOF 5
ENDMDL
MODEL 7
REMARK minimizedAffinity -8.81896496
REMARK  5 active torsions:
REMARK  status: ('A' for Active; 'I' for Inactive)
REMARK    1  A    between atoms: C4_4  and  C5_5 
REMARK    2  A    between atoms: C5_5  and  C6_6 
REMARK    3  A    between atoms: C6_6  and  C7_7 
REMARK    4  A    between atoms: C7_7  and  C9_9 
REMARK    5  A    between atoms: C26_29  and  O4_30 
ROOT
HETATM    1  C9  UNL     1      -2.440  51.462 -24.349  1.00  0.00    -0.001 C 
HETATM    2  C10 UNL     1      -3.659  52.250 -24.919  1.00  0.00     0.007 C 
HETATM    3  C11 UNL     1      -4.942  51.548 -24.440  1.00  0.00     0.024 C 
HETATM    4  C12 UNL     1      -4.454  50.490 -23.481  1.00  0.00     0.092 C 
HETATM    5  C13 UNL     1      -4.314  51.039 -22.039  1.00  0.00     0.272 C 
HETATM    6  O1  UNL     1      -4.115  52.191 -21.694  1.00  0.00    -0.264 OA
HETATM    7  O2  UNL     1      -4.441  49.983 -21.157  1.00  0.00    -0.305 OA
HETATM    8  C14 UNL     1      -4.674  48.766 -21.910  1.00  0.00     0.113 C 
HETATM    9  C15 UNL     1      -3.264  48.192 -22.255  1.00  0.00     0.043 C 
HETATM   10  C16 UNL     1      -2.326  49.230 -22.936  1.00  0.00     0.014 C 
HETATM   11  C17 UNL     1      -3.053  50.060 -24.027  1.00  0.00    -0.020 C 
HETATM   12  C18 UNL     1      -3.150  49.200 -25.314  1.00  0.00     0.017 C 
HETATM   13  C19 UNL     1      -5.292  49.318 -23.159  1.00  0.00     0.137 A 
HETATM   14  O3  UNL     1      -5.831  48.474 -24.160  1.00  0.00    -0.364 OA
HETATM   15  C20 UNL     1      -6.783  49.256 -23.408  1.00  0.00     0.162 A 
HETATM   16  C21 UNL     1      -7.665  48.478 -22.477  1.00  0.00     0.041 C 
HETATM   17  C22 UNL     1      -7.057  48.435 -21.056  1.00  0.00     0.009 C 
HETATM   18  C23 UNL     1      -8.016  47.944 -19.887  1.00  0.00    -0.017 C 
HETATM   19  C24 UNL     1      -8.177  49.126 -18.887  1.00  0.00     0.018 C 
HETATM   20  C25 UNL     1      -9.446  47.611 -20.380  1.00  0.00     0.018 C 
HETATM   21  C26 UNL     1      -7.472  46.739 -19.069  1.00  0.00     0.126 C 
HETATM   22  C27 UNL     1      -5.976  46.766 -18.750  1.00  0.00     0.033 C 
HETATM   23  C28 UNL     1      -5.129  47.679 -19.635  1.00  0.00     0.015 C 
HETATM   24  C29 UNL     1      -5.617  47.797 -21.097  1.00  0.00    -0.004 C 
HETATM   25  C30 UNL     1      -5.594  46.398 -21.765  1.00  0.00     0.019 C 
ENDROOT
BRANCH   1  26
HETATM   26  C7  UNL     1      -1.192  51.558 -25.278  1.00  0.00    -0.014 C 
HETATM   27  C8  UNL     1      -1.149  50.406 -26.289  1.00  0.00     0.010 C 
BRANCH  26  28
HETATM   28  C6  UNL     1       0.128  51.561 -24.451  1.00  0.00     0.008 C 
BRANCH  28  29
HETATM   29  C5  UNL     1       0.188  52.657 -23.374  1.00  0.00     0.028 C 
BRANCH  29  30
HETATM   30  C4  UNL     1      -0.019  52.148 -21.975  1.00  0.00    -0.025 C 
HETATM   31  C2  UNL     1       0.353  52.724 -20.815  1.00  0.00    -0.091 C 
HETATM   32  C1  UNL     1       1.074  54.037 -20.686  1.00  0.00     0.042 C 
HETATM   33  C3  UNL     1       0.072  52.043 -19.501  1.00  0.00     0.042 C 
ENDBRANCH  29  30
ENDBRANCH  28  29
ENDBRANCH  26  28
ENDBRANCH   1  26
BRANCH  21  34
HETATM   34  O4  UNL     1      -7.789  45.509 -19.725  1.00  0.00    -0.395 OA
HETATM   35  H39 UNL     1      -7.561  44.783 -19.118  1.00  0.00     0.210 HD
ENDBRANCH  21  34
TORSDOF 5
ENDMDL
MODEL 8
REMARK minimizedAffinity -8.75876522
REMARK  5 active torsions:
REMARK  status: ('A' for Active; 'I' for Inactive)
REMARK    1  A    between atoms: C4_4  and  C5_5 
REMARK    2  A    between atoms: C5_5  and  C6_6 
REMARK    3  A    between atoms: C6_6  and  C7_7 
REMARK    4  A    between atoms: C7_7  and  C9_9 
REMARK    5  A    between atoms: C26_29  and  O4_30 
ROOT
HETATM    1  C9  UNL     1      -3.878  48.708 -20.859  1.00  0.00    -0.001 C 
HETATM    2  C10 UNL     1      -3.420  47.378 -21.534  1.00  0.00     0.007 C 
HETATM    3  C11 UNL     1      -2.808  47.729 -22.902  1.00  0.00     0.024 C 
HETATM    4  C12 UNL     1      -2.769  49.237 -22.918  1.00  0.00     0.092 C 
HETATM    5  C13 UNL     1      -1.466  49.787 -22.287  1.00  0.00     0.272 C 
HETATM    6  O1  UNL     1      -0.758  49.254 -21.450  1.00  0.00    -0.264 OA
HETATM    7  O2  UNL     1      -1.213  51.035 -22.825  1.00  0.00    -0.305 OA
HETATM    8  C14 UNL     1      -2.251  51.351 -23.786  1.00  0.00     0.113 C 
HETATM    9  C15 UNL     1      -3.401  52.030 -22.978  1.00  0.00     0.043 C 
HETATM   10  C16 UNL     1      -3.863  51.199 -21.747  1.00  0.00     0.014 C 
HETATM   11  C17 UNL     1      -4.004  49.687 -22.071  1.00  0.00    -0.020 C 
HETATM   12  C18 UNL     1      -5.349  49.467 -22.811  1.00  0.00     0.017 C 
HETATM   13  C19 UNL     1      -2.690  49.977 -24.194  1.00  0.00     0.137 A 
HETATM   14  O3  UNL     1      -3.613  49.771 -25.248  1.00  0.00    -0.364 OA
HETATM   15  C20 UNL     1      -2.255  49.353 -25.502  1.00  0.00     0.162 A 
HETATM   16  C21 UNL     1      -1.505  50.175 -26.508  1.00  0.00     0.041 C 
HETATM   17  C22 UNL     1      -0.696  51.292 -25.810  1.00  0.00     0.009 C 
HETATM   18  C23 UNL     1       0.403  52.031 -26.691  1.00  0.00    -0.017 C 
HETATM   19  C24 UNL     1       1.788  51.755 -26.036  1.00  0.00     0.018 C 
HETATM   20  C25 UNL     1       0.498  51.469 -28.131  1.00  0.00     0.018 C 
HETATM   21  C26 UNL     1       0.241  53.575 -26.762  1.00  0.00     0.126 C 
HETATM   22  C27 UNL     1      -0.159  54.268 -25.457  1.00  0.00     0.033 C 
HETATM   23  C28 UNL     1      -0.795  53.368 -24.400  1.00  0.00     0.015 C 
HETATM   24  C29 UNL     1      -1.654  52.214 -24.965  1.00  0.00    -0.004 C 
HETATM   25  C30 UNL     1      -2.822  52.799 -25.800  1.00  0.00     0.019 C 
ENDROOT
BRANCH   1  26
HETATM   26  C7  UNL     1      -5.100  48.496 -19.914  1.00  0.00    -0.014 C 
HETATM   27  C8  UNL     1      -5.906  49.788 -19.733  1.00  0.00     0.010 C 
BRANCH  26  28
HETATM   28  C6  UNL     1      -4.649  47.976 -18.517  1.00  0.00     0.008 C 
BRANCH  28  29
HETATM   29  C5  UNL     1      -4.057  49.064 -17.606  1.00  0.00     0.028 C 
BRANCH  29  30
HETATM   30  C4  UNL     1      -2.558  49.145 -17.649  1.00  0.00    -0.025 C 
HETATM   31  C2  UNL     1      -1.790  50.176 -18.056  1.00  0.00    -0.091 C 
HETATM   32  C1  UNL     1      -2.301  51.496 -18.564  1.00  0.00     0.042 C 
HETATM   33  C3  UNL     1      -0.288  50.059 -18.044  1.00  0.00     0.042 C 
ENDBRANCH  29  30
ENDBRANCH  28  29
ENDBRANCH  26  28
ENDBRANCH   1  26
BRANCH  21  34
HETATM   34  O4  UNL     1      -0.690  53.931 -27.785  1.00  0.00    -0.395 OA
HETATM   35  H39 UNL     1      -0.656  54.898 -27.893  1.00  0.00     0.210 HD
ENDBRANCH  21  34
TORSDOF 5
ENDMDL
MODEL 9
REMARK minimizedAffinity -8.69108486
REMARK  5 active torsions:
REMARK  status: ('A' for Active; 'I' for Inactive)
REMARK    1  A    between atoms: C4_4  and  C5_5 
REMARK    2  A    between atoms: C5_5  and  C6_6 
REMARK    3  A    between atoms: C6_6  and  C7_7 
REMARK    4  A    between atoms: C7_7  and  C9_9 
REMARK    5  A    between atoms: C26_29  and  O4_30 
ROOT
HETATM    1  C9  UNL     1      -1.784  51.390 -22.429  1.00  0.00    -0.001 C 
HETATM    2  C10 UNL     1      -3.148  52.063 -22.774  1.00  0.00     0.007 C 
HETATM    3  C11 UNL     1      -4.270  51.079 -22.398  1.00  0.00     0.024 C 
HETATM    4  C12 UNL     1      -3.556  49.948 -21.698  1.00  0.00     0.092 C 
HETATM    5  C13 UNL     1      -3.396  50.218 -20.181  1.00  0.00     0.272 C 
HETATM    6  O1  UNL     1      -3.350  51.296 -19.614  1.00  0.00    -0.264 OA
HETATM    7  O2  UNL     1      -3.294  49.003 -19.531  1.00  0.00    -0.305 OA
HETATM    8  C14 UNL     1      -3.392  47.936 -20.508  1.00  0.00     0.113 C 
HETATM    9  C15 UNL     1      -1.941  47.682 -21.021  1.00  0.00     0.043 C 
HETATM   10  C16 UNL     1      -1.225  48.973 -21.512  1.00  0.00     0.014 C 
HETATM   11  C17 UNL     1      -2.150  49.870 -22.378  1.00  0.00    -0.020 C 
HETATM   12  C18 UNL     1      -2.209  49.277 -23.810  1.00  0.00     0.017 C 
HETATM   13  C19 UNL     1      -4.179  48.613 -21.590  1.00  0.00     0.137 A 
HETATM   14  O3  UNL     1      -4.654  47.905 -22.720  1.00  0.00    -0.364 OA
HETATM   15  C20 UNL     1      -5.657  48.357 -21.786  1.00  0.00     0.162 A 
HETATM   16  C21 UNL     1      -6.338  47.277 -20.999  1.00  0.00     0.041 C 
HETATM   17  C22 UNL     1      -5.628  47.055 -19.643  1.00  0.00     0.009 C 
HETATM   18  C23 UNL     1      -6.412  46.193 -18.562  1.00  0.00    -0.017 C 
HETATM   19  C24 UNL     1      -6.678  47.112 -17.335  1.00  0.00     0.018 C 
HETATM   20  C25 UNL     1      -7.806  45.732 -19.054  1.00  0.00     0.018 C 
HETATM   21  C26 UNL     1      -5.631  44.957 -18.033  1.00  0.00     0.126 C 
HETATM   22  C27 UNL     1      -4.136  45.167 -17.778  1.00  0.00     0.033 C 
HETATM   23  C28 UNL     1      -3.507  46.363 -18.489  1.00  0.00     0.015 C 
HETATM   24  C29 UNL     1      -4.114  46.684 -19.874  1.00  0.00    -0.004 C 
HETATM   25  C30 UNL     1      -3.926  45.467 -20.816  1.00  0.00     0.019 C 
ENDROOT
BRANCH   1  26
HETATM   26  C7  UNL     1      -0.638  51.871 -23.369  1.00  0.00    -0.014 C 
HETATM   27  C8  UNL     1       0.542  52.445 -22.574  1.00  0.00     0.010 C 
BRANCH  26  28
HETATM   28  C6  UNL     1      -1.146  52.946 -24.375  1.00  0.00     0.008 C 
BRANCH  28  29
HETATM   29  C5  UNL     1      -0.027  53.630 -25.178  1.00  0.00     0.028 C 
BRANCH  29  30
HETATM   30  C4  UNL     1       0.153  53.077 -26.563  1.00  0.00    -0.025 C 
HETATM   31  C2  UNL     1       1.049  52.163 -26.986  1.00  0.00    -0.091 C 
HETATM   32  C1  UNL     1       2.082  51.492 -26.124  1.00  0.00     0.042 C 
HETATM   33  C3  UNL     1       1.088  51.746 -28.433  1.00  0.00     0.042 C 
ENDBRANCH  29  30
ENDBRANCH  28  29
ENDBRANCH  26  28
ENDBRANCH   1  26
BRANCH  21  34
HETATM   34  O4  UNL     1      -5.803  43.845 -18.914  1.00  0.00    -0.395 OA
HETATM   35  H39 UNL     1      -5.422  43.061 -18.481  1.00  0.00     0.210 HD
ENDBRANCH  21  34
TORSDOF 5
ENDMDL
