MODEL 1
REMARK minimizedAffinity -9.47717094
REMARK CNNscore 0.471368462
REMARK CNNaffinity 6.99527502
REMARK  14 active torsions:
REMARK  status: ('A' for Active; 'I' for Inactive)
REMARK    1  A    between atoms: O1_2  and  C2_3 
REMARK    2  A    between atoms: C2_3  and  C5_6 
REMARK    3  A    between atoms: C6_7  and  C7_8 
REMARK    4  A    between atoms: C7_8  and  C8_9 
REMARK    5  A    between atoms: C8_9  and  C10_11 
REMARK    6  A    between atoms: C16_17  and  O2_18 
REMARK    7  A    between atoms: C22_24  and  O3_25 
REMARK    8  A    between atoms: O3_25  and  C23_26 
REMARK    9  A    between atoms: C24_28  and  C25_29 
REMARK   10  A    between atoms: C25_29  and  O5_30 
REMARK   11  A    between atoms: C26_31  and  O6_32 
REMARK   12  A    between atoms: C27_33  and  O7_34 
REMARK   13  A    between atoms: C28_35  and  O8_36 
REMARK   14  A    between atoms: C32_40  and  C33_41 
ROOT
HETATM    1  C10 UNL     1      -1.630  50.698 -21.683  1.00  0.00    -0.002 C 
HETATM    2  C11 UNL     1      -2.883  51.585 -21.598  1.00  0.00     0.006 C 
HETATM    3  C12 UNL     1      -3.899  50.688 -20.910  1.00  0.00     0.011 C 
HETATM    4  C13 UNL     1      -3.107  50.029 -19.758  1.00  0.00    -0.029 C 
HETATM    5  C14 UNL     1      -3.085  51.059 -18.588  1.00  0.00     0.016 C 
HETATM    6  C15 UNL     1      -3.710  48.669 -19.231  1.00  0.00     0.043 C 
HETATM    7  C16 UNL     1      -5.028  48.775 -18.418  1.00  0.00     0.147 C 
HETATM    8  C17 UNL     1      -6.291  48.589 -19.187  1.00  0.00     0.009 C 
HETATM    9  C18 UNL     1      -6.387  48.024 -20.404  1.00  0.00    -0.066 C 
HETATM   10  C19 UNL     1      -5.147  47.489 -21.111  1.00  0.00     0.031 C 
HETATM   11  C20 UNL     1      -5.436  46.103 -21.715  1.00  0.00     0.013 C 
HETATM   12  C21 UNL     1      -6.621  46.147 -22.672  1.00  0.00     0.034 C 
HETATM   13  C22 UNL     1      -7.898  46.608 -21.958  1.00  0.00     0.136 C 
HETATM   14  C29 UNL     1      -7.706  47.979 -21.213  1.00  0.00     0.002 C 
HETATM   15  C30 UNL     1      -8.970  48.198 -20.342  1.00  0.00     0.022 C 
HETATM   16  C31 UNL     1      -7.669  49.152 -22.222  1.00  0.00     0.022 C 
HETATM   17  C32 UNL     1      -3.795  47.527 -20.301  1.00  0.00     0.027 C 
HETATM   18  C34 UNL     1      -2.623  47.613 -21.321  1.00  0.00     0.018 C 
HETATM   19  C35 UNL     1      -1.397  48.314 -20.744  1.00  0.00     0.011 C 
HETATM   20  C36 UNL     1      -1.637  49.812 -20.368  1.00  0.00    -0.032 C 
HETATM   21  C37 UNL     1      -0.529  50.143 -19.347  1.00  0.00     0.016 C 
ENDROOT
BRANCH  13  22
HETATM   22  O3  UNL     1      -9.008  46.754 -22.854  1.00  0.00    -0.352 OA
BRANCH  22  23
HETATM   23  C23 UNL     1      -8.756  47.463 -24.066  1.00  0.00     0.292 C 
HETATM   24  O4  UNL     1      -9.941  48.171 -24.441  1.00  0.00    -0.348 OA
HETATM   25  C24 UNL     1     -10.028  48.576 -25.810  1.00  0.00     0.179 C 
HETATM   26  C26 UNL     1      -8.715  48.408 -26.594  1.00  0.00     0.180 C 
HETATM   27  C27 UNL     1      -8.177  46.982 -26.509  1.00  0.00     0.183 C 
HETATM   28  C28 UNL     1      -8.367  46.390 -25.111  1.00  0.00     0.204 C 
BRANCH  25  29
HETATM   29  C25 UNL     1     -11.286  47.969 -26.472  1.00  0.00     0.198 C 
BRANCH  29  30
HETATM   30  O5  UNL     1     -12.075  48.870 -27.237  1.00  0.00    -0.398 OA
HETATM   31  H40 UNL     1     -12.173  49.719 -26.757  1.00  0.00     0.209 HD
ENDBRANCH  29  30
ENDBRANCH  25  29
BRANCH  26  32
HETATM   32  O6  UNL     1      -8.866  48.802 -27.957  1.00  0.00    -0.390 OA
HETATM   33  H42 UNL     1      -7.983  49.071 -28.268  1.00  0.00     0.210 HD
ENDBRANCH  26  32
BRANCH  27  34
HETATM   34  O7  UNL     1      -6.780  47.022 -26.847  1.00  0.00    -0.390 OA
HETATM   35  H44 UNL     1      -6.514  46.104 -27.034  1.00  0.00     0.210 HD
ENDBRANCH  27  34
BRANCH  28  36
HETATM   36  O8  UNL     1      -9.404  45.394 -25.192  1.00  0.00    -0.388 OA
HETATM   37  H46 UNL     1      -9.642  45.187 -24.264  1.00  0.00     0.210 HD
ENDBRANCH  28  36
ENDBRANCH  22  23
ENDBRANCH  13  22
BRANCH  17  38
HETATM   38  C33 UNL     1      -3.656  46.211 -19.509  1.00  0.00     0.241 C 
HETATM   39  O9  UNL     1      -4.587  45.602 -18.986  1.00  0.00    -0.306 OA
ENDBRANCH  17  38
BRANCH   7  40
HETATM   40  O2  UNL     1      -5.035  47.759 -17.413  1.00  0.00    -0.391 OA
HETATM   41  H28 UNL     1      -5.761  47.963 -16.799  1.00  0.00     0.210 HD
ENDBRANCH   7  40
BRANCH   1  42
HETATM   42  C8  UNL     1      -0.375  51.489 -22.169  1.00  0.00    -0.010 C 
HETATM   43  C9  UNL     1       0.568  51.853 -21.014  1.00  0.00     0.010 C 
BRANCH  42  44
HETATM   44  C7  UNL     1      -0.663  52.620 -23.193  1.00  0.00     0.031 C 
BRANCH  44  45
HETATM   45  C6  UNL     1      -0.457  52.299 -24.647  1.00  0.00    -0.027 C 
HETATM   46  C5  UNL     1       0.738  52.397 -25.259  1.00  0.00     0.006 C 
BRANCH  46  47
HETATM   47  C2  UNL     1       1.090  52.132 -26.710  1.00  0.00     0.070 C 
HETATM   48  C3  UNL     1       2.510  51.549 -26.809  1.00  0.00     0.050 C 
HETATM   49  C4  UNL     1       0.131  51.148 -27.399  1.00  0.00     0.050 C 
BRANCH  47  50
HETATM   50  O1  UNL     1       0.961  53.350 -27.463  1.00  0.00    -0.382 OA
HETATM   51  C1  UNL     1      -0.347  53.748 -27.851  1.00  0.00     0.202 C 
ENDBRANCH  47  50
ENDBRANCH  46  47
ENDBRANCH  44  45
ENDBRANCH  42  44
ENDBRANCH   1  42
TORSDOF 14
ENDMDL
MODEL 2
REMARK minimizedAffinity -8.00208855
REMARK CNNscore 0.425106257
REMARK CNNaffinity 6.72878647
REMARK  14 active torsions:
REMARK  status: ('A' for Active; 'I' for Inactive)
REMARK    1  A    between atoms: O1_2  and  C2_3 
REMARK    2  A    between atoms: C2_3  and  C5_6 
REMARK    3  A    between atoms: C6_7  and  C7_8 
REMARK    4  A    between atoms: C7_8  and  C8_9 
REMARK    5  A    between atoms: C8_9  and  C10_11 
REMARK    6  A    between atoms: C16_17  and  O2_18 
REMARK    7  A    between atoms: C22_24  and  O3_25 
REMARK    8  A    between atoms: O3_25  and  C23_26 
REMARK    9  A    between atoms: C24_28  and  C25_29 
REMARK   10  A    between atoms: C25_29  and  O5_30 
REMARK   11  A    between atoms: C26_31  and  O6_32 
REMARK   12  A    between atoms: C27_33  and  O7_34 
REMARK   13  A    between atoms: C28_35  and  O8_36 
REMARK   14  A    between atoms: C32_40  and  C33_41 
ROOT
HETATM    1  C10 UNL     1      -5.061  44.572 -19.508  1.00  0.00    -0.002 C 
HETATM    2  C11 UNL     1      -3.967  45.392 -18.805  1.00  0.00     0.006 C 
HETATM    3  C12 UNL     1      -4.143  46.784 -19.390  1.00  0.00     0.011 C 
HETATM    4  C13 UNL     1      -5.672  47.011 -19.378  1.00  0.00    -0.029 C 
HETATM    5  C14 UNL     1      -6.044  47.469 -17.935  1.00  0.00     0.016 C 
HETATM    6  C15 UNL     1      -6.191  48.090 -20.407  1.00  0.00     0.043 C 
HETATM    7  C16 UNL     1      -5.852  49.569 -20.075  1.00  0.00     0.147 C 
HETATM    8  C17 UNL     1      -4.622  50.120 -20.709  1.00  0.00     0.009 C 
HETATM    9  C18 UNL     1      -3.985  49.588 -21.767  1.00  0.00    -0.066 C 
HETATM   10  C19 UNL     1      -4.516  48.328 -22.440  1.00  0.00     0.031 C 
HETATM   11  C20 UNL     1      -4.495  48.493 -23.971  1.00  0.00     0.013 C 
HETATM   12  C21 UNL     1      -3.096  48.822 -24.477  1.00  0.00     0.034 C 
HETATM   13  C22 UNL     1      -2.575  50.130 -23.871  1.00  0.00     0.136 C 
HETATM   14  C29 UNL     1      -2.635  50.127 -22.300  1.00  0.00     0.002 C 
HETATM   15  C30 UNL     1      -2.324  51.574 -21.836  1.00  0.00     0.022 C 
HETATM   16  C31 UNL     1      -1.516  49.235 -21.709  1.00  0.00     0.022 C 
HETATM   17  C32 UNL     1      -5.891  47.765 -21.910  1.00  0.00     0.027 C 
HETATM   18  C34 UNL     1      -5.922  46.233 -22.180  1.00  0.00     0.018 C 
HETATM   19  C35 UNL     1      -6.794  45.482 -21.179  1.00  0.00     0.011 C 
HETATM   20  C36 UNL     1      -6.285  45.562 -19.703  1.00  0.00    -0.032 C 
HETATM   21  C37 UNL     1      -7.526  45.249 -18.843  1.00  0.00     0.016 C 
ENDROOT
BRANCH  13  22
HETATM   22  O3  UNL     1      -1.223  50.414 -24.252  1.00  0.00    -0.352 OA
BRANCH  22  23
HETATM   23  C23 UNL     1      -1.023  50.872 -25.588  1.00  0.00     0.292 C 
HETATM   24  O4  UNL     1       0.283  50.480 -26.020  1.00  0.00    -0.348 OA
HETATM   25  C24 UNL     1       0.822  51.198 -27.134  1.00  0.00     0.179 C 
HETATM   26  C26 UNL     1      -0.200  52.101 -27.846  1.00  0.00     0.180 C 
HETATM   27  C27 UNL     1      -0.874  53.073 -26.881  1.00  0.00     0.183 C 
HETATM   28  C28 UNL     1      -1.178  52.412 -25.535  1.00  0.00     0.204 C 
BRANCH  25  29
HETATM   29  C25 UNL     1       2.156  51.874 -26.743  1.00  0.00     0.198 C 
BRANCH  29  30
HETATM   30  O5  UNL     1       3.325  51.308 -27.321  1.00  0.00    -0.398 OA
HETATM   31  H40 UNL     1       3.277  50.329 -27.282  1.00  0.00     0.209 HD
ENDBRANCH  29  30
ENDBRANCH  25  29
BRANCH  26  32
HETATM   32  O6  UNL     1       0.397  52.812 -28.930  1.00  0.00    -0.390 OA
HETATM   33  H42 UNL     1      -0.319  53.008 -29.560  1.00  0.00     0.210 HD
ENDBRANCH  26  32
BRANCH  27  34
HETATM   34  O7  UNL     1      -2.091  53.526 -27.498  1.00  0.00    -0.390 OA
HETATM   35  H44 UNL     1      -2.376  54.315 -27.003  1.00  0.00     0.210 HD
ENDBRANCH  27  34
BRANCH  28  36
HETATM   36  O8  UNL     1      -0.268  52.957 -24.561  1.00  0.00    -0.388 OA
HETATM   37  H46 UNL     1      -0.346  52.376 -23.775  1.00  0.00     0.210 HD
ENDBRANCH  28  36
ENDBRANCH  22  23
ENDBRANCH  13  22
BRANCH  17  38
HETATM   38  C33 UNL     1      -7.035  48.424 -22.709  1.00  0.00     0.241 C 
HETATM   39  O9  UNL     1      -8.213  48.447 -22.363  1.00  0.00    -0.306 OA
ENDBRANCH  17  38
BRANCH   7  40
HETATM   40  O2  UNL     1      -6.924  50.401 -20.525  1.00  0.00    -0.391 OA
HETATM   41  H28 UNL     1      -6.790  51.282 -20.138  1.00  0.00     0.210 HD
ENDBRANCH   7  40
BRANCH   1  42
HETATM   42  C8  UNL     1      -5.212  43.141 -18.904  1.00  0.00    -0.010 C 
HETATM   43  C9  UNL     1      -6.082  42.228 -19.778  1.00  0.00     0.010 C 
BRANCH  42  44
HETATM   44  C7  UNL     1      -5.498  43.095 -17.379  1.00  0.00     0.031 C 
BRANCH  44  45
HETATM   45  C6  UNL     1      -6.171  41.861 -16.843  1.00  0.00    -0.027 C 
HETATM   46  C5  UNL     1      -7.504  41.680 -16.874  1.00  0.00     0.006 C 
BRANCH  46  47
HETATM   47  C2  UNL     1      -8.319  40.510 -16.356  1.00  0.00     0.070 C 
HETATM   48  C3  UNL     1      -9.817  40.852 -16.400  1.00  0.00     0.050 C 
HETATM   49  C4  UNL     1      -8.109  39.219 -17.164  1.00  0.00     0.050 C 
BRANCH  47  50
HETATM   50  O1  UNL     1      -7.886  40.180 -15.026  1.00  0.00    -0.382 OA
HETATM   51  C1  UNL     1      -8.863  40.192 -13.994  1.00  0.00     0.202 C 
ENDBRANCH  47  50
ENDBRANCH  46  47
ENDBRANCH  44  45
ENDBRANCH  42  44
ENDBRANCH   1  42
TORSDOF 14
ENDMDL
MODEL 3
REMARK minimizedAffinity -7.62766933
REMARK CNNscore 0.38243857
REMARK CNNaffinity 6.45949697
REMARK  14 active torsions:
REMARK  status: ('A' for Active; 'I' for Inactive)
REMARK    1  A    between atoms: O1_2  and  C2_3 
REMARK    2  A    between atoms: C2_3  and  C5_6 
REMARK    3  A    between atoms: C6_7  and  C7_8 
REMARK    4  A    between atoms: C7_8  and  C8_9 
REMARK    5  A    between atoms: C8_9  and  C10_11 
REMARK    6  A    between atoms: C16_17  and  O2_18 
REMARK    7  A    between atoms: C22_24  and  O3_25 
REMARK    8  A    between atoms: O3_25  and  C23_26 
REMARK    9  A    between atoms: C24_28  and  C25_29 
REMARK   10  A    between atoms: C25_29  and  O5_30 
REMARK   11  A    between atoms: C26_31  and  O6_32 
REMARK   12  A    between atoms: C27_33  and  O7_34 
REMARK   13  A    between atoms: C28_35  and  O8_36 
REMARK   14  A    between atoms: C32_40  and  C33_41 
ROOT
HETATM    1  C10 UNL     1      -9.651  46.028 -32.894  1.00  0.00    -0.002 C 
HETATM    2  C11 UNL     1      -9.589  47.333 -32.085  1.00  0.00     0.006 C 
HETATM    3  C12 UNL     1      -9.692  46.857 -30.645  1.00  0.00     0.011 C 
HETATM    4  C13 UNL     1      -8.743  45.638 -30.579  1.00  0.00    -0.029 C 
HETATM    5  C14 UNL     1      -7.303  46.205 -30.387  1.00  0.00     0.016 C 
HETATM    6  C15 UNL     1      -9.052  44.620 -29.413  1.00  0.00     0.043 C 
HETATM    7  C16 UNL     1      -8.718  45.104 -27.976  1.00  0.00     0.147 C 
HETATM    8  C17 UNL     1      -9.840  45.720 -27.212  1.00  0.00     0.009 C 
HETATM    9  C18 UNL     1     -11.145  45.595 -27.509  1.00  0.00    -0.066 C 
HETATM   10  C19 UNL     1     -11.595  44.755 -28.699  1.00  0.00     0.031 C 
HETATM   11  C20 UNL     1     -12.783  43.861 -28.300  1.00  0.00     0.013 C 
HETATM   12  C21 UNL     1     -13.944  44.686 -27.758  1.00  0.00     0.034 C 
HETATM   13  C22 UNL     1     -13.532  45.478 -26.512  1.00  0.00     0.136 C 
HETATM   14  C29 UNL     1     -12.259  46.367 -26.761  1.00  0.00     0.002 C 
HETATM   15  C30 UNL     1     -11.811  46.907 -25.378  1.00  0.00     0.022 C 
HETATM   16  C31 UNL     1     -12.614  47.609 -27.614  1.00  0.00     0.022 C 
HETATM   17  C32 UNL     1     -10.472  43.961 -29.472  1.00  0.00     0.027 C 
HETATM   18  C34 UNL     1     -10.947  43.760 -30.940  1.00  0.00     0.018 C 
HETATM   19  C35 UNL     1      -9.783  43.650 -31.920  1.00  0.00     0.011 C 
HETATM   20  C36 UNL     1      -8.904  44.938 -32.016  1.00  0.00    -0.032 C 
HETATM   21  C37 UNL     1      -7.554  44.452 -32.581  1.00  0.00     0.016 C 
ENDROOT
BRANCH  13  22
HETATM   22  O3  UNL     1     -14.575  46.340 -26.037  1.00  0.00    -0.352 OA
BRANCH  22  23
HETATM   23  C23 UNL     1     -15.412  45.816 -25.007  1.00  0.00     0.292 C 
HETATM   24  O4  UNL     1     -16.767  45.821 -25.465  1.00  0.00    -0.348 OA
HETATM   25  C24 UNL     1     -17.776  45.746 -24.455  1.00  0.00     0.179 C 
HETATM   26  C26 UNL     1     -17.231  45.412 -23.055  1.00  0.00     0.180 C 
HETATM   27  C27 UNL     1     -16.135  46.382 -22.622  1.00  0.00     0.183 C 
HETATM   28  C28 UNL     1     -15.210  46.744 -23.785  1.00  0.00     0.204 C 
BRANCH  25  29
HETATM   29  C25 UNL     1     -18.710  46.975 -24.535  1.00  0.00     0.198 C 
BRANCH  29  30
HETATM   30  O5  UNL     1     -19.997  46.735 -25.087  1.00  0.00    -0.398 OA
HETATM   31  H40 UNL     1     -19.919  46.165 -25.882  1.00  0.00     0.209 HD
ENDBRANCH  29  30
ENDBRANCH  25  29
BRANCH  26  32
HETATM   32  O6  UNL     1     -18.275  45.376 -22.083  1.00  0.00    -0.390 OA
HETATM   33  H42 UNL     1     -17.972  44.783 -21.373  1.00  0.00     0.210 HD
ENDBRANCH  26  32
BRANCH  27  34
HETATM   34  O7  UNL     1     -15.386  45.752 -21.568  1.00  0.00    -0.390 OA
HETATM   35  H44 UNL     1     -14.869  46.455 -21.137  1.00  0.00     0.210 HD
ENDBRANCH  27  34
BRANCH  28  36
HETATM   36  O8  UNL     1     -15.486  48.106 -24.161  1.00  0.00    -0.388 OA
HETATM   37  H46 UNL     1     -15.037  48.238 -25.022  1.00  0.00     0.210 HD
ENDBRANCH  28  36
ENDBRANCH  22  23
ENDBRANCH  13  22
BRANCH  17  38
HETATM   38  C33 UNL     1     -10.309  42.573 -28.819  1.00  0.00     0.241 C 
HETATM   39  O9  UNL     1     -10.409  42.346 -27.616  1.00  0.00    -0.306 OA
ENDBRANCH  17  38
BRANCH   7  40
HETATM   40  O2  UNL     1      -8.291  43.984 -27.198  1.00  0.00    -0.391 OA
HETATM   41  H28 UNL     1      -7.903  44.331 -26.377  1.00  0.00     0.210 HD
ENDBRANCH   7  40
BRANCH   1  42
HETATM   42  C8  UNL     1      -9.348  46.253 -34.409  1.00  0.00    -0.010 C 
HETATM   43  C9  UNL     1      -9.436  44.953 -35.220  1.00  0.00     0.010 C 
BRANCH  42  44
HETATM   44  C7  UNL     1      -8.125  47.159 -34.710  1.00  0.00     0.031 C 
BRANCH  44  45
HETATM   45  C6  UNL     1      -7.882  47.530 -36.147  1.00  0.00    -0.027 C 
HETATM   46  C5  UNL     1      -8.866  47.908 -36.984  1.00  0.00     0.006 C 
BRANCH  46  47
HETATM   47  C2  UNL     1      -8.777  48.286 -38.450  1.00  0.00     0.070 C 
HETATM   48  C3  UNL     1      -7.328  48.652 -38.812  1.00  0.00     0.050 C 
HETATM   49  C4  UNL     1      -9.227  47.162 -39.396  1.00  0.00     0.050 C 
BRANCH  47  50
HETATM   50  O1  UNL     1      -9.683  49.370 -38.718  1.00  0.00    -0.382 OA
HETATM   51  C1  UNL     1     -11.022  49.237 -38.261  1.00  0.00     0.202 C 
ENDBRANCH  47  50
ENDBRANCH  46  47
ENDBRANCH  44  45
ENDBRANCH  42  44
ENDBRANCH   1  42
TORSDOF 14
ENDMDL
MODEL 4
REMARK minimizedAffinity -8.35963345
REMARK CNNscore 0.374680459
REMARK CNNaffinity 6.71569681
REMARK  14 active torsions:
REMARK  status: ('A' for Active; 'I' for Inactive)
REMARK    1  A    between atoms: O1_2  and  C2_3 
REMARK    2  A    between atoms: C2_3  and  C5_6 
REMARK    3  A    between atoms: C6_7  and  C7_8 
REMARK    4  A    between atoms: C7_8  and  C8_9 
REMARK    5  A    between atoms: C8_9  and  C10_11 
REMARK    6  A    between atoms: C16_17  and  O2_18 
REMARK    7  A    between atoms: C22_24  and  O3_25 
REMARK    8  A    between atoms: O3_25  and  C23_26 
REMARK    9  A    between atoms: C24_28  and  C25_29 
REMARK   10  A    between atoms: C25_29  and  O5_30 
REMARK   11  A    between atoms: C26_31  and  O6_32 
REMARK   12  A    between atoms: C27_33  and  O7_34 
REMARK   13  A    between atoms: C28_35  and  O8_36 
REMARK   14  A    between atoms: C32_40  and  C33_41 
ROOT
HETATM    1  C10 UNL     1      -4.211  48.663 -25.113  1.00  0.00    -0.002 C 
HETATM    2  C11 UNL     1      -5.644  48.163 -25.358  1.00  0.00     0.006 C 
HETATM    3  C12 UNL     1      -6.192  47.972 -23.954  1.00  0.00     0.011 C 
HETATM    4  C13 UNL     1      -5.732  49.236 -23.191  1.00  0.00    -0.029 C 
HETATM    5  C14 UNL     1      -6.754  50.362 -23.538  1.00  0.00     0.016 C 
HETATM    6  C15 UNL     1      -5.661  49.075 -21.622  1.00  0.00     0.043 C 
HETATM    7  C16 UNL     1      -7.023  48.984 -20.883  1.00  0.00     0.147 C 
HETATM    8  C17 UNL     1      -7.533  47.610 -20.611  1.00  0.00     0.009 C 
HETATM    9  C18 UNL     1      -6.796  46.485 -20.643  1.00  0.00    -0.066 C 
HETATM   10  C19 UNL     1      -5.306  46.541 -20.954  1.00  0.00     0.031 C 
HETATM   11  C20 UNL     1      -4.523  45.653 -19.971  1.00  0.00     0.013 C 
HETATM   12  C21 UNL     1      -5.022  44.214 -20.000  1.00  0.00     0.034 C 
HETATM   13  C22 UNL     1      -6.502  44.129 -19.611  1.00  0.00     0.136 C 
HETATM   14  C29 UNL     1      -7.407  45.071 -20.486  1.00  0.00     0.002 C 
HETATM   15  C30 UNL     1      -8.813  45.077 -19.833  1.00  0.00     0.022 C 
HETATM   16  C31 UNL     1      -7.594  44.489 -21.907  1.00  0.00     0.022 C 
HETATM   17  C32 UNL     1      -4.668  47.974 -21.117  1.00  0.00     0.027 C 
HETATM   18  C34 UNL     1      -3.431  47.849 -22.053  1.00  0.00     0.018 C 
HETATM   19  C35 UNL     1      -3.146  49.137 -22.820  1.00  0.00     0.011 C 
HETATM   20  C36 UNL     1      -4.283  49.558 -23.806  1.00  0.00    -0.032 C 
HETATM   21  C37 UNL     1      -4.069  51.069 -24.030  1.00  0.00     0.016 C 
ENDROOT
BRANCH  13  22
HETATM   22  O3  UNL     1      -7.026  42.799 -19.724  1.00  0.00    -0.352 OA
BRANCH  22  23
HETATM   23  C23 UNL     1      -6.116  41.794 -20.168  1.00  0.00     0.292 C 
HETATM   24  O4  UNL     1      -6.864  40.673 -20.648  1.00  0.00    -0.348 OA
HETATM   25  C24 UNL     1      -6.160  39.431 -20.727  1.00  0.00     0.179 C 
HETATM   26  C26 UNL     1      -4.640  39.563 -20.526  1.00  0.00     0.180 C 
HETATM   27  C27 UNL     1      -4.296  40.271 -19.218  1.00  0.00     0.183 C 
HETATM   28  C28 UNL     1      -5.254  41.430 -18.935  1.00  0.00     0.204 C 
BRANCH  25  29
HETATM   29  C25 UNL     1      -6.860  38.359 -19.860  1.00  0.00     0.198 C 
BRANCH  29  30
HETATM   30  O5  UNL     1      -6.227  38.057 -18.624  1.00  0.00    -0.398 OA
HETATM   31  H40 UNL     1      -5.258  37.980 -18.755  1.00  0.00     0.209 HD
ENDBRANCH  29  30
ENDBRANCH  25  29
BRANCH  26  32
HETATM   32  O6  UNL     1      -3.993  38.292 -20.588  1.00  0.00    -0.390 OA
HETATM   33  H42 UNL     1      -3.076  38.462 -20.871  1.00  0.00     0.210 HD
ENDBRANCH  26  32
BRANCH  27  34
HETATM   34  O7  UNL     1      -2.947  40.755 -19.326  1.00  0.00    -0.390 OA
HETATM   35  H44 UNL     1      -2.657  40.974 -18.422  1.00  0.00     0.210 HD
ENDBRANCH  27  34
BRANCH  28  36
HETATM   36  O8  UNL     1      -6.109  41.039 -17.844  1.00  0.00    -0.388 OA
HETATM   37  H46 UNL     1      -6.830  41.702 -17.825  1.00  0.00     0.210 HD
ENDBRANCH  28  36
ENDBRANCH  22  23
ENDBRANCH  13  22
BRANCH  17  38
HETATM   38  C33 UNL     1      -4.185  48.460 -19.735  1.00  0.00     0.241 C 
HETATM   39  O9  UNL     1      -4.758  48.238 -18.671  1.00  0.00    -0.306 OA
ENDBRANCH  17  38
BRANCH   7  40
HETATM   40  O2  UNL     1      -6.897  49.608 -19.603  1.00  0.00    -0.391 OA
HETATM   41  H28 UNL     1      -7.794  49.716 -19.243  1.00  0.00     0.210 HD
ENDBRANCH   7  40
BRANCH   1  42
HETATM   42  C8  UNL     1      -3.514  49.134 -26.428  1.00  0.00    -0.010 C 
HETATM   43  C9  UNL     1      -3.989  48.343 -27.655  1.00  0.00     0.010 C 
BRANCH  42  44
HETATM   44  C7  UNL     1      -1.982  49.362 -26.319  1.00  0.00     0.031 C 
BRANCH  44  45
HETATM   45  C6  UNL     1      -1.465  50.729 -26.669  1.00  0.00    -0.027 C 
HETATM   46  C5  UNL     1      -0.191  51.109 -26.453  1.00  0.00     0.006 C 
BRANCH  46  47
HETATM   47  C2  UNL     1       0.463  52.449 -26.730  1.00  0.00     0.070 C 
HETATM   48  C3  UNL     1       0.336  52.799 -28.222  1.00  0.00     0.050 C 
HETATM   49  C4  UNL     1      -0.152  53.605 -25.924  1.00  0.00     0.050 C 
BRANCH  47  50
HETATM   50  O1  UNL     1       1.837  52.405 -26.308  1.00  0.00    -0.382 OA
HETATM   51  C1  UNL     1       2.524  51.167 -26.433  1.00  0.00     0.202 C 
ENDBRANCH  47  50
ENDBRANCH  46  47
ENDBRANCH  44  45
ENDBRANCH  42  44
ENDBRANCH   1  42
TORSDOF 14
ENDMDL
MODEL 5
REMARK minimizedAffinity -8.52112389
REMARK CNNscore 0.358426481
REMARK CNNaffinity 6.58504486
REMARK  14 active torsions:
REMARK  status: ('A' for Active; 'I' for Inactive)
REMARK    1  A    between atoms: O1_2  and  C2_3 
REMARK    2  A    between atoms: C2_3  and  C5_6 
REMARK    3  A    between atoms: C6_7  and  C7_8 
REMARK    4  A    between atoms: C7_8  and  C8_9 
REMARK    5  A    between atoms: C8_9  and  C10_11 
REMARK    6  A    between atoms: C16_17  and  O2_18 
REMARK    7  A    between atoms: C22_24  and  O3_25 
REMARK    8  A    between atoms: O3_25  and  C23_26 
REMARK    9  A    between atoms: C24_28  and  C25_29 
REMARK   10  A    between atoms: C25_29  and  O5_30 
REMARK   11  A    between atoms: C26_31  and  O6_32 
REMARK   12  A    between atoms: C27_33  and  O7_34 
REMARK   13  A    between atoms: C28_35  and  O8_36 
REMARK   14  A    between atoms: C32_40  and  C33_41 
ROOT
HETATM    1  C10 UNL     1      -4.935  44.801 -19.250  1.00  0.00    -0.002 C 
HETATM    2  C11 UNL     1      -3.852  45.661 -18.580  1.00  0.00     0.006 C 
HETATM    3  C12 UNL     1      -4.045  47.026 -19.220  1.00  0.00     0.011 C 
HETATM    4  C13 UNL     1      -5.577  47.234 -19.217  1.00  0.00    -0.029 C 
HETATM    5  C14 UNL     1      -5.954  47.745 -17.793  1.00  0.00     0.016 C 
HETATM    6  C15 UNL     1      -6.108  48.266 -20.288  1.00  0.00     0.043 C 
HETATM    7  C16 UNL     1      -5.789  49.760 -20.015  1.00  0.00     0.147 C 
HETATM    8  C17 UNL     1      -4.565  50.301 -20.671  1.00  0.00     0.009 C 
HETATM    9  C18 UNL     1      -3.922  49.735 -21.707  1.00  0.00    -0.066 C 
HETATM   10  C19 UNL     1      -4.437  48.443 -22.329  1.00  0.00     0.031 C 
HETATM   11  C20 UNL     1      -4.418  48.548 -23.865  1.00  0.00     0.013 C 
HETATM   12  C21 UNL     1      -3.022  48.873 -24.384  1.00  0.00     0.034 C 
HETATM   13  C22 UNL     1      -2.519  50.211 -23.831  1.00  0.00     0.136 C 
HETATM   14  C29 UNL     1      -2.578  50.269 -22.261  1.00  0.00     0.002 C 
HETATM   15  C30 UNL     1      -2.286  51.738 -21.855  1.00  0.00     0.022 C 
HETATM   16  C31 UNL     1      -1.449  49.416 -21.635  1.00  0.00     0.022 C 
HETATM   17  C32 UNL     1      -5.805  47.885 -21.777  1.00  0.00     0.027 C 
HETATM   18  C34 UNL     1      -5.817  46.343 -21.986  1.00  0.00     0.018 C 
HETATM   19  C35 UNL     1      -6.679  45.621 -20.955  1.00  0.00     0.011 C 
HETATM   20  C36 UNL     1      -6.172  45.766 -19.484  1.00  0.00    -0.032 C 
HETATM   21  C37 UNL     1      -7.409  45.472 -18.611  1.00  0.00     0.016 C 
ENDROOT
BRANCH  13  22
HETATM   22  O3  UNL     1      -1.170  50.497 -24.224  1.00  0.00    -0.352 OA
BRANCH  22  23
HETATM   23  C23 UNL     1      -0.979  50.935 -25.567  1.00  0.00     0.292 C 
HETATM   24  O4  UNL     1       0.312  50.511 -26.013  1.00  0.00    -0.348 OA
HETATM   25  C24 UNL     1       0.850  51.204 -27.142  1.00  0.00     0.179 C 
HETATM   26  C26 UNL     1      -0.163  52.121 -27.851  1.00  0.00     0.180 C 
HETATM   27  C27 UNL     1      -0.803  53.117 -26.888  1.00  0.00     0.183 C 
HETATM   28  C28 UNL     1      -1.101  52.478 -25.530  1.00  0.00     0.204 C 
BRANCH  25  29
HETATM   29  C25 UNL     1       2.204  51.856 -26.778  1.00  0.00     0.198 C 
BRANCH  29  30
HETATM   30  O5  UNL     1       3.254  51.656 -27.715  1.00  0.00    -0.398 OA
HETATM   31  H40 UNL     1       3.261  50.723 -28.016  1.00  0.00     0.209 HD
ENDBRANCH  29  30
ENDBRANCH  25  29
BRANCH  26  32
HETATM   32  O6  UNL     1       0.433  52.806 -28.952  1.00  0.00    -0.390 OA
HETATM   33  H42 UNL     1      -0.287  53.010 -29.574  1.00  0.00     0.210 HD
ENDBRANCH  26  32
BRANCH  27  34
HETATM   34  O7  UNL     1      -2.018  53.589 -27.493  1.00  0.00    -0.390 OA
HETATM   35  H44 UNL     1      -2.280  54.390 -27.003  1.00  0.00     0.210 HD
ENDBRANCH  27  34
BRANCH  28  36
HETATM   36  O8  UNL     1      -0.166  53.015 -24.575  1.00  0.00    -0.388 OA
HETATM   37  H46 UNL     1      -0.245  52.445 -23.782  1.00  0.00     0.210 HD
ENDBRANCH  28  36
ENDBRANCH  22  23
ENDBRANCH  13  22
BRANCH  17  38
HETATM   38  C33 UNL     1      -6.956  48.496 -22.601  1.00  0.00     0.241 C 
HETATM   39  O9  UNL     1      -8.130  48.545 -22.242  1.00  0.00    -0.306 OA
ENDBRANCH  17  38
BRANCH   7  40
HETATM   40  O2  UNL     1      -6.871  50.560 -20.497  1.00  0.00    -0.391 OA
HETATM   41  H28 UNL     1      -6.748  51.458 -20.145  1.00  0.00     0.210 HD
ENDBRANCH   7  40
BRANCH   1  42
HETATM   42  C8  UNL     1      -5.068  43.393 -18.589  1.00  0.00    -0.010 C 
HETATM   43  C9  UNL     1      -6.244  42.589 -19.162  1.00  0.00     0.010 C 
BRANCH  42  44
HETATM   44  C7  UNL     1      -4.920  43.372 -17.044  1.00  0.00     0.031 C 
BRANCH  44  45
HETATM   45  C6  UNL     1      -3.731  42.646 -16.478  1.00  0.00    -0.027 C 
HETATM   46  C5  UNL     1      -2.572  42.503 -17.147  1.00  0.00     0.006 C 
BRANCH  46  47
HETATM   47  C2  UNL     1      -1.306  41.785 -16.717  1.00  0.00     0.070 C 
HETATM   48  C3  UNL     1      -1.375  41.447 -15.219  1.00  0.00     0.050 C 
HETATM   49  C4  UNL     1      -1.061  40.475 -17.482  1.00  0.00     0.050 C 
BRANCH  47  50
HETATM   50  O1  UNL     1      -0.166  42.604 -17.027  1.00  0.00    -0.382 OA
HETATM   51  C1  UNL     1       1.114  41.987 -17.002  1.00  0.00     0.202 C 
ENDBRANCH  47  50
ENDBRANCH  46  47
ENDBRANCH  44  45
ENDBRANCH  42  44
ENDBRANCH   1  42
TORSDOF 14
ENDMDL
MODEL 6
REMARK minimizedAffinity -9.3863802
REMARK CNNscore 0.343210459
REMARK CNNaffinity 6.94408178
REMARK  14 active torsions:
REMARK  status: ('A' for Active; 'I' for Inactive)
REMARK    1  A    between atoms: O1_2  and  C2_3 
REMARK    2  A    between atoms: C2_3  and  C5_6 
REMARK    3  A    between atoms: C6_7  and  C7_8 
REMARK    4  A    between atoms: C7_8  and  C8_9 
REMARK    5  A    between atoms: C8_9  and  C10_11 
REMARK    6  A    between atoms: C16_17  and  O2_18 
REMARK    7  A    between atoms: C22_24  and  O3_25 
REMARK    8  A    between atoms: O3_25  and  C23_26 
REMARK    9  A    between atoms: C24_28  and  C25_29 
REMARK   10  A    between atoms: C25_29  and  O5_30 
REMARK   11  A    between atoms: C26_31  and  O6_32 
REMARK   12  A    between atoms: C27_33  and  O7_34 
REMARK   13  A    between atoms: C28_35  and  O8_36 
REMARK   14  A    between atoms: C32_40  and  C33_41 
ROOT
HETATM    1  C10 UNL     1      -3.582  46.965 -20.785  1.00  0.00    -0.002 C 
HETATM    2  C11 UNL     1      -2.325  47.499 -21.490  1.00  0.00     0.006 C 
HETATM    3  C12 UNL     1      -2.888  48.422 -22.558  1.00  0.00     0.011 C 
HETATM    4  C13 UNL     1      -3.993  49.219 -21.827  1.00  0.00    -0.029 C 
HETATM    5  C14 UNL     1      -3.278  50.379 -21.069  1.00  0.00     0.016 C 
HETATM    6  C15 UNL     1      -5.103  49.831 -22.768  1.00  0.00     0.043 C 
HETATM    7  C16 UNL     1      -4.664  51.028 -23.654  1.00  0.00     0.147 C 
HETATM    8  C17 UNL     1      -4.222  50.695 -25.038  1.00  0.00     0.009 C 
HETATM    9  C18 UNL     1      -4.478  49.542 -25.681  1.00  0.00    -0.066 C 
HETATM   10  C19 UNL     1      -5.297  48.445 -25.012  1.00  0.00     0.031 C 
HETATM   11  C20 UNL     1      -6.341  47.885 -25.996  1.00  0.00     0.013 C 
HETATM   12  C21 UNL     1      -5.685  47.364 -27.268  1.00  0.00     0.034 C 
HETATM   13  C22 UNL     1      -4.921  48.474 -27.998  1.00  0.00     0.136 C 
HETATM   14  C29 UNL     1      -3.881  49.197 -27.067  1.00  0.00     0.002 C 
HETATM   15  C30 UNL     1      -3.370  50.439 -27.843  1.00  0.00     0.022 C 
HETATM   16  C31 UNL     1      -2.642  48.301 -26.825  1.00  0.00     0.022 C 
HETATM   17  C32 UNL     1      -5.914  48.780 -23.600  1.00  0.00     0.027 C 
HETATM   18  C34 UNL     1      -6.087  47.445 -22.819  1.00  0.00     0.018 C 
HETATM   19  C35 UNL     1      -6.010  47.638 -21.308  1.00  0.00     0.011 C 
HETATM   20  C36 UNL     1      -4.626  48.158 -20.800  1.00  0.00    -0.032 C 
HETATM   21  C37 UNL     1      -4.924  48.787 -19.424  1.00  0.00     0.016 C 
ENDROOT
BRANCH  13  22
HETATM   22  O3  UNL     1      -4.211  47.992 -29.147  1.00  0.00    -0.352 OA
BRANCH  22  23
HETATM   23  C23 UNL     1      -5.006  47.499 -30.223  1.00  0.00     0.292 C 
HETATM   24  O4  UNL     1      -4.140  46.999 -31.246  1.00  0.00    -0.348 OA
HETATM   25  C24 UNL     1      -4.712  46.868 -32.550  1.00  0.00     0.179 C 
HETATM   26  C26 UNL     1      -6.241  47.043 -32.580  1.00  0.00     0.180 C 
HETATM   27  C27 UNL     1      -6.677  48.365 -31.954  1.00  0.00     0.183 C 
HETATM   28  C28 UNL     1      -5.847  48.703 -30.713  1.00  0.00     0.204 C 
BRANCH  25  29
HETATM   29  C25 UNL     1      -3.921  47.715 -33.573  1.00  0.00     0.198 C 
BRANCH  29  30
HETATM   30  O5  UNL     1      -2.536  47.877 -33.297  1.00  0.00    -0.398 OA
HETATM   31  H40 UNL     1      -2.406  48.068 -32.343  1.00  0.00     0.209 HD
ENDBRANCH  29  30
ENDBRANCH  25  29
BRANCH  26  32
HETATM   32  O6  UNL     1      -6.754  46.928 -33.907  1.00  0.00    -0.390 OA
HETATM   33  H42 UNL     1      -7.678  46.632 -33.822  1.00  0.00     0.210 HD
ENDBRANCH  26  32
BRANCH  27  34
HETATM   34  O7  UNL     1      -8.066  48.245 -31.605  1.00  0.00    -0.390 OA
HETATM   35  H44 UNL     1      -8.392  49.149 -31.447  1.00  0.00     0.210 HD
ENDBRANCH  27  34
BRANCH  28  36
HETATM   36  O8  UNL     1      -4.975  49.797 -31.051  1.00  0.00    -0.388 OA
HETATM   37  H46 UNL     1      -4.326  49.851 -30.319  1.00  0.00     0.210 HD
ENDBRANCH  28  36
ENDBRANCH  22  23
ENDBRANCH  13  22
BRANCH  17  38
HETATM   38  C33 UNL     1      -7.309  49.407 -23.806  1.00  0.00     0.241 C 
HETATM   39  O9  UNL     1      -8.162  48.985 -24.582  1.00  0.00    -0.306 OA
ENDBRANCH  17  38
BRANCH   7  40
HETATM   40  O2  UNL     1      -5.769  51.921 -23.806  1.00  0.00    -0.391 OA
HETATM   41  H28 UNL     1      -5.426  52.746 -24.188  1.00  0.00     0.210 HD
ENDBRANCH   7  40
BRANCH   1  42
HETATM   42  C8  UNL     1      -3.241  46.149 -19.499  1.00  0.00    -0.010 C 
HETATM   43  C9  UNL     1      -4.003  44.818 -19.434  1.00  0.00     0.010 C 
BRANCH  42  44
HETATM   44  C7  UNL     1      -3.201  46.974 -18.185  1.00  0.00     0.031 C 
BRANCH  44  45
HETATM   45  C6  UNL     1      -2.389  48.239 -18.192  1.00  0.00    -0.027 C 
HETATM   46  C5  UNL     1      -1.400  48.481 -17.311  1.00  0.00     0.006 C 
BRANCH  46  47
HETATM   47  C2  UNL     1      -0.518  49.708 -17.183  1.00  0.00     0.070 C 
HETATM   48  C3  UNL     1      -0.201  50.277 -18.576  1.00  0.00     0.050 C 
HETATM   49  C4  UNL     1      -1.157  50.832 -16.352  1.00  0.00     0.050 C 
BRANCH  47  50
HETATM   50  O1  UNL     1       0.679  49.362 -16.465  1.00  0.00    -0.382 OA
HETATM   51  C1  UNL     1       0.678  49.550 -15.056  1.00  0.00     0.202 C 
ENDBRANCH  47  50
ENDBRANCH  46  47
ENDBRANCH  44  45
ENDBRANCH  42  44
ENDBRANCH   1  42
TORSDOF 14
ENDMDL
MODEL 7
REMARK minimizedAffinity -7.71502686
REMARK CNNscore 0.32160008
REMARK CNNaffinity 6.9760232
REMARK  14 active torsions:
REMARK  status: ('A' for Active; 'I' for Inactive)
REMARK    1  A    between atoms: O1_2  and  C2_3 
REMARK    2  A    between atoms: C2_3  and  C5_6 
REMARK    3  A    between atoms: C6_7  and  C7_8 
REMARK    4  A    between atoms: C7_8  and  C8_9 
REMARK    5  A    between atoms: C8_9  and  C10_11 
REMARK    6  A    between atoms: C16_17  and  O2_18 
REMARK    7  A    between atoms: C22_24  and  O3_25 
REMARK    8  A    between atoms: O3_25  and  C23_26 
REMARK    9  A    between atoms: C24_28  and  C25_29 
REMARK   10  A    between atoms: C25_29  and  O5_30 
REMARK   11  A    between atoms: C26_31  and  O6_32 
REMARK   12  A    between atoms: C27_33  and  O7_34 
REMARK   13  A    between atoms: C28_35  and  O8_36 
REMARK   14  A    between atoms: C32_40  and  C33_41 
ROOT
HETATM    1  C10 UNL     1      -1.652  50.740 -21.371  1.00  0.00    -0.002 C 
HETATM    2  C11 UNL     1      -1.243  49.422 -22.049  1.00  0.00     0.006 C 
HETATM    3  C12 UNL     1      -2.554  48.661 -22.152  1.00  0.00     0.011 C 
HETATM    4  C13 UNL     1      -3.571  49.718 -22.639  1.00  0.00    -0.029 C 
HETATM    5  C14 UNL     1      -3.400  49.819 -24.186  1.00  0.00     0.016 C 
HETATM    6  C15 UNL     1      -5.080  49.389 -22.311  1.00  0.00     0.043 C 
HETATM    7  C16 UNL     1      -5.719  48.231 -23.124  1.00  0.00     0.147 C 
HETATM    8  C17 UNL     1      -5.690  46.885 -22.485  1.00  0.00     0.009 C 
HETATM    9  C18 UNL     1      -5.476  46.647 -21.179  1.00  0.00    -0.066 C 
HETATM   10  C19 UNL     1      -5.256  47.799 -20.205  1.00  0.00     0.031 C 
HETATM   11  C20 UNL     1      -6.084  47.581 -18.927  1.00  0.00     0.013 C 
HETATM   12  C21 UNL     1      -5.750  46.249 -18.266  1.00  0.00     0.034 C 
HETATM   13  C22 UNL     1      -6.040  45.071 -19.203  1.00  0.00     0.136 C 
HETATM   14  C29 UNL     1      -5.323  45.222 -20.594  1.00  0.00     0.002 C 
HETATM   15  C30 UNL     1      -5.894  44.114 -21.516  1.00  0.00     0.022 C 
HETATM   16  C31 UNL     1      -3.807  44.936 -20.464  1.00  0.00     0.022 C 
HETATM   17  C32 UNL     1      -5.408  49.258 -20.785  1.00  0.00     0.027 C 
HETATM   18  C34 UNL     1      -4.529  50.213 -19.927  1.00  0.00     0.018 C 
HETATM   19  C35 UNL     1      -4.044  51.425 -20.716  1.00  0.00     0.011 C 
HETATM   20  C36 UNL     1      -3.104  51.074 -21.914  1.00  0.00    -0.032 C 
HETATM   21  C37 UNL     1      -3.190  52.295 -22.852  1.00  0.00     0.016 C 
ENDROOT
BRANCH  13  22
HETATM   22  O3  UNL     1      -5.643  43.812 -18.645  1.00  0.00    -0.352 OA
BRANCH  22  23
HETATM   23  C23 UNL     1      -6.071  42.645 -19.344  1.00  0.00     0.292 C 
HETATM   24  O4  UNL     1      -7.371  42.276 -18.875  1.00  0.00    -0.348 OA
HETATM   25  C24 UNL     1      -7.775  40.928 -19.128  1.00  0.00     0.179 C 
HETATM   26  C26 UNL     1      -6.846  40.170 -20.093  1.00  0.00     0.180 C 
HETATM   27  C27 UNL     1      -5.394  40.196 -19.626  1.00  0.00     0.183 C 
HETATM   28  C28 UNL     1      -5.014  41.556 -19.037  1.00  0.00     0.204 C 
BRANCH  25  29
HETATM   29  C25 UNL     1      -8.098  40.204 -17.801  1.00  0.00     0.198 C 
BRANCH  29  30
HETATM   30  O5  UNL     1      -8.824  40.965 -16.846  1.00  0.00    -0.398 OA
HETATM   31  H40 UNL     1      -8.460  41.875 -16.796  1.00  0.00     0.209 HD
ENDBRANCH  29  30
ENDBRANCH  25  29
BRANCH  26  32
HETATM   32  O6  UNL     1      -7.282  38.825 -20.289  1.00  0.00    -0.390 OA
HETATM   33  H42 UNL     1      -6.951  38.552 -21.163  1.00  0.00     0.210 HD
ENDBRANCH  26  32
BRANCH  27  34
HETATM   34  O7  UNL     1      -4.564  39.896 -20.761  1.00  0.00    -0.390 OA
HETATM   35  H44 UNL     1      -3.684  39.669 -20.411  1.00  0.00     0.210 HD
ENDBRANCH  27  34
BRANCH  28  36
HETATM   36  O8  UNL     1      -4.880  41.399 -17.613  1.00  0.00    -0.388 OA
HETATM   37  H46 UNL     1      -4.844  42.308 -17.250  1.00  0.00     0.210 HD
ENDBRANCH  28  36
ENDBRANCH  22  23
ENDBRANCH  13  22
BRANCH  17  38
HETATM   38  C33 UNL     1      -6.881  49.694 -20.643  1.00  0.00     0.241 C 
HETATM   39  O9  UNL     1      -7.356  50.262 -19.662  1.00  0.00    -0.306 OA
ENDBRANCH  17  38
BRANCH   7  40
HETATM   40  O2  UNL     1      -7.100  48.525 -23.341  1.00  0.00    -0.391 OA
HETATM   41  H28 UNL     1      -7.430  47.900 -24.008  1.00  0.00     0.210 HD
ENDBRANCH   7  40
BRANCH   1  42
HETATM   42  C8  UNL     1      -0.491  51.783 -21.352  1.00  0.00    -0.010 C 
HETATM   43  C9  UNL     1      -0.447  52.581 -20.041  1.00  0.00     0.010 C 
BRANCH  42  44
HETATM   44  C7  UNL     1      -0.322  52.608 -22.655  1.00  0.00     0.031 C 
BRANCH  44  45
HETATM   45  C6  UNL     1       0.115  51.865 -23.887  1.00  0.00    -0.027 C 
HETATM   46  C5  UNL     1      -0.209  52.256 -25.134  1.00  0.00     0.006 C 
BRANCH  46  47
HETATM   47  C2  UNL     1       0.137  51.601 -26.458  1.00  0.00     0.070 C 
HETATM   48  C3  UNL     1      -1.012  50.683 -26.907  1.00  0.00     0.050 C 
HETATM   49  C4  UNL     1       0.398  52.612 -27.586  1.00  0.00     0.050 C 
BRANCH  47  50
HETATM   50  O1  UNL     1       1.373  50.880 -26.324  1.00  0.00    -0.382 OA
HETATM   51  C1  UNL     1       2.564  51.535 -26.738  1.00  0.00     0.202 C 
ENDBRANCH  47  50
ENDBRANCH  46  47
ENDBRANCH  44  45
ENDBRANCH  42  44
ENDBRANCH   1  42
TORSDOF 14
ENDMDL
MODEL 8
REMARK minimizedAffinity -8.31461334
REMARK CNNscore 0.318759471
REMARK CNNaffinity 6.88461351
REMARK  14 active torsions:
REMARK  status: ('A' for Active; 'I' for Inactive)
REMARK    1  A    between atoms: O1_2  and  C2_3 
REMARK    2  A    between atoms: C2_3  and  C5_6 
REMARK    3  A    between atoms: C6_7  and  C7_8 
REMARK    4  A    between atoms: C7_8  and  C8_9 
REMARK    5  A    between atoms: C8_9  and  C10_11 
REMARK    6  A    between atoms: C16_17  and  O2_18 
REMARK    7  A    between atoms: C22_24  and  O3_25 
REMARK    8  A    between atoms: O3_25  and  C23_26 
REMARK    9  A    between atoms: C24_28  and  C25_29 
REMARK   10  A    between atoms: C25_29  and  O5_30 
REMARK   11  A    between atoms: C26_31  and  O6_32 
REMARK   12  A    between atoms: C27_33  and  O7_34 
REMARK   13  A    between atoms: C28_35  and  O8_36 
REMARK   14  A    between atoms: C32_40  and  C33_41 
ROOT
HETATM    1  C10 UNL     1      -1.908  50.590 -21.362  1.00  0.00    -0.002 C 
HETATM    2  C11 UNL     1      -1.450  49.128 -21.232  1.00  0.00     0.006 C 
HETATM    3  C12 UNL     1      -2.753  48.348 -21.280  1.00  0.00     0.011 C 
HETATM    4  C13 UNL     1      -3.548  49.007 -22.430  1.00  0.00    -0.029 C 
HETATM    5  C14 UNL     1      -3.016  48.382 -23.755  1.00  0.00     0.016 C 
HETATM    6  C15 UNL     1      -5.112  48.800 -22.359  1.00  0.00     0.043 C 
HETATM    7  C16 UNL     1      -5.627  47.369 -22.668  1.00  0.00     0.147 C 
HETATM    8  C17 UNL     1      -5.846  46.480 -21.493  1.00  0.00     0.009 C 
HETATM    9  C18 UNL     1      -5.959  46.890 -20.217  1.00  0.00    -0.066 C 
HETATM   10  C19 UNL     1      -5.889  48.372 -19.867  1.00  0.00     0.031 C 
HETATM   11  C20 UNL     1      -7.006  48.738 -18.874  1.00  0.00     0.013 C 
HETATM   12  C21 UNL     1      -6.932  47.886 -17.612  1.00  0.00     0.034 C 
HETATM   13  C22 UNL     1      -7.081  46.395 -17.936  1.00  0.00     0.136 C 
HETATM   14  C29 UNL     1      -6.051  45.912 -19.020  1.00  0.00     0.002 C 
HETATM   15  C30 UNL     1      -6.471  44.476 -19.430  1.00  0.00     0.022 C 
HETATM   16  C31 UNL     1      -4.632  45.789 -18.414  1.00  0.00     0.022 C 
HETATM   17  C32 UNL     1      -5.796  49.382 -21.075  1.00  0.00     0.027 C 
HETATM   18  C34 UNL     1      -5.073  50.667 -20.575  1.00  0.00     0.018 C 
HETATM   19  C35 UNL     1      -4.331  51.391 -21.694  1.00  0.00     0.011 C 
HETATM   20  C36 UNL     1      -3.166  50.564 -22.328  1.00  0.00    -0.032 C 
HETATM   21  C37 UNL     1      -2.942  51.200 -23.715  1.00  0.00     0.016 C 
ENDROOT
BRANCH  13  22
HETATM   22  O3  UNL     1      -6.918  45.562 -16.781  1.00  0.00    -0.352 OA
BRANCH  22  23
HETATM   23  C23 UNL     1      -7.055  46.201 -15.513  1.00  0.00     0.292 C 
HETATM   24  O4  UNL     1      -6.014  45.737 -14.647  1.00  0.00    -0.348 OA
HETATM   25  C24 UNL     1      -6.230  45.919 -13.245  1.00  0.00     0.179 C 
HETATM   26  C26 UNL     1      -7.433  46.820 -12.913  1.00  0.00     0.180 C 
HETATM   27  C27 UNL     1      -8.717  46.326 -13.575  1.00  0.00     0.183 C 
HETATM   28  C28 UNL     1      -8.459  45.810 -14.992  1.00  0.00     0.204 C 
BRANCH  25  29
HETATM   29  C25 UNL     1      -6.189  44.559 -12.513  1.00  0.00     0.198 C 
BRANCH  29  30
HETATM   30  O5  UNL     1      -7.406  43.827 -12.505  1.00  0.00    -0.398 OA
HETATM   31  H40 UNL     1      -8.157  44.429 -12.313  1.00  0.00     0.209 HD
ENDBRANCH  29  30
ENDBRANCH  25  29
BRANCH  26  32
HETATM   32  O6  UNL     1      -7.617  46.946 -11.503  1.00  0.00    -0.390 OA
HETATM   33  H42 UNL     1      -8.070  47.796 -11.358  1.00  0.00     0.210 HD
ENDBRANCH  26  32
BRANCH  27  34
HETATM   34  O7  UNL     1      -9.643  47.425 -13.606  1.00  0.00    -0.390 OA
HETATM   35  H44 UNL     1     -10.520  47.045 -13.791  1.00  0.00     0.210 HD
ENDBRANCH  27  34
BRANCH  28  36
HETATM   36  O8  UNL     1      -8.585  44.376 -14.969  1.00  0.00    -0.388 OA
HETATM   37  H46 UNL     1      -8.218  44.066 -15.823  1.00  0.00     0.210 HD
ENDBRANCH  28  36
ENDBRANCH  22  23
ENDBRANCH  13  22
BRANCH  17  38
HETATM   38  C33 UNL     1      -7.225  49.766 -21.508  1.00  0.00     0.241 C 
HETATM   39  O9  UNL     1      -7.536  50.179 -22.623  1.00  0.00    -0.306 OA
ENDBRANCH  17  38
BRANCH   7  40
HETATM   40  O2  UNL     1      -6.895  47.465 -23.321  1.00  0.00    -0.391 OA
HETATM   41  H28 UNL     1      -7.105  46.586 -23.679  1.00  0.00     0.210 HD
ENDBRANCH   7  40
BRANCH   1  42
HETATM   42  C8  UNL     1      -0.711  51.573 -21.551  1.00  0.00    -0.010 C 
HETATM   43  C9  UNL     1      -0.271  52.216 -20.229  1.00  0.00     0.010 C 
BRANCH  42  44
HETATM   44  C7  UNL     1      -0.828  52.532 -22.766  1.00  0.00     0.031 C 
BRANCH  44  45
HETATM   45  C6  UNL     1      -0.031  52.186 -23.994  1.00  0.00    -0.027 C 
HETATM   46  C5  UNL     1      -0.272  52.728 -25.202  1.00  0.00     0.006 C 
BRANCH  46  47
HETATM   47  C2  UNL     1       0.427  52.463 -26.522  1.00  0.00     0.070 C 
HETATM   48  C3  UNL     1       0.058  51.063 -27.040  1.00  0.00     0.050 C 
HETATM   49  C4  UNL     1       0.063  53.478 -27.617  1.00  0.00     0.050 C 
BRANCH  47  50
HETATM   50  O1  UNL     1       1.846  52.610 -26.348  1.00  0.00    -0.382 OA
HETATM   51  C1  UNL     1       2.688  51.648 -26.966  1.00  0.00     0.202 C 
ENDBRANCH  47  50
ENDBRANCH  46  47
ENDBRANCH  44  45
ENDBRANCH  42  44
ENDBRANCH   1  42
TORSDOF 14
ENDMDL
MODEL 9
REMARK minimizedAffinity -7.40641642
REMARK CNNscore 0.311093479
REMARK CNNaffinity 6.34417868
REMARK  14 active torsions:
REMARK  status: ('A' for Active; 'I' for Inactive)
REMARK    1  A    between atoms: O1_2  and  C2_3 
REMARK    2  A    between atoms: C2_3  and  C5_6 
REMARK    3  A    between atoms: C6_7  and  C7_8 
REMARK    4  A    between atoms: C7_8  and  C8_9 
REMARK    5  A    between atoms: C8_9  and  C10_11 
REMARK    6  A    between atoms: C16_17  and  O2_18 
REMARK    7  A    between atoms: C22_24  and  O3_25 
REMARK    8  A    between atoms: O3_25  and  C23_26 
REMARK    9  A    between atoms: C24_28  and  C25_29 
REMARK   10  A    between atoms: C25_29  and  O5_30 
REMARK   11  A    between atoms: C26_31  and  O6_32 
REMARK   12  A    between atoms: C27_33  and  O7_34 
REMARK   13  A    between atoms: C28_35  and  O8_36 
REMARK   14  A    between atoms: C32_40  and  C33_41 
ROOT
HETATM    1  C10 UNL     1      -3.862  48.970 -23.853  1.00  0.00    -0.002 C 
HETATM    2  C11 UNL     1      -4.957  48.847 -24.925  1.00  0.00     0.006 C 
HETATM    3  C12 UNL     1      -6.091  48.154 -24.188  1.00  0.00     0.011 C 
HETATM    4  C13 UNL     1      -6.157  48.878 -22.824  1.00  0.00    -0.029 C 
HETATM    5  C14 UNL     1      -6.979  50.183 -23.052  1.00  0.00     0.016 C 
HETATM    6  C15 UNL     1      -6.830  48.045 -21.663  1.00  0.00     0.043 C 
HETATM    7  C16 UNL     1      -8.366  47.850 -21.764  1.00  0.00     0.147 C 
HETATM    8  C17 UNL     1      -8.828  46.589 -22.411  1.00  0.00     0.009 C 
HETATM    9  C18 UNL     1      -8.075  45.491 -22.603  1.00  0.00    -0.066 C 
HETATM   10  C19 UNL     1      -6.626  45.450 -22.131  1.00  0.00     0.031 C 
HETATM   11  C20 UNL     1      -6.336  44.117 -21.418  1.00  0.00     0.013 C 
HETATM   12  C21 UNL     1      -6.640  42.926 -22.318  1.00  0.00     0.034 C 
HETATM   13  C22 UNL     1      -8.114  42.905 -22.740  1.00  0.00     0.136 C 
HETATM   14  C29 UNL     1      -8.566  44.259 -23.401  1.00  0.00     0.002 C 
HETATM   15  C30 UNL     1     -10.109  44.194 -23.545  1.00  0.00     0.022 C 
HETATM   16  C31 UNL     1      -8.004  44.384 -24.837  1.00  0.00     0.022 C 
HETATM   17  C32 UNL     1      -6.110  46.698 -21.316  1.00  0.00     0.027 C 
HETATM   18  C34 UNL     1      -4.570  46.804 -21.519  1.00  0.00     0.018 C 
HETATM   19  C35 UNL     1      -4.063  48.237 -21.395  1.00  0.00     0.011 C 
HETATM   20  C36 UNL     1      -4.623  49.210 -22.483  1.00  0.00    -0.032 C 
HETATM   21  C37 UNL     1      -4.454  50.617 -21.875  1.00  0.00     0.016 C 
ENDROOT
BRANCH  13  22
HETATM   22  O3  UNL     1      -8.407  41.852 -23.667  1.00  0.00    -0.352 OA
BRANCH  22  23
HETATM   23  C23 UNL     1      -7.813  40.584 -23.395  1.00  0.00     0.292 C 
HETATM   24  O4  UNL     1      -7.642  39.881 -24.629  1.00  0.00    -0.348 OA
HETATM   25  C24 UNL     1      -7.472  38.464 -24.531  1.00  0.00     0.179 C 
HETATM   26  C26 UNL     1      -7.244  37.963 -23.094  1.00  0.00     0.180 C 
HETATM   27  C27 UNL     1      -8.350  38.419 -22.147  1.00  0.00     0.183 C 
HETATM   28  C28 UNL     1      -8.791  39.854 -22.443  1.00  0.00     0.204 C 
BRANCH  25  29
HETATM   29  C25 UNL     1      -8.576  37.733 -25.328  1.00  0.00     0.198 C 
BRANCH  29  30
HETATM   30  O5  UNL     1      -9.320  38.541 -26.230  1.00  0.00    -0.398 OA
HETATM   31  H40 UNL     1      -9.551  39.394 -25.803  1.00  0.00     0.209 HD
ENDBRANCH  29  30
ENDBRANCH  25  29
BRANCH  26  32
HETATM   32  O6  UNL     1      -7.107  36.543 -23.052  1.00  0.00    -0.390 OA
HETATM   33  H42 UNL     1      -6.574  36.339 -22.262  1.00  0.00     0.210 HD
ENDBRANCH  26  32
BRANCH  27  34
HETATM   34  O7  UNL     1      -7.844  38.321 -20.805  1.00  0.00    -0.390 OA
HETATM   35  H44 UNL     1      -8.616  38.367 -20.213  1.00  0.00     0.210 HD
ENDBRANCH  27  34
BRANCH  28  36
HETATM   36  O8  UNL     1     -10.099  39.798 -23.042  1.00  0.00    -0.388 OA
HETATM   37  H46 UNL     1     -10.261  40.694 -23.403  1.00  0.00     0.210 HD
ENDBRANCH  28  36
ENDBRANCH  22  23
ENDBRANCH  13  22
BRANCH  17  38
HETATM   38  C33 UNL     1      -6.387  46.458 -19.817  1.00  0.00     0.241 C 
HETATM   39  O9  UNL     1      -7.379  45.890 -19.367  1.00  0.00    -0.306 OA
ENDBRANCH  17  38
BRANCH   7  40
HETATM   40  O2  UNL     1      -8.918  47.832 -20.446  1.00  0.00    -0.391 OA
HETATM   41  H28 UNL     1      -9.883  47.908 -20.534  1.00  0.00     0.210 HD
ENDBRANCH   7  40
BRANCH   1  42
HETATM   42  C8  UNL     1      -2.664  49.851 -24.326  1.00  0.00    -0.010 C 
HETATM   43  C9  UNL     1      -1.673  50.145 -23.192  1.00  0.00     0.010 C 
BRANCH  42  44
HETATM   44  C7  UNL     1      -3.045  51.058 -25.225  1.00  0.00     0.031 C 
BRANCH  44  45
HETATM   45  C6  UNL     1      -1.931  51.966 -25.665  1.00  0.00    -0.027 C 
HETATM   46  C5  UNL     1      -0.901  51.549 -26.426  1.00  0.00     0.006 C 
BRANCH  46  47
HETATM   47  C2  UNL     1       0.295  52.336 -26.924  1.00  0.00     0.070 C 
HETATM   48  C3  UNL     1       0.869  51.677 -28.189  1.00  0.00     0.050 C 
HETATM   49  C4  UNL     1      -0.038  53.797 -27.268  1.00  0.00     0.050 C 
BRANCH  47  50
HETATM   50  O1  UNL     1       1.277  52.426 -25.878  1.00  0.00    -0.382 OA
HETATM   51  C1  UNL     1       0.810  52.421 -24.536  1.00  0.00     0.202 C 
ENDBRANCH  47  50
ENDBRANCH  46  47
ENDBRANCH  44  45
ENDBRANCH  42  44
ENDBRANCH   1  42
TORSDOF 14
ENDMDL
