MODEL 1
REMARK minimizedAffinity -7.30106163
REMARK CNNscore 0.553864002
REMARK CNNaffinity 6.77615404
REMARK  20 active torsions:
REMARK  status: ('A' for Active; 'I' for Inactive)
REMARK    1  A    between atoms: C2_2  and  C18_26 
REMARK    2  A    between atoms: C3_3  and  C4_4 
REMARK    3  A    between atoms: C4_4  and  O2_6 
REMARK    4  A    between atoms: O2_6  and  C5_7 
REMARK    5  A    between atoms: C5_7  and  C6_8 
REMARK    6  A    between atoms: C6_8  and  C7_9 
REMARK    7  A    between atoms: C7_9  and  C8_10 
REMARK    8  A    between atoms: C8_10  and  C9_11 
REMARK    9  A    between atoms: C9_11  and  C10_12 
REMARK   10  A    between atoms: C10_12  and  C11_13 
REMARK   11  A    between atoms: C11_13  and  C12_14 
REMARK       I    between atoms: C12_14  and  N1_16 
REMARK   12  A    between atoms: N1_16  and  C13_17 
REMARK   13  A    between atoms: C18_26  and  C19_27 
REMARK   14  A    between atoms: C21_29  and  O5_30 
REMARK   15  A    between atoms: C22_31  and  O6_32 
REMARK   16  A    between atoms: C22_31  and  C23_33 
REMARK   17  A    between atoms: C23_33  and  C24_34 
REMARK   18  A    between atoms: C25_35  and  C26_36 
REMARK   19  A    between atoms: C26_36  and  C28_38 
REMARK   20  A    between atoms: C28_38  and  O7_40 
ROOT
HETATM    1  C4  UNL     1       0.157   8.324   9.354  1.00  0.00     0.283 C 
HETATM    2  O1  UNL     1      -0.279   8.129   8.233  1.00  0.00    -0.260 OA
ENDROOT
BRANCH   1   3
HETATM    3  C3  UNL     1       1.487   7.904   9.858  1.00  0.00     0.084 C 
HETATM    4  C2  UNL     1       2.651   8.004   9.184  1.00  0.00    -0.076 C 
HETATM    5  C1  UNL     1       2.778   8.620   7.810  1.00  0.00     0.043 C 
BRANCH   4   6
HETATM    6  C18 UNL     1       3.995   7.542   9.741  1.00  0.00     0.066 C 
BRANCH   6   7
HETATM    7  C19 UNL     1       4.937   8.574  10.406  1.00  0.00     0.128 C 
HETATM    8  C20 UNL     1       4.426   8.984  11.790  1.00  0.00     0.067 C 
HETATM    9  C21 UNL     1       4.586   7.864  12.820  1.00  0.00     0.157 C 
HETATM   10  C22 UNL     1       6.019   7.246  12.788  1.00  0.00     0.108 C 
HETATM   11  C30 UNL     1       6.881   7.972  11.729  1.00  0.00     0.209 C 
HETATM   12  O8  UNL     1       6.261   8.034  10.442  1.00  0.00    -0.382 OA
BRANCH   9  13
HETATM   13  O5  UNL     1       4.211   8.423  14.078  1.00  0.00    -0.392 OA
HETATM   14  H28 UNL     1       3.904   7.684  14.648  1.00  0.00     0.210 HD
ENDBRANCH   9  13
BRANCH  10  15
HETATM   15  O6  UNL     1       5.907   5.871  12.347  1.00  0.00    -0.385 OA
HETATM   16  H29 UNL     1       5.283   5.418  12.942  1.00  0.00     0.210 HD
ENDBRANCH  10  15
BRANCH  10  17
HETATM   17  C23 UNL     1       6.801   7.249  14.133  1.00  0.00     0.069 C 
BRANCH  17  18
HETATM   18  C24 UNL     1       7.775   8.388  14.282  1.00  0.00    -0.027 C 
HETATM   19  C25 UNL     1       8.958   8.283  14.907  1.00  0.00    -0.024 C 
BRANCH  19  20
HETATM   20  C26 UNL     1      10.017   9.362  14.847  1.00  0.00     0.032 C 
HETATM   21  C27 UNL     1       9.934  10.121  13.524  1.00  0.00     0.017 C 
BRANCH  20  22
HETATM   22  C28 UNL     1       9.936  10.299  16.082  1.00  0.00     0.121 C 
HETATM   23  C29 UNL     1       9.342   9.672  17.339  1.00  0.00     0.040 C 
BRANCH  22  24
HETATM   24  O7  UNL     1      11.256  10.778  16.398  1.00  0.00    -0.395 OA
HETATM   25  H42 UNL     1      11.157  11.431  17.114  1.00  0.00     0.210 HD
ENDBRANCH  22  24
ENDBRANCH  20  22
ENDBRANCH  19  20
ENDBRANCH  17  18
ENDBRANCH  10  17
ENDBRANCH   6   7
ENDBRANCH   4   6
ENDBRANCH   1   3
BRANCH   1  26
HETATM   26  O2  UNL     1      -0.479   8.975  10.363  1.00  0.00    -0.318 OA
BRANCH  26  27
HETATM   27  C5  UNL     1      -0.681   8.204  11.559  1.00  0.00     0.179 C 
BRANCH  27  28
HETATM   28  C6  UNL     1      -0.113   8.961  12.760  1.00  0.00     0.027 C 
BRANCH  28  29
HETATM   29  C7  UNL     1      -0.274   8.157  14.056  1.00  0.00     0.002 C 
BRANCH  29  30
HETATM   30  C8  UNL     1      -1.658   8.294  14.697  1.00  0.00     0.000 C 
BRANCH  30  31
HETATM   31  C9  UNL     1      -2.349   6.988  15.091  1.00  0.00     0.000 C 
BRANCH  31  32
HETATM   32  C10 UNL     1      -1.944   5.737  14.302  1.00  0.00     0.009 C 
BRANCH  32  33
HETATM   33  C11 UNL     1      -2.954   5.231  13.275  1.00  0.00     0.103 C 
BRANCH  33  34
HETATM   34  C12 UNL     1      -4.243   6.035  13.192  1.00  0.00     0.222 C 
HETATM   35  O3  UNL     1      -4.282   7.193  12.802  1.00  0.00    -0.273 OA
HETATM   36  N1  UNL     1      -5.327   5.283  13.597  1.00  0.00    -0.321 N 
HETATM   37  H19 UNL     1      -5.170   4.287  13.739  1.00  0.00     0.169 HD
BRANCH  36  38
HETATM   38  C13 UNL     1      -6.640   5.654  13.720  1.00  0.00     0.123 A 
HETATM   39  C14 UNL     1      -7.324   6.659  14.281  1.00  0.00     0.071 A 
HETATM   40  S1  UNL     1      -6.910   8.041  15.194  1.00  0.00    -0.049 SA
HETATM   41  C16 UNL     1      -8.735   6.483  14.079  1.00  0.00     0.062 A 
HETATM   42  S2  UNL     1      -8.869   8.699  15.422  1.00  0.00    -0.062 SA
HETATM   43  C15 UNL     1      -9.595   7.372  14.561  1.00  0.00     0.088 A 
HETATM   44  N2  UNL     1      -8.917   5.343  13.377  1.00  0.00    -0.320 N 
HETATM   45  C17 UNL     1      -7.698   4.766  13.109  1.00  0.00     0.274 A 
HETATM   46  H21 UNL     1      -9.797   4.955  13.067  1.00  0.00     0.169 HD
HETATM   47  O4  UNL     1      -7.474   3.737  12.494  1.00  0.00    -0.266 OA
ENDBRANCH  36  38
ENDBRANCH  33  34
ENDBRANCH  32  33
ENDBRANCH  31  32
ENDBRANCH  30  31
ENDBRANCH  29  30
ENDBRANCH  28  29
ENDBRANCH  27  28
ENDBRANCH  26  27
ENDBRANCH   1  26
TORSDOF 20
ENDMDL
MODEL 2
REMARK minimizedAffinity -7.00852108
REMARK CNNscore 0.43200326
REMARK CNNaffinity 7.854599
REMARK  20 active torsions:
REMARK  status: ('A' for Active; 'I' for Inactive)
REMARK    1  A    between atoms: C2_2  and  C18_26 
REMARK    2  A    between atoms: C3_3  and  C4_4 
REMARK    3  A    between atoms: C4_4  and  O2_6 
REMARK    4  A    between atoms: O2_6  and  C5_7 
REMARK    5  A    between atoms: C5_7  and  C6_8 
REMARK    6  A    between atoms: C6_8  and  C7_9 
REMARK    7  A    between atoms: C7_9  and  C8_10 
REMARK    8  A    between atoms: C8_10  and  C9_11 
REMARK    9  A    between atoms: C9_11  and  C10_12 
REMARK   10  A    between atoms: C10_12  and  C11_13 
REMARK   11  A    between atoms: C11_13  and  C12_14 
REMARK       I    between atoms: C12_14  and  N1_16 
REMARK   12  A    between atoms: N1_16  and  C13_17 
REMARK   13  A    between atoms: C18_26  and  C19_27 
REMARK   14  A    between atoms: C21_29  and  O5_30 
REMARK   15  A    between atoms: C22_31  and  O6_32 
REMARK   16  A    between atoms: C22_31  and  C23_33 
REMARK   17  A    between atoms: C23_33  and  C24_34 
REMARK   18  A    between atoms: C25_35  and  C26_36 
REMARK   19  A    between atoms: C26_36  and  C28_38 
REMARK   20  A    between atoms: C28_38  and  O7_40 
ROOT
HETATM    1  C4  UNL     1      -6.269   7.705  15.111  1.00  0.00     0.283 C 
HETATM    2  O1  UNL     1      -6.715   8.369  14.192  1.00  0.00    -0.260 OA
ENDROOT
BRANCH   1   3
HETATM    3  C3  UNL     1      -4.906   7.124  15.187  1.00  0.00     0.084 C 
HETATM    4  C2  UNL     1      -3.754   7.826  15.231  1.00  0.00    -0.076 C 
HETATM    5  C1  UNL     1      -3.688   9.335  15.263  1.00  0.00     0.043 C 
BRANCH   4   6
HETATM    6  C18 UNL     1      -2.372   7.181  15.293  1.00  0.00     0.066 C 
BRANCH   6   7
HETATM    7  C19 UNL     1      -1.574   6.967  13.984  1.00  0.00     0.128 C 
HETATM    8  C20 UNL     1      -0.957   8.277  13.488  1.00  0.00     0.067 C 
HETATM    9  C21 UNL     1       0.208   8.736  14.367  1.00  0.00     0.157 C 
HETATM   10  C22 UNL     1       1.218   7.578  14.642  1.00  0.00     0.108 C 
HETATM   11  C30 UNL     1       0.756   6.293  13.917  1.00  0.00     0.209 C 
HETATM   12  O8  UNL     1      -0.602   5.942  14.199  1.00  0.00    -0.382 OA
BRANCH   9  13
HETATM   13  O5  UNL     1       0.775   9.872  13.715  1.00  0.00    -0.392 OA
HETATM   14  H28 UNL     1       1.212  10.418  14.405  1.00  0.00     0.210 HD
ENDBRANCH   9  13
BRANCH  10  15
HETATM   15  O6  UNL     1       1.184   7.278  16.060  1.00  0.00    -0.385 OA
HETATM   16  H29 UNL     1       1.370   8.104  16.542  1.00  0.00     0.210 HD
ENDBRANCH  10  15
BRANCH  10  17
HETATM   17  C23 UNL     1       2.700   7.847  14.253  1.00  0.00     0.069 C 
BRANCH  17  18
HETATM   18  C24 UNL     1       3.077   7.364  12.877  1.00  0.00    -0.027 C 
HETATM   19  C25 UNL     1       3.525   8.168  11.899  1.00  0.00    -0.024 C 
BRANCH  19  20
HETATM   20  C26 UNL     1       4.114   7.641  10.609  1.00  0.00     0.032 C 
HETATM   21  C27 UNL     1       5.638   7.734  10.639  1.00  0.00     0.017 C 
BRANCH  20  22
HETATM   22  C28 UNL     1       3.607   6.207  10.302  1.00  0.00     0.121 C 
HETATM   23  C29 UNL     1       2.827   6.057   8.999  1.00  0.00     0.040 C 
BRANCH  22  24
HETATM   24  O7  UNL     1       4.729   5.307  10.263  1.00  0.00    -0.395 OA
HETATM   25  H42 UNL     1       4.368   4.408  10.160  1.00  0.00     0.210 HD
ENDBRANCH  22  24
ENDBRANCH  20  22
ENDBRANCH  19  20
ENDBRANCH  17  18
ENDBRANCH  10  17
ENDBRANCH   6   7
ENDBRANCH   4   6
ENDBRANCH   1   3
BRANCH   1  26
HETATM   26  O2  UNL     1      -6.922   7.371  16.254  1.00  0.00    -0.318 OA
BRANCH  26  27
HETATM   27  C5  UNL     1      -8.341   7.597  16.238  1.00  0.00     0.179 C 
BRANCH  27  28
HETATM   28  C6  UNL     1      -8.624   9.076  15.970  1.00  0.00     0.027 C 
BRANCH  28  29
HETATM   29  C7  UNL     1      -9.871   9.259  15.096  1.00  0.00     0.002 C 
BRANCH  29  30
HETATM   30  C8  UNL     1     -10.930   8.173  15.300  1.00  0.00     0.000 C 
BRANCH  30  31
HETATM   31  C9  UNL     1     -11.467   7.510  14.030  1.00  0.00     0.000 C 
BRANCH  31  32
HETATM   32  C10 UNL     1     -10.420   6.963  13.053  1.00  0.00     0.009 C 
BRANCH  32  33
HETATM   33  C11 UNL     1      -9.327   6.084  13.658  1.00  0.00     0.103 C 
BRANCH  33  34
HETATM   34  C12 UNL     1      -8.441   5.374  12.645  1.00  0.00     0.222 C 
HETATM   35  O3  UNL     1      -8.530   5.554  11.439  1.00  0.00    -0.273 OA
HETATM   36  N1  UNL     1      -7.542   4.534  13.271  1.00  0.00    -0.321 N 
HETATM   37  H19 UNL     1      -7.471   4.607  14.284  1.00  0.00     0.169 HD
BRANCH  36  38
HETATM   38  C13 UNL     1      -6.621   3.685  12.717  1.00  0.00     0.123 A 
HETATM   39  C14 UNL     1      -5.329   3.736  12.369  1.00  0.00     0.071 A 
HETATM   40  S1  UNL     1      -4.113   4.935  12.407  1.00  0.00    -0.049 SA
HETATM   41  C16 UNL     1      -4.910   2.485  11.802  1.00  0.00     0.062 A 
HETATM   42  S2  UNL     1      -2.638   3.721  11.588  1.00  0.00    -0.062 SA
HETATM   43  C15 UNL     1      -3.659   2.325  11.388  1.00  0.00     0.088 A 
HETATM   44  N2  UNL     1      -5.971   1.649  11.805  1.00  0.00    -0.320 N 
HETATM   45  C17 UNL     1      -7.062   2.289  12.345  1.00  0.00     0.274 A 
HETATM   46  H21 UNL     1      -5.990   0.691  11.482  1.00  0.00     0.169 HD
HETATM   47  O4  UNL     1      -8.185   1.846  12.513  1.00  0.00    -0.266 OA
ENDBRANCH  36  38
ENDBRANCH  33  34
ENDBRANCH  32  33
ENDBRANCH  31  32
ENDBRANCH  30  31
ENDBRANCH  29  30
ENDBRANCH  28  29
ENDBRANCH  27  28
ENDBRANCH  26  27
ENDBRANCH   1  26
TORSDOF 20
ENDMDL
MODEL 3
REMARK minimizedAffinity -7.17685366
REMARK CNNscore 0.386294812
REMARK CNNaffinity 6.71643066
REMARK  20 active torsions:
REMARK  status: ('A' for Active; 'I' for Inactive)
REMARK    1  A    between atoms: C2_2  and  C18_26 
REMARK    2  A    between atoms: C3_3  and  C4_4 
REMARK    3  A    between atoms: C4_4  and  O2_6 
REMARK    4  A    between atoms: O2_6  and  C5_7 
REMARK    5  A    between atoms: C5_7  and  C6_8 
REMARK    6  A    between atoms: C6_8  and  C7_9 
REMARK    7  A    between atoms: C7_9  and  C8_10 
REMARK    8  A    between atoms: C8_10  and  C9_11 
REMARK    9  A    between atoms: C9_11  and  C10_12 
REMARK   10  A    between atoms: C10_12  and  C11_13 
REMARK   11  A    between atoms: C11_13  and  C12_14 
REMARK       I    between atoms: C12_14  and  N1_16 
REMARK   12  A    between atoms: N1_16  and  C13_17 
REMARK   13  A    between atoms: C18_26  and  C19_27 
REMARK   14  A    between atoms: C21_29  and  O5_30 
REMARK   15  A    between atoms: C22_31  and  O6_32 
REMARK   16  A    between atoms: C22_31  and  C23_33 
REMARK   17  A    between atoms: C23_33  and  C24_34 
REMARK   18  A    between atoms: C25_35  and  C26_36 
REMARK   19  A    between atoms: C26_36  and  C28_38 
REMARK   20  A    between atoms: C28_38  and  O7_40 
ROOT
HETATM    1  C4  UNL     1      -7.026   4.788  13.247  1.00  0.00     0.283 C 
HETATM    2  O1  UNL     1      -7.775   5.116  12.344  1.00  0.00    -0.260 OA
ENDROOT
BRANCH   1   3
HETATM    3  C3  UNL     1      -5.546   4.884  13.231  1.00  0.00     0.084 C 
HETATM    4  C2  UNL     1      -4.832   6.029  13.279  1.00  0.00    -0.076 C 
HETATM    5  C1  UNL     1      -5.449   7.401  13.412  1.00  0.00     0.043 C 
BRANCH   4   6
HETATM    6  C18 UNL     1      -3.306   6.077  13.244  1.00  0.00     0.066 C 
BRANCH   6   7
HETATM    7  C19 UNL     1      -2.570   7.281  13.878  1.00  0.00     0.128 C 
HETATM    8  C20 UNL     1      -1.304   6.836  14.614  1.00  0.00     0.067 C 
HETATM    9  C21 UNL     1      -0.198   6.402  13.649  1.00  0.00     0.157 C 
HETATM   10  C22 UNL     1       0.019   7.444  12.508  1.00  0.00     0.108 C 
HETATM   11  C30 UNL     1      -0.941   8.641  12.699  1.00  0.00     0.209 C 
HETATM   12  O8  UNL     1      -2.307   8.249  12.858  1.00  0.00    -0.382 OA
BRANCH   9  13
HETATM   13  O5  UNL     1       0.956   6.155  14.452  1.00  0.00    -0.392 OA
HETATM   14  H28 UNL     1       1.517   5.509  13.969  1.00  0.00     0.210 HD
ENDBRANCH   9  13
BRANCH  10  15
HETATM   15  O6  UNL     1      -0.353   6.821  11.253  1.00  0.00    -0.385 OA
HETATM   16  H29 UNL     1       0.168   6.004  11.162  1.00  0.00     0.210 HD
ENDBRANCH  10  15
BRANCH  10  17
HETATM   17  C23 UNL     1       1.462   8.002  12.348  1.00  0.00     0.069 C 
BRANCH  17  18
HETATM   18  C24 UNL     1       2.270   7.332  11.267  1.00  0.00    -0.027 C 
HETATM   19  C25 UNL     1       2.127   7.591   9.958  1.00  0.00    -0.024 C 
BRANCH  19  20
HETATM   20  C26 UNL     1       3.096   7.087   8.911  1.00  0.00     0.032 C 
HETATM   21  C27 UNL     1       3.067   5.561   8.845  1.00  0.00     0.017 C 
BRANCH  20  22
HETATM   22  C28 UNL     1       2.834   7.752   7.533  1.00  0.00     0.121 C 
HETATM   23  C29 UNL     1       1.549   7.319   6.834  1.00  0.00     0.040 C 
BRANCH  22  24
HETATM   24  O7  UNL     1       2.798   9.181   7.699  1.00  0.00    -0.395 OA
HETATM   25  H42 UNL     1       2.725   9.568   6.808  1.00  0.00     0.210 HD
ENDBRANCH  22  24
ENDBRANCH  20  22
ENDBRANCH  19  20
ENDBRANCH  17  18
ENDBRANCH  10  17
ENDBRANCH   6   7
ENDBRANCH   4   6
ENDBRANCH   1   3
BRANCH   1  26
HETATM   26  O2  UNL     1      -7.392   4.282  14.453  1.00  0.00    -0.318 OA
BRANCH  26  27
HETATM   27  C5  UNL     1      -7.452   5.235  15.526  1.00  0.00     0.179 C 
BRANCH  27  28
HETATM   28  C6  UNL     1      -8.586   6.228  15.269  1.00  0.00     0.027 C 
BRANCH  28  29
HETATM   29  C7  UNL     1      -8.349   7.553  16.005  1.00  0.00     0.002 C 
BRANCH  29  30
HETATM   30  C8  UNL     1      -8.783   8.786  15.208  1.00  0.00     0.000 C 
BRANCH  30  31
HETATM   31  C9  UNL     1     -10.235   9.228  15.389  1.00  0.00     0.000 C 
BRANCH  31  32
HETATM   32  C10 UNL     1     -10.783  10.211  14.347  1.00  0.00     0.009 C 
BRANCH  32  33
HETATM   33  C11 UNL     1     -11.831   9.658  13.384  1.00  0.00     0.103 C 
BRANCH  33  34
HETATM   34  C12 UNL     1     -12.999   8.943  14.046  1.00  0.00     0.222 C 
HETATM   35  O3  UNL     1     -13.165   8.918  15.258  1.00  0.00    -0.273 OA
HETATM   36  N1  UNL     1     -13.824   8.357  13.108  1.00  0.00    -0.321 N 
HETATM   37  H19 UNL     1     -13.655   8.596  12.132  1.00  0.00     0.169 HD
BRANCH  36  38
HETATM   38  C13 UNL     1     -14.938   7.583  13.297  1.00  0.00     0.123 A 
HETATM   39  C14 UNL     1     -15.499   6.907  14.307  1.00  0.00     0.071 A 
HETATM   40  S1  UNL     1     -15.095   6.620  15.941  1.00  0.00    -0.049 SA
HETATM   41  C16 UNL     1     -16.702   6.255  13.870  1.00  0.00     0.062 A 
HETATM   42  S2  UNL     1     -16.765   5.446  16.335  1.00  0.00    -0.062 SA
HETATM   43  C15 UNL     1     -17.414   5.526  14.722  1.00  0.00     0.088 A 
HETATM   44  N2  UNL     1     -16.880   6.539  12.561  1.00  0.00    -0.320 N 
HETATM   45  C17 UNL     1     -15.855   7.345  12.121  1.00  0.00     0.274 A 
HETATM   46  H21 UNL     1     -17.643   6.237  11.972  1.00  0.00     0.169 HD
HETATM   47  O4  UNL     1     -15.689   7.804  11.004  1.00  0.00    -0.266 OA
ENDBRANCH  36  38
ENDBRANCH  33  34
ENDBRANCH  32  33
ENDBRANCH  31  32
ENDBRANCH  30  31
ENDBRANCH  29  30
ENDBRANCH  28  29
ENDBRANCH  27  28
ENDBRANCH  26  27
ENDBRANCH   1  26
TORSDOF 20
ENDMDL
MODEL 4
REMARK minimizedAffinity -7.59496689
REMARK CNNscore 0.29134056
REMARK CNNaffinity 6.51299477
REMARK  20 active torsions:
REMARK  status: ('A' for Active; 'I' for Inactive)
REMARK    1  A    between atoms: C2_2  and  C18_26 
REMARK    2  A    between atoms: C3_3  and  C4_4 
REMARK    3  A    between atoms: C4_4  and  O2_6 
REMARK    4  A    between atoms: O2_6  and  C5_7 
REMARK    5  A    between atoms: C5_7  and  C6_8 
REMARK    6  A    between atoms: C6_8  and  C7_9 
REMARK    7  A    between atoms: C7_9  and  C8_10 
REMARK    8  A    between atoms: C8_10  and  C9_11 
REMARK    9  A    between atoms: C9_11  and  C10_12 
REMARK   10  A    between atoms: C10_12  and  C11_13 
REMARK   11  A    between atoms: C11_13  and  C12_14 
REMARK       I    between atoms: C12_14  and  N1_16 
REMARK   12  A    between atoms: N1_16  and  C13_17 
REMARK   13  A    between atoms: C18_26  and  C19_27 
REMARK   14  A    between atoms: C21_29  and  O5_30 
REMARK   15  A    between atoms: C22_31  and  O6_32 
REMARK   16  A    between atoms: C22_31  and  C23_33 
REMARK   17  A    between atoms: C23_33  and  C24_34 
REMARK   18  A    between atoms: C25_35  and  C26_36 
REMARK   19  A    between atoms: C26_36  and  C28_38 
REMARK   20  A    between atoms: C28_38  and  O7_40 
ROOT
HETATM    1  C4  UNL     1      -7.697   3.927  12.886  1.00  0.00     0.283 C 
HETATM    2  O1  UNL     1      -8.262   2.882  13.156  1.00  0.00    -0.260 OA
ENDROOT
BRANCH   1   3
HETATM    3  C3  UNL     1      -6.290   4.267  13.207  1.00  0.00     0.084 C 
HETATM    4  C2  UNL     1      -5.204   3.844  12.527  1.00  0.00    -0.076 C 
HETATM    5  C1  UNL     1      -5.270   2.989  11.284  1.00  0.00     0.043 C 
BRANCH   4   6
HETATM    6  C18 UNL     1      -3.771   4.209  12.908  1.00  0.00     0.066 C 
BRANCH   6   7
HETATM    7  C19 UNL     1      -3.493   5.559  13.612  1.00  0.00     0.128 C 
HETATM    8  C20 UNL     1      -2.295   5.457  14.559  1.00  0.00     0.067 C 
HETATM    9  C21 UNL     1      -0.970   5.343  13.802  1.00  0.00     0.157 C 
HETATM   10  C22 UNL     1      -0.848   6.417  12.676  1.00  0.00     0.108 C 
HETATM   11  C30 UNL     1      -2.108   7.315  12.668  1.00  0.00     0.209 C 
HETATM   12  O8  UNL     1      -3.330   6.573  12.617  1.00  0.00    -0.382 OA
BRANCH   9  13
HETATM   13  O5  UNL     1       0.059   5.402  14.789  1.00  0.00    -0.392 OA
HETATM   14  H28 UNL     1       0.842   4.933  14.426  1.00  0.00     0.210 HD
ENDBRANCH   9  13
BRANCH  10  15
HETATM   15  O6  UNL     1      -0.831   5.732  11.400  1.00  0.00    -0.385 OA
HETATM   16  H29 UNL     1      -0.105   5.083  11.422  1.00  0.00     0.210 HD
ENDBRANCH  10  15
BRANCH  10  17
HETATM   17  C23 UNL     1       0.403   7.340  12.734  1.00  0.00     0.069 C 
BRANCH  17  18
HETATM   18  C24 UNL     1       1.395   7.110  11.625  1.00  0.00    -0.027 C 
HETATM   19  C25 UNL     1       1.304   7.677  10.411  1.00  0.00    -0.024 C 
BRANCH  19  20
HETATM   20  C26 UNL     1       2.422   7.621   9.394  1.00  0.00     0.032 C 
HETATM   21  C27 UNL     1       2.904   6.184   9.206  1.00  0.00     0.017 C 
BRANCH  20  22
HETATM   22  C28 UNL     1       2.003   8.292   8.058  1.00  0.00     0.121 C 
HETATM   23  C29 UNL     1       1.888   7.351   6.863  1.00  0.00     0.040 C 
BRANCH  22  24
HETATM   24  O7  UNL     1       0.736   8.950   8.238  1.00  0.00    -0.395 OA
HETATM   25  H42 UNL     1       0.549   9.434   7.414  1.00  0.00     0.210 HD
ENDBRANCH  22  24
ENDBRANCH  20  22
ENDBRANCH  19  20
ENDBRANCH  17  18
ENDBRANCH  10  17
ENDBRANCH   6   7
ENDBRANCH   4   6
ENDBRANCH   1   3
BRANCH   1  26
HETATM   26  O2  UNL     1      -8.236   4.986  12.226  1.00  0.00    -0.318 OA
BRANCH  26  27
HETATM   27  C5  UNL     1      -9.102   5.821  13.011  1.00  0.00     0.179 C 
BRANCH  27  28
HETATM   28  C6  UNL     1      -8.354   6.319  14.249  1.00  0.00     0.027 C 
BRANCH  28  29
HETATM   29  C7  UNL     1      -9.320   6.875  15.302  1.00  0.00     0.002 C 
BRANCH  29  30
HETATM   30  C8  UNL     1      -9.868   8.263  14.963  1.00  0.00     0.000 C 
BRANCH  30  31
HETATM   31  C9  UNL     1     -10.778   8.902  16.013  1.00  0.00     0.000 C 
BRANCH  31  32
HETATM   32  C10 UNL     1     -12.089   9.510  15.500  1.00  0.00     0.009 C 
BRANCH  32  33
HETATM   33  C11 UNL     1     -12.756   8.785  14.333  1.00  0.00     0.103 C 
BRANCH  33  34
HETATM   34  C12 UNL     1     -13.483   9.689  13.347  1.00  0.00     0.222 C 
HETATM   35  O3  UNL     1     -12.935  10.611  12.759  1.00  0.00    -0.273 OA
HETATM   36  N1  UNL     1     -14.805   9.317  13.210  1.00  0.00    -0.321 N 
HETATM   37  H19 UNL     1     -15.082   8.434  13.634  1.00  0.00     0.169 HD
BRANCH  36  38
HETATM   38  C13 UNL     1     -15.797   9.904  12.470  1.00  0.00     0.123 A 
HETATM   39  C14 UNL     1     -16.478  11.056  12.487  1.00  0.00     0.071 A 
HETATM   40  S1  UNL     1     -16.491  12.439  13.490  1.00  0.00    -0.049 SA
HETATM   41  C16 UNL     1     -17.439  11.090  11.420  1.00  0.00     0.062 A 
HETATM   42  S2  UNL     1     -17.980  13.422  12.423  1.00  0.00    -0.062 SA
HETATM   43  C15 UNL     1     -18.223  12.149  11.260  1.00  0.00     0.088 A 
HETATM   44  N2  UNL     1     -17.342   9.930  10.734  1.00  0.00    -0.320 N 
HETATM   45  C17 UNL     1     -16.366   9.141  11.298  1.00  0.00     0.274 A 
HETATM   46  H21 UNL     1     -17.876   9.659   9.920  1.00  0.00     0.169 HD
HETATM   47  O4  UNL     1     -15.999   8.034  10.943  1.00  0.00    -0.266 OA
ENDBRANCH  36  38
ENDBRANCH  33  34
ENDBRANCH  32  33
ENDBRANCH  31  32
ENDBRANCH  30  31
ENDBRANCH  29  30
ENDBRANCH  28  29
ENDBRANCH  27  28
ENDBRANCH  26  27
ENDBRANCH   1  26
TORSDOF 20
ENDMDL
MODEL 5
REMARK minimizedAffinity -7.52837276
REMARK CNNscore 0.269287109
REMARK CNNaffinity 5.71776056
REMARK  20 active torsions:
REMARK  status: ('A' for Active; 'I' for Inactive)
REMARK    1  A    between atoms: C2_2  and  C18_26 
REMARK    2  A    between atoms: C3_3  and  C4_4 
REMARK    3  A    between atoms: C4_4  and  O2_6 
REMARK    4  A    between atoms: O2_6  and  C5_7 
REMARK    5  A    between atoms: C5_7  and  C6_8 
REMARK    6  A    between atoms: C6_8  and  C7_9 
REMARK    7  A    between atoms: C7_9  and  C8_10 
REMARK    8  A    between atoms: C8_10  and  C9_11 
REMARK    9  A    between atoms: C9_11  and  C10_12 
REMARK   10  A    between atoms: C10_12  and  C11_13 
REMARK   11  A    between atoms: C11_13  and  C12_14 
REMARK       I    between atoms: C12_14  and  N1_16 
REMARK   12  A    between atoms: N1_16  and  C13_17 
REMARK   13  A    between atoms: C18_26  and  C19_27 
REMARK   14  A    between atoms: C21_29  and  O5_30 
REMARK   15  A    between atoms: C22_31  and  O6_32 
REMARK   16  A    between atoms: C22_31  and  C23_33 
REMARK   17  A    between atoms: C23_33  and  C24_34 
REMARK   18  A    between atoms: C25_35  and  C26_36 
REMARK   19  A    between atoms: C26_36  and  C28_38 
REMARK   20  A    between atoms: C28_38  and  O7_40 
ROOT
HETATM    1  C4  UNL     1       0.099  12.824  16.623  1.00  0.00     0.283 C 
HETATM    2  O1  UNL     1       0.114  14.005  16.322  1.00  0.00    -0.260 OA
ENDROOT
BRANCH   1   3
HETATM    3  C3  UNL     1      -0.301  11.703  15.738  1.00  0.00     0.084 C 
HETATM    4  C2  UNL     1      -1.488  11.062  15.770  1.00  0.00    -0.076 C 
HETATM    5  C1  UNL     1      -2.622  11.435  16.696  1.00  0.00     0.043 C 
BRANCH   4   6
HETATM    6  C18 UNL     1      -1.848   9.900  14.847  1.00  0.00     0.066 C 
BRANCH   6   7
HETATM    7  C19 UNL     1      -1.078   8.564  14.972  1.00  0.00     0.128 C 
HETATM    8  C20 UNL     1      -1.757   7.621  15.969  1.00  0.00     0.067 C 
HETATM    9  C21 UNL     1      -3.069   7.053  15.425  1.00  0.00     0.157 C 
HETATM   10  C22 UNL     1      -2.903   6.494  13.976  1.00  0.00     0.108 C 
HETATM   11  C30 UNL     1      -1.436   6.656  13.515  1.00  0.00     0.209 C 
HETATM   12  O8  UNL     1      -0.939   7.988  13.671  1.00  0.00    -0.382 OA
BRANCH   9  13
HETATM   13  O5  UNL     1      -3.514   6.092  16.381  1.00  0.00    -0.392 OA
HETATM   14  H28 UNL     1      -4.490   6.024  16.296  1.00  0.00     0.210 HD
ENDBRANCH   9  13
BRANCH  10  15
HETATM   15  O6  UNL     1      -3.702   7.312  13.085  1.00  0.00    -0.385 OA
HETATM   16  H29 UNL     1      -4.616   7.310  13.419  1.00  0.00     0.210 HD
ENDBRANCH  10  15
BRANCH  10  17
HETATM   17  C23 UNL     1      -3.319   5.012  13.757  1.00  0.00     0.069 C 
BRANCH  17  18
HETATM   18  C24 UNL     1      -4.738   4.829  13.286  1.00  0.00    -0.027 C 
HETATM   19  C25 UNL     1      -5.111   3.916  12.375  1.00  0.00    -0.024 C 
BRANCH  19  20
HETATM   20  C26 UNL     1      -6.560   3.590  12.086  1.00  0.00     0.032 C 
HETATM   21  C27 UNL     1      -6.801   2.085  12.187  1.00  0.00     0.017 C 
BRANCH  20  22
HETATM   22  C28 UNL     1      -7.515   4.413  12.992  1.00  0.00     0.121 C 
HETATM   23  C29 UNL     1      -8.206   5.590  12.312  1.00  0.00     0.040 C 
BRANCH  22  24
HETATM   24  O7  UNL     1      -8.528   3.541  13.525  1.00  0.00    -0.395 OA
HETATM   25  H42 UNL     1      -9.050   4.067  14.157  1.00  0.00     0.210 HD
ENDBRANCH  22  24
ENDBRANCH  20  22
ENDBRANCH  19  20
ENDBRANCH  17  18
ENDBRANCH  10  17
ENDBRANCH   6   7
ENDBRANCH   4   6
ENDBRANCH   1   3
BRANCH   1  26
HETATM   26  O2  UNL     1       0.457  12.294  17.821  1.00  0.00    -0.318 OA
BRANCH  26  27
HETATM   27  C5  UNL     1       0.291  13.165  18.951  1.00  0.00     0.179 C 
BRANCH  27  28
HETATM   28  C6  UNL     1       0.762  12.455  20.222  1.00  0.00     0.027 C 
BRANCH  28  29
HETATM   29  C7  UNL     1       0.784  10.933  20.038  1.00  0.00     0.002 C 
BRANCH  29  30
HETATM   30  C8  UNL     1       2.112  10.284  20.436  1.00  0.00     0.000 C 
BRANCH  30  31
HETATM   31  C9  UNL     1       2.195   9.742  21.863  1.00  0.00     0.000 C 
BRANCH  31  32
HETATM   32  C10 UNL     1       3.585   9.314  22.350  1.00  0.00     0.009 C 
BRANCH  32  33
HETATM   33  C11 UNL     1       4.344  10.330  23.200  1.00  0.00     0.103 C 
BRANCH  33  34
HETATM   34  C12 UNL     1       5.303  11.225  22.429  1.00  0.00     0.222 C 
HETATM   35  O3  UNL     1       5.306  11.303  21.209  1.00  0.00    -0.273 OA
HETATM   36  N1  UNL     1       6.133  11.922  23.284  1.00  0.00    -0.321 N 
HETATM   37  H19 UNL     1       5.909  11.883  24.277  1.00  0.00     0.169 HD
BRANCH  36  38
HETATM   38  C13 UNL     1       7.159  12.779  22.987  1.00  0.00     0.123 A 
HETATM   39  C14 UNL     1       7.289  14.062  22.629  1.00  0.00     0.071 A 
HETATM   40  S1  UNL     1       6.207  15.346  22.318  1.00  0.00    -0.049 SA
HETATM   41  C16 UNL     1       8.674  14.394  22.437  1.00  0.00     0.062 A 
HETATM   42  S2  UNL     1       7.693  16.728  21.866  1.00  0.00    -0.062 SA
HETATM   43  C15 UNL     1       9.022  15.623  22.076  1.00  0.00     0.088 A 
HETATM   44  N2  UNL     1       9.407  13.286  22.684  1.00  0.00    -0.320 N 
HETATM   45  C17 UNL     1       8.572  12.248  23.028  1.00  0.00     0.274 A 
HETATM   46  H21 UNL     1      10.413  13.203  22.645  1.00  0.00     0.169 HD
HETATM   47  O4  UNL     1       8.879  11.105  23.322  1.00  0.00    -0.266 OA
ENDBRANCH  36  38
ENDBRANCH  33  34
ENDBRANCH  32  33
ENDBRANCH  31  32
ENDBRANCH  30  31
ENDBRANCH  29  30
ENDBRANCH  28  29
ENDBRANCH  27  28
ENDBRANCH  26  27
ENDBRANCH   1  26
TORSDOF 20
ENDMDL
MODEL 6
REMARK minimizedAffinity -7.22995186
REMARK CNNscore 0.266467005
REMARK CNNaffinity 5.71444178
REMARK  20 active torsions:
REMARK  status: ('A' for Active; 'I' for Inactive)
REMARK    1  A    between atoms: C2_2  and  C18_26 
REMARK    2  A    between atoms: C3_3  and  C4_4 
REMARK    3  A    between atoms: C4_4  and  O2_6 
REMARK    4  A    between atoms: O2_6  and  C5_7 
REMARK    5  A    between atoms: C5_7  and  C6_8 
REMARK    6  A    between atoms: C6_8  and  C7_9 
REMARK    7  A    between atoms: C7_9  and  C8_10 
REMARK    8  A    between atoms: C8_10  and  C9_11 
REMARK    9  A    between atoms: C9_11  and  C10_12 
REMARK   10  A    between atoms: C10_12  and  C11_13 
REMARK   11  A    between atoms: C11_13  and  C12_14 
REMARK       I    between atoms: C12_14  and  N1_16 
REMARK   12  A    between atoms: N1_16  and  C13_17 
REMARK   13  A    between atoms: C18_26  and  C19_27 
REMARK   14  A    between atoms: C21_29  and  O5_30 
REMARK   15  A    between atoms: C22_31  and  O6_32 
REMARK   16  A    between atoms: C22_31  and  C23_33 
REMARK   17  A    between atoms: C23_33  and  C24_34 
REMARK   18  A    between atoms: C25_35  and  C26_36 
REMARK   19  A    between atoms: C26_36  and  C28_38 
REMARK   20  A    between atoms: C28_38  and  O7_40 
ROOT
HETATM    1  C4  UNL     1       0.965  10.998  18.206  1.00  0.00     0.283 C 
HETATM    2  O1  UNL     1       1.079  12.194  18.004  1.00  0.00    -0.260 OA
ENDROOT
BRANCH   1   3
HETATM    3  C3  UNL     1       0.547   9.982  17.211  1.00  0.00     0.084 C 
HETATM    4  C2  UNL     1      -0.727   9.653  16.910  1.00  0.00    -0.076 C 
HETATM    5  C1  UNL     1      -1.935  10.325  17.519  1.00  0.00     0.043 C 
BRANCH   4   6
HETATM    6  C18 UNL     1      -1.108   8.586  15.887  1.00  0.00     0.066 C 
BRANCH   6   7
HETATM    7  C19 UNL     1      -0.001   7.933  15.024  1.00  0.00     0.128 C 
HETATM    8  C20 UNL     1      -0.576   6.850  14.108  1.00  0.00     0.067 C 
HETATM    9  C21 UNL     1      -1.407   7.441  12.966  1.00  0.00     0.157 C 
HETATM   10  C22 UNL     1      -0.657   8.604  12.244  1.00  0.00     0.108 C 
HETATM   11  C30 UNL     1       0.736   8.809  12.884  1.00  0.00     0.209 C 
HETATM   12  O8  UNL     1       0.688   8.959  14.305  1.00  0.00    -0.382 OA
BRANCH   9  13
HETATM   13  O5  UNL     1      -1.754   6.346  12.119  1.00  0.00    -0.392 OA
HETATM   14  H28 UNL     1      -2.583   6.589  11.651  1.00  0.00     0.210 HD
ENDBRANCH   9  13
BRANCH  10  15
HETATM   15  O6  UNL     1      -1.396   9.829  12.479  1.00  0.00    -0.385 OA
HETATM   16  H29 UNL     1      -2.311   9.686  12.178  1.00  0.00     0.210 HD
ENDBRANCH  10  15
BRANCH  10  17
HETATM   17  C23 UNL     1      -0.467   8.455  10.708  1.00  0.00     0.069 C 
BRANCH  17  18
HETATM   18  C24 UNL     1       0.952   8.182  10.282  1.00  0.00    -0.027 C 
HETATM   19  C25 UNL     1       1.315   7.139   9.518  1.00  0.00    -0.024 C 
BRANCH  19  20
HETATM   20  C26 UNL     1       2.695   7.008   8.912  1.00  0.00     0.032 C 
HETATM   21  C27 UNL     1       3.181   5.563   8.993  1.00  0.00     0.017 C 
BRANCH  20  22
HETATM   22  C28 UNL     1       2.731   7.572   7.466  1.00  0.00     0.121 C 
HETATM   23  C29 UNL     1       1.489   7.291   6.625  1.00  0.00     0.040 C 
BRANCH  22  24
HETATM   24  O7  UNL     1       2.926   8.997   7.520  1.00  0.00    -0.395 OA
HETATM   25  H42 UNL     1       3.035   9.303   6.601  1.00  0.00     0.210 HD
ENDBRANCH  22  24
ENDBRANCH  20  22
ENDBRANCH  19  20
ENDBRANCH  17  18
ENDBRANCH  10  17
ENDBRANCH   6   7
ENDBRANCH   4   6
ENDBRANCH   1   3
BRANCH   1  26
HETATM   26  O2  UNL     1       1.209  10.353  19.376  1.00  0.00    -0.318 OA
BRANCH  26  27
HETATM   27  C5  UNL     1       2.411  10.747  20.056  1.00  0.00     0.179 C 
BRANCH  27  28
HETATM   28  C6  UNL     1       2.708   9.763  21.189  1.00  0.00     0.027 C 
BRANCH  28  29
HETATM   29  C7  UNL     1       3.771  10.315  22.147  1.00  0.00     0.002 C 
BRANCH  29  30
HETATM   30  C8  UNL     1       3.188  11.044  23.359  1.00  0.00     0.000 C 
BRANCH  30  31
HETATM   31  C9  UNL     1       3.321  12.568  23.356  1.00  0.00     0.000 C 
BRANCH  31  32
HETATM   32  C10 UNL     1       4.379  13.157  22.416  1.00  0.00     0.009 C 
BRANCH  32  33
HETATM   33  C11 UNL     1       5.762  13.392  23.019  1.00  0.00     0.103 C 
BRANCH  33  34
HETATM   34  C12 UNL     1       6.866  12.510  22.455  1.00  0.00     0.222 C 
HETATM   35  O3  UNL     1       7.658  11.901  23.160  1.00  0.00    -0.273 OA
HETATM   36  N1  UNL     1       6.834  12.491  21.075  1.00  0.00    -0.321 N 
HETATM   37  H19 UNL     1       6.023  12.912  20.627  1.00  0.00     0.169 HD
BRANCH  36  38
HETATM   38  C13 UNL     1       7.683  11.869  20.198  1.00  0.00     0.123 A 
HETATM   39  C14 UNL     1       9.006  11.779  20.016  1.00  0.00     0.071 A 
HETATM   40  S1  UNL     1      10.381  12.434  20.789  1.00  0.00    -0.049 SA
HETATM   41  C16 UNL     1       9.303  10.960  18.874  1.00  0.00     0.062 A 
HETATM   42  S2  UNL     1      11.753  11.520  19.522  1.00  0.00    -0.062 SA
HETATM   43  C15 UNL     1      10.563  10.743  18.516  1.00  0.00     0.088 A 
HETATM   44  N2  UNL     1       8.132  10.540  18.346  1.00  0.00    -0.320 N 
HETATM   45  C17 UNL     1       7.086  11.041  19.085  1.00  0.00     0.274 A 
HETATM   46  H21 UNL     1       8.010   9.938  17.543  1.00  0.00     0.169 HD
HETATM   47  O4  UNL     1       5.893  10.868  18.909  1.00  0.00    -0.266 OA
ENDBRANCH  36  38
ENDBRANCH  33  34
ENDBRANCH  32  33
ENDBRANCH  31  32
ENDBRANCH  30  31
ENDBRANCH  29  30
ENDBRANCH  28  29
ENDBRANCH  27  28
ENDBRANCH  26  27
ENDBRANCH   1  26
TORSDOF 20
ENDMDL
MODEL 7
REMARK minimizedAffinity -7.42071724
REMARK CNNscore 0.254153848
REMARK CNNaffinity 6.17566156
REMARK  20 active torsions:
REMARK  status: ('A' for Active; 'I' for Inactive)
REMARK    1  A    between atoms: C2_2  and  C18_26 
REMARK    2  A    between atoms: C3_3  and  C4_4 
REMARK    3  A    between atoms: C4_4  and  O2_6 
REMARK    4  A    between atoms: O2_6  and  C5_7 
REMARK    5  A    between atoms: C5_7  and  C6_8 
REMARK    6  A    between atoms: C6_8  and  C7_9 
REMARK    7  A    between atoms: C7_9  and  C8_10 
REMARK    8  A    between atoms: C8_10  and  C9_11 
REMARK    9  A    between atoms: C9_11  and  C10_12 
REMARK   10  A    between atoms: C10_12  and  C11_13 
REMARK   11  A    between atoms: C11_13  and  C12_14 
REMARK       I    between atoms: C12_14  and  N1_16 
REMARK   12  A    between atoms: N1_16  and  C13_17 
REMARK   13  A    between atoms: C18_26  and  C19_27 
REMARK   14  A    between atoms: C21_29  and  O5_30 
REMARK   15  A    between atoms: C22_31  and  O6_32 
REMARK   16  A    between atoms: C22_31  and  C23_33 
REMARK   17  A    between atoms: C23_33  and  C24_34 
REMARK   18  A    between atoms: C25_35  and  C26_36 
REMARK   19  A    between atoms: C26_36  and  C28_38 
REMARK   20  A    between atoms: C28_38  and  O7_40 
ROOT
HETATM    1  C4  UNL     1      -0.156   8.638  10.042  1.00  0.00     0.283 C 
HETATM    2  O1  UNL     1      -0.647   8.980   8.981  1.00  0.00    -0.260 OA
ENDROOT
BRANCH   1   3
HETATM    3  C3  UNL     1      -0.808   8.716  11.371  1.00  0.00     0.084 C 
HETATM    4  C2  UNL     1      -1.127   7.664  12.154  1.00  0.00    -0.076 C 
HETATM    5  C1  UNL     1      -0.811   6.229  11.805  1.00  0.00     0.043 C 
BRANCH   4   6
HETATM    6  C18 UNL     1      -1.814   7.796  13.511  1.00  0.00     0.066 C 
BRANCH   6   7
HETATM    7  C19 UNL     1      -3.251   8.365  13.582  1.00  0.00     0.128 C 
HETATM    8  C20 UNL     1      -4.272   7.373  13.021  1.00  0.00     0.067 C 
HETATM    9  C21 UNL     1      -4.480   6.172  13.946  1.00  0.00     0.157 C 
HETATM   10  C22 UNL     1      -4.714   6.613  15.425  1.00  0.00     0.108 C 
HETATM   11  C30 UNL     1      -4.692   8.156  15.524  1.00  0.00     0.209 C 
HETATM   12  O8  UNL     1      -3.530   8.744  14.933  1.00  0.00    -0.382 OA
BRANCH   9  13
HETATM   13  O5  UNL     1      -5.548   5.414  13.380  1.00  0.00    -0.392 OA
HETATM   14  H28 UNL     1      -5.435   4.483  13.674  1.00  0.00     0.210 HD
ENDBRANCH   9  13
BRANCH  10  15
HETATM   15  O6  UNL     1      -3.596   6.140  16.217  1.00  0.00    -0.385 OA
HETATM   16  H29 UNL     1      -3.525   5.178  16.086  1.00  0.00     0.210 HD
ENDBRANCH  10  15
BRANCH  10  17
HETATM   17  C23 UNL     1      -6.019   6.103  16.099  1.00  0.00     0.069 C 
BRANCH  17  18
HETATM   18  C24 UNL     1      -7.212   7.001  15.900  1.00  0.00    -0.027 C 
HETATM   19  C25 UNL     1      -8.364   6.601  15.339  1.00  0.00    -0.024 C 
BRANCH  19  20
HETATM   20  C26 UNL     1      -9.621   7.442  15.356  1.00  0.00     0.032 C 
HETATM   21  C27 UNL     1      -9.271   8.927  15.424  1.00  0.00     0.017 C 
BRANCH  20  22
HETATM   22  C28 UNL     1     -10.546   7.098  14.159  1.00  0.00     0.121 C 
HETATM   23  C29 UNL     1     -11.290   8.281  13.548  1.00  0.00     0.040 C 
BRANCH  22  24
HETATM   24  O7  UNL     1      -9.766   6.471  13.124  1.00  0.00    -0.395 OA
HETATM   25  H42 UNL     1     -10.390   6.187  12.432  1.00  0.00     0.210 HD
ENDBRANCH  22  24
ENDBRANCH  20  22
ENDBRANCH  19  20
ENDBRANCH  17  18
ENDBRANCH  10  17
ENDBRANCH   6   7
ENDBRANCH   4   6
ENDBRANCH   1   3
BRANCH   1  26
HETATM   26  O2  UNL     1       1.081   8.105  10.221  1.00  0.00    -0.318 OA
BRANCH  26  27
HETATM   27  C5  UNL     1       1.759   7.711   9.018  1.00  0.00     0.179 C 
BRANCH  27  28
HETATM   28  C6  UNL     1       3.135   7.139   9.367  1.00  0.00     0.027 C 
BRANCH  28  29
HETATM   29  C7  UNL     1       4.164   8.253   9.591  1.00  0.00     0.002 C 
BRANCH  29  30
HETATM   30  C8  UNL     1       5.014   8.063  10.850  1.00  0.00     0.000 C 
BRANCH  30  31
HETATM   31  C9  UNL     1       5.714   6.711  10.992  1.00  0.00     0.000 C 
BRANCH  31  32
HETATM   32  C10 UNL     1       6.605   6.531  12.226  1.00  0.00     0.009 C 
BRANCH  32  33
HETATM   33  C11 UNL     1       6.486   7.604  13.306  1.00  0.00     0.103 C 
BRANCH  33  34
HETATM   34  C12 UNL     1       7.809   8.189  13.779  1.00  0.00     0.222 C 
HETATM   35  O3  UNL     1       8.872   7.977  13.213  1.00  0.00    -0.273 OA
HETATM   36  N1  UNL     1       7.634   8.978  14.899  1.00  0.00    -0.321 N 
HETATM   37  H19 UNL     1       6.676   9.196  15.163  1.00  0.00     0.169 HD
BRANCH  36  38
HETATM   38  C13 UNL     1       8.573   9.630  15.653  1.00  0.00     0.123 A 
HETATM   39  C14 UNL     1       9.105  10.858  15.705  1.00  0.00     0.071 A 
HETATM   40  S1  UNL     1       8.908  12.300  14.811  1.00  0.00    -0.049 SA
HETATM   41  C16 UNL     1      10.094  10.935  16.743  1.00  0.00     0.062 A 
HETATM   42  S2  UNL     1      10.303  13.383  15.908  1.00  0.00    -0.062 SA
HETATM   43  C15 UNL     1      10.747  12.070  16.962  1.00  0.00     0.088 A 
HETATM   44  N2  UNL     1      10.168   9.725  17.340  1.00  0.00    -0.320 N 
HETATM   45  C17 UNL     1       9.277   8.862  16.746  1.00  0.00     0.274 A 
HETATM   46  H21 UNL     1      10.763   9.465  18.115  1.00  0.00     0.169 HD
HETATM   47  O4  UNL     1       9.065   7.694  17.024  1.00  0.00    -0.266 OA
ENDBRANCH  36  38
ENDBRANCH  33  34
ENDBRANCH  32  33
ENDBRANCH  31  32
ENDBRANCH  30  31
ENDBRANCH  29  30
ENDBRANCH  28  29
ENDBRANCH  27  28
ENDBRANCH  26  27
ENDBRANCH   1  26
TORSDOF 20
ENDMDL
MODEL 8
REMARK minimizedAffinity -7.65016937
REMARK CNNscore 0.251780808
REMARK CNNaffinity 6.50965357
REMARK  20 active torsions:
REMARK  status: ('A' for Active; 'I' for Inactive)
REMARK    1  A    between atoms: C2_2  and  C18_26 
REMARK    2  A    between atoms: C3_3  and  C4_4 
REMARK    3  A    between atoms: C4_4  and  O2_6 
REMARK    4  A    between atoms: O2_6  and  C5_7 
REMARK    5  A    between atoms: C5_7  and  C6_8 
REMARK    6  A    between atoms: C6_8  and  C7_9 
REMARK    7  A    between atoms: C7_9  and  C8_10 
REMARK    8  A    between atoms: C8_10  and  C9_11 
REMARK    9  A    between atoms: C9_11  and  C10_12 
REMARK   10  A    between atoms: C10_12  and  C11_13 
REMARK   11  A    between atoms: C11_13  and  C12_14 
REMARK       I    between atoms: C12_14  and  N1_16 
REMARK   12  A    between atoms: N1_16  and  C13_17 
REMARK   13  A    between atoms: C18_26  and  C19_27 
REMARK   14  A    between atoms: C21_29  and  O5_30 
REMARK   15  A    between atoms: C22_31  and  O6_32 
REMARK   16  A    between atoms: C22_31  and  C23_33 
REMARK   17  A    between atoms: C23_33  and  C24_34 
REMARK   18  A    between atoms: C25_35  and  C26_36 
REMARK   19  A    between atoms: C26_36  and  C28_38 
REMARK   20  A    between atoms: C28_38  and  O7_40 
ROOT
HETATM    1  C4  UNL     1       3.938   6.865  10.694  1.00  0.00     0.283 C 
HETATM    2  O1  UNL     1       4.101   7.369   9.597  1.00  0.00    -0.260 OA
ENDROOT
BRANCH   1   3
HETATM    3  C3  UNL     1       4.548   7.325  11.965  1.00  0.00     0.084 C 
HETATM    4  C2  UNL     1       5.836   7.150  12.328  1.00  0.00    -0.076 C 
HETATM    5  C1  UNL     1       6.875   6.493  11.450  1.00  0.00     0.043 C 
BRANCH   4   6
HETATM    6  C18 UNL     1       6.414   7.628  13.657  1.00  0.00     0.066 C 
BRANCH   6   7
HETATM    7  C19 UNL     1       7.940   7.858  13.783  1.00  0.00     0.128 C 
HETATM    8  C20 UNL     1       8.281   9.350  13.769  1.00  0.00     0.067 C 
HETATM    9  C21 UNL     1       7.859  10.051  15.063  1.00  0.00     0.157 C 
HETATM   10  C22 UNL     1       8.327   9.265  16.328  1.00  0.00     0.108 C 
HETATM   11  C30 UNL     1       9.113   8.003  15.903  1.00  0.00     0.209 C 
HETATM   12  O8  UNL     1       8.410   7.192  14.957  1.00  0.00    -0.382 OA
BRANCH   9  13
HETATM   13  O5  UNL     1       8.362  11.384  14.975  1.00  0.00    -0.392 OA
HETATM   14  H28 UNL     1       7.790  11.951  15.538  1.00  0.00     0.210 HD
ENDBRANCH   9  13
BRANCH  10  15
HETATM   15  O6  UNL     1       7.148   8.793  17.026  1.00  0.00    -0.385 OA
HETATM   16  H29 UNL     1       6.584   9.565  17.212  1.00  0.00     0.210 HD
ENDBRANCH  10  15
BRANCH  10  17
HETATM   17  C23 UNL     1       9.195  10.055  17.349  1.00  0.00     0.069 C 
BRANCH  17  18
HETATM   18  C24 UNL     1       8.404  10.904  18.309  1.00  0.00    -0.027 C 
HETATM   19  C25 UNL     1       8.900  11.395  19.456  1.00  0.00    -0.024 C 
BRANCH  19  20
HETATM   20  C26 UNL     1       8.174  12.428  20.289  1.00  0.00     0.032 C 
HETATM   21  C27 UNL     1       6.714  12.027  20.486  1.00  0.00     0.017 C 
BRANCH  20  22
HETATM   22  C28 UNL     1       8.911  12.691  21.630  1.00  0.00     0.121 C 
HETATM   23  C29 UNL     1       8.200  12.172  22.876  1.00  0.00     0.040 C 
BRANCH  22  24
HETATM   24  O7  UNL     1      10.219  12.094  21.575  1.00  0.00    -0.395 OA
HETATM   25  H42 UNL     1      10.684  12.354  22.390  1.00  0.00     0.210 HD
ENDBRANCH  22  24
ENDBRANCH  20  22
ENDBRANCH  19  20
ENDBRANCH  17  18
ENDBRANCH  10  17
ENDBRANCH   6   7
ENDBRANCH   4   6
ENDBRANCH   1   3
BRANCH   1  26
HETATM   26  O2  UNL     1       3.157   5.790  10.978  1.00  0.00    -0.318 OA
BRANCH  26  27
HETATM   27  C5  UNL     1       1.743   6.005  10.837  1.00  0.00     0.179 C 
BRANCH  27  28
HETATM   28  C6  UNL     1       1.076   5.960  12.213  1.00  0.00     0.027 C 
BRANCH  28  29
HETATM   29  C7  UNL     1       0.252   4.679  12.396  1.00  0.00     0.002 C 
BRANCH  29  30
HETATM   30  C8  UNL     1      -1.233   4.936  12.663  1.00  0.00     0.000 C 
BRANCH  30  31
HETATM   31  C9  UNL     1      -2.182   4.675  11.492  1.00  0.00     0.000 C 
BRANCH  31  32
HETATM   32  C10 UNL     1      -2.255   3.230  10.983  1.00  0.00     0.009 C 
BRANCH  32  33
HETATM   33  C11 UNL     1      -3.406   2.383  11.521  1.00  0.00     0.103 C 
BRANCH  33  34
HETATM   34  C12 UNL     1      -4.764   3.069  11.516  1.00  0.00     0.222 C 
HETATM   35  O3  UNL     1      -5.418   3.246  10.498  1.00  0.00    -0.273 OA
HETATM   36  N1  UNL     1      -5.143   3.437  12.791  1.00  0.00    -0.321 N 
HETATM   37  H19 UNL     1      -4.578   3.081  13.560  1.00  0.00     0.169 HD
BRANCH  36  38
HETATM   38  C13 UNL     1      -6.258   4.119  13.200  1.00  0.00     0.123 A 
HETATM   39  C14 UNL     1      -6.534   5.328  13.705  1.00  0.00     0.071 A 
HETATM   40  S1  UNL     1      -5.609   6.694  14.146  1.00  0.00    -0.049 SA
HETATM   41  C16 UNL     1      -7.943   5.460  13.955  1.00  0.00     0.062 A 
HETATM   42  S2  UNL     1      -7.240   7.819  14.776  1.00  0.00    -0.062 SA
HETATM   43  C15 UNL     1      -8.429   6.587  14.460  1.00  0.00     0.088 A 
HETATM   44  N2  UNL     1      -8.541   4.303  13.593  1.00  0.00    -0.320 N 
HETATM   45  C17 UNL     1      -7.596   3.424  13.119  1.00  0.00     0.274 A 
HETATM   46  H21 UNL     1      -9.528   4.091  13.636  1.00  0.00     0.169 HD
HETATM   47  O4  UNL     1      -7.769   2.292  12.700  1.00  0.00    -0.266 OA
ENDBRANCH  36  38
ENDBRANCH  33  34
ENDBRANCH  32  33
ENDBRANCH  31  32
ENDBRANCH  30  31
ENDBRANCH  29  30
ENDBRANCH  28  29
ENDBRANCH  27  28
ENDBRANCH  26  27
ENDBRANCH   1  26
TORSDOF 20
ENDMDL
MODEL 9
REMARK minimizedAffinity -7.0340414
REMARK CNNscore 0.223409116
REMARK CNNaffinity 6.46991348
REMARK  20 active torsions:
REMARK  status: ('A' for Active; 'I' for Inactive)
REMARK    1  A    between atoms: C2_2  and  C18_26 
REMARK    2  A    between atoms: C3_3  and  C4_4 
REMARK    3  A    between atoms: C4_4  and  O2_6 
REMARK    4  A    between atoms: O2_6  and  C5_7 
REMARK    5  A    between atoms: C5_7  and  C6_8 
REMARK    6  A    between atoms: C6_8  and  C7_9 
REMARK    7  A    between atoms: C7_9  and  C8_10 
REMARK    8  A    between atoms: C8_10  and  C9_11 
REMARK    9  A    between atoms: C9_11  and  C10_12 
REMARK   10  A    between atoms: C10_12  and  C11_13 
REMARK   11  A    between atoms: C11_13  and  C12_14 
REMARK       I    between atoms: C12_14  and  N1_16 
REMARK   12  A    between atoms: N1_16  and  C13_17 
REMARK   13  A    between atoms: C18_26  and  C19_27 
REMARK   14  A    between atoms: C21_29  and  O5_30 
REMARK   15  A    between atoms: C22_31  and  O6_32 
REMARK   16  A    between atoms: C22_31  and  C23_33 
REMARK   17  A    between atoms: C23_33  and  C24_34 
REMARK   18  A    between atoms: C25_35  and  C26_36 
REMARK   19  A    between atoms: C26_36  and  C28_38 
REMARK   20  A    between atoms: C28_38  and  O7_40 
ROOT
HETATM    1  C4  UNL     1      -0.471   5.147  12.070  1.00  0.00     0.283 C 
HETATM    2  O1  UNL     1       0.345   4.274  12.304  1.00  0.00    -0.260 OA
ENDROOT
BRANCH   1   3
HETATM    3  C3  UNL     1      -1.576   5.572  12.963  1.00  0.00     0.084 C 
HETATM    4  C2  UNL     1      -2.812   5.031  12.997  1.00  0.00    -0.076 C 
HETATM    5  C1  UNL     1      -3.241   3.857  12.148  1.00  0.00     0.043 C 
BRANCH   4   6
HETATM    6  C18 UNL     1      -3.923   5.514  13.926  1.00  0.00     0.066 C 
BRANCH   6   7
HETATM    7  C19 UNL     1      -5.139   6.263  13.330  1.00  0.00     0.128 C 
HETATM    8  C20 UNL     1      -6.366   5.352  13.243  1.00  0.00     0.067 C 
HETATM    9  C21 UNL     1      -6.962   5.053  14.620  1.00  0.00     0.157 C 
HETATM   10  C22 UNL     1      -7.147   6.351  15.467  1.00  0.00     0.108 C 
HETATM   11  C30 UNL     1      -6.692   7.582  14.649  1.00  0.00     0.209 C 
HETATM   12  O8  UNL     1      -5.377   7.442  14.102  1.00  0.00    -0.382 OA
BRANCH   9  13
HETATM   13  O5  UNL     1      -8.167   4.325  14.383  1.00  0.00    -0.392 OA
HETATM   14  H28 UNL     1      -8.342   3.779  15.181  1.00  0.00     0.210 HD
ENDBRANCH   9  13
BRANCH  10  15
HETATM   15  O6  UNL     1      -6.259   6.273  16.610  1.00  0.00    -0.385 OA
HETATM   16  H29 UNL     1      -6.459   5.446  17.085  1.00  0.00     0.210 HD
ENDBRANCH  10  15
BRANCH  10  17
HETATM   17  C23 UNL     1      -8.581   6.628  16.001  1.00  0.00     0.069 C 
BRANCH  17  18
HETATM   18  C24 UNL     1      -9.424   7.490  15.098  1.00  0.00    -0.027 C 
HETATM   19  C25 UNL     1     -10.375   7.010  14.281  1.00  0.00    -0.024 C 
BRANCH  19  20
HETATM   20  C26 UNL     1     -11.362   7.900  13.559  1.00  0.00     0.032 C 
HETATM   21  C27 UNL     1     -11.320   7.636  12.055  1.00  0.00     0.017 C 
BRANCH  20  22
HETATM   22  C28 UNL     1     -12.789   7.758  14.153  1.00  0.00     0.121 C 
HETATM   23  C29 UNL     1     -13.920   7.711  13.129  1.00  0.00     0.040 C 
BRANCH  22  24
HETATM   24  O7  UNL     1     -12.852   6.562  14.950  1.00  0.00    -0.395 OA
HETATM   25  H42 UNL     1     -13.727   6.553  15.379  1.00  0.00     0.210 HD
ENDBRANCH  22  24
ENDBRANCH  20  22
ENDBRANCH  19  20
ENDBRANCH  17  18
ENDBRANCH  10  17
ENDBRANCH   6   7
ENDBRANCH   4   6
ENDBRANCH   1   3
BRANCH   1  26
HETATM   26  O2  UNL     1      -0.529   5.917  10.951  1.00  0.00    -0.318 OA
BRANCH  26  27
HETATM   27  C5  UNL     1       0.478   6.937  10.857  1.00  0.00     0.179 C 
BRANCH  27  28
HETATM   28  C6  UNL     1       1.577   6.488   9.893  1.00  0.00     0.027 C 
BRANCH  28  29
HETATM   29  C7  UNL     1       2.237   7.686   9.197  1.00  0.00     0.002 C 
BRANCH  29  30
HETATM   30  C8  UNL     1       3.746   7.780   9.433  1.00  0.00     0.000 C 
BRANCH  30  31
HETATM   31  C9  UNL     1       4.245   7.306  10.799  1.00  0.00     0.000 C 
BRANCH  31  32
HETATM   32  C10 UNL     1       5.765   7.244  10.985  1.00  0.00     0.009 C 
BRANCH  32  33
HETATM   33  C11 UNL     1       6.259   6.835  12.371  1.00  0.00     0.103 C 
BRANCH  33  34
HETATM   34  C12 UNL     1       7.280   7.776  12.993  1.00  0.00     0.222 C 
HETATM   35  O3  UNL     1       8.477   7.712  12.755  1.00  0.00    -0.273 OA
HETATM   36  N1  UNL     1       6.671   8.692  13.827  1.00  0.00    -0.321 N 
HETATM   37  H19 UNL     1       5.654   8.733  13.803  1.00  0.00     0.169 HD
BRANCH  36  38
HETATM   38  C13 UNL     1       7.240   9.662  14.609  1.00  0.00     0.123 A 
HETATM   39  C14 UNL     1       7.722  10.899  14.437  1.00  0.00     0.071 A 
HETATM   40  S1  UNL     1       7.915  11.947  13.101  1.00  0.00    -0.049 SA
HETATM   41  C16 UNL     1       8.216  11.425  15.679  1.00  0.00     0.062 A 
HETATM   42  S2  UNL     1       8.770  13.488  14.203  1.00  0.00    -0.062 SA
HETATM   43  C15 UNL     1       8.741  12.644  15.726  1.00  0.00     0.088 A 
HETATM   44  N2  UNL     1       8.031  10.487  16.633  1.00  0.00    -0.320 N 
HETATM   45  C17 UNL     1       7.440   9.375  16.078  1.00  0.00     0.274 A 
HETATM   46  H21 UNL     1       8.265  10.563  17.613  1.00  0.00     0.169 HD
HETATM   47  O4  UNL     1       7.120   8.339  16.636  1.00  0.00    -0.266 OA
ENDBRANCH  36  38
ENDBRANCH  33  34
ENDBRANCH  32  33
ENDBRANCH  31  32
ENDBRANCH  30  31
ENDBRANCH  29  30
ENDBRANCH  28  29
ENDBRANCH  27  28
ENDBRANCH  26  27
ENDBRANCH   1  26
TORSDOF 20
ENDMDL
