MODEL 1
REMARK minimizedAffinity -9.29130077
REMARK  9 active torsions:
REMARK  status: ('A' for Active; 'I' for Inactive)
REMARK    1  A    between atoms: C2_2  and  C3_3 
REMARK    2  A    between atoms: C2_2  and  C9_11 
REMARK    3  A    between atoms: C3_3  and  C4_4 
REMARK    4  A    between atoms: C4_4  and  C5_5 
REMARK    5  A    between atoms: C6_6  and  C7_7 
REMARK    6  A    between atoms: C6_6  and  C8_9 
REMARK    7  A    between atoms: C7_7  and  O1_8 
REMARK    8  A    between atoms: C8_9  and  O2_10 
REMARK    9  A    between atoms: C30_34  and  O5_35 
ROOT
HETATM    1  C9  UNL     1      -2.226   6.117  12.906  1.00  0.00    -0.001 C 
HETATM    2  C10 UNL     1      -2.106   5.124  11.714  1.00  0.00     0.007 C 
HETATM    3  C11 UNL     1      -0.678   5.262  11.160  1.00  0.00     0.015 C 
HETATM    4  C12 UNL     1       0.123   5.917  12.301  1.00  0.00    -0.009 C 
HETATM    5  C13 UNL     1       0.461   4.775  13.316  1.00  0.00     0.021 C 
HETATM    6  C14 UNL     1       1.470   6.599  12.039  1.00  0.00    -0.032 C 
HETATM    7  C15 UNL     1       1.955   7.528  12.910  1.00  0.00     0.002 C 
HETATM    8  C16 UNL     1       1.024   8.060  13.995  1.00  0.00     0.157 C 
HETATM    9  O3  UNL     1       1.402   8.919  14.790  1.00  0.00    -0.293 OA
HETATM   10  C17 UNL     1      -0.402   7.540  14.121  1.00  0.00     0.094 C 
HETATM   11  C18 UNL     1      -0.922   6.972  12.805  1.00  0.00    -0.022 C 
HETATM   12  C19 UNL     1      -1.102   8.155  11.809  1.00  0.00     0.017 C 
HETATM   13  C20 UNL     1       3.404   8.094  12.824  1.00  0.00    -0.008 C 
HETATM   14  C21 UNL     1       3.270   9.484  12.165  1.00  0.00     0.021 C 
HETATM   15  C22 UNL     1       4.088   8.236  14.216  1.00  0.00     0.022 C 
HETATM   16  C23 UNL     1       5.560   8.614  14.162  1.00  0.00     0.080 C 
HETATM   17  C24 UNL     1       6.351   7.642  13.328  1.00  0.00     0.135 C 
HETATM   18  O4  UNL     1       7.408   7.177  13.755  1.00  0.00    -0.297 OA
HETATM   19  C25 UNL     1       5.830   7.341  11.917  1.00  0.00     0.018 C 
HETATM   20  C26 UNL     1       6.240   8.495  10.992  1.00  0.00     0.023 C 
HETATM   21  C27 UNL     1       6.554   6.068  11.405  1.00  0.00     0.023 C 
HETATM   22  C28 UNL     1       4.291   7.063  12.013  1.00  0.00     0.016 C 
HETATM   23  C29 UNL     1       3.634   6.766  10.663  1.00  0.00     0.043 C 
HETATM   24  C30 UNL     1       2.267   6.107  10.851  1.00  0.00     0.149 C 
ENDROOT
BRANCH   1  25
HETATM   25  C2  UNL     1      -3.651   6.735  13.030  1.00  0.00    -0.014 C 
HETATM   26  C1  UNL     1      -3.733   8.261  13.191  1.00  0.00     0.010 C 
BRANCH  25  27
HETATM   27  C3  UNL     1      -4.547   6.085  14.110  1.00  0.00     0.008 C 
BRANCH  27  28
HETATM   28  C4  UNL     1      -5.800   5.353  13.614  1.00  0.00     0.028 C 
BRANCH  28  29
HETATM   29  C5  UNL     1      -5.510   4.214  12.676  1.00  0.00    -0.020 C 
HETATM   30  C6  UNL     1      -6.297   3.156  12.390  1.00  0.00    -0.037 C 
BRANCH  30  31
HETATM   31  C7  UNL     1      -7.677   2.960  12.957  1.00  0.00     0.200 C 
BRANCH  31  32
HETATM   32  O1  UNL     1      -8.159   1.682  12.577  1.00  0.00    -0.397 OA
HETATM   33  H12 UNL     1      -7.574   1.027  13.001  1.00  0.00     0.209 HD
ENDBRANCH  31  32
ENDBRANCH  30  31
BRANCH  30  34
HETATM   34  C8  UNL     1      -5.895   2.068  11.415  1.00  0.00     0.200 C 
BRANCH  34  35
HETATM   35  O2  UNL     1      -5.342   2.612  10.222  1.00  0.00    -0.397 OA
HETATM   36  H15 UNL     1      -5.101   1.856   9.661  1.00  0.00     0.209 HD
ENDBRANCH  34  35
ENDBRANCH  30  34
ENDBRANCH  28  29
ENDBRANCH  27  28
ENDBRANCH  25  27
ENDBRANCH   1  25
BRANCH  24  37
HETATM   37  O5  UNL     1       1.525   6.355   9.663  1.00  0.00    -0.391 OA
HETATM   38  H46 UNL     1       2.034   6.002   8.915  1.00  0.00     0.210 HD
ENDBRANCH  24  37
TORSDOF 9
ENDMDL
MODEL 2
REMARK minimizedAffinity -9.23803139
REMARK  9 active torsions:
REMARK  status: ('A' for Active; 'I' for Inactive)
REMARK    1  A    between atoms: C2_2  and  C3_3 
REMARK    2  A    between atoms: C2_2  and  C9_11 
REMARK    3  A    between atoms: C3_3  and  C4_4 
REMARK    4  A    between atoms: C4_4  and  C5_5 
REMARK    5  A    between atoms: C6_6  and  C7_7 
REMARK    6  A    between atoms: C6_6  and  C8_9 
REMARK    7  A    between atoms: C7_7  and  O1_8 
REMARK    8  A    between atoms: C8_9  and  O2_10 
REMARK    9  A    between atoms: C30_34  and  O5_35 
ROOT
HETATM    1  C9  UNL     1      -1.699   5.609  12.350  1.00  0.00    -0.001 C 
HETATM    2  C10 UNL     1      -1.776   5.897  13.876  1.00  0.00     0.007 C 
HETATM    3  C11 UNL     1      -0.411   6.472  14.292  1.00  0.00     0.015 C 
HETATM    4  C12 UNL     1       0.223   6.965  12.977  1.00  0.00    -0.009 C 
HETATM    5  C13 UNL     1      -0.437   8.348  12.659  1.00  0.00     0.021 C 
HETATM    6  C14 UNL     1       1.727   7.233  12.869  1.00  0.00    -0.032 C 
HETATM    7  C15 UNL     1       2.342   7.238  11.653  1.00  0.00     0.002 C 
HETATM    8  C16 UNL     1       1.567   6.720  10.446  1.00  0.00     0.157 C 
HETATM    9  O3  UNL     1       2.084   6.677   9.330  1.00  0.00    -0.293 OA
HETATM   10  C17 UNL     1       0.129   6.240  10.592  1.00  0.00     0.094 C 
HETATM   11  C18 UNL     1      -0.183   5.794  12.016  1.00  0.00    -0.022 C 
HETATM   12  C19 UNL     1       0.616   4.489  12.297  1.00  0.00     0.017 C 
HETATM   13  C20 UNL     1       3.812   7.716  11.450  1.00  0.00    -0.008 C 
HETATM   14  C21 UNL     1       4.657   6.429  11.335  1.00  0.00     0.021 C 
HETATM   15  C22 UNL     1       3.999   8.584  10.171  1.00  0.00     0.022 C 
HETATM   16  C23 UNL     1       5.376   9.217  10.032  1.00  0.00     0.080 C 
HETATM   17  C24 UNL     1       5.727  10.046  11.239  1.00  0.00     0.135 C 
HETATM   18  O4  UNL     1       6.176  11.184  11.099  1.00  0.00    -0.297 OA
HETATM   19  C25 UNL     1       5.587   9.380  12.613  1.00  0.00     0.018 C 
HETATM   20  C26 UNL     1       6.814   8.487  12.847  1.00  0.00     0.023 C 
HETATM   21  C27 UNL     1       5.626  10.498  13.689  1.00  0.00     0.023 C 
HETATM   22  C28 UNL     1       4.200   8.654  12.665  1.00  0.00     0.016 C 
HETATM   23  C29 UNL     1       3.936   7.924  13.985  1.00  0.00     0.043 C 
HETATM   24  C30 UNL     1       2.450   7.600  14.146  1.00  0.00     0.149 C 
ENDROOT
BRANCH   1  25
HETATM   25  C2  UNL     1      -2.522   4.353  11.935  1.00  0.00    -0.014 C 
HETATM   26  C1  UNL     1      -2.157   3.697  10.594  1.00  0.00     0.010 C 
BRANCH  25  27
HETATM   27  C3  UNL     1      -4.057   4.540  11.980  1.00  0.00     0.008 C 
BRANCH  27  28
HETATM   28  C4  UNL     1      -4.690   4.688  13.370  1.00  0.00     0.028 C 
BRANCH  28  29
HETATM   29  C5  UNL     1      -5.996   5.432  13.369  1.00  0.00    -0.020 C 
HETATM   30  C6  UNL     1      -7.242   4.918  13.295  1.00  0.00    -0.037 C 
BRANCH  30  31
HETATM   31  C7  UNL     1      -7.538   3.443  13.245  1.00  0.00     0.200 C 
BRANCH  31  32
HETATM   32  O1  UNL     1      -8.916   3.255  12.968  1.00  0.00    -0.397 OA
HETATM   33  H12 UNL     1      -9.072   3.614  12.076  1.00  0.00     0.209 HD
ENDBRANCH  31  32
ENDBRANCH  30  31
BRANCH  30  34
HETATM   34  C8  UNL     1      -8.490   5.775  13.311  1.00  0.00     0.200 C 
BRANCH  34  35
HETATM   35  O2  UNL     1      -9.061   5.847  14.613  1.00  0.00    -0.397 OA
HETATM   36  H15 UNL     1      -9.843   6.420  14.539  1.00  0.00     0.209 HD
ENDBRANCH  34  35
ENDBRANCH  30  34
ENDBRANCH  28  29
ENDBRANCH  27  28
ENDBRANCH  25  27
ENDBRANCH   1  25
BRANCH  24  37
HETATM   37  O5  UNL     1       2.364   6.510  15.055  1.00  0.00    -0.391 OA
HETATM   38  H46 UNL     1       2.803   6.775  15.880  1.00  0.00     0.210 HD
ENDBRANCH  24  37
TORSDOF 9
ENDMDL
MODEL 3
REMARK minimizedAffinity -8.91454315
REMARK  9 active torsions:
REMARK  status: ('A' for Active; 'I' for Inactive)
REMARK    1  A    between atoms: C2_2  and  C3_3 
REMARK    2  A    between atoms: C2_2  and  C9_11 
REMARK    3  A    between atoms: C3_3  and  C4_4 
REMARK    4  A    between atoms: C4_4  and  C5_5 
REMARK    5  A    between atoms: C6_6  and  C7_7 
REMARK    6  A    between atoms: C6_6  and  C8_9 
REMARK    7  A    between atoms: C7_7  and  O1_8 
REMARK    8  A    between atoms: C8_9  and  O2_10 
REMARK    9  A    between atoms: C30_34  and  O5_35 
ROOT
HETATM    1  C9  UNL     1      -2.311   7.745  14.590  1.00  0.00    -0.001 C 
HETATM    2  C10 UNL     1      -1.680   7.928  16.000  1.00  0.00     0.007 C 
HETATM    3  C11 UNL     1      -0.153   7.897  15.813  1.00  0.00     0.015 C 
HETATM    4  C12 UNL     1       0.064   8.200  14.318  1.00  0.00    -0.009 C 
HETATM    5  C13 UNL     1      -0.080   9.750  14.155  1.00  0.00     0.021 C 
HETATM    6  C14 UNL     1       1.389   7.870  13.624  1.00  0.00    -0.032 C 
HETATM    7  C15 UNL     1       1.441   7.725  12.270  1.00  0.00     0.002 C 
HETATM    8  C16 UNL     1       0.128   7.637  11.498  1.00  0.00     0.157 C 
HETATM    9  O3  UNL     1       0.118   7.478  10.278  1.00  0.00    -0.293 OA
HETATM   10  C17 UNL     1      -1.208   7.743  12.221  1.00  0.00     0.094 C 
HETATM   11  C18 UNL     1      -1.096   7.350  13.691  1.00  0.00    -0.022 C 
HETATM   12  C19 UNL     1      -0.819   5.821  13.759  1.00  0.00     0.017 C 
HETATM   13  C20 UNL     1       2.782   7.609  11.482  1.00  0.00    -0.008 C 
HETATM   14  C21 UNL     1       2.951   6.107  11.168  1.00  0.00     0.021 C 
HETATM   15  C22 UNL     1       2.782   8.426  10.157  1.00  0.00     0.022 C 
HETATM   16  C23 UNL     1       4.129   8.485   9.450  1.00  0.00     0.080 C 
HETATM   17  C24 UNL     1       5.205   9.022  10.355  1.00  0.00     0.135 C 
HETATM   18  O4  UNL     1       5.966   9.904   9.955  1.00  0.00    -0.297 OA
HETATM   19  C25 UNL     1       5.358   8.365  11.732  1.00  0.00     0.018 C 
HETATM   20  C26 UNL     1       6.134   7.052  11.559  1.00  0.00     0.023 C 
HETATM   21  C27 UNL     1       6.233   9.299  12.609  1.00  0.00     0.023 C 
HETATM   22  C28 UNL     1       3.933   8.232  12.371  1.00  0.00     0.016 C 
HETATM   23  C29 UNL     1       3.938   7.568  13.750  1.00  0.00     0.043 C 
HETATM   24  C30 UNL     1       2.627   7.834  14.492  1.00  0.00     0.149 C 
ENDROOT
BRANCH   1  25
HETATM   25  C2  UNL     1      -3.645   6.940  14.631  1.00  0.00    -0.014 C 
HETATM   26  C1  UNL     1      -3.807   5.924  15.773  1.00  0.00     0.010 C 
BRANCH  25  27
HETATM   27  C3  UNL     1      -4.019   6.238  13.304  1.00  0.00     0.008 C 
BRANCH  27  28
HETATM   28  C4  UNL     1      -4.478   4.778  13.404  1.00  0.00     0.028 C 
BRANCH  28  29
HETATM   29  C5  UNL     1      -5.862   4.535  12.870  1.00  0.00    -0.020 C 
HETATM   30  C6  UNL     1      -7.039   4.725  13.504  1.00  0.00    -0.037 C 
BRANCH  30  31
HETATM   31  C7  UNL     1      -7.160   5.280  14.898  1.00  0.00     0.200 C 
BRANCH  31  32
HETATM   32  O1  UNL     1      -7.849   4.345  15.711  1.00  0.00    -0.397 OA
HETATM   33  H12 UNL     1      -7.287   3.551  15.761  1.00  0.00     0.209 HD
ENDBRANCH  31  32
ENDBRANCH  30  31
BRANCH  30  34
HETATM   34  C8  UNL     1      -8.379   4.450  12.854  1.00  0.00     0.200 C 
BRANCH  34  35
HETATM   35  O2  UNL     1      -8.746   3.080  12.967  1.00  0.00    -0.397 OA
HETATM   36  H15 UNL     1      -9.614   2.992  12.541  1.00  0.00     0.209 HD
ENDBRANCH  34  35
ENDBRANCH  30  34
ENDBRANCH  28  29
ENDBRANCH  27  28
ENDBRANCH  25  27
ENDBRANCH   1  25
BRANCH  24  37
HETATM   37  O5  UNL     1       2.484   6.800  15.457  1.00  0.00    -0.391 OA
HETATM   38  H46 UNL     1       3.271   6.814  16.027  1.00  0.00     0.210 HD
ENDBRANCH  24  37
TORSDOF 9
ENDMDL
MODEL 4
REMARK minimizedAffinity -8.8756218
REMARK  9 active torsions:
REMARK  status: ('A' for Active; 'I' for Inactive)
REMARK    1  A    between atoms: C2_2  and  C3_3 
REMARK    2  A    between atoms: C2_2  and  C9_11 
REMARK    3  A    between atoms: C3_3  and  C4_4 
REMARK    4  A    between atoms: C4_4  and  C5_5 
REMARK    5  A    between atoms: C6_6  and  C7_7 
REMARK    6  A    between atoms: C6_6  and  C8_9 
REMARK    7  A    between atoms: C7_7  and  O1_8 
REMARK    8  A    between atoms: C8_9  and  O2_10 
REMARK    9  A    between atoms: C30_34  and  O5_35 
ROOT
HETATM    1  C9  UNL     1      -6.474   6.973  14.157  1.00  0.00    -0.001 C 
HETATM    2  C10 UNL     1      -6.498   8.352  14.876  1.00  0.00     0.007 C 
HETATM    3  C11 UNL     1      -5.033   8.770  15.089  1.00  0.00     0.015 C 
HETATM    4  C12 UNL     1      -4.234   7.921  14.082  1.00  0.00    -0.009 C 
HETATM    5  C13 UNL     1      -4.394   8.618  12.690  1.00  0.00     0.021 C 
HETATM    6  C14 UNL     1      -2.722   7.722  14.231  1.00  0.00    -0.032 C 
HETATM    7  C15 UNL     1      -2.104   6.662  13.638  1.00  0.00     0.002 C 
HETATM    8  C16 UNL     1      -2.970   5.552  13.052  1.00  0.00     0.157 C 
HETATM    9  O3  UNL     1      -2.463   4.559  12.530  1.00  0.00    -0.293 OA
HETATM   10  C17 UNL     1      -4.489   5.641  13.101  1.00  0.00     0.094 C 
HETATM   11  C18 UNL     1      -4.973   6.545  14.230  1.00  0.00    -0.022 C 
HETATM   12  C19 UNL     1      -4.655   5.840  15.579  1.00  0.00     0.017 C 
HETATM   13  C20 UNL     1      -0.553   6.520  13.564  1.00  0.00    -0.008 C 
HETATM   14  C21 UNL     1      -0.175   5.508  14.667  1.00  0.00     0.021 C 
HETATM   15  C22 UNL     1      -0.054   6.004  12.183  1.00  0.00     0.022 C 
HETATM   16  C23 UNL     1       1.458   6.022  12.010  1.00  0.00     0.080 C 
HETATM   17  C24 UNL     1       2.026   7.395  12.251  1.00  0.00     0.135 C 
HETATM   18  O4  UNL     1       2.827   7.883  11.453  1.00  0.00    -0.297 OA
HETATM   19  C25 UNL     1       1.634   8.097  13.557  1.00  0.00     0.018 C 
HETATM   20  C26 UNL     1       2.493   7.524  14.693  1.00  0.00     0.023 C 
HETATM   21  C27 UNL     1       2.006   9.598  13.419  1.00  0.00     0.023 C 
HETATM   22  C28 UNL     1       0.084   7.958  13.741  1.00  0.00     0.016 C 
HETATM   23  C29 UNL     1      -0.443   8.602  15.025  1.00  0.00     0.043 C 
HETATM   24  C30 UNL     1      -1.957   8.807  14.956  1.00  0.00     0.149 C 
ENDROOT
BRANCH   1  25
HETATM   25  C2  UNL     1      -7.651   6.049  14.593  1.00  0.00    -0.014 C 
HETATM   26  C1  UNL     1      -8.177   6.225  16.026  1.00  0.00     0.010 C 
BRANCH  25  27
HETATM   27  C3  UNL     1      -7.416   4.540  14.345  1.00  0.00     0.008 C 
BRANCH  27  28
HETATM   28  C4  UNL     1      -7.810   4.001  12.964  1.00  0.00     0.028 C 
BRANCH  28  29
HETATM   29  C5  UNL     1      -7.175   2.683  12.621  1.00  0.00    -0.020 C 
HETATM   30  C6  UNL     1      -6.241   2.434  11.679  1.00  0.00    -0.037 C 
BRANCH  30  31
HETATM   31  C7  UNL     1      -5.622   3.497  10.811  1.00  0.00     0.200 C 
BRANCH  31  32
HETATM   32  O1  UNL     1      -5.463   2.989   9.497  1.00  0.00    -0.397 OA
HETATM   33  H12 UNL     1      -6.359   2.818   9.154  1.00  0.00     0.209 HD
ENDBRANCH  31  32
ENDBRANCH  30  31
BRANCH  30  34
HETATM   34  C8  UNL     1      -5.668   1.054  11.429  1.00  0.00     0.200 C 
BRANCH  34  35
HETATM   35  O2  UNL     1      -4.245   1.073  11.406  1.00  0.00    -0.397 OA
HETATM   36  H15 UNL     1      -3.960   0.157  11.255  1.00  0.00     0.209 HD
ENDBRANCH  34  35
ENDBRANCH  30  34
ENDBRANCH  28  29
ENDBRANCH  27  28
ENDBRANCH  25  27
ENDBRANCH   1  25
BRANCH  24  37
HETATM   37  O5  UNL     1      -2.423   8.882  16.298  1.00  0.00    -0.391 OA
HETATM   38  H46 UNL     1      -1.947   9.605  16.738  1.00  0.00     0.210 HD
ENDBRANCH  24  37
TORSDOF 9
ENDMDL
MODEL 5
REMARK minimizedAffinity -8.872365
REMARK  9 active torsions:
REMARK  status: ('A' for Active; 'I' for Inactive)
REMARK    1  A    between atoms: C2_2  and  C3_3 
REMARK    2  A    between atoms: C2_2  and  C9_11 
REMARK    3  A    between atoms: C3_3  and  C4_4 
REMARK    4  A    between atoms: C4_4  and  C5_5 
REMARK    5  A    between atoms: C6_6  and  C7_7 
REMARK    6  A    between atoms: C6_6  and  C8_9 
REMARK    7  A    between atoms: C7_7  and  O1_8 
REMARK    8  A    between atoms: C8_9  and  O2_10 
REMARK    9  A    between atoms: C30_34  and  O5_35 
ROOT
HETATM    1  C9  UNL     1      -1.614   7.606  13.500  1.00  0.00    -0.001 C 
HETATM    2  C10 UNL     1      -1.418   7.490  15.039  1.00  0.00     0.007 C 
HETATM    3  C11 UNL     1       0.098   7.510  15.299  1.00  0.00     0.015 C 
HETATM    4  C12 UNL     1       0.705   8.126  14.023  1.00  0.00    -0.009 C 
HETATM    5  C13 UNL     1       0.507   9.674  14.142  1.00  0.00     0.021 C 
HETATM    6  C14 UNL     1       2.191   7.962  13.689  1.00  0.00    -0.032 C 
HETATM    7  C15 UNL     1       2.630   8.108  12.407  1.00  0.00     0.002 C 
HETATM    8  C16 UNL     1       1.595   8.178  11.289  1.00  0.00     0.157 C 
HETATM    9  O3  UNL     1       1.938   8.282  10.112  1.00  0.00    -0.293 OA
HETATM   10  C17 UNL     1       0.106   8.117  11.601  1.00  0.00     0.094 C 
HETATM   11  C18 UNL     1      -0.172   7.422  12.930  1.00  0.00    -0.022 C 
HETATM   12  C19 UNL     1       0.179   5.915  12.765  1.00  0.00     0.017 C 
HETATM   13  C20 UNL     1       4.142   8.173  12.032  1.00  0.00    -0.008 C 
HETATM   14  C21 UNL     1       4.495   6.773  11.484  1.00  0.00     0.021 C 
HETATM   15  C22 UNL     1       4.459   9.254  10.958  1.00  0.00     0.022 C 
HETATM   16  C23 UNL     1       5.942   9.471  10.696  1.00  0.00     0.080 C 
HETATM   17  C24 UNL     1       6.682   9.812  11.962  1.00  0.00     0.135 C 
HETATM   18  O4  UNL     1       7.463  10.764  11.986  1.00  0.00    -0.297 OA
HETATM   19  C25 UNL     1       6.488   8.877  13.162  1.00  0.00     0.018 C 
HETATM   20  C26 UNL     1       7.369   7.637  12.960  1.00  0.00     0.023 C 
HETATM   21  C27 UNL     1       7.016   9.609  14.425  1.00  0.00     0.023 C 
HETATM   22  C28 UNL     1       4.953   8.600  13.323  1.00  0.00     0.016 C 
HETATM   23  C29 UNL     1       4.616   7.658  14.481  1.00  0.00     0.043 C 
HETATM   24  C30 UNL     1       3.135   7.751  14.851  1.00  0.00     0.149 C 
ENDROOT
BRANCH   1  25
HETATM   25  C2  UNL     1      -2.848   6.801  12.992  1.00  0.00    -0.014 C 
HETATM   26  C1  UNL     1      -4.216   7.494  13.087  1.00  0.00     0.010 C 
BRANCH  25  27
HETATM   27  C3  UNL     1      -2.984   5.379  13.587  1.00  0.00     0.008 C 
BRANCH  27  28
HETATM   28  C4  UNL     1      -3.647   4.322  12.695  1.00  0.00     0.028 C 
BRANCH  28  29
HETATM   29  C5  UNL     1      -5.124   4.165  12.931  1.00  0.00    -0.020 C 
HETATM   30  C6  UNL     1      -5.950   3.231  12.415  1.00  0.00    -0.037 C 
BRANCH  30  31
HETATM   31  C7  UNL     1      -5.494   2.116  11.512  1.00  0.00     0.200 C 
BRANCH  31  32
HETATM   32  O1  UNL     1      -5.342   2.618  10.195  1.00  0.00    -0.397 OA
HETATM   33  H12 UNL     1      -4.625   3.276  10.229  1.00  0.00     0.209 HD
ENDBRANCH  31  32
ENDBRANCH  30  31
BRANCH  30  34
HETATM   34  C8  UNL     1      -7.429   3.170  12.735  1.00  0.00     0.200 C 
BRANCH  34  35
HETATM   35  O2  UNL     1      -7.932   1.842  12.641  1.00  0.00    -0.397 OA
HETATM   36  H15 UNL     1      -8.875   1.889  12.871  1.00  0.00     0.209 HD
ENDBRANCH  34  35
ENDBRANCH  30  34
ENDBRANCH  28  29
ENDBRANCH  27  28
ENDBRANCH  25  27
ENDBRANCH   1  25
BRANCH  24  37
HETATM   37  O5  UNL     1       2.798   6.533  15.504  1.00  0.00    -0.391 OA
HETATM   38  H46 UNL     1       3.391   6.431  16.267  1.00  0.00     0.210 HD
ENDBRANCH  24  37
TORSDOF 9
ENDMDL
MODEL 6
REMARK minimizedAffinity -8.84312916
REMARK  9 active torsions:
REMARK  status: ('A' for Active; 'I' for Inactive)
REMARK    1  A    between atoms: C2_2  and  C3_3 
REMARK    2  A    between atoms: C2_2  and  C9_11 
REMARK    3  A    between atoms: C3_3  and  C4_4 
REMARK    4  A    between atoms: C4_4  and  C5_5 
REMARK    5  A    between atoms: C6_6  and  C7_7 
REMARK    6  A    between atoms: C6_6  and  C8_9 
REMARK    7  A    between atoms: C7_7  and  O1_8 
REMARK    8  A    between atoms: C8_9  and  O2_10 
REMARK    9  A    between atoms: C30_34  and  O5_35 
ROOT
HETATM    1  C9  UNL     1      -2.296   5.958  12.924  1.00  0.00    -0.001 C 
HETATM    2  C10 UNL     1      -2.166   4.917  11.776  1.00  0.00     0.007 C 
HETATM    3  C11 UNL     1      -0.741   5.050  11.211  1.00  0.00     0.015 C 
HETATM    4  C12 UNL     1       0.054   5.765  12.320  1.00  0.00    -0.009 C 
HETATM    5  C13 UNL     1       0.410   4.673  13.383  1.00  0.00     0.021 C 
HETATM    6  C14 UNL     1       1.391   6.452  12.025  1.00  0.00    -0.032 C 
HETATM    7  C15 UNL     1       1.865   7.425  12.854  1.00  0.00     0.002 C 
HETATM    8  C16 UNL     1       0.930   7.991  13.918  1.00  0.00     0.157 C 
HETATM    9  O3  UNL     1       1.298   8.889  14.674  1.00  0.00    -0.293 OA
HETATM   10  C17 UNL     1      -0.489   7.458  14.070  1.00  0.00     0.094 C 
HETATM   11  C18 UNL     1      -1.004   6.827  12.781  1.00  0.00    -0.022 C 
HETATM   12  C19 UNL     1      -1.203   7.962  11.737  1.00  0.00     0.017 C 
HETATM   13  C20 UNL     1       3.307   8.007  12.739  1.00  0.00    -0.008 C 
HETATM   14  C21 UNL     1       3.152   9.365  12.021  1.00  0.00     0.021 C 
HETATM   15  C22 UNL     1       3.991   8.217  14.121  1.00  0.00     0.022 C 
HETATM   16  C23 UNL     1       5.459   8.613  14.046  1.00  0.00     0.080 C 
HETATM   17  C24 UNL     1       6.261   7.616  13.253  1.00  0.00     0.135 C 
HETATM   18  O4  UNL     1       7.325   7.184  13.696  1.00  0.00    -0.297 OA
HETATM   19  C25 UNL     1       5.740   7.248  11.858  1.00  0.00     0.018 C 
HETATM   20  C26 UNL     1       6.132   8.367  10.882  1.00  0.00     0.023 C 
HETATM   21  C27 UNL     1       6.480   5.964  11.399  1.00  0.00     0.023 C 
HETATM   22  C28 UNL     1       4.205   6.953  11.971  1.00  0.00     0.016 C 
HETATM   23  C29 UNL     1       3.549   6.590  10.637  1.00  0.00     0.043 C 
HETATM   24  C30 UNL     1       2.191   5.921  10.857  1.00  0.00     0.149 C 
ENDROOT
BRANCH   1  25
HETATM   25  C2  UNL     1      -3.729   6.562  13.025  1.00  0.00    -0.014 C 
HETATM   26  C1  UNL     1      -3.829   8.060  13.355  1.00  0.00     0.010 C 
BRANCH  25  27
HETATM   27  C3  UNL     1      -4.690   5.795  13.963  1.00  0.00     0.008 C 
BRANCH  27  28
HETATM   28  C4  UNL     1      -5.892   5.109  13.302  1.00  0.00     0.028 C 
BRANCH  28  29
HETATM   29  C5  UNL     1      -7.175   5.885  13.412  1.00  0.00    -0.020 C 
HETATM   30  C6  UNL     1      -7.934   6.078  14.512  1.00  0.00    -0.037 C 
BRANCH  30  31
HETATM   31  C7  UNL     1      -7.577   5.559  15.878  1.00  0.00     0.200 C 
BRANCH  31  32
HETATM   32  O1  UNL     1      -7.975   4.202  15.978  1.00  0.00    -0.397 OA
HETATM   33  H12 UNL     1      -7.442   3.707  15.329  1.00  0.00     0.209 HD
ENDBRANCH  31  32
ENDBRANCH  30  31
BRANCH  30  34
HETATM   34  C8  UNL     1      -9.211   6.893  14.499  1.00  0.00     0.200 C 
BRANCH  34  35
HETATM   35  O2  UNL     1     -10.233   6.254  13.743  1.00  0.00    -0.397 OA
HETATM   36  H15 UNL     1     -11.015   6.830  13.795  1.00  0.00     0.209 HD
ENDBRANCH  34  35
ENDBRANCH  30  34
ENDBRANCH  28  29
ENDBRANCH  27  28
ENDBRANCH  25  27
ENDBRANCH   1  25
BRANCH  24  37
HETATM   37  O5  UNL     1       1.443   6.107   9.662  1.00  0.00    -0.391 OA
HETATM   38  H46 UNL     1       1.955   5.729   8.928  1.00  0.00     0.210 HD
ENDBRANCH  24  37
TORSDOF 9
ENDMDL
MODEL 7
REMARK minimizedAffinity -8.5343914
REMARK  9 active torsions:
REMARK  status: ('A' for Active; 'I' for Inactive)
REMARK    1  A    between atoms: C2_2  and  C3_3 
REMARK    2  A    between atoms: C2_2  and  C9_11 
REMARK    3  A    between atoms: C3_3  and  C4_4 
REMARK    4  A    between atoms: C4_4  and  C5_5 
REMARK    5  A    between atoms: C6_6  and  C7_7 
REMARK    6  A    between atoms: C6_6  and  C8_9 
REMARK    7  A    between atoms: C7_7  and  O1_8 
REMARK    8  A    between atoms: C8_9  and  O2_10 
REMARK    9  A    between atoms: C30_34  and  O5_35 
ROOT
HETATM    1  C9  UNL     1      -5.041   5.960  13.990  1.00  0.00    -0.001 C 
HETATM    2  C10 UNL     1      -4.281   5.126  12.919  1.00  0.00     0.007 C 
HETATM    3  C11 UNL     1      -2.881   5.747  12.780  1.00  0.00     0.015 C 
HETATM    4  C12 UNL     1      -2.684   6.562  14.074  1.00  0.00    -0.009 C 
HETATM    5  C13 UNL     1      -2.289   5.535  15.187  1.00  0.00     0.021 C 
HETATM    6  C14 UNL     1      -1.615   7.654  14.172  1.00  0.00    -0.032 C 
HETATM    7  C15 UNL     1      -1.720   8.640  15.107  1.00  0.00     0.002 C 
HETATM    8  C16 UNL     1      -3.034   8.782  15.867  1.00  0.00     0.157 C 
HETATM    9  O3  UNL     1      -3.192   9.672  16.702  1.00  0.00    -0.293 OA
HETATM   10  C17 UNL     1      -4.191   7.825  15.610  1.00  0.00     0.094 C 
HETATM   11  C18 UNL     1      -4.112   7.194  14.224  1.00  0.00    -0.022 C 
HETATM   12  C19 UNL     1      -4.384   8.308  13.173  1.00  0.00     0.017 C 
HETATM   13  C20 UNL     1      -0.568   9.647  15.408  1.00  0.00    -0.008 C 
HETATM   14  C21 UNL     1      -0.959  10.954  14.684  1.00  0.00     0.021 C 
HETATM   15  C22 UNL     1      -0.381   9.924  16.929  1.00  0.00     0.022 C 
HETATM   16  C23 UNL     1       0.843  10.759  17.274  1.00  0.00     0.080 C 
HETATM   17  C24 UNL     1       2.104  10.141  16.733  1.00  0.00     0.135 C 
HETATM   18  O4  UNL     1       3.093  10.018  17.456  1.00  0.00    -0.297 OA
HETATM   19  C25 UNL     1       2.121   9.767  15.245  1.00  0.00     0.018 C 
HETATM   20  C26 UNL     1       2.373  11.042  14.428  1.00  0.00     0.023 C 
HETATM   21  C27 UNL     1       3.331   8.826  15.006  1.00  0.00     0.023 C 
HETATM   22  C28 UNL     1       0.792   9.003  14.918  1.00  0.00     0.016 C 
HETATM   23  C29 UNL     1       0.668   8.586  13.451  1.00  0.00     0.043 C 
HETATM   24  C30 UNL     1      -0.406   7.512  13.274  1.00  0.00     0.149 C 
ENDROOT
BRANCH   1  25
HETATM   25  C2  UNL     1      -6.565   6.078  13.686  1.00  0.00    -0.014 C 
HETATM   26  C1  UNL     1      -7.322   7.225  14.373  1.00  0.00     0.010 C 
BRANCH  25  27
HETATM   27  C3  UNL     1      -7.371   4.774  13.895  1.00  0.00     0.008 C 
BRANCH  27  28
HETATM   28  C4  UNL     1      -7.772   4.005  12.630  1.00  0.00     0.028 C 
BRANCH  28  29
HETATM   29  C5  UNL     1      -7.048   2.699  12.454  1.00  0.00    -0.020 C 
HETATM   30  C6  UNL     1      -6.114   2.388  11.530  1.00  0.00    -0.037 C 
BRANCH  30  31
HETATM   31  C7  UNL     1      -5.591   3.360  10.507  1.00  0.00     0.200 C 
BRANCH  31  32
HETATM   32  O1  UNL     1      -5.533   2.719   9.244  1.00  0.00    -0.397 OA
HETATM   33  H12 UNL     1      -6.451   2.504   8.999  1.00  0.00     0.209 HD
ENDBRANCH  31  32
ENDBRANCH  30  31
BRANCH  30  34
HETATM   34  C8  UNL     1      -5.445   1.031  11.458  1.00  0.00     0.200 C 
BRANCH  34  35
HETATM   35  O2  UNL     1      -4.029   1.148  11.377  1.00  0.00    -0.397 OA
HETATM   36  H15 UNL     1      -3.680   0.241  11.347  1.00  0.00     0.209 HD
ENDBRANCH  34  35
ENDBRANCH  30  34
ENDBRANCH  28  29
ENDBRANCH  27  28
ENDBRANCH  25  27
ENDBRANCH   1  25
BRANCH  24  37
HETATM   37  O5  UNL     1      -0.829   7.573  11.918  1.00  0.00    -0.391 OA
HETATM   38  H46 UNL     1      -0.047   7.445  11.357  1.00  0.00     0.210 HD
ENDBRANCH  24  37
TORSDOF 9
ENDMDL
MODEL 8
REMARK minimizedAffinity -8.51874256
REMARK  9 active torsions:
REMARK  status: ('A' for Active; 'I' for Inactive)
REMARK    1  A    between atoms: C2_2  and  C3_3 
REMARK    2  A    between atoms: C2_2  and  C9_11 
REMARK    3  A    between atoms: C3_3  and  C4_4 
REMARK    4  A    between atoms: C4_4  and  C5_5 
REMARK    5  A    between atoms: C6_6  and  C7_7 
REMARK    6  A    between atoms: C6_6  and  C8_9 
REMARK    7  A    between atoms: C7_7  and  O1_8 
REMARK    8  A    between atoms: C8_9  and  O2_10 
REMARK    9  A    between atoms: C30_34  and  O5_35 
ROOT
HETATM    1  C9  UNL     1      -3.882   5.637  12.957  1.00  0.00    -0.001 C 
HETATM    2  C10 UNL     1      -4.933   6.394  13.818  1.00  0.00     0.007 C 
HETATM    3  C11 UNL     1      -4.163   7.428  14.657  1.00  0.00     0.015 C 
HETATM    4  C12 UNL     1      -2.816   7.598  13.928  1.00  0.00    -0.009 C 
HETATM    5  C13 UNL     1      -3.086   8.552  12.717  1.00  0.00     0.021 C 
HETATM    6  C14 UNL     1      -1.603   8.216  14.629  1.00  0.00    -0.032 C 
HETATM    7  C15 UNL     1      -0.343   7.976  14.169  1.00  0.00     0.002 C 
HETATM    8  C16 UNL     1      -0.149   6.886  13.119  1.00  0.00     0.157 C 
HETATM    9  O3  UNL     1       0.970   6.610  12.690  1.00  0.00    -0.293 OA
HETATM   10  C17 UNL     1      -1.340   6.108  12.576  1.00  0.00     0.094 C 
HETATM   11  C18 UNL     1      -2.514   6.106  13.549  1.00  0.00    -0.022 C 
HETATM   12  C19 UNL     1      -2.113   5.248  14.783  1.00  0.00     0.017 C 
HETATM   13  C20 UNL     1       0.911   8.741  14.693  1.00  0.00    -0.008 C 
HETATM   14  C21 UNL     1       1.605   7.777  15.679  1.00  0.00     0.021 C 
HETATM   15  C22 UNL     1       1.901   9.137  13.560  1.00  0.00     0.022 C 
HETATM   16  C23 UNL     1       3.044  10.038  14.005  1.00  0.00     0.080 C 
HETATM   17  C24 UNL     1       2.535  11.291  14.667  1.00  0.00     0.135 C 
HETATM   18  O4  UNL     1       2.984  12.390  14.340  1.00  0.00    -0.297 OA
HETATM   19  C25 UNL     1       1.521  11.121  15.805  1.00  0.00     0.018 C 
HETATM   20  C26 UNL     1       2.282  10.736  17.080  1.00  0.00     0.023 C 
HETATM   21  C27 UNL     1       0.865  12.503  16.066  1.00  0.00     0.023 C 
HETATM   22  C28 UNL     1       0.425  10.104  15.335  1.00  0.00     0.016 C 
HETATM   23  C29 UNL     1      -0.648   9.825  16.391  1.00  0.00     0.043 C 
HETATM   24  C30 UNL     1      -1.883   9.180  15.761  1.00  0.00     0.149 C 
ENDROOT
BRANCH   1  25
HETATM   25  C2  UNL     1      -4.254   4.140  12.738  1.00  0.00    -0.014 C 
HETATM   26  C1  UNL     1      -3.270   3.294  11.916  1.00  0.00     0.010 C 
BRANCH  25  27
HETATM   27  C3  UNL     1      -5.678   3.900  12.184  1.00  0.00     0.008 C 
BRANCH  27  28
HETATM   28  C4  UNL     1      -6.799   3.736  13.218  1.00  0.00     0.028 C 
BRANCH  28  29
HETATM   29  C5  UNL     1      -8.000   4.603  12.958  1.00  0.00    -0.020 C 
HETATM   30  C6  UNL     1      -8.528   5.548  13.764  1.00  0.00    -0.037 C 
BRANCH  30  31
HETATM   31  C7  UNL     1      -7.944   5.936  15.096  1.00  0.00     0.200 C 
BRANCH  31  32
HETATM   32  O1  UNL     1      -8.506   5.114  16.106  1.00  0.00    -0.397 OA
HETATM   33  H12 UNL     1      -8.218   4.203  15.916  1.00  0.00     0.209 HD
ENDBRANCH  31  32
ENDBRANCH  30  31
BRANCH  30  34
HETATM   34  C8  UNL     1      -9.745   6.367  13.387  1.00  0.00     0.200 C 
BRANCH  34  35
HETATM   35  O2  UNL     1     -10.596   6.589  14.506  1.00  0.00    -0.397 OA
HETATM   36  H15 UNL     1     -11.339   7.127  14.184  1.00  0.00     0.209 HD
ENDBRANCH  34  35
ENDBRANCH  30  34
ENDBRANCH  28  29
ENDBRANCH  27  28
ENDBRANCH  25  27
ENDBRANCH   1  25
BRANCH  24  37
HETATM   37  O5  UNL     1      -2.559   8.485  16.802  1.00  0.00    -0.391 OA
HETATM   38  H46 UNL     1      -2.762   9.125  17.503  1.00  0.00     0.210 HD
ENDBRANCH  24  37
TORSDOF 9
ENDMDL
MODEL 9
REMARK minimizedAffinity -8.51109982
REMARK  9 active torsions:
REMARK  status: ('A' for Active; 'I' for Inactive)
REMARK    1  A    between atoms: C2_2  and  C3_3 
REMARK    2  A    between atoms: C2_2  and  C9_11 
REMARK    3  A    between atoms: C3_3  and  C4_4 
REMARK    4  A    between atoms: C4_4  and  C5_5 
REMARK    5  A    between atoms: C6_6  and  C7_7 
REMARK    6  A    between atoms: C6_6  and  C8_9 
REMARK    7  A    between atoms: C7_7  and  O1_8 
REMARK    8  A    between atoms: C8_9  and  O2_10 
REMARK    9  A    between atoms: C30_34  and  O5_35 
ROOT
HETATM    1  C9  UNL     1       0.556   8.421  12.993  1.00  0.00    -0.001 C 
HETATM    2  C10 UNL     1       0.573   7.517  11.727  1.00  0.00     0.007 C 
HETATM    3  C11 UNL     1      -0.742   6.718  11.731  1.00  0.00     0.015 C 
HETATM    4  C12 UNL     1      -1.677   7.507  12.668  1.00  0.00    -0.009 C 
HETATM    5  C13 UNL     1      -2.229   8.709  11.831  1.00  0.00     0.021 C 
HETATM    6  C14 UNL     1      -2.928   6.863  13.272  1.00  0.00    -0.032 C 
HETATM    7  C15 UNL     1      -3.494   7.378  14.400  1.00  0.00     0.002 C 
HETATM    8  C16 UNL     1      -2.718   8.431  15.185  1.00  0.00     0.157 C 
HETATM    9  O3  UNL     1      -3.170   8.909  16.225  1.00  0.00    -0.293 OA
HETATM   10  C17 UNL     1      -1.358   8.917  14.701  1.00  0.00     0.094 C 
HETATM   11  C18 UNL     1      -0.669   7.892  13.807  1.00  0.00    -0.022 C 
HETATM   12  C19 UNL     1      -0.274   6.674  14.689  1.00  0.00     0.017 C 
HETATM   13  C20 UNL     1      -4.881   6.913  14.939  1.00  0.00    -0.008 C 
HETATM   14  C21 UNL     1      -4.572   5.955  16.110  1.00  0.00     0.021 C 
HETATM   15  C22 UNL     1      -5.765   8.092  15.443  1.00  0.00     0.022 C 
HETATM   16  C23 UNL     1      -7.190   7.702  15.809  1.00  0.00     0.080 C 
HETATM   17  C24 UNL     1      -7.890   7.023  14.662  1.00  0.00     0.135 C 
HETATM   18  O4  UNL     1      -9.024   7.374  14.334  1.00  0.00    -0.297 OA
HETATM   19  C25 UNL     1      -7.171   5.840  14.002  1.00  0.00     0.018 C 
HETATM   20  C26 UNL     1      -7.370   4.598  14.881  1.00  0.00     0.023 C 
HETATM   21  C27 UNL     1      -7.871   5.556  12.647  1.00  0.00     0.023 C 
HETATM   22  C28 UNL     1      -5.682   6.256  13.742  1.00  0.00     0.016 C 
HETATM   23  C29 UNL     1      -4.838   5.153  13.100  1.00  0.00     0.043 C 
HETATM   24  C30 UNL     1      -3.554   5.724  12.497  1.00  0.00     0.149 C 
ENDROOT
BRANCH   1  25
HETATM   25  C2  UNL     1       1.974   8.617  13.608  1.00  0.00    -0.014 C 
HETATM   26  C1  UNL     1       2.626   9.996  13.423  1.00  0.00     0.010 C 
BRANCH  25  27
HETATM   27  C3  UNL     1       3.007   7.536  13.210  1.00  0.00     0.008 C 
BRANCH  27  28
HETATM   28  C4  UNL     1       3.645   7.673  11.822  1.00  0.00     0.028 C 
BRANCH  28  29
HETATM   29  C5  UNL     1       3.861   6.363  11.118  1.00  0.00    -0.020 C 
HETATM   30  C6  UNL     1       3.425   5.999   9.893  1.00  0.00    -0.037 C 
BRANCH  30  31
HETATM   31  C7  UNL     1       2.654   6.908   8.974  1.00  0.00     0.200 C 
BRANCH  31  32
HETATM   32  O1  UNL     1       3.479   7.998   8.600  1.00  0.00    -0.397 OA
HETATM   33  H12 UNL     1       4.219   7.625   8.087  1.00  0.00     0.209 HD
ENDBRANCH  31  32
ENDBRANCH  30  31
BRANCH  30  34
HETATM   34  C8  UNL     1       3.715   4.644   9.283  1.00  0.00     0.200 C 
BRANCH  34  35
HETATM   35  O2  UNL     1       3.083   3.595  10.010  1.00  0.00    -0.397 OA
HETATM   36  H15 UNL     1       3.306   2.769   9.550  1.00  0.00     0.209 HD
ENDBRANCH  34  35
ENDBRANCH  30  34
ENDBRANCH  28  29
ENDBRANCH  27  28
ENDBRANCH  25  27
ENDBRANCH   1  25
BRANCH  24  37
HETATM   37  O5  UNL     1      -2.623   4.651  12.422  1.00  0.00    -0.391 OA
HETATM   38  H46 UNL     1      -3.027   3.944  11.893  1.00  0.00     0.210 HD
ENDBRANCH  24  37
TORSDOF 9
ENDMDL
