MODEL 1
REMARK minimizedAffinity -8.93769169
REMARK  6 active torsions:
REMARK  status: ('A' for Active; 'I' for Inactive)
REMARK    1  A    between atoms: C2_2  and  C3_3 
REMARK    2  A    between atoms: C4_5  and  C5_6 
REMARK    3  A    between atoms: C5_6  and  C6_7 
REMARK    4  A    between atoms: C6_7  and  C7_8 
REMARK    5  A    between atoms: C7_8  and  C9_10 
REMARK    6  A    between atoms: C30_32  and  O3_33 
ROOT
HETATM    1  C9  UNL     1       1.228   6.892  13.063  1.00  0.00    -0.002 C 
HETATM    2  C10 UNL     1       0.421   8.002  13.794  1.00  0.00     0.007 C 
HETATM    3  C11 UNL     1      -1.045   7.536  13.871  1.00  0.00     0.015 C 
HETATM    4  C12 UNL     1      -1.007   6.037  13.523  1.00  0.00    -0.010 C 
HETATM    5  C13 UNL     1      -0.612   5.273  14.828  1.00  0.00     0.021 C 
HETATM    6  C14 UNL     1      -2.278   5.357  13.010  1.00  0.00    -0.039 C 
HETATM    7  C15 UNL     1      -2.173   4.261  12.210  1.00  0.00    -0.066 C 
HETATM    8  C16 UNL     1      -0.803   3.742  11.749  1.00  0.00     0.036 C 
HETATM    9  C17 UNL     1       0.450   4.567  12.114  1.00  0.00     0.015 C 
HETATM   10  C18 UNL     1       0.105   6.032  12.403  1.00  0.00    -0.029 C 
HETATM   11  C19 UNL     1      -0.355   6.708  11.075  1.00  0.00     0.016 C 
HETATM   12  C20 UNL     1      -3.417   3.480  11.701  1.00  0.00    -0.015 C 
HETATM   13  C21 UNL     1      -3.589   3.825  10.202  1.00  0.00     0.020 C 
HETATM   14  C22 UNL     1      -3.196   1.955  11.865  1.00  0.00     0.021 C 
HETATM   15  C23 UNL     1      -4.433   1.076  11.716  1.00  0.00     0.080 C 
HETATM   16  C24 UNL     1      -5.710   1.810  11.383  1.00  0.00     0.135 C 
HETATM   17  O2  UNL     1      -6.527   1.294  10.615  1.00  0.00    -0.297 OA
HETATM   18  C25 UNL     1      -6.007   3.136  12.092  1.00  0.00     0.018 C 
HETATM   19  C26 UNL     1      -6.867   4.007  11.151  1.00  0.00     0.023 C 
HETATM   20  C27 UNL     1      -6.868   2.792  13.323  1.00  0.00     0.023 C 
HETATM   21  C28 UNL     1      -4.682   3.831  12.556  1.00  0.00     0.016 C 
HETATM   22  C29 UNL     1      -4.815   5.351  12.732  1.00  0.00     0.043 C 
HETATM   23  C30 UNL     1      -3.601   5.934  13.453  1.00  0.00     0.148 C 
ENDROOT
BRANCH   1  24
HETATM   24  C7  UNL     1       2.371   7.476  12.181  1.00  0.00    -0.014 C 
HETATM   25  C8  UNL     1       2.030   8.853  11.604  1.00  0.00     0.010 C 
BRANCH  24  26
HETATM   26  C6  UNL     1       2.795   6.524  11.030  1.00  0.00     0.008 C 
BRANCH  26  27
HETATM   27  C5  UNL     1       2.691   7.109   9.616  1.00  0.00     0.028 C 
BRANCH  27  28
HETATM   28  C4  UNL     1       2.973   6.052   8.583  1.00  0.00    -0.017 C 
HETATM   29  C2  UNL     1       2.616   6.051   7.284  1.00  0.00    -0.028 C 
HETATM   30  C1  UNL     1       1.854   7.108   6.547  1.00  0.00     0.051 C 
BRANCH  29  31
HETATM   31  C3  UNL     1       3.025   4.877   6.451  1.00  0.00     0.265 C 
HETATM   32  O1  UNL     1       3.469   3.830   6.910  1.00  0.00    -0.302 OA
ENDBRANCH  29  31
ENDBRANCH  27  28
ENDBRANCH  26  27
ENDBRANCH  24  26
ENDBRANCH   1  24
BRANCH  23  33
HETATM   33  O3  UNL     1      -3.741   5.690  14.850  1.00  0.00    -0.391 OA
HETATM   34  H46 UNL     1      -4.532   6.167  15.150  1.00  0.00     0.210 HD
ENDBRANCH  23  33
TORSDOF 6
ENDMDL
MODEL 2
REMARK minimizedAffinity -8.7557373
REMARK  6 active torsions:
REMARK  status: ('A' for Active; 'I' for Inactive)
REMARK    1  A    between atoms: C2_2  and  C3_3 
REMARK    2  A    between atoms: C4_5  and  C5_6 
REMARK    3  A    between atoms: C5_6  and  C6_7 
REMARK    4  A    between atoms: C6_7  and  C7_8 
REMARK    5  A    between atoms: C7_8  and  C9_10 
REMARK    6  A    between atoms: C30_32  and  O3_33 
ROOT
HETATM    1  C9  UNL     1      -1.684   5.945  12.170  1.00  0.00    -0.002 C 
HETATM    2  C10 UNL     1      -2.067   6.673  13.490  1.00  0.00     0.007 C 
HETATM    3  C11 UNL     1      -0.916   7.634  13.841  1.00  0.00     0.015 C 
HETATM    4  C12 UNL     1      -0.067   7.726  12.561  1.00  0.00    -0.010 C 
HETATM    5  C13 UNL     1      -0.758   8.769  11.625  1.00  0.00     0.021 C 
HETATM    6  C14 UNL     1       1.396   8.164  12.664  1.00  0.00    -0.039 C 
HETATM    7  C15 UNL     1       2.286   7.749  11.721  1.00  0.00    -0.066 C 
HETATM    8  C16 UNL     1       1.866   6.787  10.601  1.00  0.00     0.036 C 
HETATM    9  C17 UNL     1       0.438   6.201  10.639  1.00  0.00     0.015 C 
HETATM   10  C18 UNL     1      -0.154   6.234  12.053  1.00  0.00    -0.029 C 
HETATM   11  C19 UNL     1       0.634   5.230  12.948  1.00  0.00     0.016 C 
HETATM   12  C20 UNL     1       3.773   8.203  11.725  1.00  0.00    -0.015 C 
HETATM   13  C21 UNL     1       4.616   6.995  12.199  1.00  0.00     0.020 C 
HETATM   14  C22 UNL     1       4.210   8.616  10.296  1.00  0.00     0.021 C 
HETATM   15  C23 UNL     1       5.524   9.383  10.190  1.00  0.00     0.080 C 
HETATM   16  C24 UNL     1       6.252   9.599  11.496  1.00  0.00     0.135 C 
HETATM   17  O2  UNL     1       7.485   9.549  11.521  1.00  0.00    -0.297 OA
HETATM   18  C25 UNL     1       5.442   9.982  12.739  1.00  0.00     0.018 C 
HETATM   19  C26 UNL     1       6.185   9.451  13.984  1.00  0.00     0.023 C 
HETATM   20  C27 UNL     1       5.452  11.522  12.813  1.00  0.00     0.023 C 
HETATM   21  C28 UNL     1       3.966   9.472  12.623  1.00  0.00     0.016 C 
HETATM   22  C29 UNL     1       3.271   9.286  13.981  1.00  0.00     0.043 C 
HETATM   23  C30 UNL     1       1.768   9.072  13.811  1.00  0.00     0.148 C 
ENDROOT
BRANCH   1  24
HETATM   24  C7  UNL     1      -2.196   4.476  12.135  1.00  0.00    -0.014 C 
HETATM   25  C8  UNL     1      -1.892   3.773  10.808  1.00  0.00     0.010 C 
BRANCH  24  26
HETATM   26  C6  UNL     1      -3.712   4.354  12.449  1.00  0.00     0.008 C 
BRANCH  26  27
HETATM   27  C5  UNL     1      -4.483   3.337  11.598  1.00  0.00     0.028 C 
BRANCH  27  28
HETATM   28  C4  UNL     1      -5.952   3.382  11.921  1.00  0.00    -0.017 C 
HETATM   29  C2  UNL     1      -6.588   4.224  12.757  1.00  0.00    -0.028 C 
HETATM   30  C1  UNL     1      -5.989   5.330  13.569  1.00  0.00     0.051 C 
BRANCH  29  31
HETATM   31  C3  UNL     1      -8.071   4.071  12.905  1.00  0.00     0.265 C 
HETATM   32  O1  UNL     1      -8.656   2.994  12.879  1.00  0.00    -0.302 OA
ENDBRANCH  29  31
ENDBRANCH  27  28
ENDBRANCH  26  27
ENDBRANCH  24  26
ENDBRANCH   1  24
BRANCH  23  33
HETATM   33  O3  UNL     1       1.151  10.336  13.589  1.00  0.00    -0.391 OA
HETATM   34  H46 UNL     1       1.294  10.872  14.386  1.00  0.00     0.210 HD
ENDBRANCH  23  33
TORSDOF 6
ENDMDL
MODEL 3
REMARK minimizedAffinity -8.69606686
REMARK  6 active torsions:
REMARK  status: ('A' for Active; 'I' for Inactive)
REMARK    1  A    between atoms: C2_2  and  C3_3 
REMARK    2  A    between atoms: C4_5  and  C5_6 
REMARK    3  A    between atoms: C5_6  and  C6_7 
REMARK    4  A    between atoms: C6_7  and  C7_8 
REMARK    5  A    between atoms: C7_8  and  C9_10 
REMARK    6  A    between atoms: C30_32  and  O3_33 
ROOT
HETATM    1  C9  UNL     1      -5.776   7.085  14.979  1.00  0.00    -0.002 C 
HETATM    2  C10 UNL     1      -5.521   8.498  15.577  1.00  0.00     0.007 C 
HETATM    3  C11 UNL     1      -4.126   8.955  15.110  1.00  0.00     0.015 C 
HETATM    4  C12 UNL     1      -3.748   7.989  13.973  1.00  0.00    -0.010 C 
HETATM    5  C13 UNL     1      -4.443   8.513  12.675  1.00  0.00     0.021 C 
HETATM    6  C14 UNL     1      -2.274   7.803  13.610  1.00  0.00    -0.039 C 
HETATM    7  C15 UNL     1      -1.866   6.632  13.047  1.00  0.00    -0.066 C 
HETATM    8  C16 UNL     1      -2.845   5.467  12.841  1.00  0.00     0.036 C 
HETATM    9  C17 UNL     1      -4.276   5.608  13.402  1.00  0.00     0.015 C 
HETATM   10  C18 UNL     1      -4.347   6.640  14.533  1.00  0.00    -0.029 C 
HETATM   11  C19 UNL     1      -3.568   6.086  15.765  1.00  0.00     0.016 C 
HETATM   12  C20 UNL     1      -0.398   6.393  12.595  1.00  0.00    -0.015 C 
HETATM   13  C21 UNL     1       0.244   5.434  13.626  1.00  0.00     0.020 C 
HETATM   14  C22 UNL     1      -0.370   5.743  11.188  1.00  0.00     0.021 C 
HETATM   15  C23 UNL     1       0.978   5.742  10.475  1.00  0.00     0.080 C 
HETATM   16  C24 UNL     1       2.123   6.338  11.258  1.00  0.00     0.135 C 
HETATM   17  O2  UNL     1       3.248   5.836  11.170  1.00  0.00    -0.297 OA
HETATM   18  C25 UNL     1       1.880   7.619  12.063  1.00  0.00     0.018 C 
HETATM   19  C26 UNL     1       2.844   7.623  13.269  1.00  0.00     0.023 C 
HETATM   20  C27 UNL     1       2.277   8.795  11.148  1.00  0.00     0.023 C 
HETATM   21  C28 UNL     1       0.372   7.751  12.463  1.00  0.00     0.016 C 
HETATM   22  C29 UNL     1       0.139   8.630  13.702  1.00  0.00     0.043 C 
HETATM   23  C30 UNL     1      -1.342   8.961  13.876  1.00  0.00     0.148 C 
ENDROOT
BRANCH   1  24
HETATM   24  C7  UNL     1      -6.602   6.177  15.937  1.00  0.00    -0.014 C 
HETATM   25  C8  UNL     1      -7.257   4.996  15.215  1.00  0.00     0.010 C 
BRANCH  24  26
HETATM   26  C6  UNL     1      -7.680   6.960  16.733  1.00  0.00     0.008 C 
BRANCH  26  27
HETATM   27  C5  UNL     1      -9.032   7.124  16.028  1.00  0.00     0.028 C 
BRANCH  27  28
HETATM   28  C4  UNL     1      -8.906   6.818  14.560  1.00  0.00    -0.017 C 
HETATM   29  C2  UNL     1      -9.894   6.703  13.652  1.00  0.00    -0.028 C 
HETATM   30  C1  UNL     1     -11.365   6.858  13.881  1.00  0.00     0.051 C 
BRANCH  29  31
HETATM   31  C3  UNL     1      -9.508   6.398  12.238  1.00  0.00     0.265 C 
HETATM   32  O1  UNL     1      -8.581   5.660  11.923  1.00  0.00    -0.302 OA
ENDBRANCH  29  31
ENDBRANCH  27  28
ENDBRANCH  26  27
ENDBRANCH  24  26
ENDBRANCH   1  24
BRANCH  23  33
HETATM   33  O3  UNL     1      -1.683  10.013  12.978  1.00  0.00    -0.391 OA
HETATM   34  H46 UNL     1      -1.164  10.793  13.236  1.00  0.00     0.210 HD
ENDBRANCH  23  33
TORSDOF 6
ENDMDL
MODEL 4
REMARK minimizedAffinity -8.68643856
REMARK  6 active torsions:
REMARK  status: ('A' for Active; 'I' for Inactive)
REMARK    1  A    between atoms: C2_2  and  C3_3 
REMARK    2  A    between atoms: C4_5  and  C5_6 
REMARK    3  A    between atoms: C5_6  and  C6_7 
REMARK    4  A    between atoms: C6_7  and  C7_8 
REMARK    5  A    between atoms: C7_8  and  C9_10 
REMARK    6  A    between atoms: C30_32  and  O3_33 
ROOT
HETATM    1  C9  UNL     1       1.043   6.694  13.168  1.00  0.00    -0.002 C 
HETATM    2  C10 UNL     1       1.325   7.643  14.367  1.00  0.00     0.007 C 
HETATM    3  C11 UNL     1      -0.012   7.884  15.093  1.00  0.00     0.015 C 
HETATM    4  C12 UNL     1      -0.964   6.807  14.544  1.00  0.00    -0.010 C 
HETATM    5  C13 UNL     1      -0.678   5.492  15.339  1.00  0.00     0.021 C 
HETATM    6  C14 UNL     1      -2.475   7.029  14.637  1.00  0.00    -0.039 C 
HETATM    7  C15 UNL     1      -3.296   6.429  13.731  1.00  0.00    -0.066 C 
HETATM    8  C16 UNL     1      -2.727   5.597  12.573  1.00  0.00     0.036 C 
HETATM    9  C17 UNL     1      -1.195   5.558  12.386  1.00  0.00     0.015 C 
HETATM   10  C18 UNL     1      -0.511   6.767  13.033  1.00  0.00    -0.029 C 
HETATM   11  C19 UNL     1      -0.903   8.049  12.238  1.00  0.00     0.016 C 
HETATM   12  C20 UNL     1      -4.844   6.558  13.798  1.00  0.00    -0.015 C 
HETATM   13  C21 UNL     1      -5.270   7.517  12.661  1.00  0.00     0.020 C 
HETATM   14  C22 UNL     1      -5.505   5.171  13.589  1.00  0.00     0.021 C 
HETATM   15  C23 UNL     1      -6.985   5.072  13.945  1.00  0.00     0.080 C 
HETATM   16  C24 UNL     1      -7.624   6.358  14.414  1.00  0.00     0.135 C 
HETATM   17  O2  UNL     1      -8.787   6.614  14.088  1.00  0.00    -0.297 OA
HETATM   18  C25 UNL     1      -6.844   7.263  15.373  1.00  0.00     0.018 C 
HETATM   19  C26 UNL     1      -7.295   8.721  15.137  1.00  0.00     0.023 C 
HETATM   20  C27 UNL     1      -7.276   6.868  16.799  1.00  0.00     0.023 C 
HETATM   21  C28 UNL     1      -5.301   7.049  15.215  1.00  0.00     0.016 C 
HETATM   22  C29 UNL     1      -4.463   8.254  15.667  1.00  0.00     0.043 C 
HETATM   23  C30 UNL     1      -2.981   7.894  15.766  1.00  0.00     0.148 C 
ENDROOT
BRANCH   1  24
HETATM   24  C7  UNL     1       1.939   7.016  11.936  1.00  0.00    -0.014 C 
HETATM   25  C8  UNL     1       1.451   8.237  11.150  1.00  0.00     0.010 C 
BRANCH  24  26
HETATM   26  C6  UNL     1       2.100   5.811  10.972  1.00  0.00     0.008 C 
BRANCH  26  27
HETATM   27  C5  UNL     1       3.197   5.956   9.909  1.00  0.00     0.028 C 
BRANCH  27  28
HETATM   28  C4  UNL     1       2.594   6.025   8.531  1.00  0.00    -0.017 C 
HETATM   29  C2  UNL     1       2.493   7.100   7.727  1.00  0.00    -0.028 C 
HETATM   30  C1  UNL     1       2.962   8.494   8.005  1.00  0.00     0.051 C 
BRANCH  29  31
HETATM   31  C3  UNL     1       1.853   6.909   6.387  1.00  0.00     0.265 C 
HETATM   32  O1  UNL     1       1.733   7.797   5.550  1.00  0.00    -0.302 OA
ENDBRANCH  29  31
ENDBRANCH  27  28
ENDBRANCH  26  27
ENDBRANCH  24  26
ENDBRANCH   1  24
BRANCH  23  33
HETATM   33  O3  UNL     1      -2.763   7.194  16.987  1.00  0.00    -0.391 OA
HETATM   34  H46 UNL     1      -2.978   7.804  17.713  1.00  0.00     0.210 HD
ENDBRANCH  23  33
TORSDOF 6
ENDMDL
MODEL 5
REMARK minimizedAffinity -8.67878437
REMARK  6 active torsions:
REMARK  status: ('A' for Active; 'I' for Inactive)
REMARK    1  A    between atoms: C2_2  and  C3_3 
REMARK    2  A    between atoms: C4_5  and  C5_6 
REMARK    3  A    between atoms: C5_6  and  C6_7 
REMARK    4  A    between atoms: C6_7  and  C7_8 
REMARK    5  A    between atoms: C7_8  and  C9_10 
REMARK    6  A    between atoms: C30_32  and  O3_33 
ROOT
HETATM    1  C9  UNL     1      -2.500   5.746  12.923  1.00  0.00    -0.002 C 
HETATM    2  C10 UNL     1      -2.450   5.015  11.550  1.00  0.00     0.007 C 
HETATM    3  C11 UNL     1      -1.008   5.123  11.019  1.00  0.00     0.015 C 
HETATM    4  C12 UNL     1      -0.170   5.579  12.227  1.00  0.00    -0.010 C 
HETATM    5  C13 UNL     1       0.151   4.305  13.072  1.00  0.00     0.021 C 
HETATM    6  C14 UNL     1       1.174   6.269  11.985  1.00  0.00    -0.039 C 
HETATM    7  C15 UNL     1       1.658   7.137  12.915  1.00  0.00    -0.066 C 
HETATM    8  C16 UNL     1       0.841   7.496  14.166  1.00  0.00     0.036 C 
HETATM    9  C17 UNL     1      -0.596   6.945  14.283  1.00  0.00     0.015 C 
HETATM   10  C18 UNL     1      -1.180   6.580  12.913  1.00  0.00    -0.029 C 
HETATM   11  C19 UNL     1      -1.400   7.890  12.098  1.00  0.00     0.016 C 
HETATM   12  C20 UNL     1       3.043   7.828  12.769  1.00  0.00    -0.015 C 
HETATM   13  C21 UNL     1       2.777   9.305  12.392  1.00  0.00     0.020 C 
HETATM   14  C22 UNL     1       3.818   7.761  14.110  1.00  0.00     0.021 C 
HETATM   15  C23 UNL     1       5.304   8.100  14.044  1.00  0.00     0.080 C 
HETATM   16  C24 UNL     1       5.815   8.502  12.681  1.00  0.00     0.135 C 
HETATM   17  O2  UNL     1       6.672   9.385  12.589  1.00  0.00    -0.297 OA
HETATM   18  C25 UNL     1       5.331   7.725  11.452  1.00  0.00     0.018 C 
HETATM   19  C26 UNL     1       5.355   8.678  10.237  1.00  0.00     0.023 C 
HETATM   20  C27 UNL     1       6.371   6.617  11.195  1.00  0.00     0.023 C 
HETATM   21  C28 UNL     1       3.929   7.078  11.716  1.00  0.00     0.016 C 
HETATM   22  C29 UNL     1       3.130   6.800  10.434  1.00  0.00     0.043 C 
HETATM   23  C30 UNL     1       1.916   5.917  10.717  1.00  0.00     0.148 C 
ENDROOT
BRANCH   1  24
HETATM   24  C7  UNL     1      -3.861   6.461  13.163  1.00  0.00    -0.014 C 
HETATM   25  C8  UNL     1      -3.696   7.920  13.599  1.00  0.00     0.010 C 
BRANCH  24  26
HETATM   26  C6  UNL     1      -4.766   5.716  14.181  1.00  0.00     0.008 C 
BRANCH  26  27
HETATM   27  C5  UNL     1      -6.050   5.107  13.603  1.00  0.00     0.028 C 
BRANCH  27  28
HETATM   28  C4  UNL     1      -5.723   4.084  12.548  1.00  0.00    -0.017 C 
HETATM   29  C2  UNL     1      -6.412   2.970  12.238  1.00  0.00    -0.028 C 
HETATM   30  C1  UNL     1      -7.679   2.477  12.863  1.00  0.00     0.051 C 
BRANCH  29  31
HETATM   31  C3  UNL     1      -5.881   2.109  11.133  1.00  0.00     0.265 C 
HETATM   32  O1  UNL     1      -5.567   0.932  11.270  1.00  0.00    -0.302 OA
ENDBRANCH  29  31
ENDBRANCH  27  28
ENDBRANCH  26  27
ENDBRANCH  24  26
ENDBRANCH   1  24
BRANCH  23  33
HETATM   33  O3  UNL     1       2.351   4.565  10.824  1.00  0.00    -0.391 OA
HETATM   34  H46 UNL     1       2.718   4.310   9.962  1.00  0.00     0.210 HD
ENDBRANCH  23  33
TORSDOF 6
ENDMDL
MODEL 6
REMARK minimizedAffinity -8.55997944
REMARK  6 active torsions:
REMARK  status: ('A' for Active; 'I' for Inactive)
REMARK    1  A    between atoms: C2_2  and  C3_3 
REMARK    2  A    between atoms: C4_5  and  C5_6 
REMARK    3  A    between atoms: C5_6  and  C6_7 
REMARK    4  A    between atoms: C6_7  and  C7_8 
REMARK    5  A    between atoms: C7_8  and  C9_10 
REMARK    6  A    between atoms: C30_32  and  O3_33 
ROOT
HETATM    1  C9  UNL     1      -3.918   6.669  14.495  1.00  0.00    -0.002 C 
HETATM    2  C10 UNL     1      -4.359   5.608  13.445  1.00  0.00     0.007 C 
HETATM    3  C11 UNL     1      -3.144   5.313  12.545  1.00  0.00     0.015 C 
HETATM    4  C12 UNL     1      -1.939   5.912  13.291  1.00  0.00    -0.010 C 
HETATM    5  C13 UNL     1      -1.497   4.866  14.366  1.00  0.00     0.021 C 
HETATM    6  C14 UNL     1      -0.673   6.262  12.506  1.00  0.00    -0.039 C 
HETATM    7  C15 UNL     1       0.151   7.242  12.968  1.00  0.00    -0.066 C 
HETATM    8  C16 UNL     1      -0.207   8.056  14.220  1.00  0.00     0.036 C 
HETATM    9  C17 UNL     1      -1.585   7.821  14.874  1.00  0.00     0.015 C 
HETATM   10  C18 UNL     1      -2.591   7.221  13.885  1.00  0.00    -0.029 C 
HETATM   11  C19 UNL     1      -2.924   8.290  12.800  1.00  0.00     0.016 C 
HETATM   12  C20 UNL     1       1.485   7.611  12.259  1.00  0.00    -0.015 C 
HETATM   13  C21 UNL     1       1.258   8.961  11.537  1.00  0.00     0.020 C 
HETATM   14  C22 UNL     1       2.622   7.759  13.302  1.00  0.00     0.021 C 
HETATM   15  C23 UNL     1       4.042   7.798  12.747  1.00  0.00     0.080 C 
HETATM   16  C24 UNL     1       4.149   7.731  11.242  1.00  0.00     0.135 C 
HETATM   17  O2  UNL     1       5.017   8.392  10.663  1.00  0.00    -0.297 OA
HETATM   18  C25 UNL     1       3.242   6.761  10.479  1.00  0.00     0.018 C 
HETATM   19  C26 UNL     1       2.985   7.342   9.072  1.00  0.00     0.023 C 
HETATM   20  C27 UNL     1       4.044   5.456  10.303  1.00  0.00     0.023 C 
HETATM   21  C28 UNL     1       1.933   6.466  11.286  1.00  0.00     0.016 C 
HETATM   22  C29 UNL     1       0.758   6.010  10.407  1.00  0.00     0.043 C 
HETATM   23  C30 UNL     1      -0.390   5.464  11.255  1.00  0.00     0.148 C 
ENDROOT
BRANCH   1  24
HETATM   24  C7  UNL     1      -5.067   7.653  14.859  1.00  0.00    -0.014 C 
HETATM   25  C8  UNL     1      -4.564   8.918  15.561  1.00  0.00     0.010 C 
BRANCH  24  26
HETATM   26  C6  UNL     1      -6.181   6.994  15.716  1.00  0.00     0.008 C 
BRANCH  26  27
HETATM   27  C5  UNL     1      -7.463   6.620  14.961  1.00  0.00     0.028 C 
BRANCH  27  28
HETATM   28  C4  UNL     1      -7.383   5.207  14.451  1.00  0.00    -0.017 C 
HETATM   29  C2  UNL     1      -7.784   4.737  13.254  1.00  0.00    -0.028 C 
HETATM   30  C1  UNL     1      -8.403   5.511  12.131  1.00  0.00     0.051 C 
BRANCH  29  31
HETATM   31  C3  UNL     1      -7.589   3.279  12.977  1.00  0.00     0.265 C 
HETATM   32  O1  UNL     1      -8.499   2.502  12.712  1.00  0.00    -0.302 OA
ENDBRANCH  29  31
ENDBRANCH  27  28
ENDBRANCH  26  27
ENDBRANCH  24  26
ENDBRANCH   1  24
BRANCH  23  33
HETATM   33  O3  UNL     1      -0.073   4.132  11.647  1.00  0.00    -0.391 OA
HETATM   34  H46 UNL     1      -0.012   3.599  10.837  1.00  0.00     0.210 HD
ENDBRANCH  23  33
TORSDOF 6
ENDMDL
MODEL 7
REMARK minimizedAffinity -8.4255209
REMARK  6 active torsions:
REMARK  status: ('A' for Active; 'I' for Inactive)
REMARK    1  A    between atoms: C2_2  and  C3_3 
REMARK    2  A    between atoms: C4_5  and  C5_6 
REMARK    3  A    between atoms: C5_6  and  C6_7 
REMARK    4  A    between atoms: C6_7  and  C7_8 
REMARK    5  A    between atoms: C7_8  and  C9_10 
REMARK    6  A    between atoms: C30_32  and  O3_33 
ROOT
HETATM    1  C9  UNL     1      -2.133   4.783  12.892  1.00  0.00    -0.002 C 
HETATM    2  C10 UNL     1      -1.275   5.419  11.762  1.00  0.00     0.007 C 
HETATM    3  C11 UNL     1      -0.996   6.881  12.157  1.00  0.00     0.015 C 
HETATM    4  C12 UNL     1      -1.371   6.971  13.647  1.00  0.00    -0.010 C 
HETATM    5  C13 UNL     1      -0.149   6.434  14.461  1.00  0.00     0.021 C 
HETATM    6  C14 UNL     1      -1.707   8.336  14.252  1.00  0.00    -0.039 C 
HETATM    7  C15 UNL     1      -2.532   8.403  15.333  1.00  0.00    -0.066 C 
HETATM    8  C16 UNL     1      -3.193   7.141  15.907  1.00  0.00     0.036 C 
HETATM    9  C17 UNL     1      -2.999   5.808  15.154  1.00  0.00     0.015 C 
HETATM   10  C18 UNL     1      -2.639   6.033  13.680  1.00  0.00    -0.029 C 
HETATM   11  C19 UNL     1      -3.875   6.641  12.951  1.00  0.00     0.016 C 
HETATM   12  C20 UNL     1      -2.870   9.747  16.039  1.00  0.00    -0.015 C 
HETATM   13  C21 UNL     1      -4.322  10.112  15.651  1.00  0.00     0.020 C 
HETATM   14  C22 UNL     1      -2.765   9.583  17.577  1.00  0.00     0.021 C 
HETATM   15  C23 UNL     1      -2.748  10.873  18.390  1.00  0.00     0.080 C 
HETATM   16  C24 UNL     1      -2.882  12.145  17.587  1.00  0.00     0.135 C 
HETATM   17  O2  UNL     1      -3.533  13.089  18.044  1.00  0.00    -0.297 OA
HETATM   18  C25 UNL     1      -2.115  12.268  16.266  1.00  0.00     0.018 C 
HETATM   19  C26 UNL     1      -2.909  13.207  15.331  1.00  0.00     0.023 C 
HETATM   20  C27 UNL     1      -0.779  12.962  16.596  1.00  0.00     0.023 C 
HETATM   21  C28 UNL     1      -1.835  10.857  15.648  1.00  0.00     0.016 C 
HETATM   22  C29 UNL     1      -1.617  10.883  14.127  1.00  0.00     0.043 C 
HETATM   23  C30 UNL     1      -1.068   9.550  13.622  1.00  0.00     0.148 C 
ENDROOT
BRANCH   1  24
HETATM   24  C7  UNL     1      -3.161   3.750  12.345  1.00  0.00    -0.014 C 
HETATM   25  C8  UNL     1      -3.307   3.810  10.821  1.00  0.00     0.010 C 
BRANCH  24  26
HETATM   26  C6  UNL     1      -4.560   3.878  13.004  1.00  0.00     0.008 C 
BRANCH  26  27
HETATM   27  C5  UNL     1      -5.697   3.137  12.290  1.00  0.00     0.028 C 
BRANCH  27  28
HETATM   28  C4  UNL     1      -6.875   4.051  12.079  1.00  0.00    -0.017 C 
HETATM   29  C2  UNL     1      -7.572   4.727  13.011  1.00  0.00    -0.028 C 
HETATM   30  C1  UNL     1      -7.343   4.740  14.490  1.00  0.00     0.051 C 
BRANCH  29  31
HETATM   31  C3  UNL     1      -8.707   5.585  12.545  1.00  0.00     0.265 C 
HETATM   32  O1  UNL     1      -8.885   5.913  11.377  1.00  0.00    -0.302 OA
ENDBRANCH  29  31
ENDBRANCH  27  28
ENDBRANCH  26  27
ENDBRANCH  24  26
ENDBRANCH   1  24
BRANCH  23  33
HETATM   33  O3  UNL     1       0.330   9.501  13.893  1.00  0.00    -0.391 OA
HETATM   34  H46 UNL     1       0.748  10.216  13.384  1.00  0.00     0.210 HD
ENDBRANCH  23  33
TORSDOF 6
ENDMDL
MODEL 8
REMARK minimizedAffinity -8.31360531
REMARK  6 active torsions:
REMARK  status: ('A' for Active; 'I' for Inactive)
REMARK    1  A    between atoms: C2_2  and  C3_3 
REMARK    2  A    between atoms: C4_5  and  C5_6 
REMARK    3  A    between atoms: C5_6  and  C6_7 
REMARK    4  A    between atoms: C6_7  and  C7_8 
REMARK    5  A    between atoms: C7_8  and  C9_10 
REMARK    6  A    between atoms: C30_32  and  O3_33 
ROOT
HETATM    1  C9  UNL     1       1.021   6.977  12.981  1.00  0.00    -0.002 C 
HETATM    2  C10 UNL     1       1.307   7.913  14.190  1.00  0.00     0.007 C 
HETATM    3  C11 UNL     1      -0.018   8.109  14.950  1.00  0.00     0.015 C 
HETATM    4  C12 UNL     1      -0.957   7.018  14.405  1.00  0.00    -0.010 C 
HETATM    5  C13 UNL     1      -0.621   5.698  15.171  1.00  0.00     0.021 C 
HETATM    6  C14 UNL     1      -2.470   7.201  14.535  1.00  0.00    -0.039 C 
HETATM    7  C15 UNL     1      -3.297   6.596  13.638  1.00  0.00    -0.066 C 
HETATM    8  C16 UNL     1      -2.734   5.797  12.453  1.00  0.00     0.036 C 
HETATM    9  C17 UNL     1      -1.207   5.799  12.231  1.00  0.00     0.015 C 
HETATM   10  C18 UNL     1      -0.537   7.014  12.883  1.00  0.00    -0.029 C 
HETATM   11  C19 UNL     1      -0.979   8.299  12.119  1.00  0.00     0.016 C 
HETATM   12  C20 UNL     1      -4.846   6.685  13.742  1.00  0.00    -0.015 C 
HETATM   13  C21 UNL     1      -5.321   7.652  12.631  1.00  0.00     0.020 C 
HETATM   14  C22 UNL     1      -5.477   5.286  13.524  1.00  0.00     0.021 C 
HETATM   15  C23 UNL     1      -6.946   5.145  13.911  1.00  0.00     0.080 C 
HETATM   16  C24 UNL     1      -7.605   6.406  14.416  1.00  0.00     0.135 C 
HETATM   17  O2  UNL     1      -8.781   6.640  14.121  1.00  0.00    -0.297 OA
HETATM   18  C25 UNL     1      -6.826   7.315  15.373  1.00  0.00     0.018 C 
HETATM   19  C26 UNL     1      -7.317   8.765  15.172  1.00  0.00     0.023 C 
HETATM   20  C27 UNL     1      -7.215   6.886  16.801  1.00  0.00     0.023 C 
HETATM   21  C28 UNL     1      -5.282   7.141  15.176  1.00  0.00     0.016 C 
HETATM   22  C29 UNL     1      -4.463   8.360  15.630  1.00  0.00     0.043 C 
HETATM   23  C30 UNL     1      -2.971   8.035  15.689  1.00  0.00     0.148 C 
ENDROOT
BRANCH   1  24
HETATM   24  C7  UNL     1       1.881   7.341  11.736  1.00  0.00    -0.014 C 
HETATM   25  C8  UNL     1       1.204   8.376  10.830  1.00  0.00     0.010 C 
BRANCH  24  26
HETATM   26  C6  UNL     1       2.282   6.101  10.893  1.00  0.00     0.008 C 
BRANCH  26  27
HETATM   27  C5  UNL     1       3.608   6.222  10.131  1.00  0.00     0.028 C 
BRANCH  27  28
HETATM   28  C4  UNL     1       4.567   7.113  10.873  1.00  0.00    -0.017 C 
HETATM   29  C2  UNL     1       5.831   6.837  11.245  1.00  0.00    -0.028 C 
HETATM   30  C1  UNL     1       6.597   5.573  11.005  1.00  0.00     0.051 C 
BRANCH  29  31
HETATM   31  C3  UNL     1       6.591   7.902  11.973  1.00  0.00     0.265 C 
HETATM   32  O1  UNL     1       7.123   8.862  11.427  1.00  0.00    -0.302 OA
ENDBRANCH  29  31
ENDBRANCH  27  28
ENDBRANCH  26  27
ENDBRANCH  24  26
ENDBRANCH   1  24
BRANCH  23  33
HETATM   33  O3  UNL     1      -2.708   7.321  16.894  1.00  0.00    -0.391 OA
HETATM   34  H46 UNL     1      -2.921   7.913  17.634  1.00  0.00     0.210 HD
ENDBRANCH  23  33
TORSDOF 6
ENDMDL
MODEL 9
REMARK minimizedAffinity -8.27125835
REMARK  6 active torsions:
REMARK  status: ('A' for Active; 'I' for Inactive)
REMARK    1  A    between atoms: C2_2  and  C3_3 
REMARK    2  A    between atoms: C4_5  and  C5_6 
REMARK    3  A    between atoms: C5_6  and  C6_7 
REMARK    4  A    between atoms: C6_7  and  C7_8 
REMARK    5  A    between atoms: C7_8  and  C9_10 
REMARK    6  A    between atoms: C30_32  and  O3_33 
ROOT
HETATM    1  C9  UNL     1       1.218   6.909  12.916  1.00  0.00    -0.002 C 
HETATM    2  C10 UNL     1       0.418   8.031  13.638  1.00  0.00     0.007 C 
HETATM    3  C11 UNL     1      -1.046   7.564  13.742  1.00  0.00     0.015 C 
HETATM    4  C12 UNL     1      -1.009   6.059  13.421  1.00  0.00    -0.010 C 
HETATM    5  C13 UNL     1      -0.597   5.319  14.734  1.00  0.00     0.021 C 
HETATM    6  C14 UNL     1      -2.285   5.367  12.936  1.00  0.00    -0.039 C 
HETATM    7  C15 UNL     1      -2.189   4.257  12.154  1.00  0.00    -0.066 C 
HETATM    8  C16 UNL     1      -0.823   3.733  11.685  1.00  0.00     0.036 C 
HETATM    9  C17 UNL     1       0.432   4.566  12.019  1.00  0.00     0.015 C 
HETATM   10  C18 UNL     1       0.088   6.036  12.286  1.00  0.00    -0.029 C 
HETATM   11  C19 UNL     1      -0.390   6.687  10.953  1.00  0.00     0.016 C 
HETATM   12  C20 UNL     1      -3.438   3.466  11.675  1.00  0.00    -0.015 C 
HETATM   13  C21 UNL     1      -3.629   3.783  10.172  1.00  0.00     0.020 C 
HETATM   14  C22 UNL     1      -3.211   1.944  11.863  1.00  0.00     0.021 C 
HETATM   15  C23 UNL     1      -4.449   1.060  11.746  1.00  0.00     0.080 C 
HETATM   16  C24 UNL     1      -5.732   1.786  11.417  1.00  0.00     0.135 C 
HETATM   17  O2  UNL     1      -6.557   1.255  10.669  1.00  0.00    -0.297 OA
HETATM   18  C25 UNL     1      -6.022   3.123  12.106  1.00  0.00     0.018 C 
HETATM   19  C26 UNL     1      -6.895   3.976  11.160  1.00  0.00     0.023 C 
HETATM   20  C27 UNL     1      -6.867   2.800  13.354  1.00  0.00     0.023 C 
HETATM   21  C28 UNL     1      -4.693   3.829  12.540  1.00  0.00     0.016 C 
HETATM   22  C29 UNL     1      -4.826   5.352  12.690  1.00  0.00     0.043 C 
HETATM   23  C30 UNL     1      -3.604   5.950  13.386  1.00  0.00     0.148 C 
ENDROOT
BRANCH   1  24
HETATM   24  C7  UNL     1       2.348   7.479  12.010  1.00  0.00    -0.014 C 
HETATM   25  C8  UNL     1       1.917   8.732  11.242  1.00  0.00     0.010 C 
BRANCH  24  26
HETATM   26  C6  UNL     1       2.912   6.431  11.013  1.00  0.00     0.008 C 
BRANCH  26  27
HETATM   27  C5  UNL     1       4.204   6.834  10.291  1.00  0.00     0.028 C 
BRANCH  27  28
HETATM   28  C4  UNL     1       5.249   7.272  11.281  1.00  0.00    -0.017 C 
HETATM   29  C2  UNL     1       6.408   6.657  11.585  1.00  0.00    -0.028 C 
HETATM   30  C1  UNL     1       6.945   5.385  11.006  1.00  0.00     0.051 C 
BRANCH  29  31
HETATM   31  C3  UNL     1       7.291   7.302  12.608  1.00  0.00     0.265 C 
HETATM   32  O1  UNL     1       8.009   8.271  12.383  1.00  0.00    -0.302 OA
ENDBRANCH  29  31
ENDBRANCH  27  28
ENDBRANCH  26  27
ENDBRANCH  24  26
ENDBRANCH   1  24
BRANCH  23  33
HETATM   33  O3  UNL     1      -3.725   5.730  14.788  1.00  0.00    -0.391 OA
HETATM   34  H46 UNL     1      -4.513   6.212  15.090  1.00  0.00     0.210 HD
ENDBRANCH  23  33
TORSDOF 6
ENDMDL
