MODEL 1
REMARK minimizedAffinity -8.36555195
REMARK CNNscore 0.521316946
REMARK CNNaffinity 7.16906929
REMARK  11 active torsions:
REMARK  status: ('A' for Active; 'I' for Inactive)
REMARK    1  A    between atoms: C2_2  and  O1_4 
REMARK    2  A    between atoms: C2_2  and  C4_5 
REMARK    3  A    between atoms: C5_6  and  C6_7 
REMARK    4  A    between atoms: C6_7  and  C7_8 
REMARK    5  A    between atoms: C7_8  and  C8_9 
REMARK    6  A    between atoms: C7_8  and  C14_21 
REMARK    7  A    between atoms: C8_9  and  O3_11 
REMARK    8  A    between atoms: O3_11  and  C9_12 
REMARK    9  A    between atoms: C10_13  and  O4_14 
REMARK   10  A    between atoms: C11_15  and  O5_16 
REMARK   11  A    between atoms: C13_19  and  O7_20 
ROOT
HETATM    1  C7  UNL     1      -3.123  49.450 -22.496  1.00  0.00     0.094 C 
ENDROOT
BRANCH   1   2
HETATM    2  C6  UNL     1      -1.627  49.189 -22.173  1.00  0.00     0.042 C 
BRANCH   2   3
HETATM    3  C5  UNL     1      -1.135  49.746 -20.866  1.00  0.00    -0.027 C 
HETATM    4  C4  UNL     1      -1.613  50.874 -20.310  1.00  0.00     0.006 C 
BRANCH   4   5
HETATM    5  C2  UNL     1      -1.145  51.509 -19.018  1.00  0.00     0.068 C 
HETATM    6  C1  UNL     1      -0.332  50.510 -18.190  1.00  0.00     0.050 C 
HETATM    7  C3  UNL     1      -0.314  52.760 -19.305  1.00  0.00     0.050 C 
BRANCH   5   8
HETATM    8  O1  UNL     1      -2.273  51.910 -18.241  1.00  0.00    -0.387 OA
HETATM    9  H7  UNL     1      -2.777  51.099 -18.049  1.00  0.00     0.211 HD
ENDBRANCH   5   8
ENDBRANCH   4   5
ENDBRANCH   2   3
ENDBRANCH   1   2
BRANCH   1  10
HETATM   10  C8  UNL     1      -3.129  49.887 -23.956  1.00  0.00     0.264 C 
HETATM   11  O2  UNL     1      -2.913  51.026 -24.351  1.00  0.00    -0.265 OA
BRANCH  10  12
HETATM   12  O3  UNL     1      -3.450  48.845 -24.765  1.00  0.00    -0.308 OA
BRANCH  12  13
HETATM   13  C9  UNL     1      -4.126  49.153 -26.012  1.00  0.00     0.218 C 
HETATM   14  C10 UNL     1      -5.226  48.098 -26.186  1.00  0.00     0.183 C 
HETATM   15  C11 UNL     1      -5.857  48.136 -27.582  1.00  0.00     0.173 C 
HETATM   16  C12 UNL     1      -4.763  48.097 -28.641  1.00  0.00     0.205 C 
HETATM   17  O6  UNL     1      -3.866  49.183 -28.455  1.00  0.00    -0.356 OA
HETATM   18  C13 UNL     1      -3.160  49.100 -27.219  1.00  0.00     0.288 C 
BRANCH  14  19
HETATM   19  O4  UNL     1      -6.262  48.304 -25.214  1.00  0.00    -0.390 OA
HETATM   20  H15 UNL     1      -6.866  47.537 -25.318  1.00  0.00     0.210 HD
ENDBRANCH  14  19
BRANCH  15  21
HETATM   21  O5  UNL     1      -6.746  47.024 -27.711  1.00  0.00    -0.391 OA
HETATM   22  H17 UNL     1      -7.182  47.103 -28.581  1.00  0.00     0.210 HD
ENDBRANCH  15  21
BRANCH  18  23
HETATM   23  O7  UNL     1      -2.211  50.157 -27.216  1.00  0.00    -0.369 OA
HETATM   24  H21 UNL     1      -2.502  50.833 -26.571  1.00  0.00     0.212 HD
ENDBRANCH  18  23
ENDBRANCH  12  13
ENDBRANCH  10  12
ENDBRANCH   1  10
BRANCH   1  25
HETATM   25  C14 UNL     1      -4.067  48.239 -22.230  1.00  0.00     0.009 C 
HETATM   26  C15 UNL     1      -3.325  47.031 -21.576  1.00  0.00     0.007 C 
HETATM   27  C16 UNL     1      -4.276  46.389 -20.550  1.00  0.00     0.015 C 
HETATM   28  C17 UNL     1      -5.662  46.934 -20.913  1.00  0.00    -0.013 C 
HETATM   29  C18 UNL     1      -6.200  46.073 -22.094  1.00  0.00     0.021 C 
HETATM   30  C19 UNL     1      -6.769  46.912 -19.860  1.00  0.00    -0.068 C 
HETATM   31  C23 UNL     1      -5.289  48.422 -21.269  1.00  0.00    -0.028 C 
HETATM   32  C20 UNL     1      -7.777  47.824 -19.915  1.00  0.00    -0.068 C 
HETATM   33  C35 UNL     1      -6.703  45.820 -18.824  1.00  0.00     0.036 C 
HETATM   34  C21 UNL     1      -7.774  48.945 -20.964  1.00  0.00     0.036 C 
HETATM   35  C25 UNL     1      -8.969  47.805 -18.918  1.00  0.00    -0.015 C 
HETATM   36  C22 UNL     1      -6.540  49.063 -21.880  1.00  0.00     0.015 C 
HETATM   37  C26 UNL     1      -8.782  49.014 -17.965  1.00  0.00     0.020 C 
HETATM   38  C27 UNL     1     -10.312  47.965 -19.690  1.00  0.00     0.021 C 
HETATM   39  C33 UNL     1      -9.048  46.430 -18.154  1.00  0.00     0.013 C 
HETATM   40  C28 UNL     1     -11.555  47.425 -18.987  1.00  0.00     0.080 C 
HETATM   41  C29 UNL     1     -11.359  47.220 -17.502  1.00  0.00     0.135 C 
HETATM   42  O8  UNL     1     -12.180  47.669 -16.700  1.00  0.00    -0.297 OA
HETATM   43  C30 UNL     1     -10.169  46.350 -17.064  1.00  0.00     0.018 C 
HETATM   44  C31 UNL     1      -9.709  46.775 -15.653  1.00  0.00     0.023 C 
HETATM   45  C32 UNL     1     -10.697  44.900 -16.950  1.00  0.00     0.023 C 
HETATM   46  C34 UNL     1      -7.663  46.009 -17.650  1.00  0.00     0.011 C 
HETATM   47  C24 UNL     1      -4.855  49.252 -20.018  1.00  0.00     0.016 C 
ENDBRANCH   1  25
TORSDOF 11
ENDMDL
MODEL 2
REMARK minimizedAffinity -8.69960117
REMARK CNNscore 0.448040783
REMARK CNNaffinity 7.06123114
REMARK  11 active torsions:
REMARK  status: ('A' for Active; 'I' for Inactive)
REMARK    1  A    between atoms: C2_2  and  O1_4 
REMARK    2  A    between atoms: C2_2  and  C4_5 
REMARK    3  A    between atoms: C5_6  and  C6_7 
REMARK    4  A    between atoms: C6_7  and  C7_8 
REMARK    5  A    between atoms: C7_8  and  C8_9 
REMARK    6  A    between atoms: C7_8  and  C14_21 
REMARK    7  A    between atoms: C8_9  and  O3_11 
REMARK    8  A    between atoms: O3_11  and  C9_12 
REMARK    9  A    between atoms: C10_13  and  O4_14 
REMARK   10  A    between atoms: C11_15  and  O5_16 
REMARK   11  A    between atoms: C13_19  and  O7_20 
ROOT
HETATM    1  C7  UNL     1       1.359  52.140 -11.737  1.00  0.00     0.094 C 
ENDROOT
BRANCH   1   2
HETATM    2  C6  UNL     1       0.076  51.630 -11.028  1.00  0.00     0.042 C 
BRANCH   2   3
HETATM    3  C5  UNL     1      -1.180  52.404 -11.316  1.00  0.00    -0.027 C 
HETATM    4  C4  UNL     1      -2.405  52.012 -10.920  1.00  0.00     0.006 C 
BRANCH   4   5
HETATM    5  C2  UNL     1      -3.712  52.721 -11.200  1.00  0.00     0.068 C 
HETATM    6  C1  UNL     1      -3.798  54.026 -10.401  1.00  0.00     0.050 C 
HETATM    7  C3  UNL     1      -3.861  53.004 -12.695  1.00  0.00     0.050 C 
BRANCH   5   8
HETATM    8  O1  UNL     1      -4.805  51.892 -10.807  1.00  0.00    -0.387 OA
HETATM    9  H7  UNL     1      -4.706  51.742  -9.849  1.00  0.00     0.211 HD
ENDBRANCH   5   8
ENDBRANCH   4   5
ENDBRANCH   2   3
ENDBRANCH   1   2
BRANCH   1  10
HETATM   10  C8  UNL     1       1.027  52.078 -13.224  1.00  0.00     0.264 C 
HETATM   11  O2  UNL     1      -0.083  52.267 -13.706  1.00  0.00    -0.265 OA
BRANCH  10  12
HETATM   12  O3  UNL     1       2.127  51.740 -13.945  1.00  0.00    -0.308 OA
BRANCH  12  13
HETATM   13  C9  UNL     1       1.913  51.237 -15.289  1.00  0.00     0.218 C 
HETATM   14  C10 UNL     1       1.547  52.447 -16.157  1.00  0.00     0.183 C 
HETATM   15  C11 UNL     1       1.041  52.039 -17.545  1.00  0.00     0.173 C 
HETATM   16  C12 UNL     1      -0.063  50.999 -17.403  1.00  0.00     0.205 C 
HETATM   17  O6  UNL     1       0.419  49.874 -16.683  1.00  0.00    -0.356 OA
HETATM   18  C13 UNL     1       0.770  50.197 -15.340  1.00  0.00     0.288 C 
BRANCH  14  19
HETATM   19  O4  UNL     1       2.693  53.297 -16.324  1.00  0.00    -0.390 OA
HETATM   20  H15 UNL     1       2.356  54.091 -16.792  1.00  0.00     0.210 HD
ENDBRANCH  14  19
BRANCH  15  21
HETATM   21  O5  UNL     1       0.570  53.208 -18.219  1.00  0.00    -0.391 OA
HETATM   22  H17 UNL     1       0.311  52.936 -19.122  1.00  0.00     0.210 HD
ENDBRANCH  15  21
BRANCH  18  23
HETATM   23  O7  UNL     1       1.104  48.975 -14.697  1.00  0.00    -0.369 OA
HETATM   24  H21 UNL     1       2.071  48.957 -14.547  1.00  0.00     0.212 HD
ENDBRANCH  18  23
ENDBRANCH  12  13
ENDBRANCH  10  12
ENDBRANCH   1  10
BRANCH   1  25
HETATM   25  C14 UNL     1       1.831  53.555 -11.288  1.00  0.00     0.009 C 
HETATM   26  C15 UNL     1       0.642  54.494 -10.911  1.00  0.00     0.007 C 
HETATM   27  C16 UNL     1       1.073  55.343  -9.701  1.00  0.00     0.015 C 
HETATM   28  C17 UNL     1       2.600  55.209  -9.659  1.00  0.00    -0.013 C 
HETATM   29  C18 UNL     1       3.178  56.219 -10.695  1.00  0.00     0.021 C 
HETATM   30  C19 UNL     1       3.336  55.505  -8.353  1.00  0.00    -0.068 C 
HETATM   31  C23 UNL     1       2.754  53.688 -10.031  1.00  0.00    -0.028 C 
HETATM   32  C20 UNL     1       4.531  54.907  -8.098  1.00  0.00    -0.068 C 
HETATM   33  C35 UNL     1       2.702  56.506  -7.424  1.00  0.00     0.036 C 
HETATM   34  C21 UNL     1       5.113  53.859  -9.056  1.00  0.00     0.036 C 
HETATM   35  C25 UNL     1       5.362  55.224  -6.823  1.00  0.00    -0.015 C 
HETATM   36  C22 UNL     1       4.249  53.432 -10.259  1.00  0.00     0.015 C 
HETATM   37  C26 UNL     1       5.264  53.983  -5.897  1.00  0.00     0.020 C 
HETATM   38  C27 UNL     1       6.854  55.460  -7.204  1.00  0.00     0.021 C 
HETATM   39  C33 UNL     1       4.857  56.544  -6.130  1.00  0.00     0.013 C 
HETATM   40  C28 UNL     1       7.668  56.301  -6.223  1.00  0.00     0.080 C 
HETATM   41  C29 UNL     1       7.035  56.401  -4.854  1.00  0.00     0.135 C 
HETATM   42  O8  UNL     1       7.702  56.172  -3.844  1.00  0.00    -0.297 OA
HETATM   43  C30 UNL     1       5.581  56.898  -4.787  1.00  0.00     0.018 C 
HETATM   44  C31 UNL     1       4.894  56.323  -3.530  1.00  0.00     0.023 C 
HETATM   45  C32 UNL     1       5.644  58.433  -4.606  1.00  0.00     0.023 C 
HETATM   46  C34 UNL     1       3.328  56.554  -6.030  1.00  0.00     0.011 C 
HETATM   47  C24 UNL     1       2.246  52.735  -8.902  1.00  0.00     0.016 C 
ENDBRANCH   1  25
TORSDOF 11
ENDMDL
MODEL 3
REMARK minimizedAffinity -8.46879959
REMARK CNNscore 0.348230243
REMARK CNNaffinity 6.76539421
REMARK  11 active torsions:
REMARK  status: ('A' for Active; 'I' for Inactive)
REMARK    1  A    between atoms: C2_2  and  O1_4 
REMARK    2  A    between atoms: C2_2  and  C4_5 
REMARK    3  A    between atoms: C5_6  and  C6_7 
REMARK    4  A    between atoms: C6_7  and  C7_8 
REMARK    5  A    between atoms: C7_8  and  C8_9 
REMARK    6  A    between atoms: C7_8  and  C14_21 
REMARK    7  A    between atoms: C8_9  and  O3_11 
REMARK    8  A    between atoms: O3_11  and  C9_12 
REMARK    9  A    between atoms: C10_13  and  O4_14 
REMARK   10  A    between atoms: C11_15  and  O5_16 
REMARK   11  A    between atoms: C13_19  and  O7_20 
ROOT
HETATM    1  C7  UNL     1      -2.428  49.101 -22.029  1.00  0.00     0.094 C 
ENDROOT
BRANCH   1   2
HETATM    2  C6  UNL     1      -3.072  50.479 -22.343  1.00  0.00     0.042 C 
BRANCH   2   3
HETATM    3  C5  UNL     1      -2.574  51.164 -23.585  1.00  0.00    -0.027 C 
HETATM    4  C4  UNL     1      -3.073  50.934 -24.813  1.00  0.00     0.006 C 
BRANCH   4   5
HETATM    5  C2  UNL     1      -2.603  51.562 -26.108  1.00  0.00     0.068 C 
HETATM    6  C1  UNL     1      -1.076  51.682 -26.124  1.00  0.00     0.050 C 
HETATM    7  C3  UNL     1      -3.082  50.743 -27.307  1.00  0.00     0.050 C 
BRANCH   5   8
HETATM    8  O1  UNL     1      -3.149  52.874 -26.235  1.00  0.00    -0.387 OA
HETATM    9  H7  UNL     1      -2.816  53.386 -25.477  1.00  0.00     0.211 HD
ENDBRANCH   5   8
ENDBRANCH   4   5
ENDBRANCH   2   3
ENDBRANCH   1   2
BRANCH   1  10
HETATM   10  C8  UNL     1      -1.577  49.349 -20.789  1.00  0.00     0.264 C 
HETATM   11  O2  UNL     1      -1.825  48.923 -19.668  1.00  0.00    -0.265 OA
BRANCH  10  12
HETATM   12  O3  UNL     1      -0.519  50.147 -21.088  1.00  0.00    -0.308 OA
BRANCH  12  13
HETATM   13  C9  UNL     1      -0.466  51.449 -20.449  1.00  0.00     0.218 C 
HETATM   14  C10 UNL     1       0.472  52.315 -21.299  1.00  0.00     0.183 C 
HETATM   15  C11 UNL     1       0.832  53.637 -20.610  1.00  0.00     0.173 C 
HETATM   16  C12 UNL     1       1.327  53.359 -19.196  1.00  0.00     0.205 C 
HETATM   17  O6  UNL     1       0.336  52.653 -18.464  1.00  0.00    -0.356 OA
HETATM   18  C13 UNL     1       0.078  51.360 -19.004  1.00  0.00     0.288 C 
BRANCH  14  19
HETATM   19  O4  UNL     1      -0.146  52.616 -22.561  1.00  0.00    -0.390 OA
HETATM   20  H15 UNL     1       0.548  53.074 -23.082  1.00  0.00     0.210 HD
ENDBRANCH  14  19
BRANCH  15  21
HETATM   21  O5  UNL     1       1.829  54.300 -21.390  1.00  0.00    -0.391 OA
HETATM   22  H17 UNL     1       1.998  55.164 -20.968  1.00  0.00     0.210 HD
ENDBRANCH  15  21
BRANCH  18  23
HETATM   23  O7  UNL     1      -0.820  50.714 -18.113  1.00  0.00    -0.369 OA
HETATM   24  H21 UNL     1      -1.696  50.655 -18.545  1.00  0.00     0.212 HD
ENDBRANCH  18  23
ENDBRANCH  12  13
ENDBRANCH  10  12
ENDBRANCH   1  10
BRANCH   1  25
HETATM   25  C14 UNL     1      -3.445  47.938 -21.834  1.00  0.00     0.009 C 
HETATM   26  C15 UNL     1      -2.816  46.703 -21.116  1.00  0.00     0.007 C 
HETATM   27  C16 UNL     1      -3.876  46.115 -20.167  1.00  0.00     0.015 C 
HETATM   28  C17 UNL     1      -5.201  46.720 -20.645  1.00  0.00    -0.013 C 
HETATM   29  C18 UNL     1      -5.681  45.873 -21.861  1.00  0.00     0.021 C 
HETATM   30  C19 UNL     1      -6.390  46.757 -19.686  1.00  0.00    -0.068 C 
HETATM   31  C23 UNL     1      -4.732  48.185 -20.977  1.00  0.00    -0.028 C 
HETATM   32  C20 UNL     1      -7.346  47.714 -19.828  1.00  0.00    -0.068 C 
HETATM   33  C35 UNL     1      -6.459  45.673 -18.642  1.00  0.00     0.036 C 
HETATM   34  C21 UNL     1      -7.207  48.823 -20.879  1.00  0.00     0.036 C 
HETATM   35  C25 UNL     1      -8.616  47.758 -18.931  1.00  0.00    -0.015 C 
HETATM   36  C22 UNL     1      -5.899  48.877 -21.692  1.00  0.00     0.015 C 
HETATM   37  C26 UNL     1      -8.451  48.967 -17.972  1.00  0.00     0.020 C 
HETATM   38  C27 UNL     1      -9.883  47.973 -19.811  1.00  0.00     0.021 C 
HETATM   39  C33 UNL     1      -8.819  46.396 -18.168  1.00  0.00     0.013 C 
HETATM   40  C28 UNL     1     -11.202  47.496 -19.208  1.00  0.00     0.080 C 
HETATM   41  C29 UNL     1     -11.137  47.297 -17.711  1.00  0.00     0.135 C 
HETATM   42  O8  UNL     1     -11.999  47.790 -16.981  1.00  0.00    -0.297 OA
HETATM   43  C30 UNL     1     -10.028  46.377 -17.173  1.00  0.00     0.018 C 
HETATM   44  C31 UNL     1      -9.664  46.794 -15.731  1.00  0.00     0.023 C 
HETATM   45  C32 UNL     1     -10.630  44.954 -17.094  1.00  0.00     0.023 C 
HETATM   46  C34 UNL     1      -7.501  45.917 -17.551  1.00  0.00     0.011 C 
HETATM   47  C24 UNL     1      -4.363  49.006 -19.700  1.00  0.00     0.016 C 
ENDBRANCH   1  25
TORSDOF 11
ENDMDL
MODEL 4
REMARK minimizedAffinity -9.28377724
REMARK CNNscore 0.340489447
REMARK CNNaffinity 6.84714746
REMARK  11 active torsions:
REMARK  status: ('A' for Active; 'I' for Inactive)
REMARK    1  A    between atoms: C2_2  and  O1_4 
REMARK    2  A    between atoms: C2_2  and  C4_5 
REMARK    3  A    between atoms: C5_6  and  C6_7 
REMARK    4  A    between atoms: C6_7  and  C7_8 
REMARK    5  A    between atoms: C7_8  and  C8_9 
REMARK    6  A    between atoms: C7_8  and  C14_21 
REMARK    7  A    between atoms: C8_9  and  O3_11 
REMARK    8  A    between atoms: O3_11  and  C9_12 
REMARK    9  A    between atoms: C10_13  and  O4_14 
REMARK   10  A    between atoms: C11_15  and  O5_16 
REMARK   11  A    between atoms: C13_19  and  O7_20 
ROOT
HETATM    1  C7  UNL     1      -2.556  50.575 -22.354  1.00  0.00     0.094 C 
ENDROOT
BRANCH   1   2
HETATM    2  C6  UNL     1      -1.143  50.391 -21.736  1.00  0.00     0.042 C 
BRANCH   2   3
HETATM    3  C5  UNL     1      -0.952  50.970 -20.362  1.00  0.00    -0.027 C 
HETATM    4  C4  UNL     1      -0.572  50.245 -19.294  1.00  0.00     0.006 C 
BRANCH   4   5
HETATM    5  C2  UNL     1      -0.391  50.752 -17.880  1.00  0.00     0.068 C 
HETATM    6  C1  UNL     1       0.151  49.642 -16.975  1.00  0.00     0.050 C 
HETATM    7  C3  UNL     1       0.548  51.959 -17.859  1.00  0.00     0.050 C 
BRANCH   5   8
HETATM    8  O1  UNL     1      -1.648  51.175 -17.354  1.00  0.00    -0.387 OA
HETATM    9  H7  UNL     1      -2.225  50.390 -17.354  1.00  0.00     0.211 HD
ENDBRANCH   5   8
ENDBRANCH   4   5
ENDBRANCH   2   3
ENDBRANCH   1   2
BRANCH   1  10
HETATM   10  C8  UNL     1      -2.292  51.042 -23.781  1.00  0.00     0.264 C 
HETATM   11  O2  UNL     1      -2.185  50.306 -24.755  1.00  0.00    -0.265 OA
BRANCH  10  12
HETATM   12  O3  UNL     1      -2.149  52.392 -23.823  1.00  0.00    -0.308 OA
BRANCH  12  13
HETATM   13  C9  UNL     1      -1.133  52.927 -24.710  1.00  0.00     0.218 C 
HETATM   14  C10 UNL     1      -1.441  52.378 -26.109  1.00  0.00     0.183 C 
HETATM   15  C11 UNL     1      -0.306  52.647 -27.105  1.00  0.00     0.173 C 
HETATM   16  C12 UNL     1       1.017  52.178 -26.512  1.00  0.00     0.205 C 
HETATM   17  O6  UNL     1       1.256  52.834 -25.276  1.00  0.00    -0.356 OA
HETATM   18  C13 UNL     1       0.289  52.495 -24.284  1.00  0.00     0.288 C 
BRANCH  14  19
HETATM   19  O4  UNL     1      -2.642  52.978 -26.618  1.00  0.00    -0.390 OA
HETATM   20  H15 UNL     1      -2.828  52.503 -27.457  1.00  0.00     0.210 HD
ENDBRANCH  14  19
BRANCH  15  21
HETATM   21  O5  UNL     1      -0.601  51.964 -28.325  1.00  0.00    -0.391 OA
HETATM   22  H17 UNL     1       0.100  52.198 -28.963  1.00  0.00     0.210 HD
ENDBRANCH  15  21
BRANCH  18  23
HETATM   23  O7  UNL     1       0.713  53.102 -23.072  1.00  0.00    -0.369 OA
HETATM   24  H21 UNL     1       0.108  53.843 -22.868  1.00  0.00     0.212 HD
ENDBRANCH  18  23
ENDBRANCH  12  13
ENDBRANCH  10  12
ENDBRANCH   1  10
BRANCH   1  25
HETATM   25  C14 UNL     1      -3.460  49.308 -22.296  1.00  0.00     0.009 C 
HETATM   26  C15 UNL     1      -2.672  48.024 -21.887  1.00  0.00     0.007 C 
HETATM   27  C16 UNL     1      -3.582  47.178 -20.978  1.00  0.00     0.015 C 
HETATM   28  C17 UNL     1      -4.989  47.738 -21.211  1.00  0.00    -0.013 C 
HETATM   29  C18 UNL     1      -5.532  47.090 -22.519  1.00  0.00     0.021 C 
HETATM   30  C19 UNL     1      -6.071  47.491 -20.160  1.00  0.00    -0.068 C 
HETATM   31  C23 UNL     1      -4.664  49.276 -21.296  1.00  0.00    -0.028 C 
HETATM   32  C20 UNL     1      -7.104  48.367 -20.031  1.00  0.00    -0.068 C 
HETATM   33  C35 UNL     1      -5.953  46.232 -19.342  1.00  0.00     0.036 C 
HETATM   34  C21 UNL     1      -7.155  49.659 -20.857  1.00  0.00     0.036 C 
HETATM   35  C25 UNL     1      -8.272  48.131 -19.032  1.00  0.00    -0.015 C 
HETATM   36  C22 UNL     1      -5.946  49.979 -21.758  1.00  0.00     0.015 C 
HETATM   37  C26 UNL     1      -8.095  49.152 -17.878  1.00  0.00     0.020 C 
HETATM   38  C27 UNL     1      -9.636  48.388 -19.738  1.00  0.00     0.021 C 
HETATM   39  C33 UNL     1      -8.296  46.639 -18.530  1.00  0.00     0.013 C 
HETATM   40  C28 UNL     1     -10.848  47.691 -19.123  1.00  0.00     0.080 C 
HETATM   41  C29 UNL     1     -10.612  47.227 -17.704  1.00  0.00     0.135 C 
HETATM   42  O8  UNL     1     -11.426  47.498 -16.819  1.00  0.00    -0.297 OA
HETATM   43  C30 UNL     1      -9.390  46.328 -17.453  1.00  0.00     0.018 C 
HETATM   44  C31 UNL     1      -8.908  46.503 -15.996  1.00  0.00     0.023 C 
HETATM   45  C32 UNL     1      -9.876  44.866 -17.595  1.00  0.00     0.023 C 
HETATM   46  C34 UNL     1      -6.890  46.176 -18.136  1.00  0.00     0.011 C 
HETATM   47  C24 UNL     1      -4.224  49.878 -19.924  1.00  0.00     0.016 C 
ENDBRANCH   1  25
TORSDOF 11
ENDMDL
MODEL 5
REMARK minimizedAffinity -9.71558571
REMARK CNNscore 0.317081451
REMARK CNNaffinity 6.54202461
REMARK  11 active torsions:
REMARK  status: ('A' for Active; 'I' for Inactive)
REMARK    1  A    between atoms: C2_2  and  O1_4 
REMARK    2  A    between atoms: C2_2  and  C4_5 
REMARK    3  A    between atoms: C5_6  and  C6_7 
REMARK    4  A    between atoms: C6_7  and  C7_8 
REMARK    5  A    between atoms: C7_8  and  C8_9 
REMARK    6  A    between atoms: C7_8  and  C14_21 
REMARK    7  A    between atoms: C8_9  and  O3_11 
REMARK    8  A    between atoms: O3_11  and  C9_12 
REMARK    9  A    between atoms: C10_13  and  O4_14 
REMARK   10  A    between atoms: C11_15  and  O5_16 
REMARK   11  A    between atoms: C13_19  and  O7_20 
ROOT
HETATM    1  C7  UNL     1      -2.337  51.758 -22.895  1.00  0.00     0.094 C 
ENDROOT
BRANCH   1   2
HETATM    2  C6  UNL     1      -1.146  50.849 -22.490  1.00  0.00     0.042 C 
BRANCH   2   3
HETATM    3  C5  UNL     1      -0.223  51.411 -21.444  1.00  0.00    -0.027 C 
HETATM    4  C4  UNL     1      -0.507  52.500 -20.707  1.00  0.00     0.006 C 
BRANCH   4   5
HETATM    5  C2  UNL     1       0.385  53.138 -19.663  1.00  0.00     0.068 C 
HETATM    6  C1  UNL     1       0.544  52.214 -18.453  1.00  0.00     0.050 C 
HETATM    7  C3  UNL     1       1.753  53.474 -20.258  1.00  0.00     0.050 C 
BRANCH   5   8
HETATM    8  O1  UNL     1      -0.200  54.359 -19.211  1.00  0.00    -0.387 OA
HETATM    9  H7  UNL     1      -1.058  54.124 -18.816  1.00  0.00     0.211 HD
ENDBRANCH   5   8
ENDBRANCH   4   5
ENDBRANCH   2   3
ENDBRANCH   1   2
BRANCH   1  10
HETATM   10  C8  UNL     1      -2.211  51.904 -24.407  1.00  0.00     0.264 C 
HETATM   11  O2  UNL     1      -2.332  50.992 -25.215  1.00  0.00    -0.265 OA
BRANCH  10  12
HETATM   12  O3  UNL     1      -1.902  53.184 -24.739  1.00  0.00    -0.308 OA
BRANCH  12  13
HETATM   13  C9  UNL     1      -0.746  53.391 -25.592  1.00  0.00     0.218 C 
HETATM   14  C10 UNL     1      -1.021  52.629 -26.894  1.00  0.00     0.183 C 
HETATM   15  C11 UNL     1       0.218  52.539 -27.791  1.00  0.00     0.173 C 
HETATM   16  C12 UNL     1       1.399  52.016 -26.984  1.00  0.00     0.205 C 
HETATM   17  O6  UNL     1       1.637  52.860 -25.866  1.00  0.00    -0.356 OA
HETATM   18  C13 UNL     1       0.552  52.856 -24.942  1.00  0.00     0.288 C 
BRANCH  14  19
HETATM   19  O4  UNL     1      -2.069  53.279 -27.631  1.00  0.00    -0.390 OA
HETATM   20  H15 UNL     1      -2.258  52.682 -28.386  1.00  0.00     0.210 HD
ENDBRANCH  14  19
BRANCH  15  21
HETATM   21  O5  UNL     1      -0.080  51.680 -28.894  1.00  0.00    -0.391 OA
HETATM   22  H17 UNL     1       0.699  51.687 -29.484  1.00  0.00     0.210 HD
ENDBRANCH  15  21
BRANCH  18  23
HETATM   23  O7  UNL     1       0.966  53.622 -23.819  1.00  0.00    -0.369 OA
HETATM   24  H21 UNL     1       0.470  54.466 -23.819  1.00  0.00     0.212 HD
ENDBRANCH  18  23
ENDBRANCH  12  13
ENDBRANCH  10  12
ENDBRANCH   1  10
BRANCH   1  25
HETATM   25  C14 UNL     1      -3.736  51.229 -22.459  1.00  0.00     0.009 C 
HETATM   26  C15 UNL     1      -4.778  51.254 -23.622  1.00  0.00     0.007 C 
HETATM   27  C16 UNL     1      -5.656  49.996 -23.500  1.00  0.00     0.015 C 
HETATM   28  C17 UNL     1      -5.415  49.493 -22.072  1.00  0.00    -0.013 C 
HETATM   29  C18 UNL     1      -6.323  50.335 -21.128  1.00  0.00     0.021 C 
HETATM   30  C19 UNL     1      -5.725  48.035 -21.736  1.00  0.00    -0.068 C 
HETATM   31  C23 UNL     1      -3.868  49.757 -21.944  1.00  0.00    -0.028 C 
HETATM   32  C20 UNL     1      -5.056  47.414 -20.726  1.00  0.00    -0.068 C 
HETATM   33  C35 UNL     1      -6.818  47.369 -22.530  1.00  0.00     0.036 C 
HETATM   34  C21 UNL     1      -3.919  48.122 -19.977  1.00  0.00     0.036 C 
HETATM   35  C25 UNL     1      -5.380  45.958 -20.288  1.00  0.00    -0.015 C 
HETATM   36  C22 UNL     1      -3.493  49.516 -20.477  1.00  0.00     0.015 C 
HETATM   37  C26 UNL     1      -4.200  45.069 -20.763  1.00  0.00     0.020 C 
HETATM   38  C27 UNL     1      -5.487  45.880 -18.736  1.00  0.00     0.021 C 
HETATM   39  C33 UNL     1      -6.768  45.488 -20.863  1.00  0.00     0.013 C 
HETATM   40  C28 UNL     1      -6.317  44.724 -18.183  1.00  0.00     0.080 C 
HETATM   41  C29 UNL     1      -6.535  43.613 -19.184  1.00  0.00     0.135 C 
HETATM   42  O8  UNL     1      -6.313  42.442 -18.870  1.00  0.00    -0.297 OA
HETATM   43  C30 UNL     1      -7.140  44.001 -20.544  1.00  0.00     0.018 C 
HETATM   44  C31 UNL     1      -6.683  42.992 -21.620  1.00  0.00     0.023 C 
HETATM   45  C32 UNL     1      -8.673  43.853 -20.407  1.00  0.00     0.023 C 
HETATM   46  C34 UNL     1      -6.894  45.854 -22.346  1.00  0.00     0.011 C 
HETATM   47  C24 UNL     1      -3.016  48.806 -22.845  1.00  0.00     0.016 C 
ENDBRANCH   1  25
TORSDOF 11
ENDMDL
MODEL 6
REMARK minimizedAffinity -8.60345364
REMARK CNNscore 0.294989616
REMARK CNNaffinity 6.162817
REMARK  11 active torsions:
REMARK  status: ('A' for Active; 'I' for Inactive)
REMARK    1  A    between atoms: C2_2  and  O1_4 
REMARK    2  A    between atoms: C2_2  and  C4_5 
REMARK    3  A    between atoms: C5_6  and  C6_7 
REMARK    4  A    between atoms: C6_7  and  C7_8 
REMARK    5  A    between atoms: C7_8  and  C8_9 
REMARK    6  A    between atoms: C7_8  and  C14_21 
REMARK    7  A    between atoms: C8_9  and  O3_11 
REMARK    8  A    between atoms: O3_11  and  C9_12 
REMARK    9  A    between atoms: C10_13  and  O4_14 
REMARK   10  A    between atoms: C11_15  and  O5_16 
REMARK   11  A    between atoms: C13_19  and  O7_20 
ROOT
HETATM    1  C7  UNL     1      -8.407  46.732 -27.897  1.00  0.00     0.094 C 
ENDROOT
BRANCH   1   2
HETATM    2  C6  UNL     1      -8.220  46.370 -26.399  1.00  0.00     0.042 C 
BRANCH   2   3
HETATM    3  C5  UNL     1      -7.090  47.069 -25.695  1.00  0.00    -0.027 C 
HETATM    4  C4  UNL     1      -7.257  48.140 -24.898  1.00  0.00     0.006 C 
BRANCH   4   5
HETATM    5  C2  UNL     1      -6.167  48.911 -24.185  1.00  0.00     0.068 C 
HETATM    6  C1  UNL     1      -6.070  48.477 -22.720  1.00  0.00     0.050 C 
HETATM    7  C3  UNL     1      -4.822  48.712 -24.886  1.00  0.00     0.050 C 
BRANCH   5   8
HETATM    8  O1  UNL     1      -6.465  50.306 -24.213  1.00  0.00    -0.387 OA
HETATM    9  H7  UNL     1      -7.311  50.416 -23.743  1.00  0.00     0.211 HD
ENDBRANCH   5   8
ENDBRANCH   4   5
ENDBRANCH   2   3
ENDBRANCH   1   2
BRANCH   1  10
HETATM   10  C8  UNL     1      -7.842  45.536 -28.653  1.00  0.00     0.264 C 
HETATM   11  O2  UNL     1      -8.379  44.439 -28.740  1.00  0.00    -0.265 OA
BRANCH  10  12
HETATM   12  O3  UNL     1      -6.630  45.839 -29.189  1.00  0.00    -0.308 OA
BRANCH  12  13
HETATM   13  C9  UNL     1      -6.567  46.968 -30.098  1.00  0.00     0.218 C 
HETATM   14  C10 UNL     1      -6.410  46.385 -31.508  1.00  0.00     0.183 C 
HETATM   15  C11 UNL     1      -6.070  47.458 -32.549  1.00  0.00     0.173 C 
HETATM   16  C12 UNL     1      -4.886  48.286 -32.064  1.00  0.00     0.205 C 
HETATM   17  O6  UNL     1      -5.184  48.871 -30.805  1.00  0.00    -0.356 OA
HETATM   18  C13 UNL     1      -5.371  47.895 -29.782  1.00  0.00     0.288 C 
BRANCH  14  19
HETATM   19  O4  UNL     1      -7.625  45.733 -31.909  1.00  0.00    -0.390 OA
HETATM   20  H15 UNL     1      -7.412  45.300 -32.763  1.00  0.00     0.210 HD
ENDBRANCH  14  19
BRANCH  15  21
HETATM   21  O5  UNL     1      -5.780  46.812 -33.790  1.00  0.00    -0.391 OA
HETATM   22  H17 UNL     1      -5.628  47.514 -34.453  1.00  0.00     0.210 HD
ENDBRANCH  15  21
BRANCH  18  23
HETATM   23  O7  UNL     1      -5.526  48.604 -28.561  1.00  0.00    -0.369 OA
HETATM   24  H21 UNL     1      -6.460  48.532 -28.277  1.00  0.00     0.212 HD
ENDBRANCH  18  23
ENDBRANCH  12  13
ENDBRANCH  10  12
ENDBRANCH   1  10
BRANCH   1  25
HETATM   25  C14 UNL     1      -9.873  47.062 -28.308  1.00  0.00     0.009 C 
HETATM   26  C15 UNL     1     -10.256  46.465 -29.699  1.00  0.00     0.007 C 
HETATM   27  C16 UNL     1     -11.716  45.981 -29.622  1.00  0.00     0.015 C 
HETATM   28  C17 UNL     1     -12.286  46.669 -28.376  1.00  0.00    -0.013 C 
HETATM   29  C18 UNL     1     -12.687  48.116 -28.792  1.00  0.00     0.021 C 
HETATM   30  C19 UNL     1     -13.528  46.083 -27.707  1.00  0.00    -0.068 C 
HETATM   31  C23 UNL     1     -11.050  46.556 -27.408  1.00  0.00    -0.028 C 
HETATM   32  C20 UNL     1     -13.741  46.284 -26.378  1.00  0.00    -0.068 C 
HETATM   33  C35 UNL     1     -14.494  45.341 -28.592  1.00  0.00     0.036 C 
HETATM   34  C21 UNL     1     -12.704  47.008 -25.510  1.00  0.00     0.036 C 
HETATM   35  C25 UNL     1     -15.022  45.777 -25.657  1.00  0.00    -0.015 C 
HETATM   36  C22 UNL     1     -11.370  47.406 -26.172  1.00  0.00     0.015 C 
HETATM   37  C26 UNL     1     -14.596  44.585 -24.760  1.00  0.00     0.020 C 
HETATM   38  C27 UNL     1     -15.611  46.906 -24.761  1.00  0.00     0.021 C 
HETATM   39  C33 UNL     1     -16.142  45.391 -26.694  1.00  0.00     0.013 C 
HETATM   40  C28 UNL     1     -17.100  46.796 -24.441  1.00  0.00     0.080 C 
HETATM   41  C29 UNL     1     -17.659  45.410 -24.672  1.00  0.00     0.135 C 
HETATM   42  O8  UNL     1     -18.332  44.859 -23.799  1.00  0.00    -0.297 OA
HETATM   43  C30 UNL     1     -17.442  44.788 -26.062  1.00  0.00     0.018 C 
HETATM   44  C31 UNL     1     -17.430  43.249 -25.944  1.00  0.00     0.023 C 
HETATM   45  C32 UNL     1     -18.674  45.167 -26.917  1.00  0.00     0.023 C 
HETATM   46  C34 UNL     1     -15.560  44.549 -27.834  1.00  0.00     0.011 C 
HETATM   47  C24 UNL     1     -10.770  45.088 -26.953  1.00  0.00     0.016 C 
ENDBRANCH   1  25
TORSDOF 11
ENDMDL
MODEL 7
REMARK minimizedAffinity -9.74765491
REMARK CNNscore 0.291072279
REMARK CNNaffinity 6.85270309
REMARK  11 active torsions:
REMARK  status: ('A' for Active; 'I' for Inactive)
REMARK    1  A    between atoms: C2_2  and  O1_4 
REMARK    2  A    between atoms: C2_2  and  C4_5 
REMARK    3  A    between atoms: C5_6  and  C6_7 
REMARK    4  A    between atoms: C6_7  and  C7_8 
REMARK    5  A    between atoms: C7_8  and  C8_9 
REMARK    6  A    between atoms: C7_8  and  C14_21 
REMARK    7  A    between atoms: C8_9  and  O3_11 
REMARK    8  A    between atoms: O3_11  and  C9_12 
REMARK    9  A    between atoms: C10_13  and  O4_14 
REMARK   10  A    between atoms: C11_15  and  O5_16 
REMARK   11  A    between atoms: C13_19  and  O7_20 
ROOT
HETATM    1  C7  UNL     1      -2.403  49.852 -24.185  1.00  0.00     0.094 C 
ENDROOT
BRANCH   1   2
HETATM    2  C6  UNL     1      -1.831  49.640 -25.612  1.00  0.00     0.042 C 
BRANCH   2   3
HETATM    3  C5  UNL     1      -1.049  50.792 -26.179  1.00  0.00    -0.027 C 
HETATM    4  C4  UNL     1       0.286  50.776 -26.344  1.00  0.00     0.006 C 
BRANCH   4   5
HETATM    5  C2  UNL     1       1.141  51.907 -26.877  1.00  0.00     0.068 C 
HETATM    6  C1  UNL     1       2.618  51.502 -26.898  1.00  0.00     0.050 C 
HETATM    7  C3  UNL     1       0.682  52.312 -28.278  1.00  0.00     0.050 C 
BRANCH   5   8
HETATM    8  O1  UNL     1       1.010  53.050 -26.033  1.00  0.00    -0.387 OA
HETATM    9  H7  UNL     1       1.327  52.780 -25.153  1.00  0.00     0.211 HD
ENDBRANCH   5   8
ENDBRANCH   4   5
ENDBRANCH   2   3
ENDBRANCH   1   2
BRANCH   1  10
HETATM   10  C8  UNL     1      -1.927  51.243 -23.783  1.00  0.00     0.264 C 
HETATM   11  O2  UNL     1      -2.407  52.295 -24.186  1.00  0.00    -0.265 OA
BRANCH  10  12
HETATM   12  O3  UNL     1      -0.862  51.159 -22.944  1.00  0.00    -0.308 OA
BRANCH  12  13
HETATM   13  C9  UNL     1      -0.724  52.195 -21.936  1.00  0.00     0.218 C 
HETATM   14  C10 UNL     1       0.561  52.962 -22.272  1.00  0.00     0.183 C 
HETATM   15  C11 UNL     1       0.978  53.921 -21.150  1.00  0.00     0.173 C 
HETATM   16  C12 UNL     1       1.008  53.175 -19.822  1.00  0.00     0.205 C 
HETATM   17  O6  UNL     1      -0.264  52.601 -19.558  1.00  0.00    -0.356 OA
HETATM   18  C13 UNL     1      -0.620  51.603 -20.512  1.00  0.00     0.288 C 
BRANCH  14  19
HETATM   19  O4  UNL     1       0.378  53.724 -23.475  1.00  0.00    -0.390 OA
HETATM   20  H15 UNL     1       1.264  54.094 -23.679  1.00  0.00     0.210 HD
ENDBRANCH  14  19
BRANCH  15  21
HETATM   21  O5  UNL     1       2.260  54.465 -21.471  1.00  0.00    -0.391 OA
HETATM   22  H17 UNL     1       2.478  55.118 -20.777  1.00  0.00     0.210 HD
ENDBRANCH  15  21
BRANCH  18  23
HETATM   23  O7  UNL     1      -1.835  51.020 -20.063  1.00  0.00    -0.369 OA
HETATM   24  H21 UNL     1      -2.556  51.309 -20.658  1.00  0.00     0.212 HD
ENDBRANCH  18  23
ENDBRANCH  12  13
ENDBRANCH  10  12
ENDBRANCH   1  10
BRANCH   1  25
HETATM   25  C14 UNL     1      -3.949  49.693 -24.074  1.00  0.00     0.009 C 
HETATM   26  C15 UNL     1      -4.520  48.649 -25.085  1.00  0.00     0.007 C 
HETATM   27  C16 UNL     1      -5.651  47.877 -24.382  1.00  0.00     0.015 C 
HETATM   28  C17 UNL     1      -6.008  48.737 -23.165  1.00  0.00    -0.013 C 
HETATM   29  C18 UNL     1      -6.959  49.866 -23.663  1.00  0.00     0.021 C 
HETATM   30  C19 UNL     1      -6.733  48.091 -21.985  1.00  0.00    -0.068 C 
HETATM   31  C23 UNL     1      -4.571  49.203 -22.724  1.00  0.00    -0.028 C 
HETATM   32  C20 UNL     1      -6.588  48.608 -20.734  1.00  0.00    -0.068 C 
HETATM   33  C35 UNL     1      -7.628  46.919 -22.291  1.00  0.00     0.036 C 
HETATM   34  C21 UNL     1      -5.628  49.775 -20.466  1.00  0.00     0.036 C 
HETATM   35  C25 UNL     1      -7.357  48.041 -19.507  1.00  0.00    -0.015 C 
HETATM   36  C22 UNL     1      -4.759  50.270 -21.639  1.00  0.00     0.015 C 
HETATM   37  C26 UNL     1      -6.320  47.293 -18.629  1.00  0.00     0.020 C 
HETATM   38  C27 UNL     1      -7.979  49.207 -18.683  1.00  0.00     0.021 C 
HETATM   39  C33 UNL     1      -8.550  47.121 -19.962  1.00  0.00     0.013 C 
HETATM   40  C28 UNL     1      -9.182  48.844 -17.817  1.00  0.00     0.080 C 
HETATM   41  C29 UNL     1      -9.308  47.359 -17.562  1.00  0.00     0.135 C 
HETATM   42  O8  UNL     1      -9.470  46.938 -16.415  1.00  0.00    -0.297 OA
HETATM   43  C30 UNL     1      -9.332  46.435 -18.791  1.00  0.00     0.018 C 
HETATM   44  C31 UNL     1      -8.790  45.042 -18.402  1.00  0.00     0.023 C 
HETATM   45  C32 UNL     1     -10.817  46.250 -19.180  1.00  0.00     0.023 C 
HETATM   46  C34 UNL     1      -8.100  46.149 -21.059  1.00  0.00     0.011 C 
HETATM   47  C24 UNL     1      -3.710  48.037 -22.141  1.00  0.00     0.016 C 
ENDBRANCH   1  25
TORSDOF 11
ENDMDL
MODEL 8
REMARK minimizedAffinity -8.33076668
REMARK CNNscore 0.284127325
REMARK CNNaffinity 6.03391838
REMARK  11 active torsions:
REMARK  status: ('A' for Active; 'I' for Inactive)
REMARK    1  A    between atoms: C2_2  and  O1_4 
REMARK    2  A    between atoms: C2_2  and  C4_5 
REMARK    3  A    between atoms: C5_6  and  C6_7 
REMARK    4  A    between atoms: C6_7  and  C7_8 
REMARK    5  A    between atoms: C7_8  and  C8_9 
REMARK    6  A    between atoms: C7_8  and  C14_21 
REMARK    7  A    between atoms: C8_9  and  O3_11 
REMARK    8  A    between atoms: O3_11  and  C9_12 
REMARK    9  A    between atoms: C10_13  and  O4_14 
REMARK   10  A    between atoms: C11_15  and  O5_16 
REMARK   11  A    between atoms: C13_19  and  O7_20 
ROOT
HETATM    1  C7  UNL     1     -10.593  46.231 -25.190  1.00  0.00     0.094 C 
ENDROOT
BRANCH   1   2
HETATM    2  C6  UNL     1     -12.061  45.734 -25.096  1.00  0.00     0.042 C 
BRANCH   2   3
HETATM    3  C5  UNL     1     -12.999  46.612 -24.316  1.00  0.00    -0.027 C 
HETATM    4  C4  UNL     1     -14.119  46.163 -23.721  1.00  0.00     0.006 C 
BRANCH   4   5
HETATM    5  C2  UNL     1     -15.123  46.991 -22.948  1.00  0.00     0.068 C 
HETATM    6  C1  UNL     1     -16.390  46.179 -22.668  1.00  0.00     0.050 C 
HETATM    7  C3  UNL     1     -14.512  47.490 -21.638  1.00  0.00     0.050 C 
BRANCH   5   8
HETATM    8  O1  UNL     1     -15.494  48.136 -23.714  1.00  0.00    -0.387 OA
HETATM    9  H7  UNL     1     -15.901  47.800 -24.533  1.00  0.00     0.211 HD
ENDBRANCH   5   8
ENDBRANCH   4   5
ENDBRANCH   2   3
ENDBRANCH   1   2
BRANCH   1  10
HETATM   10  C8  UNL     1     -10.640  47.375 -26.196  1.00  0.00     0.264 C 
HETATM   11  O2  UNL     1     -11.267  48.417 -26.050  1.00  0.00    -0.265 OA
BRANCH  10  12
HETATM   12  O3  UNL     1      -9.920  47.065 -27.306  1.00  0.00    -0.308 OA
BRANCH  12  13
HETATM   13  C9  UNL     1     -10.374  47.614 -28.570  1.00  0.00     0.218 C 
HETATM   14  C10 UNL     1     -10.983  46.448 -29.359  1.00  0.00     0.183 C 
HETATM   15  C11 UNL     1     -11.272  46.819 -30.818  1.00  0.00     0.173 C 
HETATM   16  C12 UNL     1     -10.029  47.434 -31.447  1.00  0.00     0.205 C 
HETATM   17  O6  UNL     1      -9.619  48.572 -30.702  1.00  0.00    -0.356 OA
HETATM   18  C13 UNL     1      -9.212  48.237 -29.378  1.00  0.00     0.288 C 
BRANCH  14  19
HETATM   19  O4  UNL     1     -12.211  46.029 -28.745  1.00  0.00    -0.390 OA
HETATM   20  H15 UNL     1     -12.480  45.223 -29.237  1.00  0.00     0.210 HD
ENDBRANCH  14  19
BRANCH  15  21
HETATM   21  O5  UNL     1     -11.678  45.639 -31.515  1.00  0.00    -0.391 OA
HETATM   22  H17 UNL     1     -11.917  45.908 -32.424  1.00  0.00     0.210 HD
ENDBRANCH  15  21
BRANCH  18  23
HETATM   23  O7  UNL     1      -8.704  49.427 -28.791  1.00  0.00    -0.369 OA
HETATM   24  H21 UNL     1      -9.340  49.734 -28.113  1.00  0.00     0.212 HD
ENDBRANCH  18  23
ENDBRANCH  12  13
ENDBRANCH  10  12
ENDBRANCH   1  10
BRANCH   1  25
HETATM   25  C14 UNL     1      -9.962  46.654 -23.831  1.00  0.00     0.009 C 
HETATM   26  C15 UNL     1      -9.899  45.478 -22.805  1.00  0.00     0.007 C 
HETATM   27  C16 UNL     1      -8.578  45.601 -22.024  1.00  0.00     0.015 C 
HETATM   28  C17 UNL     1      -8.106  47.036 -22.285  1.00  0.00    -0.013 C 
HETATM   29  C18 UNL     1      -8.884  47.961 -21.303  1.00  0.00     0.021 C 
HETATM   30  C19 UNL     1      -6.631  47.382 -22.083  1.00  0.00    -0.068 C 
HETATM   31  C23 UNL     1      -8.488  47.180 -23.805  1.00  0.00    -0.028 C 
HETATM   32  C20 UNL     1      -6.072  48.405 -22.784  1.00  0.00    -0.068 C 
HETATM   33  C35 UNL     1      -5.877  46.581 -21.054  1.00  0.00     0.036 C 
HETATM   34  C21 UNL     1      -6.871  49.161 -23.854  1.00  0.00     0.036 C 
HETATM   35  C25 UNL     1      -4.599  48.852 -22.567  1.00  0.00    -0.015 C 
HETATM   36  C22 UNL     1      -8.289  48.654 -24.178  1.00  0.00     0.015 C 
HETATM   37  C26 UNL     1      -3.799  48.399 -23.818  1.00  0.00     0.020 C 
HETATM   38  C27 UNL     1      -4.525  50.403 -22.447  1.00  0.00     0.021 C 
HETATM   39  C33 UNL     1      -4.019  48.265 -21.227  1.00  0.00     0.013 C 
HETATM   40  C28 UNL     1      -3.313  50.957 -21.700  1.00  0.00     0.080 C 
HETATM   41  C29 UNL     1      -2.180  49.963 -21.581  1.00  0.00     0.135 C 
HETATM   42  O8  UNL     1      -1.033  50.290 -21.888  1.00  0.00    -0.297 OA
HETATM   43  C30 UNL     1      -2.510  48.592 -20.966  1.00  0.00     0.018 C 
HETATM   44  C31 UNL     1      -1.531  47.531 -21.512  1.00  0.00     0.023 C 
HETATM   45  C32 UNL     1      -2.247  48.712 -19.446  1.00  0.00     0.023 C 
HETATM   46  C34 UNL     1      -4.362  46.777 -21.092  1.00  0.00     0.011 C 
HETATM   47  C24 UNL     1      -7.599  46.299 -24.739  1.00  0.00     0.016 C 
ENDBRANCH   1  25
TORSDOF 11
ENDMDL
MODEL 9
REMARK minimizedAffinity -9.76992989
REMARK CNNscore 0.246333674
REMARK CNNaffinity 6.93607187
REMARK  11 active torsions:
REMARK  status: ('A' for Active; 'I' for Inactive)
REMARK    1  A    between atoms: C2_2  and  O1_4 
REMARK    2  A    between atoms: C2_2  and  C4_5 
REMARK    3  A    between atoms: C5_6  and  C6_7 
REMARK    4  A    between atoms: C6_7  and  C7_8 
REMARK    5  A    between atoms: C7_8  and  C8_9 
REMARK    6  A    between atoms: C7_8  and  C14_21 
REMARK    7  A    between atoms: C8_9  and  O3_11 
REMARK    8  A    between atoms: O3_11  and  C9_12 
REMARK    9  A    between atoms: C10_13  and  O4_14 
REMARK   10  A    between atoms: C11_15  and  O5_16 
REMARK   11  A    between atoms: C13_19  and  O7_20 
ROOT
HETATM    1  C7  UNL     1      -0.620  51.964 -21.555  1.00  0.00     0.094 C 
ENDROOT
BRANCH   1   2
HETATM    2  C6  UNL     1       0.705  52.303 -20.821  1.00  0.00     0.042 C 
BRANCH   2   3
HETATM    3  C5  UNL     1       0.716  52.039 -19.341  1.00  0.00    -0.027 C 
HETATM    4  C4  UNL     1       1.576  52.623 -18.486  1.00  0.00     0.006 C 
BRANCH   4   5
HETATM    5  C2  UNL     1       1.666  52.383 -16.995  1.00  0.00     0.068 C 
HETATM    6  C1  UNL     1       0.851  51.148 -16.598  1.00  0.00     0.050 C 
HETATM    7  C3  UNL     1       3.124  52.216 -16.565  1.00  0.00     0.050 C 
BRANCH   5   8
HETATM    8  O1  UNL     1       1.134  53.505 -16.292  1.00  0.00    -0.387 OA
HETATM    9  H7  UNL     1       0.201  53.582 -16.560  1.00  0.00     0.211 HD
ENDBRANCH   5   8
ENDBRANCH   4   5
ENDBRANCH   2   3
ENDBRANCH   1   2
BRANCH   1  10
HETATM   10  C8  UNL     1      -0.332  52.260 -23.023  1.00  0.00     0.264 C 
HETATM   11  O2  UNL     1       0.701  51.965 -23.611  1.00  0.00    -0.265 OA
BRANCH  10  12
HETATM   12  O3  UNL     1      -1.366  52.938 -23.585  1.00  0.00    -0.308 OA
BRANCH  12  13
HETATM   13  C9  UNL     1      -1.209  53.370 -24.962  1.00  0.00     0.218 C 
HETATM   14  C10 UNL     1      -1.752  52.237 -25.840  1.00  0.00     0.183 C 
HETATM   15  C11 UNL     1      -1.419  52.435 -27.323  1.00  0.00     0.173 C 
HETATM   16  C12 UNL     1       0.072  52.706 -27.481  1.00  0.00     0.205 C 
HETATM   17  O6  UNL     1       0.443  53.844 -26.716  1.00  0.00    -0.356 OA
HETATM   18  C13 UNL     1       0.272  53.638 -25.316  1.00  0.00     0.288 C 
BRANCH  14  19
HETATM   19  O4  UNL     1      -3.179  52.151 -25.704  1.00  0.00    -0.390 OA
HETATM   20  H15 UNL     1      -3.435  51.346 -26.204  1.00  0.00     0.210 HD
ENDBRANCH  14  19
BRANCH  15  21
HETATM   21  O5  UNL     1      -1.814  51.263 -28.039  1.00  0.00    -0.391 OA
HETATM   22  H17 UNL     1      -1.650  51.435 -28.987  1.00  0.00     0.210 HD
ENDBRANCH  15  21
BRANCH  18  23
HETATM   23  O7  UNL     1       0.800  54.784 -24.664  1.00  0.00    -0.369 OA
HETATM   24  H21 UNL     1       0.056  55.302 -24.297  1.00  0.00     0.212 HD
ENDBRANCH  18  23
ENDBRANCH  12  13
ENDBRANCH  10  12
ENDBRANCH   1  10
BRANCH   1  25
HETATM   25  C14 UNL     1      -1.137  50.512 -21.328  1.00  0.00     0.009 C 
HETATM   26  C15 UNL     1      -1.051  50.070 -19.832  1.00  0.00     0.007 C 
HETATM   27  C16 UNL     1      -2.296  49.221 -19.517  1.00  0.00     0.015 C 
HETATM   28  C17 UNL     1      -2.852  48.825 -20.889  1.00  0.00    -0.013 C 
HETATM   29  C18 UNL     1      -2.024  47.602 -21.385  1.00  0.00     0.021 C 
HETATM   30  C19 UNL     1      -4.314  48.395 -21.003  1.00  0.00    -0.068 C 
HETATM   31  C23 UNL     1      -2.623  50.167 -21.678  1.00  0.00    -0.028 C 
HETATM   32  C20 UNL     1      -4.981  48.564 -22.177  1.00  0.00    -0.068 C 
HETATM   33  C35 UNL     1      -4.931  47.747 -19.792  1.00  0.00     0.036 C 
HETATM   34  C21 UNL     1      -4.322  49.272 -23.368  1.00  0.00     0.036 C 
HETATM   35  C25 UNL     1      -6.445  48.080 -22.376  1.00  0.00    -0.015 C 
HETATM   36  C22 UNL     1      -2.920  49.875 -23.154  1.00  0.00     0.015 C 
HETATM   37  C26 UNL     1      -7.340  49.347 -22.420  1.00  0.00     0.020 C 
HETATM   38  C27 UNL     1      -6.574  47.317 -23.728  1.00  0.00     0.021 C 
HETATM   39  C33 UNL     1      -6.868  47.071 -21.244  1.00  0.00     0.013 C 
HETATM   40  C28 UNL     1      -7.731  46.326 -23.826  1.00  0.00     0.080 C 
HETATM   41  C29 UNL     1      -8.804  46.555 -22.786  1.00  0.00     0.135 C 
HETATM   42  O8  UNL     1      -9.988  46.618 -23.119  1.00  0.00    -0.297 OA
HETATM   43  C30 UNL     1      -8.358  46.594 -21.315  1.00  0.00     0.018 C 
HETATM   44  C31 UNL     1      -9.338  47.465 -20.500  1.00  0.00     0.023 C 
HETATM   45  C32 UNL     1      -8.480  45.150 -20.774  1.00  0.00     0.023 C 
HETATM   46  C34 UNL     1      -6.450  47.595 -19.866  1.00  0.00     0.011 C 
HETATM   47  C24 UNL     1      -3.558  51.320 -21.194  1.00  0.00     0.016 C 
ENDBRANCH   1  25
TORSDOF 11
ENDMDL
