MODEL 1
REMARK minimizedAffinity -8.38906574
REMARK CNNscore 0.759967327
REMARK CNNaffinity 7.02006483
REMARK  11 active torsions:
REMARK  status: ('A' for Active; 'I' for Inactive)
REMARK    1  A    between atoms: C12_13  and  O2_14 
REMARK    2  A    between atoms: C19_21  and  O3_22 
REMARK    3  A    between atoms: C19_21  and  C20_23 
REMARK    4  A    between atoms: C20_23  and  C21_25 
REMARK    5  A    between atoms: C21_25  and  O5_26 
REMARK    6  A    between atoms: O5_26  and  C22_27 
REMARK    7  A    between atoms: C22_27  and  C23_29 
REMARK    8  A    between atoms: C23_29  and  C24_30 
REMARK    9  A    between atoms: C24_30  and  C25_31 
REMARK       I    between atoms: C25_31  and  N1_33 
REMARK   10  A    between atoms: N1_33  and  C26_34 
REMARK   11  A    between atoms: C26_34  and  C27_35 
ROOT
HETATM    1  C1  UNL     1      -4.256  51.539 -24.897  1.00  0.00     0.020 C 
HETATM    2  C2  UNL     1      -3.420  50.235 -24.860  1.00  0.00    -0.014 C 
HETATM    3  C3  UNL     1      -2.363  50.287 -26.006  1.00  0.00     0.022 C 
HETATM    4  C4  UNL     1      -2.952  50.133 -27.401  1.00  0.00     0.084 C 
HETATM    5  C5  UNL     1      -3.749  48.858 -27.482  1.00  0.00     0.149 C 
HETATM    6  O1  UNL     1      -3.832  48.195 -28.514  1.00  0.00    -0.293 OA
HETATM    7  C6  UNL     1      -4.522  48.445 -26.286  1.00  0.00     0.053 C 
HETATM    8  C7  UNL     1      -4.415  49.095 -25.113  1.00  0.00    -0.068 C 
HETATM    9  C8  UNL     1      -5.334  48.714 -23.971  1.00  0.00     0.035 C 
HETATM   10  C9  UNL     1      -4.751  49.005 -22.585  1.00  0.00     0.010 C 
HETATM   11  C10 UNL     1      -3.224  48.880 -22.612  1.00  0.00    -0.002 C 
HETATM   12  C11 UNL     1      -2.621  50.012 -23.489  1.00  0.00     0.031 C 
HETATM   13  C12 UNL     1      -2.368  51.308 -22.688  1.00  0.00     0.124 C 
HETATM   14  C13 UNL     1      -1.607  51.058 -21.386  1.00  0.00     0.045 C 
HETATM   15  C14 UNL     1      -2.287  50.040 -20.434  1.00  0.00     0.001 C 
HETATM   16  C15 UNL     1      -3.531  50.688 -19.809  1.00  0.00     0.019 C 
HETATM   17  C16 UNL     1      -2.606  48.744 -21.204  1.00  0.00     0.002 C 
HETATM   18  C17 UNL     1      -1.254  48.003 -21.247  1.00  0.00     0.009 C 
HETATM   19  C18 UNL     1      -0.449  48.465 -20.030  1.00  0.00     0.047 C 
HETATM   20  C19 UNL     1      -1.282  49.551 -19.339  1.00  0.00     0.128 C 
ENDROOT
BRANCH  20  21
HETATM   21  O3  UNL     1      -0.393  50.631 -18.996  1.00  0.00    -0.381 OA
HETATM   22  H27 UNL     1      -0.617  50.904 -18.081  1.00  0.00     0.211 HD
ENDBRANCH  20  21
BRANCH  20  23
HETATM   23  C20 UNL     1      -1.882  49.073 -17.984  1.00  0.00     0.185 C 
HETATM   24  O4  UNL     1      -2.945  48.433 -17.993  1.00  0.00    -0.292 OA
BRANCH  23  25
HETATM   25  C21 UNL     1      -1.180  49.420 -16.672  1.00  0.00     0.260 C 
BRANCH  25  26
HETATM   26  O5  UNL     1      -1.466  50.760 -16.256  1.00  0.00    -0.314 OA
BRANCH  26  27
HETATM   27  C22 UNL     1      -1.372  50.965 -14.914  1.00  0.00     0.259 C 
HETATM   28  O6  UNL     1      -0.358  51.325 -14.335  1.00  0.00    -0.265 OA
BRANCH  27  29
HETATM   29  C23 UNL     1      -2.686  50.697 -14.239  1.00  0.00     0.120 C 
BRANCH  29  30
HETATM   30  C24 UNL     1      -3.420  52.000 -13.957  1.00  0.00     0.112 C 
BRANCH  30  31
HETATM   31  C25 UNL     1      -3.611  52.210 -12.472  1.00  0.00     0.218 C 
HETATM   32  O7  UNL     1      -3.836  51.299 -11.683  1.00  0.00    -0.274 OA
HETATM   33  N1  UNL     1      -3.500  53.530 -12.092  1.00  0.00    -0.356 N 
HETATM   34  H34 UNL     1      -3.103  54.193 -12.747  1.00  0.00     0.162 HD
BRANCH  33  35
HETATM   35  C26 UNL     1      -3.503  53.896 -10.693  1.00  0.00     0.168 C 
BRANCH  35  36
HETATM   36  C27 UNL     1      -2.093  54.147 -10.269  1.00  0.00     0.000 A 
HETATM   37  C28 UNL     1      -1.414  55.350 -10.233  1.00  0.00     0.017 A 
HETATM   38  C29 UNL     1      -0.079  55.209  -9.753  1.00  0.00     0.008 A 
HETATM   39  C30 UNL     1       0.220  53.899  -9.447  1.00  0.00     0.050 A 
HETATM   40  S1  UNL     1      -1.099  52.851  -9.744  1.00  0.00    -0.105 SA
ENDBRANCH  35  36
ENDBRANCH  33  35
ENDBRANCH  30  31
ENDBRANCH  29  30
ENDBRANCH  27  29
ENDBRANCH  26  27
ENDBRANCH  25  26
ENDBRANCH  23  25
ENDBRANCH  20  23
BRANCH  13  41
HETATM   41  O2  UNL     1      -1.580  52.193 -23.485  1.00  0.00    -0.395 OA
HETATM   42  H16 UNL     1      -1.409  52.994 -22.959  1.00  0.00     0.210 HD
ENDBRANCH  13  41
TORSDOF 11
ENDMDL
MODEL 2
REMARK minimizedAffinity -7.57376146
REMARK CNNscore 0.628184617
REMARK CNNaffinity 5.86738586
REMARK  11 active torsions:
REMARK  status: ('A' for Active; 'I' for Inactive)
REMARK    1  A    between atoms: C12_13  and  O2_14 
REMARK    2  A    between atoms: C19_21  and  O3_22 
REMARK    3  A    between atoms: C19_21  and  C20_23 
REMARK    4  A    between atoms: C20_23  and  C21_25 
REMARK    5  A    between atoms: C21_25  and  O5_26 
REMARK    6  A    between atoms: O5_26  and  C22_27 
REMARK    7  A    between atoms: C22_27  and  C23_29 
REMARK    8  A    between atoms: C23_29  and  C24_30 
REMARK    9  A    between atoms: C24_30  and  C25_31 
REMARK       I    between atoms: C25_31  and  N1_33 
REMARK   10  A    between atoms: N1_33  and  C26_34 
REMARK   11  A    between atoms: C26_34  and  C27_35 
ROOT
HETATM    1  C1  UNL     1      -6.708  44.262 -30.401  1.00  0.00     0.020 C 
HETATM    2  C2  UNL     1      -7.190  45.676 -30.813  1.00  0.00    -0.014 C 
HETATM    3  C3  UNL     1      -7.014  45.832 -32.356  1.00  0.00     0.022 C 
HETATM    4  C4  UNL     1      -5.565  45.951 -32.806  1.00  0.00     0.084 C 
HETATM    5  C5  UNL     1      -4.897  47.091 -32.085  1.00  0.00     0.149 C 
HETATM    6  O1  UNL     1      -4.016  47.776 -32.604  1.00  0.00    -0.293 OA
HETATM    7  C6  UNL     1      -5.269  47.333 -30.671  1.00  0.00     0.053 C 
HETATM    8  C7  UNL     1      -6.272  46.660 -30.076  1.00  0.00    -0.068 C 
HETATM    9  C8  UNL     1      -6.510  46.849 -28.592  1.00  0.00     0.035 C 
HETATM   10  C9  UNL     1      -7.958  46.595 -28.162  1.00  0.00     0.010 C 
HETATM   11  C10 UNL     1      -8.922  46.952 -29.298  1.00  0.00    -0.002 C 
HETATM   12  C11 UNL     1      -8.730  45.962 -30.481  1.00  0.00     0.031 C 
HETATM   13  C12 UNL     1      -9.591  44.689 -30.329  1.00  0.00     0.124 C 
HETATM   14  C13 UNL     1     -11.053  44.999 -30.009  1.00  0.00     0.045 C 
HETATM   15  C14 UNL     1     -11.260  45.862 -28.738  1.00  0.00     0.001 C 
HETATM   16  C15 UNL     1     -10.968  45.007 -27.495  1.00  0.00     0.019 C 
HETATM   17  C16 UNL     1     -10.380  47.124 -28.818  1.00  0.00     0.002 C 
HETATM   18  C17 UNL     1     -11.175  48.064 -29.747  1.00  0.00     0.009 C 
HETATM   19  C18 UNL     1     -12.651  47.682 -29.617  1.00  0.00     0.047 C 
HETATM   20  C19 UNL     1     -12.707  46.454 -28.700  1.00  0.00     0.128 C 
ENDROOT
BRANCH  20  21
HETATM   21  O3  UNL     1     -13.621  45.509 -29.290  1.00  0.00    -0.381 OA
HETATM   22  H27 UNL     1     -14.186  45.169 -28.566  1.00  0.00     0.211 HD
ENDBRANCH  20  21
BRANCH  20  23
HETATM   23  C20 UNL     1     -13.308  46.779 -27.301  1.00  0.00     0.185 C 
HETATM   24  O4  UNL     1     -13.147  47.916 -26.830  1.00  0.00    -0.292 OA
BRANCH  23  25
HETATM   25  C21 UNL     1     -14.055  45.700 -26.519  1.00  0.00     0.260 C 
BRANCH  25  26
HETATM   26  O5  UNL     1     -15.377  46.121 -26.167  1.00  0.00    -0.314 OA
BRANCH  26  27
HETATM   27  C22 UNL     1     -15.611  46.178 -24.826  1.00  0.00     0.259 C 
HETATM   28  O6  UNL     1     -15.002  45.534 -23.986  1.00  0.00    -0.265 OA
BRANCH  27  29
HETATM   29  C23 UNL     1     -16.714  47.149 -24.518  1.00  0.00     0.120 C 
BRANCH  29  30
HETATM   30  C24 UNL     1     -17.883  46.439 -23.848  1.00  0.00     0.112 C 
BRANCH  30  31
HETATM   31  C25 UNL     1     -18.953  46.080 -24.854  1.00  0.00     0.218 C 
HETATM   32  O7  UNL     1     -19.869  46.833 -25.167  1.00  0.00    -0.274 OA
HETATM   33  N1  UNL     1     -18.792  44.821 -25.390  1.00  0.00    -0.356 N 
HETATM   34  H34 UNL     1     -17.909  44.344 -25.256  1.00  0.00     0.162 HD
BRANCH  33  35
HETATM   35  C26 UNL     1     -19.633  44.370 -26.477  1.00  0.00     0.168 C 
BRANCH  35  36
HETATM   36  C27 UNL     1     -18.757  43.988 -27.624  1.00  0.00     0.000 A 
HETATM   37  C28 UNL     1     -17.382  44.090 -27.719  1.00  0.00     0.017 A 
HETATM   38  C29 UNL     1     -16.885  43.609 -28.966  1.00  0.00     0.008 A 
HETATM   39  C30 UNL     1     -17.898  43.165 -29.786  1.00  0.00     0.050 A 
HETATM   40  S1  UNL     1     -19.437  43.334 -29.057  1.00  0.00    -0.105 SA
ENDBRANCH  35  36
ENDBRANCH  33  35
ENDBRANCH  30  31
ENDBRANCH  29  30
ENDBRANCH  27  29
ENDBRANCH  26  27
ENDBRANCH  25  26
ENDBRANCH  23  25
ENDBRANCH  20  23
BRANCH  13  41
HETATM   41  O2  UNL     1      -9.563  43.968 -31.562  1.00  0.00    -0.395 OA
HETATM   42  H16 UNL     1     -10.128  43.182 -31.459  1.00  0.00     0.210 HD
ENDBRANCH  13  41
TORSDOF 11
ENDMDL
MODEL 3
REMARK minimizedAffinity -6.91516685
REMARK CNNscore 0.5313977
REMARK CNNaffinity 5.92546082
REMARK  11 active torsions:
REMARK  status: ('A' for Active; 'I' for Inactive)
REMARK    1  A    between atoms: C12_13  and  O2_14 
REMARK    2  A    between atoms: C19_21  and  O3_22 
REMARK    3  A    between atoms: C19_21  and  C20_23 
REMARK    4  A    between atoms: C20_23  and  C21_25 
REMARK    5  A    between atoms: C21_25  and  O5_26 
REMARK    6  A    between atoms: O5_26  and  C22_27 
REMARK    7  A    between atoms: C22_27  and  C23_29 
REMARK    8  A    between atoms: C23_29  and  C24_30 
REMARK    9  A    between atoms: C24_30  and  C25_31 
REMARK       I    between atoms: C25_31  and  N1_33 
REMARK   10  A    between atoms: N1_33  and  C26_34 
REMARK   11  A    between atoms: C26_34  and  C27_35 
ROOT
HETATM    1  C1  UNL     1      -1.699  53.172  -8.245  1.00  0.00     0.020 C 
HETATM    2  C2  UNL     1      -1.205  53.746  -9.597  1.00  0.00    -0.014 C 
HETATM    3  C3  UNL     1      -2.300  54.704 -10.162  1.00  0.00     0.022 C 
HETATM    4  C4  UNL     1      -3.547  53.992 -10.665  1.00  0.00     0.084 C 
HETATM    5  C5  UNL     1      -3.168  52.964 -11.698  1.00  0.00     0.149 C 
HETATM    6  O1  UNL     1      -3.898  52.680 -12.646  1.00  0.00    -0.293 OA
HETATM    7  C6  UNL     1      -1.901  52.220 -11.505  1.00  0.00     0.053 C 
HETATM    8  C7  UNL     1      -1.034  52.537 -10.525  1.00  0.00    -0.068 C 
HETATM    9  C8  UNL     1       0.172  51.651 -10.291  1.00  0.00     0.035 C 
HETATM   10  C9  UNL     1       1.363  52.382  -9.664  1.00  0.00     0.010 C 
HETATM   11  C10 UNL     1       1.376  53.851 -10.099  1.00  0.00    -0.002 C 
HETATM   12  C11 UNL     1       0.153  54.590  -9.489  1.00  0.00     0.031 C 
HETATM   13  C12 UNL     1       0.442  55.144  -8.077  1.00  0.00     0.124 C 
HETATM   14  C13 UNL     1       1.745  55.940  -8.011  1.00  0.00     0.045 C 
HETATM   15  C14 UNL     1       2.999  55.153  -8.475  1.00  0.00     0.001 C 
HETATM   16  C15 UNL     1       3.358  54.105  -7.411  1.00  0.00     0.019 C 
HETATM   17  C16 UNL     1       2.739  54.536  -9.863  1.00  0.00     0.002 C 
HETATM   18  C17 UNL     1       2.957  55.716 -10.832  1.00  0.00     0.009 C 
HETATM   19  C18 UNL     1       3.927  56.684 -10.152  1.00  0.00     0.047 C 
HETATM   20  C19 UNL     1       4.192  56.127  -8.748  1.00  0.00     0.128 C 
ENDROOT
BRANCH  20  21
HETATM   21  O3  UNL     1       4.127  57.228  -7.822  1.00  0.00    -0.381 OA
HETATM   22  H27 UNL     1       4.886  57.130  -7.210  1.00  0.00     0.211 HD
ENDBRANCH  20  21
BRANCH  20  23
HETATM   23  C20 UNL     1       5.631  55.552  -8.595  1.00  0.00     0.185 C 
HETATM   24  O4  UNL     1       6.214  55.123  -9.602  1.00  0.00    -0.292 OA
BRANCH  23  25
HETATM   25  C21 UNL     1       6.289  55.494  -7.217  1.00  0.00     0.260 C 
BRANCH  25  26
HETATM   26  O5  UNL     1       6.587  56.802  -6.718  1.00  0.00    -0.314 OA
BRANCH  26  27
HETATM   27  C22 UNL     1       7.252  56.813  -5.529  1.00  0.00     0.259 C 
HETATM   28  O6  UNL     1       6.945  57.500  -4.567  1.00  0.00    -0.265 OA
BRANCH  27  29
HETATM   29  C23 UNL     1       8.410  55.858  -5.558  1.00  0.00     0.120 C 
BRANCH  29  30
HETATM   30  C24 UNL     1       9.730  56.615  -5.575  1.00  0.00     0.112 C 
BRANCH  30  31
HETATM   31  C25 UNL     1      10.724  56.005  -4.612  1.00  0.00     0.218 C 
HETATM   32  O7  UNL     1      10.637  56.111  -3.393  1.00  0.00    -0.274 OA
HETATM   33  N1  UNL     1      11.734  55.311  -5.241  1.00  0.00    -0.356 N 
HETATM   34  H34 UNL     1      11.628  55.081  -6.222  1.00  0.00     0.162 HD
BRANCH  33  35
HETATM   35  C26 UNL     1      12.685  54.537  -4.475  1.00  0.00     0.168 C 
BRANCH  35  36
HETATM   36  C27 UNL     1      13.170  53.410  -5.326  1.00  0.00     0.000 A 
HETATM   37  C28 UNL     1      12.665  52.127  -5.412  1.00  0.00     0.017 A 
HETATM   38  C29 UNL     1      13.378  51.322  -6.349  1.00  0.00     0.008 A 
HETATM   39  C30 UNL     1      14.411  52.016  -6.939  1.00  0.00     0.050 A 
HETATM   40  S1  UNL     1      14.521  53.623  -6.361  1.00  0.00    -0.105 SA
ENDBRANCH  35  36
ENDBRANCH  33  35
ENDBRANCH  30  31
ENDBRANCH  29  30
ENDBRANCH  27  29
ENDBRANCH  26  27
ENDBRANCH  25  26
ENDBRANCH  23  25
ENDBRANCH  20  23
BRANCH  13  41
HETATM   41  O2  UNL     1      -0.620  56.023  -7.703  1.00  0.00    -0.395 OA
HETATM   42  H16 UNL     1      -0.412  56.382  -6.823  1.00  0.00     0.210 HD
ENDBRANCH  13  41
TORSDOF 11
ENDMDL
MODEL 4
REMARK minimizedAffinity -7.38415241
REMARK CNNscore 0.53000176
REMARK CNNaffinity 6.50396013
REMARK  11 active torsions:
REMARK  status: ('A' for Active; 'I' for Inactive)
REMARK    1  A    between atoms: C12_13  and  O2_14 
REMARK    2  A    between atoms: C19_21  and  O3_22 
REMARK    3  A    between atoms: C19_21  and  C20_23 
REMARK    4  A    between atoms: C20_23  and  C21_25 
REMARK    5  A    between atoms: C21_25  and  O5_26 
REMARK    6  A    between atoms: O5_26  and  C22_27 
REMARK    7  A    between atoms: C22_27  and  C23_29 
REMARK    8  A    between atoms: C23_29  and  C24_30 
REMARK    9  A    between atoms: C24_30  and  C25_31 
REMARK       I    between atoms: C25_31  and  N1_33 
REMARK   10  A    between atoms: N1_33  and  C26_34 
REMARK   11  A    between atoms: C26_34  and  C27_35 
ROOT
HETATM    1  C1  UNL     1     -10.711  45.495 -37.749  1.00  0.00     0.020 C 
HETATM    2  C2  UNL     1     -11.057  46.626 -36.749  1.00  0.00    -0.014 C 
HETATM    3  C3  UNL     1     -12.588  46.916 -36.833  1.00  0.00     0.022 C 
HETATM    4  C4  UNL     1     -13.017  47.614 -38.116  1.00  0.00     0.084 C 
HETATM    5  C5  UNL     1     -12.234  48.888 -38.292  1.00  0.00     0.149 C 
HETATM    6  O1  UNL     1     -12.708  49.887 -38.829  1.00  0.00    -0.293 OA
HETATM    7  C6  UNL     1     -10.813  48.893 -37.870  1.00  0.00     0.053 C 
HETATM    8  C7  UNL     1     -10.263  47.853 -37.216  1.00  0.00    -0.068 C 
HETATM    9  C8  UNL     1      -8.774  47.859 -36.938  1.00  0.00     0.035 C 
HETATM   10  C9  UNL     1      -8.372  47.038 -35.709  1.00  0.00     0.010 C 
HETATM   11  C10 UNL     1      -9.498  47.046 -34.671  1.00  0.00    -0.002 C 
HETATM   12  C11 UNL     1     -10.726  46.271 -35.222  1.00  0.00     0.031 C 
HETATM   13  C12 UNL     1     -10.647  44.757 -34.929  1.00  0.00     0.124 C 
HETATM   14  C13 UNL     1     -10.328  44.454 -33.466  1.00  0.00     0.045 C 
HETATM   15  C14 UNL     1      -9.016  45.103 -32.951  1.00  0.00     0.001 C 
HETATM   16  C15 UNL     1      -7.815  44.368 -33.567  1.00  0.00     0.019 C 
HETATM   17  C16 UNL     1      -9.025  46.610 -33.267  1.00  0.00     0.002 C 
HETATM   18  C17 UNL     1      -9.914  47.210 -32.157  1.00  0.00     0.009 C 
HETATM   19  C18 UNL     1      -9.818  46.275 -30.950  1.00  0.00     0.047 C 
HETATM   20  C19 UNL     1      -8.964  45.078 -31.388  1.00  0.00     0.128 C 
ENDROOT
BRANCH  20  21
HETATM   21  O3  UNL     1      -9.610  43.882 -30.911  1.00  0.00    -0.381 OA
HETATM   22  H27 UNL     1      -8.909  43.312 -30.532  1.00  0.00     0.211 HD
ENDBRANCH  20  21
BRANCH  20  23
HETATM   23  C20 UNL     1      -7.557  45.072 -30.722  1.00  0.00     0.185 C 
HETATM   24  O4  UNL     1      -7.133  44.015 -30.229  1.00  0.00    -0.292 OA
BRANCH  23  25
HETATM   25  C21 UNL     1      -6.736  46.360 -30.655  1.00  0.00     0.260 C 
BRANCH  25  26
HETATM   26  O5  UNL     1      -6.428  46.720 -29.304  1.00  0.00    -0.314 OA
BRANCH  26  27
HETATM   27  C22 UNL     1      -5.338  47.526 -29.172  1.00  0.00     0.259 C 
HETATM   28  O6  UNL     1      -4.597  47.850 -30.088  1.00  0.00    -0.265 OA
BRANCH  27  29
HETATM   29  C23 UNL     1      -5.174  47.973 -27.747  1.00  0.00     0.120 C 
BRANCH  29  30
HETATM   30  C24 UNL     1      -3.727  48.352 -27.467  1.00  0.00     0.112 C 
BRANCH  30  31
HETATM   31  C25 UNL     1      -3.637  49.705 -26.796  1.00  0.00     0.218 C 
HETATM   32  O7  UNL     1      -4.053  49.927 -25.664  1.00  0.00    -0.274 OA
HETATM   33  N1  UNL     1      -3.035  50.662 -27.582  1.00  0.00    -0.356 N 
HETATM   34  H34 UNL     1      -2.525  50.364 -28.406  1.00  0.00     0.162 HD
BRANCH  33  35
HETATM   35  C26 UNL     1      -2.728  51.969 -27.047  1.00  0.00     0.168 C 
BRANCH  35  36
HETATM   36  C27 UNL     1      -1.253  52.058 -26.834  1.00  0.00     0.000 A 
HETATM   37  C28 UNL     1      -0.460  53.190 -26.810  1.00  0.00     0.017 A 
HETATM   38  C29 UNL     1       0.912  52.890 -26.562  1.00  0.00     0.008 A 
HETATM   39  C30 UNL     1       1.123  51.537 -26.416  1.00  0.00     0.050 A 
HETATM   40  S1  UNL     1      -0.324  50.638 -26.582  1.00  0.00    -0.105 SA
ENDBRANCH  35  36
ENDBRANCH  33  35
ENDBRANCH  30  31
ENDBRANCH  29  30
ENDBRANCH  27  29
ENDBRANCH  26  27
ENDBRANCH  25  26
ENDBRANCH  23  25
ENDBRANCH  20  23
BRANCH  13  41
HETATM   41  O2  UNL     1     -11.915  44.166 -35.225  1.00  0.00    -0.395 OA
HETATM   42  H16 UNL     1     -11.857  43.218 -35.014  1.00  0.00     0.210 HD
ENDBRANCH  13  41
TORSDOF 11
ENDMDL
MODEL 5
REMARK minimizedAffinity -9.53063679
REMARK CNNscore 0.475463659
REMARK CNNaffinity 7.17034721
REMARK  11 active torsions:
REMARK  status: ('A' for Active; 'I' for Inactive)
REMARK    1  A    between atoms: C12_13  and  O2_14 
REMARK    2  A    between atoms: C19_21  and  O3_22 
REMARK    3  A    between atoms: C19_21  and  C20_23 
REMARK    4  A    between atoms: C20_23  and  C21_25 
REMARK    5  A    between atoms: C21_25  and  O5_26 
REMARK    6  A    between atoms: O5_26  and  C22_27 
REMARK    7  A    between atoms: C22_27  and  C23_29 
REMARK    8  A    between atoms: C23_29  and  C24_30 
REMARK    9  A    between atoms: C24_30  and  C25_31 
REMARK       I    between atoms: C25_31  and  N1_33 
REMARK   10  A    between atoms: N1_33  and  C26_34 
REMARK   11  A    between atoms: C26_34  and  C27_35 
ROOT
HETATM    1  C1  UNL     1      -5.961  49.242 -20.843  1.00  0.00     0.020 C 
HETATM    2  C2  UNL     1      -5.958  48.455 -22.178  1.00  0.00    -0.014 C 
HETATM    3  C3  UNL     1      -7.435  48.210 -22.616  1.00  0.00     0.022 C 
HETATM    4  C4  UNL     1      -8.175  47.193 -21.760  1.00  0.00     0.084 C 
HETATM    5  C5  UNL     1      -7.414  45.893 -21.736  1.00  0.00     0.149 C 
HETATM    6  O1  UNL     1      -7.974  44.801 -21.661  1.00  0.00    -0.293 OA
HETATM    7  C6  UNL     1      -5.933  45.956 -21.722  1.00  0.00     0.053 C 
HETATM    8  C7  UNL     1      -5.271  47.118 -21.871  1.00  0.00    -0.068 C 
HETATM    9  C8  UNL     1      -3.765  47.136 -21.706  1.00  0.00     0.035 C 
HETATM   10  C9  UNL     1      -3.072  48.257 -22.486  1.00  0.00     0.010 C 
HETATM   11  C10 UNL     1      -3.858  48.586 -23.759  1.00  0.00    -0.002 C 
HETATM   12  C11 UNL     1      -5.227  49.218 -23.383  1.00  0.00     0.031 C 
HETATM   13  C12 UNL     1      -5.140  50.749 -23.200  1.00  0.00     0.124 C 
HETATM   14  C13 UNL     1      -4.435  51.443 -24.365  1.00  0.00     0.045 C 
HETATM   15  C14 UNL     1      -3.003  50.920 -24.649  1.00  0.00     0.001 C 
HETATM   16  C15 UNL     1      -2.060  51.404 -23.536  1.00  0.00     0.019 C 
HETATM   17  C16 UNL     1      -3.030  49.386 -24.788  1.00  0.00     0.002 C 
HETATM   18  C17 UNL     1      -3.540  49.160 -26.226  1.00  0.00     0.009 C 
HETATM   19  C18 UNL     1      -3.152  50.395 -27.041  1.00  0.00     0.047 C 
HETATM   20  C19 UNL     1      -2.513  51.385 -26.059  1.00  0.00     0.128 C 
ENDROOT
BRANCH  20  21
HETATM   21  O3  UNL     1      -3.054  52.690 -26.342  1.00  0.00    -0.381 OA
HETATM   22  H27 UNL     1      -2.302  53.319 -26.329  1.00  0.00     0.211 HD
ENDBRANCH  20  21
BRANCH  20  23
HETATM   23  C20 UNL     1      -0.977  51.529 -26.269  1.00  0.00     0.185 C 
HETATM   24  O4  UNL     1      -0.283  50.502 -26.325  1.00  0.00    -0.292 OA
BRANCH  23  25
HETATM   25  C21 UNL     1      -0.345  52.916 -26.373  1.00  0.00     0.260 C 
BRANCH  25  26
HETATM   26  O5  UNL     1      -0.507  53.663 -25.162  1.00  0.00    -0.314 OA
BRANCH  26  27
HETATM   27  C22 UNL     1       0.301  54.754 -25.061  1.00  0.00     0.259 C 
HETATM   28  O6  UNL     1       0.364  55.652 -25.888  1.00  0.00    -0.265 OA
BRANCH  27  29
HETATM   29  C23 UNL     1       1.100  54.710 -23.791  1.00  0.00     0.120 C 
BRANCH  29  30
HETATM   30  C24 UNL     1       0.888  53.387 -23.069  1.00  0.00     0.112 C 
BRANCH  30  31
HETATM   31  C25 UNL     1       0.966  53.564 -21.569  1.00  0.00     0.218 C 
HETATM   32  O7  UNL     1       1.586  54.473 -21.026  1.00  0.00    -0.274 OA
HETATM   33  N1  UNL     1       0.266  52.604 -20.872  1.00  0.00    -0.356 N 
HETATM   34  H34 UNL     1      -0.392  52.021 -21.375  1.00  0.00     0.162 HD
BRANCH  33  35
HETATM   35  C26 UNL     1       0.105  52.705 -19.439  1.00  0.00     0.168 C 
BRANCH  35  36
HETATM   36  C27 UNL     1      -0.363  51.384 -18.923  1.00  0.00     0.000 A 
HETATM   37  C28 UNL     1       0.105  50.680 -17.829  1.00  0.00     0.017 A 
HETATM   38  C29 UNL     1      -0.598  49.456 -17.627  1.00  0.00     0.008 A 
HETATM   39  C30 UNL     1      -1.572  49.261 -18.580  1.00  0.00     0.050 A 
HETATM   40  S1  UNL     1      -1.633  50.543 -19.712  1.00  0.00    -0.105 SA
ENDBRANCH  35  36
ENDBRANCH  33  35
ENDBRANCH  30  31
ENDBRANCH  29  30
ENDBRANCH  27  29
ENDBRANCH  26  27
ENDBRANCH  25  26
ENDBRANCH  23  25
ENDBRANCH  20  23
BRANCH  13  41
HETATM   41  O2  UNL     1      -6.465  51.277 -23.122  1.00  0.00    -0.395 OA
HETATM   42  H16 UNL     1      -6.394  52.244 -23.030  1.00  0.00     0.210 HD
ENDBRANCH  13  41
TORSDOF 11
ENDMDL
MODEL 6
REMARK minimizedAffinity -7.16612148
REMARK CNNscore 0.439914078
REMARK CNNaffinity 5.7844243
REMARK  11 active torsions:
REMARK  status: ('A' for Active; 'I' for Inactive)
REMARK    1  A    between atoms: C12_13  and  O2_14 
REMARK    2  A    between atoms: C19_21  and  O3_22 
REMARK    3  A    between atoms: C19_21  and  C20_23 
REMARK    4  A    between atoms: C20_23  and  C21_25 
REMARK    5  A    between atoms: C21_25  and  O5_26 
REMARK    6  A    between atoms: O5_26  and  C22_27 
REMARK    7  A    between atoms: C22_27  and  C23_29 
REMARK    8  A    between atoms: C23_29  and  C24_30 
REMARK    9  A    between atoms: C24_30  and  C25_31 
REMARK       I    between atoms: C25_31  and  N1_33 
REMARK   10  A    between atoms: N1_33  and  C26_34 
REMARK   11  A    between atoms: C26_34  and  C27_35 
ROOT
HETATM    1  C1  UNL     1      -8.227  47.944 -30.762  1.00  0.00     0.020 C 
HETATM    2  C2  UNL     1      -8.242  46.523 -30.144  1.00  0.00    -0.014 C 
HETATM    3  C3  UNL     1      -6.780  46.121 -29.779  1.00  0.00     0.022 C 
HETATM    4  C4  UNL     1      -5.897  45.830 -30.985  1.00  0.00     0.084 C 
HETATM    5  C5  UNL     1      -6.534  44.766 -31.840  1.00  0.00     0.149 C 
HETATM    6  O1  UNL     1      -5.874  43.949 -32.478  1.00  0.00    -0.293 OA
HETATM    7  C6  UNL     1      -8.011  44.771 -31.969  1.00  0.00     0.053 C 
HETATM    8  C7  UNL     1      -8.784  45.598 -31.242  1.00  0.00    -0.068 C 
HETATM    9  C8  UNL     1     -10.272  45.655 -31.522  1.00  0.00     0.035 C 
HETATM   10  C9  UNL     1     -11.112  46.077 -30.313  1.00  0.00     0.010 C 
HETATM   11  C10 UNL     1     -10.441  45.623 -29.013  1.00  0.00    -0.002 C 
HETATM   12  C11 UNL     1      -9.114  46.404 -28.805  1.00  0.00     0.031 C 
HETATM   13  C12 UNL     1      -9.328  47.745 -28.070  1.00  0.00     0.124 C 
HETATM   14  C13 UNL     1     -10.166  47.595 -26.800  1.00  0.00     0.045 C 
HETATM   15  C14 UNL     1     -11.559  46.953 -27.026  1.00  0.00     0.001 C 
HETATM   16  C15 UNL     1     -12.470  47.964 -27.740  1.00  0.00     0.019 C 
HETATM   17  C16 UNL     1     -11.402  45.633 -27.804  1.00  0.00     0.002 C 
HETATM   18  C17 UNL     1     -10.965  44.623 -26.723  1.00  0.00     0.009 C 
HETATM   19  C18 UNL     1     -11.515  45.128 -25.387  1.00  0.00     0.047 C 
HETATM   20  C19 UNL     1     -12.177  46.482 -25.669  1.00  0.00     0.128 C 
ENDROOT
BRANCH  20  21
HETATM   21  O3  UNL     1     -11.777  47.390 -24.625  1.00  0.00    -0.381 OA
HETATM   22  H27 UNL     1     -12.580  47.877 -24.348  1.00  0.00     0.211 HD
ENDBRANCH  20  21
BRANCH  20  23
HETATM   23  C20 UNL     1     -13.730  46.418 -25.577  1.00  0.00     0.185 C 
HETATM   24  O4  UNL     1     -14.333  47.335 -24.998  1.00  0.00    -0.292 OA
BRANCH  23  25
HETATM   25  C21 UNL     1     -14.484  45.226 -26.165  1.00  0.00     0.260 C 
BRANCH  25  26
HETATM   26  O5  UNL     1     -15.025  45.526 -27.456  1.00  0.00    -0.314 OA
BRANCH  26  27
HETATM   27  C22 UNL     1     -16.203  44.901 -27.731  1.00  0.00     0.259 C 
HETATM   28  O6  UNL     1     -16.533  44.494 -28.835  1.00  0.00    -0.265 OA
BRANCH  27  29
HETATM   29  C23 UNL     1     -17.040  44.771 -26.491  1.00  0.00     0.120 C 
BRANCH  29  30
HETATM   30  C24 UNL     1     -18.499  45.085 -26.793  1.00  0.00     0.112 C 
BRANCH  30  31
HETATM   31  C25 UNL     1     -19.238  45.502 -25.542  1.00  0.00     0.218 C 
HETATM   32  O7  UNL     1     -19.798  46.586 -25.416  1.00  0.00    -0.274 OA
HETATM   33  N1  UNL     1     -19.226  44.538 -24.558  1.00  0.00    -0.356 N 
HETATM   34  H34 UNL     1     -18.940  43.598 -24.802  1.00  0.00     0.162 HD
BRANCH  33  35
HETATM   35  C26 UNL     1     -20.010  44.704 -23.354  1.00  0.00     0.168 C 
BRANCH  35  36
HETATM   36  C27 UNL     1     -19.097  45.129 -22.252  1.00  0.00     0.000 A 
HETATM   37  C28 UNL     1     -18.592  46.391 -22.000  1.00  0.00     0.017 A 
HETATM   38  C29 UNL     1     -17.761  46.425 -20.842  1.00  0.00     0.008 A 
HETATM   39  C30 UNL     1     -17.649  45.185 -20.254  1.00  0.00     0.050 A 
HETATM   40  S1  UNL     1     -18.538  43.990 -21.097  1.00  0.00    -0.105 SA
ENDBRANCH  35  36
ENDBRANCH  33  35
ENDBRANCH  30  31
ENDBRANCH  29  30
ENDBRANCH  27  29
ENDBRANCH  26  27
ENDBRANCH  25  26
ENDBRANCH  23  25
ENDBRANCH  20  23
BRANCH  13  41
HETATM   41  O2  UNL     1      -8.055  48.266 -27.687  1.00  0.00    -0.395 OA
HETATM   42  H16 UNL     1      -8.207  49.098 -27.205  1.00  0.00     0.210 HD
ENDBRANCH  13  41
TORSDOF 11
ENDMDL
MODEL 7
REMARK minimizedAffinity -7.99725294
REMARK CNNscore 0.434620291
REMARK CNNaffinity 6.59522629
REMARK  11 active torsions:
REMARK  status: ('A' for Active; 'I' for Inactive)
REMARK    1  A    between atoms: C12_13  and  O2_14 
REMARK    2  A    between atoms: C19_21  and  O3_22 
REMARK    3  A    between atoms: C19_21  and  C20_23 
REMARK    4  A    between atoms: C20_23  and  C21_25 
REMARK    5  A    between atoms: C21_25  and  O5_26 
REMARK    6  A    between atoms: O5_26  and  C22_27 
REMARK    7  A    between atoms: C22_27  and  C23_29 
REMARK    8  A    between atoms: C23_29  and  C24_30 
REMARK    9  A    between atoms: C24_30  and  C25_31 
REMARK       I    between atoms: C25_31  and  N1_33 
REMARK   10  A    between atoms: N1_33  and  C26_34 
REMARK   11  A    between atoms: C26_34  and  C27_35 
ROOT
HETATM    1  C1  UNL     1      -0.791  50.919 -22.381  1.00  0.00     0.020 C 
HETATM    2  C2  UNL     1      -1.761  50.521 -21.239  1.00  0.00    -0.014 C 
HETATM    3  C3  UNL     1      -1.841  51.699 -20.220  1.00  0.00     0.022 C 
HETATM    4  C4  UNL     1      -0.581  51.885 -19.386  1.00  0.00     0.084 C 
HETATM    5  C5  UNL     1      -0.242  50.601 -18.676  1.00  0.00     0.149 C 
HETATM    6  O1  UNL     1       0.290  50.580 -17.568  1.00  0.00    -0.293 OA
HETATM    7  C6  UNL     1      -0.493  49.326 -19.389  1.00  0.00     0.053 C 
HETATM    8  C7  UNL     1      -1.135  49.289 -20.572  1.00  0.00    -0.068 C 
HETATM    9  C8  UNL     1      -1.235  47.974 -21.317  1.00  0.00     0.035 C 
HETATM   10  C9  UNL     1      -2.452  47.879 -22.242  1.00  0.00     0.010 C 
HETATM   11  C10 UNL     1      -3.613  48.706 -21.681  1.00  0.00    -0.002 C 
HETATM   12  C11 UNL     1      -3.255  50.217 -21.730  1.00  0.00     0.031 C 
HETATM   13  C12 UNL     1      -3.620  50.866 -23.082  1.00  0.00     0.124 C 
HETATM   14  C13 UNL     1      -5.050  50.553 -23.521  1.00  0.00     0.045 C 
HETATM   15  C14 UNL     1      -5.370  49.039 -23.623  1.00  0.00     0.001 C 
HETATM   16  C15 UNL     1      -4.659  48.456 -24.854  1.00  0.00     0.019 C 
HETATM   17  C16 UNL     1      -4.974  48.335 -22.311  1.00  0.00     0.002 C 
HETATM   18  C17 UNL     1      -6.145  48.654 -21.359  1.00  0.00     0.009 C 
HETATM   19  C18 UNL     1      -7.383  48.881 -22.229  1.00  0.00     0.047 C 
HETATM   20  C19 UNL     1      -6.915  48.803 -23.687  1.00  0.00     0.128 C 
ENDROOT
BRANCH  20  21
HETATM   21  O3  UNL     1      -7.531  49.891 -24.403  1.00  0.00    -0.381 OA
HETATM   22  H27 UNL     1      -7.856  49.526 -25.252  1.00  0.00     0.211 HD
ENDBRANCH  20  21
BRANCH  20  23
HETATM   23  C20 UNL     1      -7.410  47.514 -24.406  1.00  0.00     0.185 C 
HETATM   24  O4  UNL     1      -7.358  46.433 -23.799  1.00  0.00    -0.292 OA
BRANCH  23  25
HETATM   25  C21 UNL     1      -7.920  47.587 -25.845  1.00  0.00     0.260 C 
BRANCH  25  26
HETATM   26  O5  UNL     1      -9.325  47.325 -25.922  1.00  0.00    -0.314 OA
BRANCH  26  27
HETATM   27  C22 UNL     1     -10.024  48.225 -26.669  1.00  0.00     0.259 C 
HETATM   28  O6  UNL     1     -11.113  48.687 -26.361  1.00  0.00    -0.265 OA
BRANCH  27  29
HETATM   29  C23 UNL     1      -9.272  48.580 -27.919  1.00  0.00     0.120 C 
BRANCH  29  30
HETATM   30  C24 UNL     1      -9.873  47.873 -29.126  1.00  0.00     0.112 C 
BRANCH  30  31
HETATM   31  C25 UNL     1      -9.034  46.683 -29.536  1.00  0.00     0.218 C 
HETATM   32  O7  UNL     1      -9.198  45.553 -29.088  1.00  0.00    -0.274 OA
HETATM   33  N1  UNL     1      -8.070  46.994 -30.469  1.00  0.00    -0.356 N 
HETATM   34  H34 UNL     1      -8.129  47.883 -30.951  1.00  0.00     0.162 HD
BRANCH  33  35
HETATM   35  C26 UNL     1      -7.278  45.953 -31.085  1.00  0.00     0.168 C 
BRANCH  35  36
HETATM   36  C27 UNL     1      -6.291  46.593 -32.004  1.00  0.00     0.000 A 
HETATM   37  C28 UNL     1      -4.915  46.634 -31.884  1.00  0.00     0.017 A 
HETATM   38  C29 UNL     1      -4.293  47.322 -32.967  1.00  0.00     0.008 A 
HETATM   39  C30 UNL     1      -5.217  47.795 -33.873  1.00  0.00     0.050 A 
HETATM   40  S1  UNL     1      -6.821  47.413 -33.415  1.00  0.00    -0.105 SA
ENDBRANCH  35  36
ENDBRANCH  33  35
ENDBRANCH  30  31
ENDBRANCH  29  30
ENDBRANCH  27  29
ENDBRANCH  26  27
ENDBRANCH  25  26
ENDBRANCH  23  25
ENDBRANCH  20  23
BRANCH  13  41
HETATM   41  O2  UNL     1      -3.510  52.285 -22.954  1.00  0.00    -0.395 OA
HETATM   42  H16 UNL     1      -3.765  52.681 -23.805  1.00  0.00     0.210 HD
ENDBRANCH  13  41
TORSDOF 11
ENDMDL
MODEL 8
REMARK minimizedAffinity -6.92718029
REMARK CNNscore 0.42080763
REMARK CNNaffinity 5.81827974
REMARK  11 active torsions:
REMARK  status: ('A' for Active; 'I' for Inactive)
REMARK    1  A    between atoms: C12_13  and  O2_14 
REMARK    2  A    between atoms: C19_21  and  O3_22 
REMARK    3  A    between atoms: C19_21  and  C20_23 
REMARK    4  A    between atoms: C20_23  and  C21_25 
REMARK    5  A    between atoms: C21_25  and  O5_26 
REMARK    6  A    between atoms: O5_26  and  C22_27 
REMARK    7  A    between atoms: C22_27  and  C23_29 
REMARK    8  A    between atoms: C23_29  and  C24_30 
REMARK    9  A    between atoms: C24_30  and  C25_31 
REMARK       I    between atoms: C25_31  and  N1_33 
REMARK   10  A    between atoms: N1_33  and  C26_34 
REMARK   11  A    between atoms: C26_34  and  C27_35 
ROOT
HETATM    1  C1  UNL     1      -0.662  49.177 -20.927  1.00  0.00     0.020 C 
HETATM    2  C2  UNL     1      -1.628  50.381 -21.062  1.00  0.00    -0.014 C 
HETATM    3  C3  UNL     1      -1.003  51.413 -22.052  1.00  0.00     0.022 C 
HETATM    4  C4  UNL     1       0.202  52.156 -21.493  1.00  0.00     0.084 C 
HETATM    5  C5  UNL     1      -0.167  52.830 -20.198  1.00  0.00     0.149 C 
HETATM    6  O1  UNL     1       0.330  53.898 -19.844  1.00  0.00    -0.293 OA
HETATM    7  C6  UNL     1      -1.105  52.127 -19.292  1.00  0.00     0.053 C 
HETATM    8  C7  UNL     1      -1.730  50.992 -19.658  1.00  0.00    -0.068 C 
HETATM    9  C8  UNL     1      -2.564  50.246 -18.638  1.00  0.00     0.035 C 
HETATM   10  C9  UNL     1      -3.689  49.408 -19.255  1.00  0.00     0.010 C 
HETATM   11  C10 UNL     1      -4.188  50.057 -20.550  1.00  0.00    -0.002 C 
HETATM   12  C11 UNL     1      -3.075  49.995 -21.631  1.00  0.00     0.031 C 
HETATM   13  C12 UNL     1      -3.106  48.677 -22.436  1.00  0.00     0.124 C 
HETATM   14  C13 UNL     1      -4.501  48.339 -22.961  1.00  0.00     0.045 C 
HETATM   15  C14 UNL     1      -5.592  48.247 -21.862  1.00  0.00     0.001 C 
HETATM   16  C15 UNL     1      -5.377  46.964 -21.045  1.00  0.00     0.019 C 
HETATM   17  C16 UNL     1      -5.566  49.522 -20.998  1.00  0.00     0.002 C 
HETATM   18  C17 UNL     1      -6.326  50.557 -21.853  1.00  0.00     0.009 C 
HETATM   19  C18 UNL     1      -7.291  49.779 -22.749  1.00  0.00     0.047 C 
HETATM   20  C19 UNL     1      -7.020  48.290 -22.497  1.00  0.00     0.128 C 
ENDROOT
BRANCH  20  21
HETATM   21  O3  UNL     1      -6.991  47.629 -23.777  1.00  0.00    -0.381 OA
HETATM   22  H27 UNL     1      -7.508  46.802 -23.682  1.00  0.00     0.211 HD
ENDBRANCH  20  21
BRANCH  20  23
HETATM   23  C20 UNL     1      -8.172  47.598 -21.710  1.00  0.00     0.185 C 
HETATM   24  O4  UNL     1      -8.380  47.936 -20.535  1.00  0.00    -0.292 OA
BRANCH  23  25
HETATM   25  C21 UNL     1      -9.003  46.502 -22.376  1.00  0.00     0.260 C 
BRANCH  25  26
HETATM   26  O5  UNL     1     -10.407  46.725 -22.206  1.00  0.00    -0.314 OA
BRANCH  26  27
HETATM   27  C22 UNL     1     -11.120  46.729 -23.366  1.00  0.00     0.259 C 
HETATM   28  O6  UNL     1     -10.777  47.298 -24.391  1.00  0.00    -0.265 OA
BRANCH  27  29
HETATM   29  C23 UNL     1     -12.384  45.931 -23.218  1.00  0.00     0.120 C 
BRANCH  29  30
HETATM   30  C24 UNL     1     -13.277  46.109 -24.437  1.00  0.00     0.112 C 
BRANCH  30  31
HETATM   31  C25 UNL     1     -14.581  46.779 -24.066  1.00  0.00     0.218 C 
HETATM   32  O7  UNL     1     -14.675  47.648 -23.206  1.00  0.00    -0.274 OA
HETATM   33  N1  UNL     1     -15.655  46.317 -24.796  1.00  0.00    -0.356 N 
HETATM   34  H34 UNL     1     -15.477  45.767 -25.627  1.00  0.00     0.162 HD
BRANCH  33  35
HETATM   35  C26 UNL     1     -16.950  46.950 -24.682  1.00  0.00     0.168 C 
BRANCH  35  36
HETATM   36  C27 UNL     1     -17.862  46.027 -23.942  1.00  0.00     0.000 A 
HETATM   37  C28 UNL     1     -18.690  46.319 -22.875  1.00  0.00     0.017 A 
HETATM   38  C29 UNL     1     -19.433  45.185 -22.435  1.00  0.00     0.008 A 
HETATM   39  C30 UNL     1     -19.138  44.060 -23.173  1.00  0.00     0.050 A 
HETATM   40  S1  UNL     1     -17.970  44.373 -24.384  1.00  0.00    -0.105 SA
ENDBRANCH  35  36
ENDBRANCH  33  35
ENDBRANCH  30  31
ENDBRANCH  29  30
ENDBRANCH  27  29
ENDBRANCH  26  27
ENDBRANCH  25  26
ENDBRANCH  23  25
ENDBRANCH  20  23
BRANCH  13  41
HETATM   41  O2  UNL     1      -2.241  48.809 -23.565  1.00  0.00    -0.395 OA
HETATM   42  H16 UNL     1      -2.289  47.981 -24.074  1.00  0.00     0.210 HD
ENDBRANCH  13  41
TORSDOF 11
ENDMDL
MODEL 9
REMARK minimizedAffinity -7.99409914
REMARK CNNscore 0.409260929
REMARK CNNaffinity 7.47913218
REMARK  11 active torsions:
REMARK  status: ('A' for Active; 'I' for Inactive)
REMARK    1  A    between atoms: C12_13  and  O2_14 
REMARK    2  A    between atoms: C19_21  and  O3_22 
REMARK    3  A    between atoms: C19_21  and  C20_23 
REMARK    4  A    between atoms: C20_23  and  C21_25 
REMARK    5  A    between atoms: C21_25  and  O5_26 
REMARK    6  A    between atoms: O5_26  and  C22_27 
REMARK    7  A    between atoms: C22_27  and  C23_29 
REMARK    8  A    between atoms: C23_29  and  C24_30 
REMARK    9  A    between atoms: C24_30  and  C25_31 
REMARK       I    between atoms: C25_31  and  N1_33 
REMARK   10  A    between atoms: N1_33  and  C26_34 
REMARK   11  A    between atoms: C26_34  and  C27_35 
ROOT
HETATM    1  C1  UNL     1      -1.124  51.241 -15.449  1.00  0.00     0.020 C 
HETATM    2  C2  UNL     1      -0.074  50.622 -16.405  1.00  0.00    -0.014 C 
HETATM    3  C3  UNL     1       0.871  49.697 -15.577  1.00  0.00     0.022 C 
HETATM    4  C4  UNL     1       1.824  50.448 -14.657  1.00  0.00     0.084 C 
HETATM    5  C5  UNL     1       2.629  51.440 -15.454  1.00  0.00     0.149 C 
HETATM    6  O1  UNL     1       3.787  51.735 -15.165  1.00  0.00    -0.293 OA
HETATM    7  C6  UNL     1       1.958  52.138 -16.576  1.00  0.00     0.053 C 
HETATM    8  C7  UNL     1       0.717  51.805 -16.978  1.00  0.00    -0.068 C 
HETATM    9  C8  UNL     1       0.032  52.648 -18.034  1.00  0.00     0.035 C 
HETATM   10  C9  UNL     1      -1.012  51.882 -18.853  1.00  0.00     0.010 C 
HETATM   11  C10 UNL     1      -0.620  50.406 -18.970  1.00  0.00    -0.002 C 
HETATM   12  C11 UNL     1      -0.705  49.728 -17.575  1.00  0.00     0.031 C 
HETATM   13  C12 UNL     1      -2.119  49.190 -17.266  1.00  0.00     0.124 C 
HETATM   14  C13 UNL     1      -2.692  48.345 -18.403  1.00  0.00     0.045 C 
HETATM   15  C14 UNL     1      -2.752  49.072 -19.772  1.00  0.00     0.001 C 
HETATM   16  C15 UNL     1      -3.870  50.126 -19.733  1.00  0.00     0.019 C 
HETATM   17  C16 UNL     1      -1.372  49.672 -20.102  1.00  0.00     0.002 C 
HETATM   18  C17 UNL     1      -0.567  48.465 -20.628  1.00  0.00     0.009 C 
HETATM   19  C18 UNL     1      -1.574  47.474 -21.213  1.00  0.00     0.047 C 
HETATM   20  C19 UNL     1      -2.969  48.047 -20.933  1.00  0.00     0.128 C 
ENDROOT
BRANCH  20  21
HETATM   21  O3  UNL     1      -3.799  46.967 -20.464  1.00  0.00    -0.381 OA
HETATM   22  H27 UNL     1      -4.659  47.047 -20.927  1.00  0.00     0.211 HD
ENDBRANCH  20  21
BRANCH  20  23
HETATM   23  C20 UNL     1      -3.671  48.568 -22.222  1.00  0.00     0.185 C 
HETATM   24  O4  UNL     1      -4.911  48.578 -22.264  1.00  0.00    -0.292 OA
BRANCH  23  25
HETATM   25  C21 UNL     1      -2.836  49.025 -23.417  1.00  0.00     0.260 C 
BRANCH  25  26
HETATM   26  O5  UNL     1      -3.660  49.382 -24.532  1.00  0.00    -0.314 OA
BRANCH  26  27
HETATM   27  C22 UNL     1      -3.585  50.694 -24.890  1.00  0.00     0.259 C 
HETATM   28  O6  UNL     1      -3.821  51.633 -24.144  1.00  0.00    -0.265 OA
BRANCH  27  29
HETATM   29  C23 UNL     1      -3.164  50.833 -26.324  1.00  0.00     0.120 C 
BRANCH  29  30
HETATM   30  C24 UNL     1      -1.859  50.091 -26.575  1.00  0.00     0.112 C 
BRANCH  30  31
HETATM   31  C25 UNL     1      -0.665  50.984 -26.318  1.00  0.00     0.218 C 
HETATM   32  O7  UNL     1       0.472  50.718 -26.693  1.00  0.00    -0.274 OA
HETATM   33  N1  UNL     1      -0.985  52.130 -25.624  1.00  0.00    -0.356 N 
HETATM   34  H34 UNL     1      -1.960  52.390 -25.537  1.00  0.00     0.162 HD
BRANCH  33  35
HETATM   35  C26 UNL     1       0.001  53.168 -25.423  1.00  0.00     0.168 C 
BRANCH  35  36
HETATM   36  C27 UNL     1       0.397  53.171 -23.983  1.00  0.00     0.000 A 
HETATM   37  C28 UNL     1       0.185  52.185 -23.038  1.00  0.00     0.017 A 
HETATM   38  C29 UNL     1       0.720  52.529 -21.762  1.00  0.00     0.008 A 
HETATM   39  C30 UNL     1       1.313  53.772 -21.772  1.00  0.00     0.050 A 
HETATM   40  S1  UNL     1       1.220  54.517 -23.310  1.00  0.00    -0.105 SA
ENDBRANCH  35  36
ENDBRANCH  33  35
ENDBRANCH  30  31
ENDBRANCH  29  30
ENDBRANCH  27  29
ENDBRANCH  26  27
ENDBRANCH  25  26
ENDBRANCH  23  25
ENDBRANCH  20  23
BRANCH  13  41
HETATM   41  O2  UNL     1      -2.051  48.361 -16.104  1.00  0.00    -0.395 OA
HETATM   42  H16 UNL     1      -2.944  48.011 -15.936  1.00  0.00     0.210 HD
ENDBRANCH  13  41
TORSDOF 11
ENDMDL
