MODEL 1
REMARK minimizedAffinity -6.68392515
REMARK CNNscore 0.474834353
REMARK CNNaffinity 6.34948349
REMARK  9 active torsions:
REMARK  status: ('A' for Active; 'I' for Inactive)
REMARK       I    between atoms: N1_1  and  C1_2 
REMARK       I    between atoms: C1_2  and  N2_3 
REMARK    1  A    between atoms: N3_4  and  C2_6 
REMARK    2  A    between atoms: C11_16  and  S1_17 
REMARK    3  A    between atoms: S1_17  and  O4_20 
REMARK    4  A    between atoms: C18_27  and  C19_28 
REMARK    5  A    between atoms: C19_28  and  C20_29 
REMARK    6  A    between atoms: C20_29  and  C21_30 
REMARK    7  A    between atoms: C21_30  and  O5_31 
REMARK    8  A    between atoms: C22_33  and  C23_34 
REMARK    9  A    between atoms: C26_37  and  O7_38 
ROOT
HETATM    1  C2  UNL     1     -12.760  11.713  -6.568  1.00  0.00     0.263 C 
HETATM    2  O1  UNL     1     -13.887  10.784  -6.429  1.00  0.00    -0.322 OA
HETATM    3  C3  UNL     1     -14.028  10.226  -5.179  1.00  0.00     0.071 C 
HETATM    4  C4  UNL     1     -12.988   9.589  -4.507  1.00  0.00     0.037 C 
HETATM    5  C5  UNL     1     -13.135   9.269  -3.155  1.00  0.00     0.010 C 
HETATM    6  C6  UNL     1     -14.329   9.563  -2.482  1.00  0.00    -0.058 C 
HETATM    7  C7  UNL     1     -15.411  10.073  -3.207  1.00  0.00     0.010 C 
HETATM    8  C8  UNL     1     -15.264  10.393  -4.557  1.00  0.00     0.037 C 
HETATM    9  C9  UNL     1     -14.416   9.426  -0.981  1.00  0.00     0.040 C 
HETATM   10  C10 UNL     1     -13.594  10.501  -0.238  1.00  0.00     0.027 C 
HETATM   11  C11 UNL     1     -13.982  11.973  -0.547  1.00  0.00     0.130 C 
HETATM   12  C12 UNL     1     -12.745  12.916  -0.472  1.00  0.00     0.037 C 
HETATM   13  C13 UNL     1     -12.186  13.177   0.920  1.00  0.00    -0.014 C 
HETATM   14  C14 UNL     1     -12.004  14.438   1.371  1.00  0.00    -0.050 C 
HETATM   15  C15 UNL     1     -12.610  15.597   0.624  1.00  0.00     0.042 C 
HETATM   16  C16 UNL     1     -12.063  15.440  -0.796  1.00  0.00     0.001 C 
HETATM   17  C17 UNL     1     -10.512  15.241  -0.773  1.00  0.00     0.037 C 
HETATM   18  C18 UNL     1      -9.685  15.974   0.332  1.00  0.00     0.123 C 
HETATM   19  O6  UNL     1     -10.218  15.997   1.671  1.00  0.00    -0.371 OA
HETATM   20  C22 UNL     1     -10.814  14.810   2.226  1.00  0.00     0.183 C 
HETATM   21  C29 UNL     1     -12.876  14.227  -1.369  1.00  0.00     0.032 C 
HETATM   22  C30 UNL     1     -12.687  13.911  -2.850  1.00  0.00    -0.053 C 
HETATM   23  C31 UNL     1     -13.783  14.041  -3.720  1.00  0.00     0.008 C 
HETATM   24  C32 UNL     1     -13.769  13.447  -4.984  1.00  0.00     0.012 C 
HETATM   25  C33 UNL     1     -12.661  12.696  -5.393  1.00  0.00    -0.010 C 
HETATM   26  C34 UNL     1     -11.502  12.723  -4.606  1.00  0.00     0.012 C 
HETATM   27  C35 UNL     1     -11.518  13.320  -3.344  1.00  0.00     0.008 C 
ENDROOT
BRANCH   1  28
HETATM   28  N3  UNL     1     -12.639  12.426  -7.850  1.00  0.00    -0.341 N 
HETATM   29  C1  UNL     1     -11.610  12.253  -8.584  1.00  0.00     0.124 C 
HETATM   30  N1  UNL     1     -10.528  11.464  -8.401  1.00  0.00    -0.279 NA
HETATM   31  N2  UNL     1     -11.496  12.923  -9.751  1.00  0.00    -0.279 NA
HETATM   32  H1  UNL     1     -10.469  11.125  -7.441  1.00  0.00     0.126 HD
HETATM   33  H2  UNL     1      -9.669  11.938  -8.655  1.00  0.00     0.126 HD
HETATM   34  H3  UNL     1     -12.369  13.392  -9.974  1.00  0.00     0.126 HD
HETATM   35  H4  UNL     1     -11.216  12.327 -10.521  1.00  0.00     0.126 HD
ATOM     36  H3  UNL     1     -13.379  13.059  -8.153  1.00  0.00     0.164 HD
ENDBRANCH   1  28
BRANCH  11  37
HETATM   37  S1  UNL     1     -15.329  12.545   0.518  1.00  0.00     0.099 S 
HETATM   38  O2  UNL     1     -16.495  11.697   0.380  1.00  0.00    -0.601 OA
HETATM   39  O3  UNL     1     -14.828  12.963   1.810  1.00  0.00    -0.601 OA
BRANCH  37  40
HETATM   40  O4  UNL     1     -15.705  13.904  -0.275  1.00  0.00    -0.295 OA
HETATM   41  H15 UNL     1     -16.684  13.983  -0.275  1.00  0.00     0.232 HD
ENDBRANCH  37  40
ENDBRANCH  11  37
BRANCH  18  42
HETATM   42  C19 UNL     1      -9.432  17.457  -0.008  1.00  0.00     0.034 C 
BRANCH  42  43
HETATM   43  C20 UNL     1      -8.438  18.163   0.918  1.00  0.00     0.028 C 
BRANCH  43  44
HETATM   44  C21 UNL     1      -7.393  18.964   0.144  1.00  0.00     0.164 C 
BRANCH  44  45
HETATM   45  O5  UNL     1      -7.346  18.588  -1.224  1.00  0.00    -0.401 OA
HETATM   46  H30 UNL     1      -7.528  17.632  -1.287  1.00  0.00     0.209 HD
ENDBRANCH  44  45
ENDBRANCH  43  44
ENDBRANCH  42  43
ENDBRANCH  18  42
BRANCH  20  47
HETATM   47  C23 UNL     1     -11.215  15.042   3.675  1.00  0.00    -0.025 A 
HETATM   48  C24 UNL     1     -10.277  15.014   4.721  1.00  0.00     0.013 A 
HETATM   49  C25 UNL     1     -10.670  15.264   6.038  1.00  0.00     0.037 A 
HETATM   50  C26 UNL     1     -12.000  15.549   6.319  1.00  0.00     0.065 A 
HETATM   51  C27 UNL     1     -12.950  15.589   5.302  1.00  0.00     0.037 A 
HETATM   52  C28 UNL     1     -12.556  15.336   3.985  1.00  0.00     0.013 A 
BRANCH  50  53
HETATM   53  O7  UNL     1     -12.341  15.794   7.616  1.00  0.00    -0.361 OA
HETATM   54  H34 UNL     1     -13.290  15.997   7.651  1.00  0.00     0.217 HD
ENDBRANCH  50  53
ENDBRANCH  20  47
TORSDOF 9
ENDMDL
MODEL 2
REMARK minimizedAffinity -6.84874105
REMARK CNNscore 0.363977253
REMARK CNNaffinity 6.33120537
REMARK  9 active torsions:
REMARK  status: ('A' for Active; 'I' for Inactive)
REMARK       I    between atoms: N1_1  and  C1_2 
REMARK       I    between atoms: C1_2  and  N2_3 
REMARK    1  A    between atoms: N3_4  and  C2_6 
REMARK    2  A    between atoms: C11_16  and  S1_17 
REMARK    3  A    between atoms: S1_17  and  O4_20 
REMARK    4  A    between atoms: C18_27  and  C19_28 
REMARK    5  A    between atoms: C19_28  and  C20_29 
REMARK    6  A    between atoms: C20_29  and  C21_30 
REMARK    7  A    between atoms: C21_30  and  O5_31 
REMARK    8  A    between atoms: C22_33  and  C23_34 
REMARK    9  A    between atoms: C26_37  and  O7_38 
ROOT
HETATM    1  C2  UNL     1      -7.512  -9.626   5.063  1.00  0.00     0.263 C 
HETATM    2  O1  UNL     1      -6.209 -10.272   5.249  1.00  0.00    -0.322 OA
HETATM    3  C3  UNL     1      -5.644 -10.092   6.491  1.00  0.00     0.071 C 
HETATM    4  C4  UNL     1      -5.481  -8.840   7.080  1.00  0.00     0.037 C 
HETATM    5  C5  UNL     1      -5.132  -8.752   8.430  1.00  0.00     0.010 C 
HETATM    6  C6  UNL     1      -4.922  -9.915   9.185  1.00  0.00    -0.058 C 
HETATM    7  C7  UNL     1      -4.953 -11.158   8.543  1.00  0.00     0.010 C 
HETATM    8  C8  UNL     1      -5.301 -11.244   7.195  1.00  0.00     0.037 C 
HETATM    9  C9  UNL     1      -4.765  -9.836  10.684  1.00  0.00     0.040 C 
HETATM   10  C10 UNL     1      -6.082  -9.466  11.400  1.00  0.00     0.027 C 
HETATM   11  C11 UNL     1      -7.273 -10.433  11.155  1.00  0.00     0.130 C 
HETATM   12  C12 UNL     1      -8.635  -9.676  11.174  1.00  0.00     0.037 C 
HETATM   13  C13 UNL     1      -9.101  -9.175  12.533  1.00  0.00    -0.014 C 
HETATM   14  C14 UNL     1     -10.330  -9.484  13.004  1.00  0.00    -0.050 C 
HETATM   15  C15 UNL     1     -11.146 -10.553  12.327  1.00  0.00     0.042 C 
HETATM   16  C16 UNL     1     -11.219 -10.089  10.871  1.00  0.00     0.001 C 
HETATM   17  C17 UNL     1     -11.660  -8.591  10.790  1.00  0.00     0.037 C 
HETATM   18  C18 UNL     1     -12.666  -8.054  11.858  1.00  0.00     0.123 C 
HETATM   19  O6  UNL     1     -12.477  -8.458  13.229  1.00  0.00    -0.371 OA
HETATM   20  C22 UNL     1     -11.151  -8.487  13.790  1.00  0.00     0.183 C 
HETATM   21  C29 UNL     1      -9.779 -10.384  10.321  1.00  0.00     0.032 C 
HETATM   22  C30 UNL     1      -9.563 -10.186   8.823  1.00  0.00    -0.053 C 
HETATM   23  C31 UNL     1      -9.239 -11.300   8.029  1.00  0.00     0.008 C 
HETATM   24  C32 UNL     1      -8.698 -11.135   6.752  1.00  0.00     0.012 C 
HETATM   25  C33 UNL     1      -8.454  -9.850   6.254  1.00  0.00    -0.010 C 
HETATM   26  C34 UNL     1      -8.948  -8.748   6.965  1.00  0.00     0.012 C 
HETATM   27  C35 UNL     1      -9.491  -8.916   8.241  1.00  0.00     0.008 C 
ENDROOT
BRANCH   1  28
HETATM   28  N3  UNL     1      -8.210  -9.890   3.794  1.00  0.00    -0.341 N 
HETATM   29  C1  UNL     1      -7.714  -9.479   2.693  1.00  0.00     0.124 C 
HETATM   30  N1  UNL     1      -6.568  -8.806   2.448  1.00  0.00    -0.279 NA
HETATM   31  N2  UNL     1      -8.367  -9.709   1.533  1.00  0.00    -0.279 NA
HETATM   32  H1  UNL     1      -6.170  -8.419   3.303  1.00  0.00     0.126 HD
HETATM   33  H2  UNL     1      -6.704  -8.070   1.763  1.00  0.00     0.126 HD
HETATM   34  H3  UNL     1      -9.142 -10.349   1.687  1.00  0.00     0.126 HD
HETATM   35  H4  UNL     1      -7.762 -10.067   0.804  1.00  0.00     0.126 HD
ATOM     36  H3  UNL     1      -9.092 -10.402   3.795  1.00  0.00     0.164 HD
ENDBRANCH   1  28
BRANCH  11  37
HETATM   37  S1  UNL     1      -7.257 -11.820  12.317  1.00  0.00     0.099 S 
HETATM   38  O2  UNL     1      -5.950 -12.440  12.366  1.00  0.00    -0.601 OA
HETATM   39  O3  UNL     1      -8.005 -11.501  13.515  1.00  0.00    -0.601 OA
BRANCH  37  40
HETATM   40  O4  UNL     1      -8.180 -12.851  11.478  1.00  0.00    -0.295 OA
HETATM   41  H15 UNL     1      -7.786 -13.745  11.579  1.00  0.00     0.232 HD
ENDBRANCH  37  40
ENDBRANCH  11  37
BRANCH  18  42
HETATM   42  C19 UNL     1     -14.125  -8.441  11.541  1.00  0.00     0.034 C 
BRANCH  42  43
HETATM   43  C20 UNL     1     -15.088  -7.258  11.419  1.00  0.00     0.028 C 
BRANCH  43  44
HETATM   44  C21 UNL     1     -14.472  -6.085  10.660  1.00  0.00     0.164 C 
BRANCH  44  45
HETATM   45  O5  UNL     1     -15.313  -5.635   9.609  1.00  0.00    -0.401 OA
HETATM   46  H30 UNL     1     -15.777  -6.407   9.234  1.00  0.00     0.209 HD
ENDBRANCH  44  45
ENDBRANCH  43  44
ENDBRANCH  42  43
ENDBRANCH  18  42
BRANCH  20  47
HETATM   47  C23 UNL     1     -11.207  -8.847  15.267  1.00  0.00    -0.025 A 
HETATM   48  C24 UNL     1     -12.118  -8.241  16.148  1.00  0.00     0.013 A 
HETATM   49  C25 UNL     1     -12.168  -8.617  17.493  1.00  0.00     0.037 A 
HETATM   50  C26 UNL     1     -11.312  -9.602  17.966  1.00  0.00     0.065 A 
HETATM   51  C27 UNL     1     -10.402 -10.223  17.116  1.00  0.00     0.037 A 
HETATM   52  C28 UNL     1     -10.351  -9.845  15.771  1.00  0.00     0.013 A 
BRANCH  50  53
HETATM   53  O7  UNL     1     -11.396  -9.944  19.283  1.00  0.00    -0.361 OA
HETATM   54  H34 UNL     1     -10.757 -10.654  19.458  1.00  0.00     0.217 HD
ENDBRANCH  50  53
ENDBRANCH  20  47
TORSDOF 9
ENDMDL
MODEL 3
REMARK minimizedAffinity -8.40214348
REMARK CNNscore 0.18816486
REMARK CNNaffinity 6.68333197
REMARK  9 active torsions:
REMARK  status: ('A' for Active; 'I' for Inactive)
REMARK       I    between atoms: N1_1  and  C1_2 
REMARK       I    between atoms: C1_2  and  N2_3 
REMARK    1  A    between atoms: N3_4  and  C2_6 
REMARK    2  A    between atoms: C11_16  and  S1_17 
REMARK    3  A    between atoms: S1_17  and  O4_20 
REMARK    4  A    between atoms: C18_27  and  C19_28 
REMARK    5  A    between atoms: C19_28  and  C20_29 
REMARK    6  A    between atoms: C20_29  and  C21_30 
REMARK    7  A    between atoms: C21_30  and  O5_31 
REMARK    8  A    between atoms: C22_33  and  C23_34 
REMARK    9  A    between atoms: C26_37  and  O7_38 
ROOT
HETATM    1  C2  UNL     1      -3.633   4.889  12.447  1.00  0.00     0.263 C 
HETATM    2  O1  UNL     1      -2.367   4.151  12.378  1.00  0.00    -0.322 OA
HETATM    3  C3  UNL     1      -1.239   4.937  12.313  1.00  0.00     0.071 C 
HETATM    4  C4  UNL     1      -1.077   5.961  11.383  1.00  0.00     0.037 C 
HETATM    5  C5  UNL     1      -0.026   6.869  11.534  1.00  0.00     0.010 C 
HETATM    6  C6  UNL     1       0.877   6.739  12.599  1.00  0.00    -0.058 C 
HETATM    7  C7  UNL     1       0.781   5.624  13.440  1.00  0.00     0.010 C 
HETATM    8  C8  UNL     1      -0.269   4.719  13.289  1.00  0.00     0.037 C 
HETATM    9  C9  UNL     1       1.873   7.833  12.895  1.00  0.00     0.040 C 
HETATM   10  C10 UNL     1       1.206   9.106  13.460  1.00  0.00     0.027 C 
HETATM   11  C11 UNL     1       0.395   8.912  14.771  1.00  0.00     0.130 C 
HETATM   12  C12 UNL     1      -0.819   9.886  14.839  1.00  0.00     0.037 C 
HETATM   13  C13 UNL     1      -0.486  11.354  15.061  1.00  0.00    -0.014 C 
HETATM   14  C14 UNL     1      -1.063  12.054  16.064  1.00  0.00    -0.050 C 
HETATM   15  C15 UNL     1      -1.821  11.329  17.145  1.00  0.00     0.042 C 
HETATM   16  C16 UNL     1      -2.863  10.516  16.375  1.00  0.00     0.001 C 
HETATM   17  C17 UNL     1      -3.622  11.420  15.350  1.00  0.00     0.037 C 
HETATM   18  C18 UNL     1      -3.884  12.913  15.727  1.00  0.00     0.123 C 
HETATM   19  O6  UNL     1      -2.819  13.647  16.363  1.00  0.00    -0.371 OA
HETATM   20  C22 UNL     1      -1.467  13.500  15.891  1.00  0.00     0.183 C 
HETATM   21  C29 UNL     1      -2.023   9.355  15.737  1.00  0.00     0.032 C 
HETATM   22  C30 UNL     1      -2.804   8.252  15.029  1.00  0.00    -0.053 C 
HETATM   23  C31 UNL     1      -2.754   6.944  15.543  1.00  0.00     0.008 C 
HETATM   24  C32 UNL     1      -3.147   5.853  14.764  1.00  0.00     0.012 C 
HETATM   25  C33 UNL     1      -3.581   6.051  13.448  1.00  0.00    -0.010 C 
HETATM   26  C34 UNL     1      -3.808   7.361  13.004  1.00  0.00     0.012 C 
HETATM   27  C35 UNL     1      -3.416   8.450  13.786  1.00  0.00     0.008 C 
ENDROOT
BRANCH   1  28
HETATM   28  N3  UNL     1      -4.857   4.094  12.639  1.00  0.00    -0.341 N 
HETATM   29  C1  UNL     1      -5.201   3.228  11.767  1.00  0.00     0.124 C 
HETATM   30  N1  UNL     1      -4.598   2.859  10.616  1.00  0.00    -0.279 NA
HETATM   31  N2  UNL     1      -6.334   2.514  11.940  1.00  0.00    -0.279 NA
HETATM   32  H1  UNL     1      -3.876   3.525  10.341  1.00  0.00     0.126 HD
HETATM   33  H2  UNL     1      -5.266   2.740   9.863  1.00  0.00     0.126 HD
HETATM   34  H3  UNL     1      -6.708   2.666  12.873  1.00  0.00     0.126 HD
HETATM   35  H4  UNL     1      -6.204   1.522  11.778  1.00  0.00     0.126 HD
ATOM     36  H3  UNL     1      -5.432   4.237  13.469  1.00  0.00     0.164 HD
ENDBRANCH   1  28
BRANCH  11  37
HETATM   37  S1  UNL     1       1.450   9.049  16.235  1.00  0.00     0.099 S 
HETATM   38  O2  UNL     1       2.708   9.689  15.909  1.00  0.00    -0.601 OA
HETATM   39  O3  UNL     1       0.676   9.419  17.400  1.00  0.00    -0.601 OA
BRANCH  37  40
HETATM   40  O4  UNL     1       1.813   7.484  16.420  1.00  0.00    -0.295 OA
HETATM   41  H15 UNL     1       2.761   7.430  16.674  1.00  0.00     0.232 HD
ENDBRANCH  37  40
ENDBRANCH  11  37
BRANCH  18  42
HETATM   42  C19 UNL     1      -5.088  13.080  16.678  1.00  0.00     0.034 C 
BRANCH  42  43
HETATM   43  C20 UNL     1      -6.135  14.092  16.211  1.00  0.00     0.028 C 
BRANCH  43  44
HETATM   44  C21 UNL     1      -7.547  13.712  16.653  1.00  0.00     0.164 C 
BRANCH  44  45
HETATM   45  O5  UNL     1      -8.134  12.756  15.783  1.00  0.00    -0.401 OA
HETATM   46  H30 UNL     1      -7.824  12.936  14.875  1.00  0.00     0.209 HD
ENDBRANCH  44  45
ENDBRANCH  43  44
ENDBRANCH  42  43
ENDBRANCH  18  42
BRANCH  20  47
HETATM   47  C23 UNL     1      -0.535  14.437  16.645  1.00  0.00    -0.025 A 
HETATM   48  C24 UNL     1      -0.941  15.716  17.062  1.00  0.00     0.013 A 
HETATM   49  C25 UNL     1      -0.074  16.541  17.782  1.00  0.00     0.037 A 
HETATM   50  C26 UNL     1       1.203  16.093  18.094  1.00  0.00     0.065 A 
HETATM   51  C27 UNL     1       1.631  14.830  17.699  1.00  0.00     0.037 A 
HETATM   52  C28 UNL     1       0.763  14.006  16.976  1.00  0.00     0.013 A 
BRANCH  50  53
HETATM   53  O7  UNL     1       2.016  16.926  18.804  1.00  0.00    -0.361 OA
HETATM   54  H34 UNL     1       2.859  16.471  18.963  1.00  0.00     0.217 HD
ENDBRANCH  50  53
ENDBRANCH  20  47
TORSDOF 9
ENDMDL
MODEL 4
REMARK minimizedAffinity -7.56427908
REMARK CNNscore 0.182900488
REMARK CNNaffinity 6.62628698
REMARK  9 active torsions:
REMARK  status: ('A' for Active; 'I' for Inactive)
REMARK       I    between atoms: N1_1  and  C1_2 
REMARK       I    between atoms: C1_2  and  N2_3 
REMARK    1  A    between atoms: N3_4  and  C2_6 
REMARK    2  A    between atoms: C11_16  and  S1_17 
REMARK    3  A    between atoms: S1_17  and  O4_20 
REMARK    4  A    between atoms: C18_27  and  C19_28 
REMARK    5  A    between atoms: C19_28  and  C20_29 
REMARK    6  A    between atoms: C20_29  and  C21_30 
REMARK    7  A    between atoms: C21_30  and  O5_31 
REMARK    8  A    between atoms: C22_33  and  C23_34 
REMARK    9  A    between atoms: C26_37  and  O7_38 
ROOT
HETATM    1  C2  UNL     1      -0.304  18.387   7.991  1.00  0.00     0.263 C 
HETATM    2  O1  UNL     1      -1.742  18.115   7.893  1.00  0.00    -0.322 OA
HETATM    3  C3  UNL     1      -2.219  17.969   6.611  1.00  0.00     0.071 C 
HETATM    4  C4  UNL     1      -1.988  18.901   5.602  1.00  0.00     0.037 C 
HETATM    5  C5  UNL     1      -2.287  18.571   4.277  1.00  0.00     0.010 C 
HETATM    6  C6  UNL     1      -2.840  17.321   3.965  1.00  0.00    -0.058 C 
HETATM    7  C7  UNL     1      -3.195  16.455   5.005  1.00  0.00     0.010 C 
HETATM    8  C8  UNL     1      -2.895  16.785   6.327  1.00  0.00     0.037 C 
HETATM    9  C9  UNL     1      -2.959  16.874   2.528  1.00  0.00     0.040 C 
HETATM   10  C10 UNL     1      -1.589  16.561   1.889  1.00  0.00     0.027 C 
HETATM   11  C11 UNL     1      -0.753  15.462   2.601  1.00  0.00     0.130 C 
HETATM   12  C12 UNL     1       0.775  15.738   2.475  1.00  0.00     0.037 C 
HETATM   13  C13 UNL     1       1.379  15.540   1.092  1.00  0.00    -0.014 C 
HETATM   14  C14 UNL     1       2.456  14.744   0.911  1.00  0.00    -0.050 C 
HETATM   15  C15 UNL     1       2.901  13.822   2.015  1.00  0.00     0.042 C 
HETATM   16  C16 UNL     1       3.107  14.757   3.209  1.00  0.00     0.001 C 
HETATM   17  C17 UNL     1       3.986  15.985   2.804  1.00  0.00     0.037 C 
HETATM   18  C18 UNL     1       5.113  15.775   1.742  1.00  0.00     0.123 C 
HETATM   19  O6  UNL     1       4.815  14.959   0.591  1.00  0.00    -0.371 OA
HETATM   20  C22 UNL     1       3.546  15.097  -0.075  1.00  0.00     0.183 C 
HETATM   21  C29 UNL     1       1.644  15.109   3.653  1.00  0.00     0.032 C 
HETATM   22  C30 UNL     1       1.493  15.905   4.946  1.00  0.00    -0.053 C 
HETATM   23  C31 UNL     1       0.840  15.311   6.040  1.00  0.00     0.008 C 
HETATM   24  C32 UNL     1       0.370  16.087   7.101  1.00  0.00     0.012 C 
HETATM   25  C33 UNL     1       0.530  17.477   7.078  1.00  0.00    -0.010 C 
HETATM   26  C34 UNL     1       1.340  18.045   6.085  1.00  0.00     0.012 C 
HETATM   27  C35 UNL     1       1.811  17.265   5.026  1.00  0.00     0.008 C 
ENDROOT
BRANCH   1  28
HETATM   28  N3  UNL     1       0.275  18.431   9.344  1.00  0.00    -0.341 N 
HETATM   29  C1  UNL     1      -0.304  17.827  10.308  1.00  0.00     0.124 C 
HETATM   30  N1  UNL     1      -1.430  17.080  10.321  1.00  0.00    -0.279 NA
HETATM   31  N2  UNL     1       0.222  17.885  11.550  1.00  0.00    -0.279 NA
HETATM   32  H1  UNL     1      -1.971  17.202   9.465  1.00  0.00     0.126 HD
HETATM   33  H2  UNL     1      -2.007  17.285  11.129  1.00  0.00     0.126 HD
HETATM   34  H3  UNL     1       1.147  18.305  11.522  1.00  0.00     0.126 HD
HETATM   35  H4  UNL     1       0.267  16.979  12.002  1.00  0.00     0.126 HD
ATOM     36  H3  UNL     1       1.139  18.945   9.512  1.00  0.00     0.164 HD
ENDBRANCH   1  28
BRANCH  11  37
HETATM   37  S1  UNL     1      -1.188  13.807   2.013  1.00  0.00     0.099 S 
HETATM   38  O2  UNL     1      -0.133  12.859   2.304  1.00  0.00    -0.601 OA
HETATM   39  O3  UNL     1      -2.582  13.514   2.273  1.00  0.00    -0.601 OA
BRANCH  37  40
HETATM   40  O4  UNL     1      -1.080  14.078   0.422  1.00  0.00    -0.295 OA
HETATM   41  H15 UNL     1      -0.660  13.287   0.017  1.00  0.00     0.232 HD
ENDBRANCH  37  40
ENDBRANCH  11  37
BRANCH  18  42
HETATM   42  C19 UNL     1       6.382  15.139   2.346  1.00  0.00     0.034 C 
BRANCH  42  43
HETATM   43  C20 UNL     1       6.461  13.617   2.209  1.00  0.00     0.028 C 
BRANCH  43  44
HETATM   44  C21 UNL     1       7.157  13.187   0.919  1.00  0.00     0.164 C 
BRANCH  44  45
HETATM   45  O5  UNL     1       7.592  11.837   0.977  1.00  0.00    -0.401 OA
HETATM   46  H30 UNL     1       7.865  11.642   1.893  1.00  0.00     0.209 HD
ENDBRANCH  44  45
ENDBRANCH  43  44
ENDBRANCH  42  43
ENDBRANCH  18  42
BRANCH  20  47
HETATM   47  C23 UNL     1       3.494  14.211  -1.310  1.00  0.00    -0.025 A 
HETATM   48  C24 UNL     1       2.427  14.266  -2.222  1.00  0.00     0.013 A 
HETATM   49  C25 UNL     1       2.423  13.463  -3.366  1.00  0.00     0.037 A 
HETATM   50  C26 UNL     1       3.487  12.604  -3.609  1.00  0.00     0.065 A 
HETATM   51  C27 UNL     1       4.560  12.532  -2.725  1.00  0.00     0.037 A 
HETATM   52  C28 UNL     1       4.561  13.334  -1.580  1.00  0.00     0.013 A 
BRANCH  50  53
HETATM   53  O7  UNL     1       3.449  11.842  -4.739  1.00  0.00    -0.361 OA
HETATM   54  H34 UNL     1       4.263  11.315  -4.782  1.00  0.00     0.217 HD
ENDBRANCH  50  53
ENDBRANCH  20  47
TORSDOF 9
ENDMDL
MODEL 5
REMARK minimizedAffinity -8.04755402
REMARK CNNscore 0.163815588
REMARK CNNaffinity 6.57705355
REMARK  9 active torsions:
REMARK  status: ('A' for Active; 'I' for Inactive)
REMARK       I    between atoms: N1_1  and  C1_2 
REMARK       I    between atoms: C1_2  and  N2_3 
REMARK    1  A    between atoms: N3_4  and  C2_6 
REMARK    2  A    between atoms: C11_16  and  S1_17 
REMARK    3  A    between atoms: S1_17  and  O4_20 
REMARK    4  A    between atoms: C18_27  and  C19_28 
REMARK    5  A    between atoms: C19_28  and  C20_29 
REMARK    6  A    between atoms: C20_29  and  C21_30 
REMARK    7  A    between atoms: C21_30  and  O5_31 
REMARK    8  A    between atoms: C22_33  and  C23_34 
REMARK    9  A    between atoms: C26_37  and  O7_38 
ROOT
HETATM    1  C2  UNL     1      -1.446   5.129  11.645  1.00  0.00     0.263 C 
HETATM    2  O1  UNL     1      -0.309   4.657  10.848  1.00  0.00    -0.322 OA
HETATM    3  C3  UNL     1       0.687   5.587  10.650  1.00  0.00     0.071 C 
HETATM    4  C4  UNL     1       0.446   6.868  10.159  1.00  0.00     0.037 C 
HETATM    5  C5  UNL     1       1.457   7.830  10.218  1.00  0.00     0.010 C 
HETATM    6  C6  UNL     1       2.716   7.505  10.743  1.00  0.00    -0.058 C 
HETATM    7  C7  UNL     1       2.982   6.178  11.100  1.00  0.00     0.010 C 
HETATM    8  C8  UNL     1       1.971   5.219  11.042  1.00  0.00     0.037 C 
HETATM    9  C9  UNL     1       3.735   8.585  11.014  1.00  0.00     0.040 C 
HETATM   10  C10 UNL     1       3.340   9.489  12.202  1.00  0.00     0.027 C 
HETATM   11  C11 UNL     1       3.133   8.760  13.558  1.00  0.00     0.130 C 
HETATM   12  C12 UNL     1       2.040   9.460  14.420  1.00  0.00     0.037 C 
HETATM   13  C13 UNL     1       2.418  10.811  15.010  1.00  0.00    -0.014 C 
HETATM   14  C14 UNL     1       2.290  11.052  16.334  1.00  0.00    -0.050 C 
HETATM   15  C15 UNL     1       2.045   9.910  17.284  1.00  0.00     0.042 C 
HETATM   16  C16 UNL     1       0.789   9.237  16.727  1.00  0.00     0.001 C 
HETATM   17  C17 UNL     1      -0.331  10.294  16.458  1.00  0.00     0.037 C 
HETATM   18  C18 UNL     1      -0.435  11.527  17.412  1.00  0.00     0.123 C 
HETATM   19  O6  UNL     1       0.789  12.172  17.819  1.00  0.00    -0.371 OA
HETATM   20  C22 UNL     1       1.835  12.396  16.854  1.00  0.00     0.183 C 
HETATM   21  C29 UNL     1       1.310   8.489  15.450  1.00  0.00     0.032 C 
HETATM   22  C30 UNL     1       0.322   7.566  14.744  1.00  0.00    -0.053 C 
HETATM   23  C31 UNL     1       0.591   6.187  14.697  1.00  0.00     0.008 C 
HETATM   24  C32 UNL     1      -0.072   5.358  13.790  1.00  0.00     0.012 C 
HETATM   25  C33 UNL     1      -1.006   5.900  12.898  1.00  0.00    -0.010 C 
HETATM   26  C34 UNL     1      -1.407   7.231  13.071  1.00  0.00     0.012 C 
HETATM   27  C35 UNL     1      -0.744   8.057  13.982  1.00  0.00     0.008 C 
ENDROOT
BRANCH   1  28
HETATM   28  N3  UNL     1      -2.478   4.136  11.986  1.00  0.00    -0.341 N 
HETATM   29  C1  UNL     1      -2.730   3.175  11.185  1.00  0.00     0.124 C 
HETATM   30  N1  UNL     1      -2.174   2.860   9.994  1.00  0.00    -0.279 NA
HETATM   31  N2  UNL     1      -3.690   2.276  11.493  1.00  0.00    -0.279 NA
HETATM   32  H1  UNL     1      -1.616   3.631   9.625  1.00  0.00     0.126 HD
HETATM   33  H2  UNL     1      -2.873   2.580   9.315  1.00  0.00     0.126 HD
HETATM   34  H3  UNL     1      -4.000   2.409  12.452  1.00  0.00     0.126 HD
HETATM   35  H4  UNL     1      -3.391   1.318  11.356  1.00  0.00     0.126 HD
ATOM     36  H3  UNL     1      -2.993   4.216  12.862  1.00  0.00     0.164 HD
ENDBRANCH   1  28
BRANCH  11  37
HETATM   37  S1  UNL     1       4.690   8.580  14.463  1.00  0.00     0.099 S 
HETATM   38  O2  UNL     1       5.589   9.677  14.172  1.00  0.00    -0.601 OA
HETATM   39  O3  UNL     1       4.455   8.113  15.813  1.00  0.00    -0.601 OA
BRANCH  37  40
HETATM   40  O4  UNL     1       5.295   7.316  13.655  1.00  0.00    -0.295 OA
HETATM   41  H15 UNL     1       6.258   7.476  13.538  1.00  0.00     0.232 HD
ENDBRANCH  37  40
ENDBRANCH  11  37
BRANCH  18  42
HETATM   42  C19 UNL     1      -1.150  11.190  18.736  1.00  0.00     0.034 C 
BRANCH  42  43
HETATM   43  C20 UNL     1      -2.537  10.564  18.572  1.00  0.00     0.028 C 
BRANCH  43  44
HETATM   44  C21 UNL     1      -3.653  11.604  18.628  1.00  0.00     0.164 C 
BRANCH  44  45
HETATM   45  O5  UNL     1      -4.048  12.026  17.332  1.00  0.00    -0.401 OA
HETATM   46  H30 UNL     1      -3.260  12.031  16.757  1.00  0.00     0.209 HD
ENDBRANCH  44  45
ENDBRANCH  43  44
ENDBRANCH  42  43
ENDBRANCH  18  42
BRANCH  20  47
HETATM   47  C23 UNL     1       2.982  13.172  17.484  1.00  0.00    -0.025 A 
HETATM   48  C24 UNL     1       2.770  14.125  18.494  1.00  0.00     0.013 A 
HETATM   49  C25 UNL     1       3.847  14.798  19.077  1.00  0.00     0.037 A 
HETATM   50  C26 UNL     1       5.142  14.521  18.658  1.00  0.00     0.065 A 
HETATM   51  C27 UNL     1       5.382  13.579  17.663  1.00  0.00     0.037 A 
HETATM   52  C28 UNL     1       4.303  12.908  17.079  1.00  0.00     0.013 A 
BRANCH  50  53
HETATM   53  O7  UNL     1       6.165  15.194  19.257  1.00  0.00    -0.361 OA
HETATM   54  H34 UNL     1       7.002  14.881  18.879  1.00  0.00     0.217 HD
ENDBRANCH  50  53
ENDBRANCH  20  47
TORSDOF 9
ENDMDL
MODEL 6
REMARK minimizedAffinity -7.11386442
REMARK CNNscore 0.163023084
REMARK CNNaffinity 5.20178127
REMARK  9 active torsions:
REMARK  status: ('A' for Active; 'I' for Inactive)
REMARK       I    between atoms: N1_1  and  C1_2 
REMARK       I    between atoms: C1_2  and  N2_3 
REMARK    1  A    between atoms: N3_4  and  C2_6 
REMARK    2  A    between atoms: C11_16  and  S1_17 
REMARK    3  A    between atoms: S1_17  and  O4_20 
REMARK    4  A    between atoms: C18_27  and  C19_28 
REMARK    5  A    between atoms: C19_28  and  C20_29 
REMARK    6  A    between atoms: C20_29  and  C21_30 
REMARK    7  A    between atoms: C21_30  and  O5_31 
REMARK    8  A    between atoms: C22_33  and  C23_34 
REMARK    9  A    between atoms: C26_37  and  O7_38 
ROOT
HETATM    1  C2  UNL     1      -4.693 -10.820   5.265  1.00  0.00     0.263 C 
HETATM    2  O1  UNL     1      -3.923 -12.039   5.534  1.00  0.00    -0.322 OA
HETATM    3  C3  UNL     1      -4.212 -13.101   4.708  1.00  0.00     0.071 C 
HETATM    4  C4  UNL     1      -5.506 -13.567   4.491  1.00  0.00     0.037 C 
HETATM    5  C5  UNL     1      -5.747 -14.479   3.460  1.00  0.00     0.010 C 
HETATM    6  C6  UNL     1      -4.691 -14.944   2.663  1.00  0.00    -0.058 C 
HETATM    7  C7  UNL     1      -3.381 -14.573   2.986  1.00  0.00     0.010 C 
HETATM    8  C8  UNL     1      -3.142 -13.662   4.015  1.00  0.00     0.037 C 
HETATM    9  C9  UNL     1      -4.969 -15.749   1.417  1.00  0.00     0.040 C 
HETATM   10  C10 UNL     1      -5.603 -14.902   0.292  1.00  0.00     0.027 C 
HETATM   11  C11 UNL     1      -4.767 -13.679  -0.178  1.00  0.00     0.130 C 
HETATM   12  C12 UNL     1      -5.683 -12.504  -0.633  1.00  0.00     0.037 C 
HETATM   13  C13 UNL     1      -6.432 -12.710  -1.941  1.00  0.00    -0.014 C 
HETATM   14  C14 UNL     1      -6.353 -11.801  -2.939  1.00  0.00    -0.050 C 
HETATM   15  C15 UNL     1      -5.306 -10.719  -2.886  1.00  0.00     0.042 C 
HETATM   16  C16 UNL     1      -5.557 -10.035  -1.541  1.00  0.00     0.001 C 
HETATM   17  C17 UNL     1      -7.070  -9.677  -1.378  1.00  0.00     0.037 C 
HETATM   18  C18 UNL     1      -7.880  -9.271  -2.651  1.00  0.00     0.123 C 
HETATM   19  O6  UNL     1      -7.662 -10.026  -3.860  1.00  0.00    -0.371 OA
HETATM   20  C22 UNL     1      -7.549 -11.460  -3.798  1.00  0.00     0.183 C 
HETATM   21  C29 UNL     1      -5.006 -11.068  -0.497  1.00  0.00     0.032 C 
HETATM   22  C30 UNL     1      -4.953 -10.612   0.958  1.00  0.00    -0.053 C 
HETATM   23  C31 UNL     1      -3.703 -10.498   1.591  1.00  0.00     0.008 C 
HETATM   24  C32 UNL     1      -3.610 -10.428   2.983  1.00  0.00     0.012 C 
HETATM   25  C33 UNL     1      -4.767 -10.489   3.768  1.00  0.00    -0.010 C 
HETATM   26  C34 UNL     1      -6.015 -10.414   3.134  1.00  0.00     0.012 C 
HETATM   27  C35 UNL     1      -6.105 -10.481   1.742  1.00  0.00     0.008 C 
ENDROOT
BRANCH   1  28
HETATM   28  N3  UNL     1      -4.335  -9.621   6.042  1.00  0.00    -0.341 N 
HETATM   29  C1  UNL     1      -3.164  -9.504   6.534  1.00  0.00     0.124 C 
HETATM   30  N1  UNL     1      -2.097 -10.330   6.458  1.00  0.00    -0.279 NA
HETATM   31  N2  UNL     1      -2.846  -8.411   7.261  1.00  0.00    -0.279 NA
HETATM   32  H1  UNL     1      -2.362 -11.255   6.120  1.00  0.00     0.126 HD
HETATM   33  H2  UNL     1      -1.618 -10.409   7.349  1.00  0.00     0.126 HD
HETATM   34  H3  UNL     1      -3.583  -7.715   7.189  1.00  0.00     0.126 HD
HETATM   35  H4  UNL     1      -1.958  -8.004   6.992  1.00  0.00     0.126 HD
ATOM     36  H3  UNL     1      -5.024  -8.884   6.188  1.00  0.00     0.164 HD
ENDBRANCH   1  28
BRANCH  11  37
HETATM   37  S1  UNL     1      -3.575 -14.139  -1.460  1.00  0.00     0.099 S 
HETATM   38  O2  UNL     1      -3.153 -12.978  -2.216  1.00  0.00    -0.601 OA
HETATM   39  O3  UNL     1      -2.633 -15.121  -0.965  1.00  0.00    -0.601 OA
BRANCH  37  40
HETATM   40  O4  UNL     1      -4.576 -14.941  -2.446  1.00  0.00    -0.295 OA
HETATM   41  H15 UNL     1      -4.332 -14.704  -3.368  1.00  0.00     0.232 HD
ENDBRANCH  37  40
ENDBRANCH  11  37
BRANCH  18  42
HETATM   42  C19 UNL     1      -7.636  -7.805  -3.063  1.00  0.00     0.034 C 
BRANCH  42  43
HETATM   43  C20 UNL     1      -8.821  -6.868  -2.820  1.00  0.00     0.028 C 
BRANCH  43  44
HETATM   44  C21 UNL     1      -9.170  -6.041  -4.057  1.00  0.00     0.164 C 
BRANCH  44  45
HETATM   45  O5  UNL     1      -9.706  -4.774  -3.712  1.00  0.00    -0.401 OA
HETATM   46  H30 UNL     1     -10.233  -4.875  -2.897  1.00  0.00     0.209 HD
ENDBRANCH  44  45
ENDBRANCH  43  44
ENDBRANCH  42  43
ENDBRANCH  18  42
BRANCH  20  47
HETATM   47  C23 UNL     1      -7.420 -12.044  -5.197  1.00  0.00    -0.025 A 
HETATM   48  C24 UNL     1      -6.475 -13.038  -5.505  1.00  0.00     0.013 A 
HETATM   49  C25 UNL     1      -6.402 -13.579  -6.790  1.00  0.00     0.037 A 
HETATM   50  C26 UNL     1      -7.274 -13.135  -7.776  1.00  0.00     0.065 A 
HETATM   51  C27 UNL     1      -8.223 -12.156  -7.499  1.00  0.00     0.037 A 
HETATM   52  C28 UNL     1      -8.293 -11.613  -6.212  1.00  0.00     0.013 A 
BRANCH  50  53
HETATM   53  O7  UNL     1      -7.175 -13.693  -9.016  1.00  0.00    -0.361 OA
HETATM   54  H34 UNL     1      -7.857 -13.302  -9.585  1.00  0.00     0.217 HD
ENDBRANCH  50  53
ENDBRANCH  20  47
TORSDOF 9
ENDMDL
MODEL 7
REMARK minimizedAffinity -7.94872808
REMARK CNNscore 0.151565969
REMARK CNNaffinity 5.95965433
REMARK  9 active torsions:
REMARK  status: ('A' for Active; 'I' for Inactive)
REMARK       I    between atoms: N1_1  and  C1_2 
REMARK       I    between atoms: C1_2  and  N2_3 
REMARK    1  A    between atoms: N3_4  and  C2_6 
REMARK    2  A    between atoms: C11_16  and  S1_17 
REMARK    3  A    between atoms: S1_17  and  O4_20 
REMARK    4  A    between atoms: C18_27  and  C19_28 
REMARK    5  A    between atoms: C19_28  and  C20_29 
REMARK    6  A    between atoms: C20_29  and  C21_30 
REMARK    7  A    between atoms: C21_30  and  O5_31 
REMARK    8  A    between atoms: C22_33  and  C23_34 
REMARK    9  A    between atoms: C26_37  and  O7_38 
ROOT
HETATM    1  C2  UNL     1       7.753   8.674  13.579  1.00  0.00     0.263 C 
HETATM    2  O1  UNL     1       9.132   8.712  13.080  1.00  0.00    -0.322 OA
HETATM    3  C3  UNL     1       9.837   9.847  13.409  1.00  0.00     0.071 C 
HETATM    4  C4  UNL     1       9.363  11.134  13.171  1.00  0.00     0.037 C 
HETATM    5  C5  UNL     1      10.014  12.227  13.750  1.00  0.00     0.010 C 
HETATM    6  C6  UNL     1      11.152  12.034  14.546  1.00  0.00    -0.058 C 
HETATM    7  C7  UNL     1      11.695  10.749  14.657  1.00  0.00     0.010 C 
HETATM    8  C8  UNL     1      11.044   9.659  14.080  1.00  0.00     0.037 C 
HETATM    9  C9  UNL     1      11.726  13.176  15.350  1.00  0.00     0.040 C 
HETATM   10  C10 UNL     1      10.822  13.581  16.533  1.00  0.00     0.027 C 
HETATM   11  C11 UNL     1      10.518  12.456  17.562  1.00  0.00     0.130 C 
HETATM   12  C12 UNL     1       9.100  12.622  18.184  1.00  0.00     0.037 C 
HETATM   13  C13 UNL     1       8.926  13.784  19.150  1.00  0.00    -0.014 C 
HETATM   14  C14 UNL     1       8.427  13.589  20.391  1.00  0.00    -0.050 C 
HETATM   15  C15 UNL     1       8.301  12.192  20.938  1.00  0.00     0.042 C 
HETATM   16  C16 UNL     1       7.458  11.465  19.888  1.00  0.00     0.001 C 
HETATM   17  C17 UNL     1       6.179  12.293  19.538  1.00  0.00     0.037 C 
HETATM   18  C18 UNL     1       5.506  13.136  20.668  1.00  0.00     0.123 C 
HETATM   19  O6  UNL     1       6.363  13.875  21.562  1.00  0.00    -0.371 OA
HETATM   20  C22 UNL     1       7.497  14.591  21.038  1.00  0.00     0.183 C 
HETATM   21  C29 UNL     1       8.457  11.257  18.697  1.00  0.00     0.032 C 
HETATM   22  C30 UNL     1       7.969  10.398  17.534  1.00  0.00    -0.053 C 
HETATM   23  C31 UNL     1       8.624   9.184  17.261  1.00  0.00     0.008 C 
HETATM   24  C32 UNL     1       8.459   8.542  16.032  1.00  0.00     0.012 C 
HETATM   25  C33 UNL     1       7.647   9.114  15.046  1.00  0.00    -0.010 C 
HETATM   26  C34 UNL     1       6.852  10.217  15.384  1.00  0.00     0.012 C 
HETATM   27  C35 UNL     1       7.018  10.856  16.615  1.00  0.00     0.008 C 
ENDROOT
BRANCH   1  28
HETATM   28  N3  UNL     1       6.998   7.430  13.355  1.00  0.00    -0.341 N 
HETATM   29  C1  UNL     1       6.800   7.006  12.168  1.00  0.00     0.124 C 
HETATM   30  N1  UNL     1       7.198   7.514  10.980  1.00  0.00    -0.279 NA
HETATM   31  N2  UNL     1       6.092   5.874  11.968  1.00  0.00    -0.279 NA
HETATM   32  H1  UNL     1       7.530   8.474  11.076  1.00  0.00     0.126 HD
HETATM   33  H2  UNL     1       6.460   7.469  10.286  1.00  0.00     0.126 HD
HETATM   34  H3  UNL     1       5.928   5.401  12.852  1.00  0.00     0.126 HD
HETATM   35  H4  UNL     1       6.538   5.240  11.315  1.00  0.00     0.126 HD
ATOM     36  H3  UNL     1       6.632   6.907  14.150  1.00  0.00     0.164 HD
ENDBRANCH   1  28
BRANCH  11  37
HETATM   37  S1  UNL     1      11.803  12.349  18.831  1.00  0.00     0.099 S 
HETATM   38  O2  UNL     1      13.059  11.905  18.263  1.00  0.00    -0.601 OA
HETATM   39  O3  UNL     1      11.724  13.468  19.746  1.00  0.00    -0.601 OA
BRANCH  37  40
HETATM   40  O4  UNL     1      11.235  11.070  19.643  1.00  0.00    -0.295 OA
HETATM   41  H15 UNL     1      12.007  10.513  19.890  1.00  0.00     0.232 HD
ENDBRANCH  37  40
ENDBRANCH  11  37
BRANCH  18  42
HETATM   42  C19 UNL     1       4.626  12.278  21.600  1.00  0.00     0.034 C 
BRANCH  42  43
HETATM   43  C20 UNL     1       4.015  11.040  20.941  1.00  0.00     0.028 C 
BRANCH  43  44
HETATM   44  C21 UNL     1       3.206  10.198  21.926  1.00  0.00     0.164 C 
BRANCH  44  45
HETATM   45  O5  UNL     1       2.283   9.349  21.262  1.00  0.00    -0.401 OA
HETATM   46  H30 UNL     1       1.956   9.812  20.468  1.00  0.00     0.209 HD
ENDBRANCH  44  45
ENDBRANCH  43  44
ENDBRANCH  42  43
ENDBRANCH  18  42
BRANCH  20  47
HETATM   47  C23 UNL     1       8.192  15.369  22.145  1.00  0.00    -0.025 A 
HETATM   48  C24 UNL     1       9.169  16.341  21.871  1.00  0.00     0.013 A 
HETATM   49  C25 UNL     1       9.767  17.063  22.907  1.00  0.00     0.037 A 
HETATM   50  C26 UNL     1       9.390  16.823  24.222  1.00  0.00     0.065 A 
HETATM   51  C27 UNL     1       8.422  15.869  24.522  1.00  0.00     0.037 A 
HETATM   52  C28 UNL     1       7.827  15.145  23.485  1.00  0.00     0.013 A 
BRANCH  50  53
HETATM   53  O7  UNL     1       9.993  17.553  25.203  1.00  0.00    -0.361 OA
HETATM   54  H34 UNL     1       9.614  17.291  26.058  1.00  0.00     0.217 HD
ENDBRANCH  50  53
ENDBRANCH  20  47
TORSDOF 9
ENDMDL
MODEL 8
REMARK minimizedAffinity -8.34467316
REMARK CNNscore 0.134124935
REMARK CNNaffinity 6.55595446
REMARK  9 active torsions:
REMARK  status: ('A' for Active; 'I' for Inactive)
REMARK       I    between atoms: N1_1  and  C1_2 
REMARK       I    between atoms: C1_2  and  N2_3 
REMARK    1  A    between atoms: N3_4  and  C2_6 
REMARK    2  A    between atoms: C11_16  and  S1_17 
REMARK    3  A    between atoms: S1_17  and  O4_20 
REMARK    4  A    between atoms: C18_27  and  C19_28 
REMARK    5  A    between atoms: C19_28  and  C20_29 
REMARK    6  A    between atoms: C20_29  and  C21_30 
REMARK    7  A    between atoms: C21_30  and  O5_31 
REMARK    8  A    between atoms: C22_33  and  C23_34 
REMARK    9  A    between atoms: C26_37  and  O7_38 
ROOT
HETATM    1  C2  UNL     1      -3.564   4.537  12.189  1.00  0.00     0.263 C 
HETATM    2  O1  UNL     1      -2.348   3.790  11.849  1.00  0.00    -0.322 OA
HETATM    3  C3  UNL     1      -1.220   4.561  11.688  1.00  0.00     0.071 C 
HETATM    4  C4  UNL     1      -1.170   5.674  10.852  1.00  0.00     0.037 C 
HETATM    5  C5  UNL     1      -0.081   6.545  10.928  1.00  0.00     0.010 C 
HETATM    6  C6  UNL     1       0.971   6.290  11.819  1.00  0.00    -0.058 C 
HETATM    7  C7  UNL     1       0.971   5.095  12.548  1.00  0.00     0.010 C 
HETATM    8  C8  UNL     1      -0.118   4.227  12.472  1.00  0.00     0.037 C 
HETATM    9  C9  UNL     1       2.036   7.331  12.065  1.00  0.00     0.040 C 
HETATM   10  C10 UNL     1       1.504   8.548  12.853  1.00  0.00     0.027 C 
HETATM   11  C11 UNL     1       0.899   8.231  14.249  1.00  0.00     0.130 C 
HETATM   12  C12 UNL     1      -0.258   9.211  14.604  1.00  0.00     0.037 C 
HETATM   13  C13 UNL     1       0.151  10.642  14.919  1.00  0.00    -0.014 C 
HETATM   14  C14 UNL     1      -0.242  11.242  16.065  1.00  0.00    -0.050 C 
HETATM   15  C15 UNL     1      -0.847  10.419  17.172  1.00  0.00     0.042 C 
HETATM   16  C16 UNL     1      -2.021   9.707  16.497  1.00  0.00     0.001 C 
HETATM   17  C17 UNL     1      -2.900  10.726  15.701  1.00  0.00     0.037 C 
HETATM   18  C18 UNL     1      -3.053  12.175  16.263  1.00  0.00     0.123 C 
HETATM   19  O6  UNL     1      -1.880  12.822  16.796  1.00  0.00    -0.371 OA
HETATM   20  C22 UNL     1      -0.622  12.704  16.105  1.00  0.00     0.183 C 
HETATM   21  C29 UNL     1      -1.326   8.607  15.621  1.00  0.00     0.032 C 
HETATM   22  C30 UNL     1      -2.241   7.597  14.936  1.00  0.00    -0.053 C 
HETATM   23  C31 UNL     1      -2.154   6.242  15.301  1.00  0.00     0.008 C 
HETATM   24  C32 UNL     1      -2.697   5.245  14.487  1.00  0.00     0.012 C 
HETATM   25  C33 UNL     1      -3.322   5.586  13.282  1.00  0.00    -0.010 C 
HETATM   26  C34 UNL     1      -3.573   6.939  13.014  1.00  0.00     0.012 C 
HETATM   27  C35 UNL     1      -3.031   7.934  13.831  1.00  0.00     0.008 C 
ENDROOT
BRANCH   1  28
HETATM   28  N3  UNL     1      -4.769   3.745  12.489  1.00  0.00    -0.341 N 
HETATM   29  C1  UNL     1      -5.312   3.035  11.577  1.00  0.00     0.124 C 
HETATM   30  N1  UNL     1      -4.952   2.843  10.289  1.00  0.00    -0.279 NA
HETATM   31  N2  UNL     1      -6.427   2.325  11.853  1.00  0.00    -0.279 NA
HETATM   32  H1  UNL     1      -4.263   3.530   9.985  1.00  0.00     0.126 HD
HETATM   33  H2  UNL     1      -5.755   2.858   9.669  1.00  0.00     0.126 HD
HETATM   34  H3  UNL     1      -6.612   2.335  12.852  1.00  0.00     0.126 HD
HETATM   35  H4  UNL     1      -6.378   1.370  11.519  1.00  0.00     0.126 HD
ATOM     36  H3  UNL     1      -5.171   3.765  13.426  1.00  0.00     0.164 HD
ENDBRANCH   1  28
BRANCH  11  37
HETATM   37  S1  UNL     1       2.171   8.197  15.536  1.00  0.00     0.099 S 
HETATM   38  O2  UNL     1       3.269   9.080  15.203  1.00  0.00    -0.601 OA
HETATM   39  O3  UNL     1       1.575   8.172  16.855  1.00  0.00    -0.601 OA
BRANCH  37  40
HETATM   40  O4  UNL     1       2.740   6.705  15.276  1.00  0.00    -0.295 OA
HETATM   41  H15 UNL     1       3.717   6.743  15.371  1.00  0.00     0.232 HD
ENDBRANCH  37  40
ENDBRANCH  11  37
BRANCH  18  42
HETATM   42  C19 UNL     1      -4.090  12.260  17.402  1.00  0.00     0.034 C 
BRANCH  42  43
HETATM   43  C20 UNL     1      -3.492  12.465  18.796  1.00  0.00     0.028 C 
BRANCH  43  44
HETATM   44  C21 UNL     1      -4.162  13.611  19.551  1.00  0.00     0.164 C 
BRANCH  44  45
HETATM   45  O5  UNL     1      -5.491  13.289  19.931  1.00  0.00    -0.401 OA
HETATM   46  H30 UNL     1      -5.881  12.728  19.235  1.00  0.00     0.209 HD
ENDBRANCH  44  45
ENDBRANCH  43  44
ENDBRANCH  42  43
ENDBRANCH  18  42
BRANCH  20  47
HETATM   47  C23 UNL     1       0.444  13.542  16.795  1.00  0.00    -0.025 A 
HETATM   48  C24 UNL     1       1.628  13.927  16.142  1.00  0.00     0.013 A 
HETATM   49  C25 UNL     1       2.573  14.725  16.790  1.00  0.00     0.037 A 
HETATM   50  C26 UNL     1       2.342  15.147  18.093  1.00  0.00     0.065 A 
HETATM   51  C27 UNL     1       1.178  14.785  18.763  1.00  0.00     0.037 A 
HETATM   52  C28 UNL     1       0.233  13.985  18.114  1.00  0.00     0.013 A 
BRANCH  50  53
HETATM   53  O7  UNL     1       3.287  15.930  18.688  1.00  0.00    -0.361 OA
HETATM   54  H34 UNL     1       2.978  16.161  19.579  1.00  0.00     0.217 HD
ENDBRANCH  50  53
ENDBRANCH  20  47
TORSDOF 9
ENDMDL
MODEL 9
REMARK minimizedAffinity -6.44559813
REMARK CNNscore 0.125267223
REMARK CNNaffinity 5.93023539
REMARK  9 active torsions:
REMARK  status: ('A' for Active; 'I' for Inactive)
REMARK       I    between atoms: N1_1  and  C1_2 
REMARK       I    between atoms: C1_2  and  N2_3 
REMARK    1  A    between atoms: N3_4  and  C2_6 
REMARK    2  A    between atoms: C11_16  and  S1_17 
REMARK    3  A    between atoms: S1_17  and  O4_20 
REMARK    4  A    between atoms: C18_27  and  C19_28 
REMARK    5  A    between atoms: C19_28  and  C20_29 
REMARK    6  A    between atoms: C20_29  and  C21_30 
REMARK    7  A    between atoms: C21_30  and  O5_31 
REMARK    8  A    between atoms: C22_33  and  C23_34 
REMARK    9  A    between atoms: C26_37  and  O7_38 
ROOT
HETATM    1  C2  UNL     1      -8.717  16.843  14.633  1.00  0.00     0.263 C 
HETATM    2  O1  UNL     1      -9.798  17.799  14.370  1.00  0.00    -0.322 OA
HETATM    3  C3  UNL     1     -10.839  17.305  13.618  1.00  0.00     0.071 C 
HETATM    4  C4  UNL     1     -10.658  16.664  12.395  1.00  0.00     0.037 C 
HETATM    5  C5  UNL     1     -11.726  15.976  11.812  1.00  0.00     0.010 C 
HETATM    6  C6  UNL     1     -12.980  15.951  12.439  1.00  0.00    -0.058 C 
HETATM    7  C7  UNL     1     -13.179  16.717  13.593  1.00  0.00     0.010 C 
HETATM    8  C8  UNL     1     -12.112  17.403  14.174  1.00  0.00     0.037 C 
HETATM    9  C9  UNL     1     -14.069  15.035  11.935  1.00  0.00     0.040 C 
HETATM   10  C10 UNL     1     -13.767  13.546  12.213  1.00  0.00     0.027 C 
HETATM   11  C11 UNL     1     -13.563  13.171  13.707  1.00  0.00     0.130 C 
HETATM   12  C12 UNL     1     -12.542  12.006  13.867  1.00  0.00     0.037 C 
HETATM   13  C13 UNL     1     -13.017  10.634  13.412  1.00  0.00    -0.014 C 
HETATM   14  C14 UNL     1     -12.948   9.565  14.236  1.00  0.00    -0.050 C 
HETATM   15  C15 UNL     1     -12.666   9.765  15.702  1.00  0.00     0.042 C 
HETATM   16  C16 UNL     1     -11.355  10.554  15.717  1.00  0.00     0.001 C 
HETATM   17  C17 UNL     1     -10.291   9.873  14.795  1.00  0.00     0.037 C 
HETATM   18  C18 UNL     1     -10.292   8.315  14.684  1.00  0.00     0.123 C 
HETATM   19  O6  UNL     1     -11.565   7.645  14.575  1.00  0.00    -0.371 OA
HETATM   20  C22 UNL     1     -12.589   8.189  13.722  1.00  0.00     0.183 C 
HETATM   21  C29 UNL     1     -11.790  11.994  15.272  1.00  0.00     0.032 C 
HETATM   22  C30 UNL     1     -10.726  13.085  15.346  1.00  0.00    -0.053 C 
HETATM   23  C31 UNL     1     -10.912  14.159  16.234  1.00  0.00     0.008 C 
HETATM   24  C32 UNL     1     -10.172  15.335  16.099  1.00  0.00     0.012 C 
HETATM   25  C33 UNL     1      -9.243  15.465  15.060  1.00  0.00    -0.010 C 
HETATM   26  C34 UNL     1      -8.926  14.334  14.296  1.00  0.00     0.012 C 
HETATM   27  C35 UNL     1      -9.666  13.158  14.434  1.00  0.00     0.008 C 
ENDROOT
BRANCH   1  28
HETATM   28  N3  UNL     1      -7.640  17.287  15.534  1.00  0.00    -0.341 N 
HETATM   29  C1  UNL     1      -6.430  16.960  15.293  1.00  0.00     0.124 C 
HETATM   30  N1  UNL     1      -5.904  16.239  14.279  1.00  0.00    -0.279 NA
HETATM   31  N2  UNL     1      -5.448  17.356  16.132  1.00  0.00    -0.279 NA
HETATM   32  H1  UNL     1      -6.626  15.738  13.761  1.00  0.00     0.126 HD
HETATM   33  H2  UNL     1      -5.197  15.591  14.606  1.00  0.00     0.126 HD
HETATM   34  H3  UNL     1      -5.808  18.028  16.803  1.00  0.00     0.126 HD
HETATM   35  H4  UNL     1      -4.649  17.746  15.646  1.00  0.00     0.126 HD
ATOM     36  H3  UNL     1      -7.861  17.856  16.351  1.00  0.00     0.164 HD
ENDBRANCH   1  28
BRANCH  11  37
HETATM   37  S1  UNL     1     -15.135  12.806  14.525  1.00  0.00     0.099 S 
HETATM   38  O2  UNL     1     -16.067  12.188  13.604  1.00  0.00    -0.601 OA
HETATM   39  O3  UNL     1     -14.918  12.295  15.862  1.00  0.00    -0.601 OA
BRANCH  37  40
HETATM   40  O4  UNL     1     -15.671  14.321  14.709  1.00  0.00    -0.295 OA
HETATM   41  H15 UNL     1     -16.635  14.316  14.520  1.00  0.00     0.232 HD
ENDBRANCH  37  40
ENDBRANCH  11  37
BRANCH  18  42
HETATM   42  C19 UNL     1      -9.602   7.636  15.885  1.00  0.00     0.034 C 
BRANCH  42  43
HETATM   43  C20 UNL     1      -8.074   7.604  15.809  1.00  0.00     0.028 C 
BRANCH  43  44
HETATM   44  C21 UNL     1      -7.527   6.181  15.723  1.00  0.00     0.164 C 
BRANCH  44  45
HETATM   45  O5  UNL     1      -8.471   5.224  16.178  1.00  0.00    -0.401 OA
HETATM   46  H30 UNL     1      -8.983   5.620  16.908  1.00  0.00     0.209 HD
ENDBRANCH  44  45
ENDBRANCH  43  44
ENDBRANCH  42  43
ENDBRANCH  18  42
BRANCH  20  47
HETATM   47  C23 UNL     1     -13.800   7.269  13.691  1.00  0.00    -0.025 A 
HETATM   48  C24 UNL     1     -14.845   7.442  12.768  1.00  0.00     0.013 A 
HETATM   49  C25 UNL     1     -15.928   6.561  12.741  1.00  0.00     0.037 A 
HETATM   50  C26 UNL     1     -15.974   5.498  13.634  1.00  0.00     0.065 A 
HETATM   51  C27 UNL     1     -14.951   5.299  14.557  1.00  0.00     0.037 A 
HETATM   52  C28 UNL     1     -13.869   6.183  14.584  1.00  0.00     0.013 A 
BRANCH  50  53
HETATM   53  O7  UNL     1     -17.045   4.657  13.572  1.00  0.00    -0.361 OA
HETATM   54  H34 UNL     1     -16.926   3.958  14.235  1.00  0.00     0.217 HD
ENDBRANCH  50  53
ENDBRANCH  20  47
TORSDOF 9
ENDMDL
