MODEL 1
REMARK minimizedAffinity -8.98194885
REMARK  11 active torsions:
REMARK  status: ('A' for Active; 'I' for Inactive)
REMARK    1  A    between atoms: C7_8  and  C8_9 
REMARK    2  A    between atoms: C8_9  and  C10_11 
REMARK    3  A    between atoms: C10_11  and  O2_12 
REMARK    4  A    between atoms: C16_18  and  O3_20 
REMARK    5  A    between atoms: O3_20  and  C18_21 
REMARK    6  A    between atoms: C18_21  and  C19_23 
REMARK    7  A    between atoms: C19_23  and  C20_24 
REMARK    8  A    between atoms: C19_23  and  O5_26 
REMARK    9  A    between atoms: O5_26  and  C22_27 
REMARK   10  A    between atoms: C22_27  and  C23_29 
REMARK   11  A    between atoms: C23_29  and  C24_30 
ROOT
HETATM    1  C1  UNL     1      -0.442  53.664 -28.150  1.00  0.00     0.022 C 
HETATM    2  C2  UNL     1      -0.693  53.074 -26.968  1.00  0.00    -0.019 C 
HETATM    3  C3  UNL     1      -1.580  51.859 -26.811  1.00  0.00     0.074 C 
HETATM    4  C4  UNL     1      -2.827  52.107 -25.949  1.00  0.00     0.135 C 
HETATM    5  O1  UNL     1      -2.442  52.946 -24.847  1.00  0.00    -0.376 OA
HETATM    6  C5  UNL     1      -2.667  52.298 -23.596  1.00  0.00     0.162 C 
HETATM    7  C6  UNL     1      -3.850  51.374 -23.896  1.00  0.00     0.033 C 
HETATM    8  C7  UNL     1      -4.255  50.326 -22.837  1.00  0.00    -0.001 C 
HETATM    9  C11 UNL     1      -4.933  49.152 -23.550  1.00  0.00     0.010 C 
HETATM   10  C12 UNL     1      -3.959  48.489 -24.527  1.00  0.00     0.034 C 
HETATM   11  C13 UNL     1      -3.322  49.441 -25.523  1.00  0.00    -0.082 C 
HETATM   12  C14 UNL     1      -2.621  48.875 -26.525  1.00  0.00     0.015 C 
HETATM   13  C15 UNL     1      -3.650  50.918 -25.363  1.00  0.00     0.050 C 
HETATM   14  C16 UNL     1      -1.297  51.808 -23.004  1.00  0.00     0.094 C 
HETATM   15  C17 UNL     1      -0.853  50.399 -23.435  1.00  0.00     0.049 C 
HETATM   16  C26 UNL     1      -0.122  52.811 -23.310  1.00  0.00     0.048 C 
HETATM   17  C27 UNL     1       0.551  52.749 -24.693  1.00  0.00     0.086 C 
HETATM   18  C28 UNL     1      -0.039  53.680 -25.748  1.00  0.00     0.155 C 
HETATM   19  O7  UNL     1       0.078  54.902 -25.649  1.00  0.00    -0.293 OA
ENDROOT
BRANCH  14  20
HETATM   20  O3  UNL     1      -1.407  51.642 -21.542  1.00  0.00    -0.306 OA
BRANCH  20  21
HETATM   21  C18 UNL     1      -0.508  50.905 -20.831  1.00  0.00     0.289 C 
HETATM   22  O4  UNL     1      -0.278  49.715 -20.991  1.00  0.00    -0.262 OA
BRANCH  21  23
HETATM   23  C19 UNL     1       0.162  51.782 -19.767  1.00  0.00     0.231 C 
BRANCH  23  24
HETATM   24  C20 UNL     1      -0.013  53.260 -20.136  1.00  0.00     0.038 C 
HETATM   25  C21 UNL     1       1.324  53.956 -20.358  1.00  0.00     0.008 C 
ENDBRANCH  23  24
BRANCH  23  26
HETATM   26  O5  UNL     1      -0.458  51.578 -18.487  1.00  0.00    -0.306 OA
BRANCH  26  27
HETATM   27  C22 UNL     1       0.395  51.174 -17.503  1.00  0.00     0.259 C 
HETATM   28  O6  UNL     1       0.502  50.022 -17.109  1.00  0.00    -0.265 OA
BRANCH  27  29
HETATM   29  C23 UNL     1       1.190  52.356 -17.010  1.00  0.00     0.111 C 
BRANCH  29  30
HETATM   30  C24 UNL     1       2.209  51.993 -15.930  1.00  0.00     0.005 C 
HETATM   31  C25 UNL     1       3.620  52.448 -16.280  1.00  0.00     0.005 C 
ENDBRANCH  29  30
ENDBRANCH  27  29
ENDBRANCH  26  27
ENDBRANCH  23  26
ENDBRANCH  21  23
ENDBRANCH  20  21
ENDBRANCH  14  20
BRANCH   8  32
HETATM   32  C8  UNL     1      -5.098  50.965 -21.686  1.00  0.00     0.010 C 
HETATM   33  C9  UNL     1      -6.498  50.355 -21.531  1.00  0.00     0.012 C 
BRANCH  32  34
HETATM   34  C10 UNL     1      -4.363  50.943 -20.333  1.00  0.00     0.168 C 
BRANCH  34  35
HETATM   35  O2  UNL     1      -4.823  49.894 -19.494  1.00  0.00    -0.400 OA
HETATM   36  H15 UNL     1      -4.338  49.968 -18.653  1.00  0.00     0.209 HD
ENDBRANCH  34  35
ENDBRANCH  32  34
ENDBRANCH   8  32
TORSDOF 11
ENDMDL
MODEL 2
REMARK minimizedAffinity -8.79908371
REMARK  11 active torsions:
REMARK  status: ('A' for Active; 'I' for Inactive)
REMARK    1  A    between atoms: C7_8  and  C8_9 
REMARK    2  A    between atoms: C8_9  and  C10_11 
REMARK    3  A    between atoms: C10_11  and  O2_12 
REMARK    4  A    between atoms: C16_18  and  O3_20 
REMARK    5  A    between atoms: O3_20  and  C18_21 
REMARK    6  A    between atoms: C18_21  and  C19_23 
REMARK    7  A    between atoms: C19_23  and  C20_24 
REMARK    8  A    between atoms: C19_23  and  O5_26 
REMARK    9  A    between atoms: O5_26  and  C22_27 
REMARK   10  A    between atoms: C22_27  and  C23_29 
REMARK   11  A    between atoms: C23_29  and  C24_30 
ROOT
HETATM    1  C1  UNL     1      -0.177  53.573 -28.168  1.00  0.00     0.022 C 
HETATM    2  C2  UNL     1      -0.568  52.963 -27.035  1.00  0.00    -0.019 C 
HETATM    3  C3  UNL     1      -1.503  51.775 -27.005  1.00  0.00     0.074 C 
HETATM    4  C4  UNL     1      -2.826  52.042 -26.272  1.00  0.00     0.135 C 
HETATM    5  O1  UNL     1      -2.534  52.841 -25.113  1.00  0.00    -0.376 OA
HETATM    6  C5  UNL     1      -2.909  52.171 -23.910  1.00  0.00     0.162 C 
HETATM    7  C6  UNL     1      -4.082  51.293 -24.358  1.00  0.00     0.033 C 
HETATM    8  C7  UNL     1      -4.627  50.234 -23.376  1.00  0.00    -0.001 C 
HETATM    9  C11 UNL     1      -5.261  49.100 -24.189  1.00  0.00     0.010 C 
HETATM   10  C12 UNL     1      -4.211  48.430 -25.076  1.00  0.00     0.034 C 
HETATM   11  C13 UNL     1      -3.443  49.384 -25.974  1.00  0.00    -0.082 C 
HETATM   12  C14 UNL     1      -2.658  48.821 -26.912  1.00  0.00     0.015 C 
HETATM   13  C15 UNL     1      -3.741  50.867 -25.808  1.00  0.00     0.050 C 
HETATM   14  C16 UNL     1      -1.624  51.622 -23.193  1.00  0.00     0.094 C 
HETATM   15  C17 UNL     1      -1.180  50.209 -23.614  1.00  0.00     0.049 C 
HETATM   16  C26 UNL     1      -0.394  52.593 -23.346  1.00  0.00     0.048 C 
HETATM   17  C27 UNL     1       0.418  52.542 -24.653  1.00  0.00     0.086 C 
HETATM   18  C28 UNL     1      -0.028  53.517 -25.737  1.00  0.00     0.155 C 
HETATM   19  O7  UNL     1       0.114  54.732 -25.593  1.00  0.00    -0.293 OA
ENDROOT
BRANCH  14  20
HETATM   20  O3  UNL     1      -1.892  51.424 -21.756  1.00  0.00    -0.306 OA
BRANCH  20  21
HETATM   21  C18 UNL     1      -0.972  50.863 -20.921  1.00  0.00     0.289 C 
HETATM   22  O4  UNL     1       0.053  50.295 -21.270  1.00  0.00    -0.262 OA
BRANCH  21  23
HETATM   23  C19 UNL     1      -1.424  51.021 -19.465  1.00  0.00     0.231 C 
BRANCH  23  24
HETATM   24  C20 UNL     1      -0.498  50.212 -18.550  1.00  0.00     0.038 C 
HETATM   25  C21 UNL     1      -1.178  48.959 -18.011  1.00  0.00     0.008 C 
ENDBRANCH  23  24
BRANCH  23  26
HETATM   26  O5  UNL     1      -1.340  52.398 -19.061  1.00  0.00    -0.306 OA
BRANCH  26  27
HETATM   27  C22 UNL     1      -0.080  52.824 -18.763  1.00  0.00     0.259 C 
HETATM   28  O6  UNL     1       0.608  52.374 -17.859  1.00  0.00    -0.265 OA
BRANCH  27  29
HETATM   29  C23 UNL     1       0.328  53.905 -19.732  1.00  0.00     0.111 C 
BRANCH  29  30
HETATM   30  C24 UNL     1       1.514  53.512 -20.613  1.00  0.00     0.005 C 
HETATM   31  C25 UNL     1       1.777  54.520 -21.724  1.00  0.00     0.005 C 
ENDBRANCH  29  30
ENDBRANCH  27  29
ENDBRANCH  26  27
ENDBRANCH  23  26
ENDBRANCH  21  23
ENDBRANCH  20  21
ENDBRANCH  14  20
BRANCH   8  32
HETATM   32  C8  UNL     1      -5.567  50.872 -22.303  1.00  0.00     0.010 C 
HETATM   33  C9  UNL     1      -6.880  50.106 -22.094  1.00  0.00     0.012 C 
BRANCH  32  34
HETATM   34  C10 UNL     1      -4.861  51.082 -20.950  1.00  0.00     0.168 C 
BRANCH  34  35
HETATM   35  O2  UNL     1      -5.205  50.077 -20.009  1.00  0.00    -0.400 OA
HETATM   36  H15 UNL     1      -4.749  50.297 -19.177  1.00  0.00     0.209 HD
ENDBRANCH  34  35
ENDBRANCH  32  34
ENDBRANCH   8  32
TORSDOF 11
ENDMDL
MODEL 3
REMARK minimizedAffinity -8.738307
REMARK  11 active torsions:
REMARK  status: ('A' for Active; 'I' for Inactive)
REMARK    1  A    between atoms: C7_8  and  C8_9 
REMARK    2  A    between atoms: C8_9  and  C10_11 
REMARK    3  A    between atoms: C10_11  and  O2_12 
REMARK    4  A    between atoms: C16_18  and  O3_20 
REMARK    5  A    between atoms: O3_20  and  C18_21 
REMARK    6  A    between atoms: C18_21  and  C19_23 
REMARK    7  A    between atoms: C19_23  and  C20_24 
REMARK    8  A    between atoms: C19_23  and  O5_26 
REMARK    9  A    between atoms: O5_26  and  C22_27 
REMARK   10  A    between atoms: C22_27  and  C23_29 
REMARK   11  A    between atoms: C23_29  and  C24_30 
ROOT
HETATM    1  C1  UNL     1      -0.092  53.625 -28.159  1.00  0.00     0.022 C 
HETATM    2  C2  UNL     1      -0.499  53.017 -27.032  1.00  0.00    -0.019 C 
HETATM    3  C3  UNL     1      -1.382  51.789 -27.015  1.00  0.00     0.074 C 
HETATM    4  C4  UNL     1      -2.742  52.009 -26.336  1.00  0.00     0.135 C 
HETATM    5  O1  UNL     1      -2.529  52.839 -25.181  1.00  0.00    -0.376 OA
HETATM    6  C5  UNL     1      -2.919  52.173 -23.982  1.00  0.00     0.162 C 
HETATM    7  C6  UNL     1      -4.035  51.237 -24.457  1.00  0.00     0.033 C 
HETATM    8  C7  UNL     1      -4.570  50.171 -23.477  1.00  0.00    -0.001 C 
HETATM    9  C11 UNL     1      -5.124  48.997 -24.292  1.00  0.00     0.010 C 
HETATM   10  C12 UNL     1      -4.012  48.359 -25.128  1.00  0.00     0.034 C 
HETATM   11  C13 UNL     1      -3.254  49.332 -26.014  1.00  0.00    -0.082 C 
HETATM   12  C14 UNL     1      -2.409  48.789 -26.912  1.00  0.00     0.015 C 
HETATM   13  C15 UNL     1      -3.622  50.803 -25.885  1.00  0.00     0.050 C 
HETATM   14  C16 UNL     1      -1.640  51.693 -23.207  1.00  0.00     0.094 C 
HETATM   15  C17 UNL     1      -1.120  50.295 -23.586  1.00  0.00     0.049 C 
HETATM   16  C26 UNL     1      -0.448  52.714 -23.332  1.00  0.00     0.048 C 
HETATM   17  C27 UNL     1       0.414  52.678 -24.607  1.00  0.00     0.086 C 
HETATM   18  C28 UNL     1      -0.033  53.615 -25.724  1.00  0.00     0.155 C 
HETATM   19  O7  UNL     1       0.051  54.837 -25.596  1.00  0.00    -0.293 OA
ENDROOT
BRANCH  14  20
HETATM   20  O3  UNL     1      -1.953  51.507 -21.778  1.00  0.00    -0.306 OA
BRANCH  20  21
HETATM   21  C18 UNL     1      -0.986  51.234 -20.857  1.00  0.00     0.289 C 
HETATM   22  O4  UNL     1       0.215  51.395 -21.018  1.00  0.00    -0.262 OA
BRANCH  21  23
HETATM   23  C19 UNL     1      -1.622  50.662 -19.585  1.00  0.00     0.231 C 
BRANCH  23  24
HETATM   24  C20 UNL     1      -1.069  49.257 -19.322  1.00  0.00     0.038 C 
HETATM   25  C21 UNL     1      -0.999  48.421 -20.594  1.00  0.00     0.008 C 
ENDBRANCH  23  24
BRANCH  23  26
HETATM   26  O5  UNL     1      -1.293  51.479 -18.449  1.00  0.00    -0.306 OA
BRANCH  26  27
HETATM   27  C22 UNL     1      -0.148  51.116 -17.805  1.00  0.00     0.259 C 
HETATM   28  O6  UNL     1       0.054  50.013 -17.319  1.00  0.00    -0.265 OA
BRANCH  27  29
HETATM   29  C23 UNL     1       0.821  52.271 -17.814  1.00  0.00     0.111 C 
BRANCH  29  30
HETATM   30  C24 UNL     1       1.421  52.570 -16.440  1.00  0.00     0.005 C 
HETATM   31  C25 UNL     1       2.943  52.512 -16.441  1.00  0.00     0.005 C 
ENDBRANCH  29  30
ENDBRANCH  27  29
ENDBRANCH  26  27
ENDBRANCH  23  26
ENDBRANCH  21  23
ENDBRANCH  20  21
ENDBRANCH  14  20
BRANCH   8  32
HETATM   32  C8  UNL     1      -5.577  50.784 -22.451  1.00  0.00     0.010 C 
HETATM   33  C9  UNL     1      -7.017  50.280 -22.617  1.00  0.00     0.012 C 
BRANCH  32  34
HETATM   34  C10 UNL     1      -5.121  50.597 -20.992  1.00  0.00     0.168 C 
BRANCH  34  35
HETATM   35  O2  UNL     1      -6.220  50.470 -20.102  1.00  0.00    -0.400 OA
HETATM   36  H15 UNL     1      -5.853  50.390 -19.204  1.00  0.00     0.209 HD
ENDBRANCH  34  35
ENDBRANCH  32  34
ENDBRANCH   8  32
TORSDOF 11
ENDMDL
MODEL 4
REMARK minimizedAffinity -8.2303915
REMARK  11 active torsions:
REMARK  status: ('A' for Active; 'I' for Inactive)
REMARK    1  A    between atoms: C7_8  and  C8_9 
REMARK    2  A    between atoms: C8_9  and  C10_11 
REMARK    3  A    between atoms: C10_11  and  O2_12 
REMARK    4  A    between atoms: C16_18  and  O3_20 
REMARK    5  A    between atoms: O3_20  and  C18_21 
REMARK    6  A    between atoms: C18_21  and  C19_23 
REMARK    7  A    between atoms: C19_23  and  C20_24 
REMARK    8  A    between atoms: C19_23  and  O5_26 
REMARK    9  A    between atoms: O5_26  and  C22_27 
REMARK   10  A    between atoms: C22_27  and  C23_29 
REMARK   11  A    between atoms: C23_29  and  C24_30 
ROOT
HETATM    1  C1  UNL     1      -7.811  48.774 -20.476  1.00  0.00     0.022 C 
HETATM    2  C2  UNL     1      -6.648  49.030 -21.098  1.00  0.00    -0.019 C 
HETATM    3  C3  UNL     1      -5.292  48.808 -20.465  1.00  0.00     0.074 C 
HETATM    4  C4  UNL     1      -4.466  50.092 -20.295  1.00  0.00     0.135 C 
HETATM    5  O1  UNL     1      -4.662  50.900 -21.469  1.00  0.00    -0.376 OA
HETATM    6  C5  UNL     1      -3.431  51.132 -22.152  1.00  0.00     0.162 C 
HETATM    7  C6  UNL     1      -2.398  51.088 -21.022  1.00  0.00     0.033 C 
HETATM    8  C7  UNL     1      -0.899  51.075 -21.393  1.00  0.00    -0.001 C 
HETATM    9  C11 UNL     1      -0.126  50.383 -20.266  1.00  0.00     0.010 C 
HETATM   10  C12 UNL     1      -0.591  48.933 -20.115  1.00  0.00     0.034 C 
HETATM   11  C13 UNL     1      -2.090  48.768 -19.933  1.00  0.00    -0.082 C 
HETATM   12  C14 UNL     1      -2.519  47.537 -19.594  1.00  0.00     0.015 C 
HETATM   13  C15 UNL     1      -2.932  50.032 -20.022  1.00  0.00     0.050 C 
HETATM   14  C16 UNL     1      -3.366  50.232 -23.437  1.00  0.00     0.094 C 
HETATM   15  C17 UNL     1      -2.767  48.828 -23.236  1.00  0.00     0.049 C 
HETATM   16  C26 UNL     1      -4.773  50.074 -24.127  1.00  0.00     0.048 C 
HETATM   17  C27 UNL     1      -5.756  49.037 -23.554  1.00  0.00     0.086 C 
HETATM   18  C28 UNL     1      -6.730  49.569 -22.508  1.00  0.00     0.155 C 
HETATM   19  O7  UNL     1      -7.614  50.368 -22.816  1.00  0.00    -0.293 OA
ENDROOT
BRANCH  14  20
HETATM   20  O3  UNL     1      -2.424  50.810 -24.414  1.00  0.00    -0.306 OA
BRANCH  20  21
HETATM   21  C18 UNL     1      -2.846  51.595 -25.445  1.00  0.00     0.289 C 
HETATM   22  O4  UNL     1      -3.596  52.555 -25.347  1.00  0.00    -0.262 OA
BRANCH  21  23
HETATM   23  C19 UNL     1      -2.262  51.081 -26.766  1.00  0.00     0.231 C 
BRANCH  23  24
HETATM   24  C20 UNL     1      -3.263  50.131 -27.433  1.00  0.00     0.038 C 
HETATM   25  C21 UNL     1      -3.040  48.682 -27.019  1.00  0.00     0.008 C 
ENDBRANCH  23  24
BRANCH  23  26
HETATM   26  O5  UNL     1      -2.030  52.174 -27.670  1.00  0.00    -0.306 OA
BRANCH  26  27
HETATM   27  C22 UNL     1      -0.819  52.782 -27.524  1.00  0.00     0.259 C 
HETATM   28  O6  UNL     1      -0.616  53.761 -26.821  1.00  0.00    -0.265 OA
BRANCH  27  29
HETATM   29  C23 UNL     1       0.216  52.044 -28.335  1.00  0.00     0.111 C 
BRANCH  29  30
HETATM   30  C24 UNL     1       1.515  51.790 -27.573  1.00  0.00     0.005 C 
HETATM   31  C25 UNL     1       1.295  51.007 -26.285  1.00  0.00     0.005 C 
ENDBRANCH  29  30
ENDBRANCH  27  29
ENDBRANCH  26  27
ENDBRANCH  23  26
ENDBRANCH  21  23
ENDBRANCH  20  21
ENDBRANCH  14  20
BRANCH   8  32
HETATM   32  C8  UNL     1      -0.383  52.505 -21.756  1.00  0.00     0.010 C 
HETATM   33  C9  UNL     1       0.361  53.205 -20.610  1.00  0.00     0.012 C 
BRANCH  32  34
HETATM   34  C10 UNL     1       0.486  52.514 -23.028  1.00  0.00     0.168 C 
BRANCH  34  35
HETATM   35  O2  UNL     1      -0.021  53.402 -24.013  1.00  0.00    -0.400 OA
HETATM   36  H15 UNL     1       0.559  53.326 -24.791  1.00  0.00     0.209 HD
ENDBRANCH  34  35
ENDBRANCH  32  34
ENDBRANCH   8  32
TORSDOF 11
ENDMDL
MODEL 5
REMARK minimizedAffinity -8.19362354
REMARK  11 active torsions:
REMARK  status: ('A' for Active; 'I' for Inactive)
REMARK    1  A    between atoms: C7_8  and  C8_9 
REMARK    2  A    between atoms: C8_9  and  C10_11 
REMARK    3  A    between atoms: C10_11  and  O2_12 
REMARK    4  A    between atoms: C16_18  and  O3_20 
REMARK    5  A    between atoms: O3_20  and  C18_21 
REMARK    6  A    between atoms: C18_21  and  C19_23 
REMARK    7  A    between atoms: C19_23  and  C20_24 
REMARK    8  A    between atoms: C19_23  and  O5_26 
REMARK    9  A    between atoms: O5_26  and  C22_27 
REMARK   10  A    between atoms: C22_27  and  C23_29 
REMARK   11  A    between atoms: C23_29  and  C24_30 
ROOT
HETATM    1  C1  UNL     1      -0.284  53.540 -28.133  1.00  0.00     0.022 C 
HETATM    2  C2  UNL     1      -0.623  52.950 -26.974  1.00  0.00    -0.019 C 
HETATM    3  C3  UNL     1      -1.552  51.761 -26.881  1.00  0.00     0.074 C 
HETATM    4  C4  UNL     1      -2.842  52.039 -26.094  1.00  0.00     0.135 C 
HETATM    5  O1  UNL     1      -2.501  52.860 -24.964  1.00  0.00    -0.376 OA
HETATM    6  C5  UNL     1      -2.820  52.211 -23.734  1.00  0.00     0.162 C 
HETATM    7  C6  UNL     1      -4.010  51.323 -24.113  1.00  0.00     0.033 C 
HETATM    8  C7  UNL     1      -4.508  50.281 -23.089  1.00  0.00    -0.001 C 
HETATM    9  C11 UNL     1      -5.174  49.131 -23.852  1.00  0.00     0.010 C 
HETATM   10  C12 UNL     1      -4.163  48.446 -24.773  1.00  0.00     0.034 C 
HETATM   11  C13 UNL     1      -3.438  49.386 -25.721  1.00  0.00    -0.082 C 
HETATM   12  C14 UNL     1      -2.694  48.807 -26.683  1.00  0.00     0.015 C 
HETATM   13  C15 UNL     1      -3.733  50.871 -25.569  1.00  0.00     0.050 C 
HETATM   14  C16 UNL     1      -1.504  51.677 -23.065  1.00  0.00     0.094 C 
HETATM   15  C17 UNL     1      -1.075  50.258 -23.479  1.00  0.00     0.049 C 
HETATM   16  C26 UNL     1      -0.284  52.647 -23.290  1.00  0.00     0.048 C 
HETATM   17  C27 UNL     1       0.470  52.574 -24.630  1.00  0.00     0.086 C 
HETATM   18  C28 UNL     1      -0.027  53.529 -25.711  1.00  0.00     0.155 C 
HETATM   19  O7  UNL     1       0.118  54.746 -25.595  1.00  0.00    -0.293 OA
ENDROOT
BRANCH  14  20
HETATM   20  O3  UNL     1      -1.707  51.505 -21.614  1.00  0.00    -0.306 OA
BRANCH  20  21
HETATM   21  C18 UNL     1      -0.662  51.454 -20.740  1.00  0.00     0.289 C 
HETATM   22  O4  UNL     1       0.223  52.292 -20.640  1.00  0.00    -0.262 OA
BRANCH  21  23
HETATM   23  C19 UNL     1      -0.739  50.168 -19.909  1.00  0.00     0.231 C 
BRANCH  23  24
HETATM   24  C20 UNL     1      -0.920  50.523 -18.429  1.00  0.00     0.038 C 
HETATM   25  C21 UNL     1      -0.324  49.465 -17.509  1.00  0.00     0.008 C 
ENDBRANCH  23  24
BRANCH  23  26
HETATM   26  O5  UNL     1      -1.872  49.380 -20.310  1.00  0.00    -0.306 OA
BRANCH  26  27
HETATM   27  C22 UNL     1      -1.602  48.058 -20.500  1.00  0.00     0.259 C 
HETATM   28  O6  UNL     1      -0.563  47.624 -20.975  1.00  0.00    -0.265 OA
BRANCH  27  29
HETATM   29  C23 UNL     1      -2.766  47.232 -20.012  1.00  0.00     0.111 C 
BRANCH  29  30
HETATM   30  C24 UNL     1      -3.933  47.188 -20.998  1.00  0.00     0.005 C 
HETATM   31  C25 UNL     1      -4.653  45.846 -20.992  1.00  0.00     0.005 C 
ENDBRANCH  29  30
ENDBRANCH  27  29
ENDBRANCH  26  27
ENDBRANCH  23  26
ENDBRANCH  21  23
ENDBRANCH  20  21
ENDBRANCH  14  20
BRANCH   8  32
HETATM   32  C8  UNL     1      -5.401  50.937 -21.987  1.00  0.00     0.010 C 
HETATM   33  C9  UNL     1      -6.564  50.049 -21.522  1.00  0.00     0.012 C 
BRANCH  32  34
HETATM   34  C10 UNL     1      -4.584  51.411 -20.770  1.00  0.00     0.168 C 
BRANCH  34  35
HETATM   35  O2  UNL     1      -4.496  50.411 -19.766  1.00  0.00    -0.400 OA
HETATM   36  H15 UNL     1      -3.998  50.796 -19.023  1.00  0.00     0.209 HD
ENDBRANCH  34  35
ENDBRANCH  32  34
ENDBRANCH   8  32
TORSDOF 11
ENDMDL
MODEL 6
REMARK minimizedAffinity -8.02260113
REMARK  11 active torsions:
REMARK  status: ('A' for Active; 'I' for Inactive)
REMARK    1  A    between atoms: C7_8  and  C8_9 
REMARK    2  A    between atoms: C8_9  and  C10_11 
REMARK    3  A    between atoms: C10_11  and  O2_12 
REMARK    4  A    between atoms: C16_18  and  O3_20 
REMARK    5  A    between atoms: O3_20  and  C18_21 
REMARK    6  A    between atoms: C18_21  and  C19_23 
REMARK    7  A    between atoms: C19_23  and  C20_24 
REMARK    8  A    between atoms: C19_23  and  O5_26 
REMARK    9  A    between atoms: O5_26  and  C22_27 
REMARK   10  A    between atoms: C22_27  and  C23_29 
REMARK   11  A    between atoms: C23_29  and  C24_30 
ROOT
HETATM    1  C1  UNL     1      -5.444  45.498 -21.249  1.00  0.00     0.022 C 
HETATM    2  C2  UNL     1      -4.838  46.698 -21.250  1.00  0.00    -0.019 C 
HETATM    3  C3  UNL     1      -5.124  47.779 -22.268  1.00  0.00     0.074 C 
HETATM    4  C4  UNL     1      -3.912  48.154 -23.135  1.00  0.00     0.135 C 
HETATM    5  O1  UNL     1      -2.750  48.159 -22.289  1.00  0.00    -0.376 OA
HETATM    6  C5  UNL     1      -2.136  49.447 -22.256  1.00  0.00     0.162 C 
HETATM    7  C6  UNL     1      -2.482  50.027 -23.631  1.00  0.00     0.033 C 
HETATM    8  C7  UNL     1      -2.180  51.517 -23.901  1.00  0.00    -0.001 C 
HETATM    9  C11 UNL     1      -3.152  52.023 -24.972  1.00  0.00     0.010 C 
HETATM   10  C12 UNL     1      -4.595  51.913 -24.475  1.00  0.00     0.034 C 
HETATM   11  C13 UNL     1      -4.990  50.530 -23.987  1.00  0.00    -0.082 C 
HETATM   12  C14 UNL     1      -6.298  50.336 -23.734  1.00  0.00     0.015 C 
HETATM   13  C15 UNL     1      -3.892  49.476 -23.962  1.00  0.00     0.050 C 
HETATM   14  C16 UNL     1      -2.470  50.154 -20.895  1.00  0.00     0.094 C 
HETATM   15  C17 UNL     1      -3.766  50.985 -20.878  1.00  0.00     0.049 C 
HETATM   16  C26 UNL     1      -2.518  49.140 -19.691  1.00  0.00     0.048 C 
HETATM   17  C27 UNL     1      -3.801  48.316 -19.480  1.00  0.00     0.086 C 
HETATM   18  C28 UNL     1      -3.820  46.952 -20.162  1.00  0.00     0.155 C 
HETATM   19  O7  UNL     1      -3.073  46.048 -19.788  1.00  0.00    -0.293 OA
ENDROOT
BRANCH  14  20
HETATM   20  O3  UNL     1      -1.460  51.189 -20.600  1.00  0.00    -0.306 OA
BRANCH  20  21
HETATM   21  C18 UNL     1      -1.393  51.806 -19.387  1.00  0.00     0.289 C 
HETATM   22  O4  UNL     1      -2.346  52.061 -18.664  1.00  0.00    -0.262 OA
BRANCH  21  23
HETATM   23  C19 UNL     1       0.062  52.166 -19.064  1.00  0.00     0.231 C 
BRANCH  23  24
HETATM   24  C20 UNL     1       0.413  53.511 -19.710  1.00  0.00     0.038 C 
HETATM   25  C21 UNL     1       1.423  53.357 -20.840  1.00  0.00     0.008 C 
ENDBRANCH  23  24
BRANCH  23  26
HETATM   26  O5  UNL     1       0.240  52.305 -17.644  1.00  0.00    -0.306 OA
BRANCH  26  27
HETATM   27  C22 UNL     1       0.761  51.206 -17.029  1.00  0.00     0.259 C 
HETATM   28  O6  UNL     1       0.385  50.060 -17.224  1.00  0.00    -0.265 OA
BRANCH  27  29
HETATM   29  C23 UNL     1       1.877  51.628 -16.106  1.00  0.00     0.111 C 
BRANCH  29  30
HETATM   30  C24 UNL     1       2.872  52.588 -16.759  1.00  0.00     0.005 C 
HETATM   31  C25 UNL     1       4.102  52.832 -15.895  1.00  0.00     0.005 C 
ENDBRANCH  29  30
ENDBRANCH  27  29
ENDBRANCH  26  27
ENDBRANCH  23  26
ENDBRANCH  21  23
ENDBRANCH  20  21
ENDBRANCH  14  20
BRANCH   8  32
HETATM   32  C8  UNL     1      -0.670  51.748 -24.229  1.00  0.00     0.010 C 
HETATM   33  C9  UNL     1      -0.187  51.009 -25.484  1.00  0.00     0.012 C 
BRANCH  32  34
HETATM   34  C10 UNL     1      -0.310  53.243 -24.329  1.00  0.00     0.168 C 
BRANCH  34  35
HETATM   35  O2  UNL     1       1.051  53.440 -24.680  1.00  0.00    -0.400 OA
HETATM   36  H15 UNL     1       1.207  54.401 -24.690  1.00  0.00     0.209 HD
ENDBRANCH  34  35
ENDBRANCH  32  34
ENDBRANCH   8  32
TORSDOF 11
ENDMDL
MODEL 7
REMARK minimizedAffinity -7.88011551
REMARK  11 active torsions:
REMARK  status: ('A' for Active; 'I' for Inactive)
REMARK    1  A    between atoms: C7_8  and  C8_9 
REMARK    2  A    between atoms: C8_9  and  C10_11 
REMARK    3  A    between atoms: C10_11  and  O2_12 
REMARK    4  A    between atoms: C16_18  and  O3_20 
REMARK    5  A    between atoms: O3_20  and  C18_21 
REMARK    6  A    between atoms: C18_21  and  C19_23 
REMARK    7  A    between atoms: C19_23  and  C20_24 
REMARK    8  A    between atoms: C19_23  and  O5_26 
REMARK    9  A    between atoms: O5_26  and  C22_27 
REMARK   10  A    between atoms: C22_27  and  C23_29 
REMARK   11  A    between atoms: C23_29  and  C24_30 
ROOT
HETATM    1  C1  UNL     1      -2.130  48.594 -18.730  1.00  0.00     0.022 C 
HETATM    2  C2  UNL     1      -2.515  49.023 -19.945  1.00  0.00    -0.019 C 
HETATM    3  C3  UNL     1      -3.932  48.913 -20.460  1.00  0.00     0.074 C 
HETATM    4  C4  UNL     1      -4.075  48.024 -21.705  1.00  0.00     0.135 C 
HETATM    5  O1  UNL     1      -2.946  48.277 -22.558  1.00  0.00    -0.376 OA
HETATM    6  C5  UNL     1      -3.357  48.776 -23.831  1.00  0.00     0.162 C 
HETATM    7  C6  UNL     1      -4.740  48.145 -24.016  1.00  0.00     0.033 C 
HETATM    8  C7  UNL     1      -5.619  48.627 -25.190  1.00  0.00    -0.001 C 
HETATM    9  C11 UNL     1      -7.089  48.408 -24.818  1.00  0.00     0.010 C 
HETATM   10  C12 UNL     1      -7.453  49.233 -23.582  1.00  0.00     0.034 C 
HETATM   11  C13 UNL     1      -6.546  49.008 -22.385  1.00  0.00    -0.082 C 
HETATM   12  C14 UNL     1      -6.946  49.554 -21.220  1.00  0.00     0.015 C 
HETATM   13  C15 UNL     1      -5.354  48.085 -22.596  1.00  0.00     0.050 C 
HETATM   14  C16 UNL     1      -3.078  50.320 -23.904  1.00  0.00     0.094 C 
HETATM   15  C17 UNL     1      -4.215  51.225 -23.398  1.00  0.00     0.049 C 
HETATM   16  C26 UNL     1      -1.754  50.724 -23.155  1.00  0.00     0.048 C 
HETATM   17  C27 UNL     1      -1.802  50.892 -21.625  1.00  0.00     0.086 C 
HETATM   18  C28 UNL     1      -1.451  49.645 -20.820  1.00  0.00     0.155 C 
HETATM   19  O7  UNL     1      -0.307  49.192 -20.822  1.00  0.00    -0.293 OA
ENDROOT
BRANCH  14  20
HETATM   20  O3  UNL     1      -2.973  50.749 -25.312  1.00  0.00    -0.306 OA
BRANCH  20  21
HETATM   21  C18 UNL     1      -2.630  52.023 -25.654  1.00  0.00     0.289 C 
HETATM   22  O4  UNL     1      -3.400  52.969 -25.739  1.00  0.00    -0.262 OA
BRANCH  21  23
HETATM   23  C19 UNL     1      -1.128  52.099 -25.949  1.00  0.00     0.231 C 
BRANCH  23  24
HETATM   24  C20 UNL     1      -0.903  52.117 -27.465  1.00  0.00     0.038 C 
HETATM   25  C21 UNL     1      -0.779  53.535 -28.008  1.00  0.00     0.008 C 
ENDBRANCH  23  24
BRANCH  23  26
HETATM   26  O5  UNL     1      -0.572  53.311 -25.412  1.00  0.00    -0.306 OA
BRANCH  26  27
HETATM   27  C22 UNL     1       0.694  53.184 -24.922  1.00  0.00     0.259 C 
HETATM   28  O6  UNL     1       1.570  52.503 -25.434  1.00  0.00    -0.265 OA
BRANCH  27  29
HETATM   29  C23 UNL     1       0.839  54.030 -23.682  1.00  0.00     0.111 C 
BRANCH  29  30
HETATM   30  C24 UNL     1       0.870  53.211 -22.392  1.00  0.00     0.005 C 
HETATM   31  C25 UNL     1       1.492  53.975 -21.230  1.00  0.00     0.005 C 
ENDBRANCH  29  30
ENDBRANCH  27  29
ENDBRANCH  26  27
ENDBRANCH  23  26
ENDBRANCH  21  23
ENDBRANCH  20  21
ENDBRANCH  14  20
BRANCH   8  32
HETATM   32  C8  UNL     1      -5.184  47.974 -26.542  1.00  0.00     0.010 C 
HETATM   33  C9  UNL     1      -6.359  47.597 -27.455  1.00  0.00     0.012 C 
BRANCH  32  34
HETATM   34  C10 UNL     1      -4.174  48.840 -27.319  1.00  0.00     0.168 C 
BRANCH  34  35
HETATM   35  O2  UNL     1      -3.745  48.212 -28.517  1.00  0.00    -0.400 OA
HETATM   36  H15 UNL     1      -3.089  48.801 -28.929  1.00  0.00     0.209 HD
ENDBRANCH  34  35
ENDBRANCH  32  34
ENDBRANCH   8  32
TORSDOF 11
ENDMDL
MODEL 8
REMARK minimizedAffinity -7.52247095
REMARK  11 active torsions:
REMARK  status: ('A' for Active; 'I' for Inactive)
REMARK    1  A    between atoms: C7_8  and  C8_9 
REMARK    2  A    between atoms: C8_9  and  C10_11 
REMARK    3  A    between atoms: C10_11  and  O2_12 
REMARK    4  A    between atoms: C16_18  and  O3_20 
REMARK    5  A    between atoms: O3_20  and  C18_21 
REMARK    6  A    between atoms: C18_21  and  C19_23 
REMARK    7  A    between atoms: C19_23  and  C20_24 
REMARK    8  A    between atoms: C19_23  and  O5_26 
REMARK    9  A    between atoms: O5_26  and  C22_27 
REMARK   10  A    between atoms: C22_27  and  C23_29 
REMARK   11  A    between atoms: C23_29  and  C24_30 
ROOT
HETATM    1  C1  UNL     1       0.447  53.452 -24.619  1.00  0.00     0.022 C 
HETATM    2  C2  UNL     1      -0.036  52.593 -23.704  1.00  0.00    -0.019 C 
HETATM    3  C3  UNL     1      -1.068  51.532 -24.014  1.00  0.00     0.074 C 
HETATM    4  C4  UNL     1      -2.389  51.707 -23.250  1.00  0.00     0.135 C 
HETATM    5  O1  UNL     1      -2.072  52.127 -21.912  1.00  0.00    -0.376 OA
HETATM    6  C5  UNL     1      -2.545  51.189 -20.947  1.00  0.00     0.162 C 
HETATM    7  C6  UNL     1      -3.771  50.579 -21.633  1.00  0.00     0.033 C 
HETATM    8  C7  UNL     1      -4.439  49.345 -20.989  1.00  0.00    -0.001 C 
HETATM    9  C11 UNL     1      -5.138  48.541 -22.091  1.00  0.00     0.010 C 
HETATM   10  C12 UNL     1      -4.116  48.048 -23.118  1.00  0.00     0.034 C 
HETATM   11  C13 UNL     1      -3.239  49.138 -23.708  1.00  0.00    -0.082 C 
HETATM   12  C14 UNL     1      -2.471  48.785 -24.756  1.00  0.00     0.015 C 
HETATM   13  C15 UNL     1      -3.417  50.539 -23.140  1.00  0.00     0.050 C 
HETATM   14  C16 UNL     1      -1.339  50.349 -20.395  1.00  0.00     0.094 C 
HETATM   15  C17 UNL     1      -1.001  49.073 -21.186  1.00  0.00     0.049 C 
HETATM   16  C26 UNL     1      -0.026  51.208 -20.260  1.00  0.00     0.048 C 
HETATM   17  C27 UNL     1       0.826  51.445 -21.521  1.00  0.00     0.086 C 
HETATM   18  C28 UNL     1       0.503  52.717 -22.297  1.00  0.00     0.155 C 
HETATM   19  O7  UNL     1       0.742  53.827 -21.820  1.00  0.00    -0.293 OA
ENDROOT
BRANCH  14  20
HETATM   20  O3  UNL     1      -1.674  49.789 -19.072  1.00  0.00    -0.306 OA
BRANCH  20  21
HETATM   21  C18 UNL     1      -1.817  50.578 -17.970  1.00  0.00     0.289 C 
HETATM   22  O4  UNL     1      -2.529  51.569 -17.893  1.00  0.00    -0.262 OA
BRANCH  21  23
HETATM   23  C19 UNL     1      -0.927  50.059 -16.836  1.00  0.00     0.231 C 
BRANCH  23  24
HETATM   24  C20 UNL     1      -1.064  48.536 -16.733  1.00  0.00     0.038 C 
HETATM   25  C21 UNL     1      -0.973  48.049 -15.292  1.00  0.00     0.008 C 
ENDBRANCH  23  24
BRANCH  23  26
HETATM   26  O5  UNL     1       0.453  50.354 -17.108  1.00  0.00    -0.306 OA
BRANCH  26  27
HETATM   27  C22 UNL     1       0.994  51.318 -16.310  1.00  0.00     0.259 C 
HETATM   28  O6  UNL     1       0.846  51.378 -15.099  1.00  0.00    -0.265 OA
BRANCH  27  29
HETATM   29  C23 UNL     1       1.811  52.266 -17.151  1.00  0.00     0.111 C 
BRANCH  29  30
HETATM   30  C24 UNL     1       2.904  52.987 -16.362  1.00  0.00     0.005 C 
HETATM   31  C25 UNL     1       4.181  52.165 -16.245  1.00  0.00     0.005 C 
ENDBRANCH  29  30
ENDBRANCH  27  29
ENDBRANCH  26  27
ENDBRANCH  23  26
ENDBRANCH  21  23
ENDBRANCH  20  21
ENDBRANCH  14  20
BRANCH   8  32
HETATM   32  C8  UNL     1      -5.360  49.747 -19.792  1.00  0.00     0.010 C 
HETATM   33  C9  UNL     1      -6.809  50.048 -20.197  1.00  0.00     0.012 C 
BRANCH  32  34
HETATM   34  C10 UNL     1      -5.338  48.707 -18.655  1.00  0.00     0.168 C 
BRANCH  34  35
HETATM   35  O2  UNL     1      -4.535  49.128 -17.563  1.00  0.00    -0.400 OA
HETATM   36  H15 UNL     1      -4.544  48.409 -16.907  1.00  0.00     0.209 HD
ENDBRANCH  34  35
ENDBRANCH  32  34
ENDBRANCH   8  32
TORSDOF 11
ENDMDL
MODEL 9
REMARK minimizedAffinity -7.52047968
REMARK  11 active torsions:
REMARK  status: ('A' for Active; 'I' for Inactive)
REMARK    1  A    between atoms: C7_8  and  C8_9 
REMARK    2  A    between atoms: C8_9  and  C10_11 
REMARK    3  A    between atoms: C10_11  and  O2_12 
REMARK    4  A    between atoms: C16_18  and  O3_20 
REMARK    5  A    between atoms: O3_20  and  C18_21 
REMARK    6  A    between atoms: C18_21  and  C19_23 
REMARK    7  A    between atoms: C19_23  and  C20_24 
REMARK    8  A    between atoms: C19_23  and  O5_26 
REMARK    9  A    between atoms: O5_26  and  C22_27 
REMARK   10  A    between atoms: C22_27  and  C23_29 
REMARK   11  A    between atoms: C23_29  and  C24_30 
ROOT
HETATM    1  C1  UNL     1      -4.414  47.125 -17.484  1.00  0.00     0.022 C 
HETATM    2  C2  UNL     1      -4.224  47.848 -18.602  1.00  0.00    -0.019 C 
HETATM    3  C3  UNL     1      -5.224  47.916 -19.735  1.00  0.00     0.074 C 
HETATM    4  C4  UNL     1      -4.696  47.359 -21.066  1.00  0.00     0.135 C 
HETATM    5  O1  UNL     1      -3.325  47.771 -21.202  1.00  0.00    -0.376 OA
HETATM    6  C5  UNL     1      -3.137  48.577 -22.365  1.00  0.00     0.162 C 
HETATM    7  C6  UNL     1      -4.216  48.058 -23.320  1.00  0.00     0.033 C 
HETATM    8  C7  UNL     1      -4.485  48.839 -24.624  1.00  0.00    -0.001 C 
HETATM    9  C11 UNL     1      -5.936  48.588 -25.050  1.00  0.00     0.010 C 
HETATM   10  C12 UNL     1      -6.901  49.102 -23.980  1.00  0.00     0.034 C 
HETATM   11  C13 UNL     1      -6.639  48.563 -22.585  1.00  0.00    -0.082 C 
HETATM   12  C14 UNL     1      -7.580  48.825 -21.657  1.00  0.00     0.015 C 
HETATM   13  C15 UNL     1      -5.414  47.677 -22.413  1.00  0.00     0.050 C 
HETATM   14  C16 UNL     1      -2.988  50.082 -21.943  1.00  0.00     0.094 C 
HETATM   15  C17 UNL     1      -4.301  50.877 -21.840  1.00  0.00     0.049 C 
HETATM   16  C26 UNL     1      -2.203  50.246 -20.587  1.00  0.00     0.048 C 
HETATM   17  C27 UNL     1      -2.972  50.042 -19.269  1.00  0.00     0.086 C 
HETATM   18  C28 UNL     1      -2.932  48.626 -18.704  1.00  0.00     0.155 C 
HETATM   19  O7  UNL     1      -1.885  48.147 -18.270  1.00  0.00    -0.293 OA
ENDROOT
BRANCH  14  20
HETATM   20  O3  UNL     1      -2.276  50.835 -22.993  1.00  0.00    -0.306 OA
BRANCH  20  21
HETATM   21  C18 UNL     1      -2.577  52.132 -23.281  1.00  0.00     0.289 C 
HETATM   22  O4  UNL     1      -3.704  52.595 -23.385  1.00  0.00    -0.262 OA
BRANCH  21  23
HETATM   23  C19 UNL     1      -1.288  52.934 -23.487  1.00  0.00     0.231 C 
BRANCH  23  24
HETATM   24  C20 UNL     1      -0.105  52.168 -22.884  1.00  0.00     0.038 C 
HETATM   25  C21 UNL     1       0.373  52.789 -21.578  1.00  0.00     0.008 C 
ENDBRANCH  23  24
BRANCH  23  26
HETATM   26  O5  UNL     1      -1.024  53.108 -24.890  1.00  0.00    -0.306 OA
BRANCH  26  27
HETATM   27  C22 UNL     1       0.297  53.209 -25.209  1.00  0.00     0.259 C 
HETATM   28  O6  UNL     1       0.981  54.203 -25.017  1.00  0.00    -0.265 OA
BRANCH  27  29
HETATM   29  C23 UNL     1       0.772  51.907 -25.802  1.00  0.00     0.111 C 
BRANCH  29  30
HETATM   30  C24 UNL     1       1.404  52.067 -27.185  1.00  0.00     0.005 C 
HETATM   31  C25 UNL     1       0.368  52.095 -28.301  1.00  0.00     0.005 C 
ENDBRANCH  29  30
ENDBRANCH  27  29
ENDBRANCH  26  27
ENDBRANCH  23  26
ENDBRANCH  21  23
ENDBRANCH  20  21
ENDBRANCH  14  20
BRANCH   8  32
HETATM   32  C8  UNL     1      -3.418  48.517 -25.719  1.00  0.00     0.010 C 
HETATM   33  C9  UNL     1      -4.019  48.193 -27.094  1.00  0.00     0.012 C 
BRANCH  32  34
HETATM   34  C10 UNL     1      -2.360  49.629 -25.858  1.00  0.00     0.168 C 
BRANCH  34  35
HETATM   35  O2  UNL     1      -2.436  50.281 -27.117  1.00  0.00    -0.400 OA
HETATM   36  H15 UNL     1      -1.721  50.941 -27.140  1.00  0.00     0.209 HD
ENDBRANCH  34  35
ENDBRANCH  32  34
ENDBRANCH   8  32
TORSDOF 11
ENDMDL
