MODEL 1
REMARK minimizedAffinity -6.54909945
REMARK CNNscore 0.790054023
REMARK CNNaffinity 6.83951378
REMARK  5 active torsions:
REMARK  status: ('A' for Active; 'I' for Inactive)
REMARK    1  A    between atoms: C2_2  and  C3_3 
REMARK    2  A    between atoms: C2_2  and  C25_27 
REMARK    3  A    between atoms: C3_3  and  C4_4 
REMARK    4  A    between atoms: C4_4  and  C5_5 
REMARK    5  A    between atoms: C15_15  and  O1_16 
ROOT
HETATM    1  C5  UNL     1       3.642  55.857  -7.760  1.00  0.00    -0.023 C 
HETATM    2  C6  UNL     1       2.374  55.750  -8.200  1.00  0.00    -0.075 C 
HETATM    3  C7  UNL     1       1.234  56.618  -7.747  1.00  0.00     0.035 C 
HETATM    4  C8  UNL     1      -0.003  55.920  -8.297  1.00  0.00     0.013 C 
HETATM    5  C9  UNL     1       0.475  55.286  -9.611  1.00  0.00     0.033 C 
HETATM    6  C10 UNL     1      -0.498  54.260 -10.240  1.00  0.00     0.070 C 
HETATM    7  C11 UNL     1      -1.945  54.817 -10.365  1.00  0.00     0.039 C 
HETATM    8  C12 UNL     1      -3.019  53.751 -10.155  1.00  0.00     0.009 C 
HETATM    9  C13 UNL     1      -2.693  52.422 -10.851  1.00  0.00    -0.001 C 
HETATM   10  C14 UNL     1      -3.615  51.307 -10.316  1.00  0.00     0.037 C 
HETATM   11  C15 UNL     1      -2.990  50.556  -9.146  1.00  0.00     0.118 C 
HETATM   12  C16 UNL     1      -1.682  49.872  -9.545  1.00  0.00     0.032 C 
HETATM   13  C17 UNL     1      -0.991  50.536 -10.739  1.00  0.00     0.015 C 
HETATM   14  C18 UNL     1      -1.166  52.062 -10.767  1.00  0.00    -0.009 C 
HETATM   15  C19 UNL     1      -0.446  52.680 -11.983  1.00  0.00     0.179 C 
HETATM   16  O2  UNL     1      -0.080  54.022 -11.615  1.00  0.00    -0.379 OA
HETATM   17  C20 UNL     1      -0.473  52.848  -9.627  1.00  0.00     0.032 C 
HETATM   18  C21 UNL     1       0.952  52.348  -9.324  1.00  0.00     0.009 C 
HETATM   19  C22 UNL     1       1.757  53.355  -8.519  1.00  0.00     0.014 C 
HETATM   20  C23 UNL     1       1.874  54.723  -9.223  1.00  0.00    -0.014 C 
HETATM   21  C24 UNL     1       2.801  54.644 -10.449  1.00  0.00     0.020 C 
ENDROOT
BRANCH   1  22
HETATM   22  C4  UNL     1       4.163  56.873  -6.775  1.00  0.00     0.031 C 
BRANCH  22  23
HETATM   23  C3  UNL     1       5.314  56.286  -5.940  1.00  0.00     0.037 C 
BRANCH  23  24
HETATM   24  C2  UNL     1       6.649  56.072  -6.643  1.00  0.00    -0.086 C 
HETATM   25  C1  UNL     1       6.767  55.595  -7.896  1.00  0.00     0.014 C 
BRANCH  24  26
HETATM   26  C25 UNL     1       7.911  56.419  -5.852  1.00  0.00     0.005 C 
HETATM   27  C26 UNL     1       7.685  57.588  -4.889  1.00  0.00     0.014 C 
HETATM   28  C27 UNL     1       8.486  55.210  -5.109  1.00  0.00     0.014 C 
ENDBRANCH  24  26
ENDBRANCH  23  24
ENDBRANCH  22  23
ENDBRANCH   1  22
BRANCH  11  29
HETATM   29  O1  UNL     1      -3.909  49.592  -8.644  1.00  0.00    -0.396 OA
HETATM   30  H21 UNL     1      -4.067  48.932  -9.341  1.00  0.00     0.210 HD
ENDBRANCH  11  29
TORSDOF 5
ENDMDL
MODEL 2
REMARK minimizedAffinity -7.00317812
REMARK CNNscore 0.739919722
REMARK CNNaffinity 7.0230279
REMARK  5 active torsions:
REMARK  status: ('A' for Active; 'I' for Inactive)
REMARK    1  A    between atoms: C2_2  and  C3_3 
REMARK    2  A    between atoms: C2_2  and  C25_27 
REMARK    3  A    between atoms: C3_3  and  C4_4 
REMARK    4  A    between atoms: C4_4  and  C5_5 
REMARK    5  A    between atoms: C15_15  and  O1_16 
ROOT
HETATM    1  C5  UNL     1      -1.904  52.639  -9.143  1.00  0.00    -0.023 C 
HETATM    2  C6  UNL     1      -0.570  52.638  -9.326  1.00  0.00    -0.075 C 
HETATM    3  C7  UNL     1       0.288  51.405  -9.371  1.00  0.00     0.035 C 
HETATM    4  C8  UNL     1       1.712  51.942  -9.300  1.00  0.00     0.013 C 
HETATM    5  C9  UNL     1       1.642  53.291 -10.030  1.00  0.00     0.033 C 
HETATM    6  C10 UNL     1       2.882  54.200  -9.855  1.00  0.00     0.070 C 
HETATM    7  C11 UNL     1       4.211  53.453 -10.157  1.00  0.00     0.039 C 
HETATM    8  C12 UNL     1       5.371  53.907  -9.272  1.00  0.00     0.009 C 
HETATM    9  C13 UNL     1       5.425  55.430  -9.085  1.00  0.00    -0.001 C 
HETATM   10  C14 UNL     1       6.374  55.785  -7.922  1.00  0.00     0.037 C 
HETATM   11  C15 UNL     1       5.637  55.901  -6.592  1.00  0.00     0.118 C 
HETATM   12  C16 UNL     1       4.577  57.002  -6.626  1.00  0.00     0.032 C 
HETATM   13  C17 UNL     1       4.067  57.308  -8.037  1.00  0.00     0.015 C 
HETATM   14  C18 UNL     1       3.995  56.065  -8.937  1.00  0.00    -0.009 C 
HETATM   15  C19 UNL     1       3.469  56.427 -10.341  1.00  0.00     0.179 C 
HETATM   16  O2  UNL     1       2.820  55.252 -10.860  1.00  0.00    -0.379 OA
HETATM   17  C20 UNL     1       2.951  54.993  -8.536  1.00  0.00     0.032 C 
HETATM   18  C21 UNL     1       1.594  55.593  -8.122  1.00  0.00     0.009 C 
HETATM   19  C22 UNL     1       0.480  54.558  -8.130  1.00  0.00     0.014 C 
HETATM   20  C23 UNL     1       0.301  53.887  -9.508  1.00  0.00    -0.014 C 
HETATM   21  C24 UNL     1      -0.309  54.863 -10.530  1.00  0.00     0.020 C 
ENDROOT
BRANCH   1  22
HETATM   22  C4  UNL     1      -2.784  51.426  -8.987  1.00  0.00     0.031 C 
BRANCH  22  23
HETATM   23  C3  UNL     1      -3.497  51.093 -10.309  1.00  0.00     0.037 C 
BRANCH  23  24
HETATM   24  C2  UNL     1      -3.526  52.178 -11.380  1.00  0.00    -0.086 C 
HETATM   25  C1  UNL     1      -4.033  53.410 -11.184  1.00  0.00     0.014 C 
BRANCH  24  26
HETATM   26  C25 UNL     1      -2.947  51.816 -12.748  1.00  0.00     0.005 C 
HETATM   27  C26 UNL     1      -1.462  52.169 -12.858  1.00  0.00     0.014 C 
HETATM   28  C27 UNL     1      -3.182  50.346 -13.110  1.00  0.00     0.014 C 
ENDBRANCH  24  26
ENDBRANCH  23  24
ENDBRANCH  22  23
ENDBRANCH   1  22
BRANCH  11  29
HETATM   29  O1  UNL     1       6.568  56.154  -5.545  1.00  0.00    -0.396 OA
HETATM   30  H21 UNL     1       6.978  57.020  -5.708  1.00  0.00     0.210 HD
ENDBRANCH  11  29
TORSDOF 5
ENDMDL
MODEL 3
REMARK minimizedAffinity -7.20504856
REMARK CNNscore 0.718951166
REMARK CNNaffinity 6.78290987
REMARK  5 active torsions:
REMARK  status: ('A' for Active; 'I' for Inactive)
REMARK    1  A    between atoms: C2_2  and  C3_3 
REMARK    2  A    between atoms: C2_2  and  C25_27 
REMARK    3  A    between atoms: C3_3  and  C4_4 
REMARK    4  A    between atoms: C4_4  and  C5_5 
REMARK    5  A    between atoms: C15_15  and  O1_16 
ROOT
HETATM    1  C5  UNL     1       2.045  55.395  -8.615  1.00  0.00    -0.023 C 
HETATM    2  C6  UNL     1       0.820  55.130  -9.106  1.00  0.00    -0.075 C 
HETATM    3  C7  UNL     1      -0.388  56.003  -8.912  1.00  0.00     0.035 C 
HETATM    4  C8  UNL     1      -1.548  55.140  -9.391  1.00  0.00     0.013 C 
HETATM    5  C9  UNL     1      -0.945  54.289 -10.517  1.00  0.00     0.033 C 
HETATM    6  C10 UNL     1      -1.823  53.105 -10.990  1.00  0.00     0.070 C 
HETATM    7  C11 UNL     1      -3.279  53.542 -11.318  1.00  0.00     0.039 C 
HETATM    8  C12 UNL     1      -4.319  52.478 -10.969  1.00  0.00     0.009 C 
HETATM    9  C13 UNL     1      -3.884  51.059 -11.362  1.00  0.00    -0.001 C 
HETATM   10  C14 UNL     1      -4.793  50.020 -10.676  1.00  0.00     0.037 C 
HETATM   11  C15 UNL     1      -4.226  49.551  -9.341  1.00  0.00     0.118 C 
HETATM   12  C16 UNL     1      -2.863  48.878  -9.509  1.00  0.00     0.032 C 
HETATM   13  C17 UNL     1      -2.114  49.333 -10.764  1.00  0.00     0.015 C 
HETATM   14  C18 UNL     1      -2.353  50.811 -11.109  1.00  0.00    -0.009 C 
HETATM   15  C19 UNL     1      -1.571  51.219 -12.374  1.00  0.00     0.179 C 
HETATM   16  O2  UNL     1      -1.293  52.626 -12.259  1.00  0.00    -0.379 OA
HETATM   17  C20 UNL     1      -1.783  51.845 -10.106  1.00  0.00     0.032 C 
HETATM   18  C21 UNL     1      -0.364  51.497  -9.617  1.00  0.00     0.009 C 
HETATM   19  C22 UNL     1       0.334  52.688  -8.979  1.00  0.00     0.014 C 
HETATM   20  C23 UNL     1       0.444  53.895  -9.934  1.00  0.00    -0.014 C 
HETATM   21  C24 UNL     1       1.463  53.630 -11.056  1.00  0.00     0.020 C 
ENDROOT
BRANCH   1  22
HETATM   22  C4  UNL     1       2.446  56.612  -7.822  1.00  0.00     0.031 C 
BRANCH  22  23
HETATM   23  C3  UNL     1       3.758  57.209  -8.360  1.00  0.00     0.037 C 
BRANCH  23  24
HETATM   24  C2  UNL     1       5.057  56.725  -7.727  1.00  0.00    -0.086 C 
HETATM   25  C1  UNL     1       5.680  57.361  -6.717  1.00  0.00     0.014 C 
BRANCH  24  26
HETATM   26  C25 UNL     1       5.670  55.445  -8.297  1.00  0.00     0.005 C 
HETATM   27  C26 UNL     1       5.490  55.346  -9.814  1.00  0.00     0.014 C 
HETATM   28  C27 UNL     1       7.145  55.285  -7.915  1.00  0.00     0.014 C 
ENDBRANCH  24  26
ENDBRANCH  23  24
ENDBRANCH  22  23
ENDBRANCH   1  22
BRANCH  11  29
HETATM   29  O1  UNL     1      -5.138  48.654  -8.717  1.00  0.00    -0.396 OA
HETATM   30  H21 UNL     1      -5.214  47.862  -9.276  1.00  0.00     0.210 HD
ENDBRANCH  11  29
TORSDOF 5
ENDMDL
MODEL 4
REMARK minimizedAffinity -7.16581011
REMARK CNNscore 0.707494438
REMARK CNNaffinity 6.77762079
REMARK  5 active torsions:
REMARK  status: ('A' for Active; 'I' for Inactive)
REMARK    1  A    between atoms: C2_2  and  C3_3 
REMARK    2  A    between atoms: C2_2  and  C25_27 
REMARK    3  A    between atoms: C3_3  and  C4_4 
REMARK    4  A    between atoms: C4_4  and  C5_5 
REMARK    5  A    between atoms: C15_15  and  O1_16 
ROOT
HETATM    1  C5  UNL     1       1.227  55.638  -8.737  1.00  0.00    -0.023 C 
HETATM    2  C6  UNL     1       0.370  54.599  -8.724  1.00  0.00    -0.075 C 
HETATM    3  C7  UNL     1       0.325  53.538  -7.661  1.00  0.00     0.035 C 
HETATM    4  C8  UNL     1      -0.584  52.466  -8.248  1.00  0.00     0.013 C 
HETATM    5  C9  UNL     1      -1.593  53.251  -9.097  1.00  0.00     0.033 C 
HETATM    6  C10 UNL     1      -2.460  52.393 -10.051  1.00  0.00     0.070 C 
HETATM    7  C11 UNL     1      -3.131  51.195  -9.323  1.00  0.00     0.039 C 
HETATM    8  C12 UNL     1      -3.250  49.949 -10.200  1.00  0.00     0.009 C 
HETATM    9  C13 UNL     1      -3.692  50.263 -11.636  1.00  0.00    -0.001 C 
HETATM   10  C14 UNL     1      -3.449  49.039 -12.542  1.00  0.00     0.037 C 
HETATM   11  C15 UNL     1      -2.086  49.087 -13.222  1.00  0.00     0.118 C 
HETATM   12  C16 UNL     1      -1.943  50.315 -14.120  1.00  0.00     0.032 C 
HETATM   13  C17 UNL     1      -2.851  51.476 -13.707  1.00  0.00     0.015 C 
HETATM   14  C18 UNL     1      -3.043  51.583 -12.187  1.00  0.00    -0.009 C 
HETATM   15  C19 UNL     1      -3.958  52.771 -11.826  1.00  0.00     0.179 C 
HETATM   16  O2  UNL     1      -3.574  53.211 -10.511  1.00  0.00    -0.379 OA
HETATM   17  C20 UNL     1      -1.785  51.966 -11.367  1.00  0.00     0.032 C 
HETATM   18  C21 UNL     1      -0.959  53.093 -12.015  1.00  0.00     0.009 C 
HETATM   19  C22 UNL     1       0.012  53.732 -11.035  1.00  0.00     0.014 C 
HETATM   20  C23 UNL     1      -0.693  54.314  -9.792  1.00  0.00    -0.014 C 
HETATM   21  C24 UNL     1      -1.497  55.578 -10.146  1.00  0.00     0.020 C 
ENDROOT
BRANCH   1  22
HETATM   22  C4  UNL     1       2.262  55.953  -7.688  1.00  0.00     0.031 C 
BRANCH  22  23
HETATM   23  C3  UNL     1       3.462  56.691  -8.307  1.00  0.00     0.037 C 
BRANCH  23  24
HETATM   24  C2  UNL     1       4.425  55.870  -9.156  1.00  0.00    -0.086 C 
HETATM   25  C1  UNL     1       4.295  55.703 -10.486  1.00  0.00     0.014 C 
BRANCH  24  26
HETATM   26  C25 UNL     1       5.592  55.200  -8.429  1.00  0.00     0.005 C 
HETATM   27  C26 UNL     1       6.684  54.736  -9.396  1.00  0.00     0.014 C 
HETATM   28  C27 UNL     1       6.184  56.091  -7.332  1.00  0.00     0.014 C 
ENDBRANCH  24  26
ENDBRANCH  23  24
ENDBRANCH  22  23
ENDBRANCH   1  22
BRANCH  11  29
HETATM   29  O1  UNL     1      -1.883  47.901 -13.983  1.00  0.00    -0.396 OA
HETATM   30  H21 UNL     1      -2.544  47.882 -14.696  1.00  0.00     0.210 HD
ENDBRANCH  11  29
TORSDOF 5
ENDMDL
MODEL 5
REMARK minimizedAffinity -6.66800642
REMARK CNNscore 0.637208164
REMARK CNNaffinity 6.82899046
REMARK  5 active torsions:
REMARK  status: ('A' for Active; 'I' for Inactive)
REMARK    1  A    between atoms: C2_2  and  C3_3 
REMARK    2  A    between atoms: C2_2  and  C25_27 
REMARK    3  A    between atoms: C3_3  and  C4_4 
REMARK    4  A    between atoms: C4_4  and  C5_5 
REMARK    5  A    between atoms: C15_15  and  O1_16 
ROOT
HETATM    1  C5  UNL     1      -2.243  53.530  -9.218  1.00  0.00    -0.023 C 
HETATM    2  C6  UNL     1      -1.054  54.060  -9.563  1.00  0.00    -0.075 C 
HETATM    3  C7  UNL     1      -0.710  54.574 -10.933  1.00  0.00     0.035 C 
HETATM    4  C8  UNL     1       0.798  54.781 -10.882  1.00  0.00     0.013 C 
HETATM    5  C9  UNL     1       1.074  55.185  -9.427  1.00  0.00     0.033 C 
HETATM    6  C10 UNL     1       2.564  55.172  -9.010  1.00  0.00     0.070 C 
HETATM    7  C11 UNL     1       3.464  55.959 -10.004  1.00  0.00     0.039 C 
HETATM    8  C12 UNL     1       4.852  55.344 -10.175  1.00  0.00     0.009 C 
HETATM    9  C13 UNL     1       5.473  54.881  -8.849  1.00  0.00    -0.001 C 
HETATM   10  C14 UNL     1       6.685  53.967  -9.125  1.00  0.00     0.037 C 
HETATM   11  C15 UNL     1       6.297  52.494  -9.165  1.00  0.00     0.118 C 
HETATM   12  C16 UNL     1       5.706  52.026  -7.835  1.00  0.00     0.032 C 
HETATM   13  C17 UNL     1       5.084  53.161  -7.017  1.00  0.00     0.015 C 
HETATM   14  C18 UNL     1       4.413  54.235  -7.886  1.00  0.00    -0.009 C 
HETATM   15  C19 UNL     1       3.797  55.348  -7.013  1.00  0.00     0.179 C 
HETATM   16  O2  UNL     1       2.691  55.896  -7.753  1.00  0.00    -0.379 OA
HETATM   17  C20 UNL     1       3.152  53.790  -8.668  1.00  0.00     0.032 C 
HETATM   18  C21 UNL     1       2.196  52.919  -7.832  1.00  0.00     0.009 C 
HETATM   19  C22 UNL     1       0.808  52.833  -8.446  1.00  0.00     0.014 C 
HETATM   20  C23 UNL     1       0.151  54.218  -8.628  1.00  0.00    -0.014 C 
HETATM   21  C24 UNL     1      -0.255  54.827  -7.275  1.00  0.00     0.020 C 
ENDROOT
BRANCH   1  22
HETATM   22  C4  UNL     1      -3.449  53.388 -10.111  1.00  0.00     0.031 C 
BRANCH  22  23
HETATM   23  C3  UNL     1      -3.311  52.159 -11.026  1.00  0.00     0.037 C 
BRANCH  23  24
HETATM   24  C2  UNL     1      -2.934  50.837 -10.369  1.00  0.00    -0.086 C 
HETATM   25  C1  UNL     1      -1.725  50.258 -10.491  1.00  0.00     0.014 C 
BRANCH  24  26
HETATM   26  C25 UNL     1      -4.014  50.145  -9.535  1.00  0.00     0.005 C 
HETATM   27  C26 UNL     1      -5.385  50.189 -10.216  1.00  0.00     0.014 C 
HETATM   28  C27 UNL     1      -3.637  48.706  -9.170  1.00  0.00     0.014 C 
ENDBRANCH  24  26
ENDBRANCH  23  24
ENDBRANCH  22  23
ENDBRANCH   1  22
BRANCH  11  29
HETATM   29  O1  UNL     1       7.434  51.704  -9.497  1.00  0.00    -0.396 OA
HETATM   30  H21 UNL     1       8.086  51.796  -8.781  1.00  0.00     0.210 HD
ENDBRANCH  11  29
TORSDOF 5
ENDMDL
MODEL 6
REMARK minimizedAffinity -8.56171989
REMARK CNNscore 0.519456267
REMARK CNNaffinity 7.0655365
REMARK  5 active torsions:
REMARK  status: ('A' for Active; 'I' for Inactive)
REMARK    1  A    between atoms: C2_2  and  C3_3 
REMARK    2  A    between atoms: C2_2  and  C25_27 
REMARK    3  A    between atoms: C3_3  and  C4_4 
REMARK    4  A    between atoms: C4_4  and  C5_5 
REMARK    5  A    between atoms: C15_15  and  O1_16 
ROOT
HETATM    1  C5  UNL     1      -1.592  50.549 -23.946  1.00  0.00    -0.023 C 
HETATM    2  C6  UNL     1      -1.052  51.009 -22.802  1.00  0.00    -0.075 C 
HETATM    3  C7  UNL     1       0.259  51.738 -22.705  1.00  0.00     0.035 C 
HETATM    4  C8  UNL     1       0.553  51.774 -21.211  1.00  0.00     0.013 C 
HETATM    5  C9  UNL     1      -0.834  51.861 -20.557  1.00  0.00     0.033 C 
HETATM    6  C10 UNL     1      -0.858  51.613 -19.029  1.00  0.00     0.070 C 
HETATM    7  C11 UNL     1       0.189  52.479 -18.273  1.00  0.00     0.039 C 
HETATM    8  C12 UNL     1       0.797  51.768 -17.064  1.00  0.00     0.009 C 
HETATM    9  C13 UNL     1      -0.240  50.997 -16.235  1.00  0.00    -0.001 C 
HETATM   10  C14 UNL     1       0.472  50.033 -15.264  1.00  0.00     0.037 C 
HETATM   11  C15 UNL     1       0.652  48.643 -15.863  1.00  0.00     0.118 C 
HETATM   12  C16 UNL     1      -0.690  47.992 -16.200  1.00  0.00     0.032 C 
HETATM   13  C17 UNL     1      -1.809  49.007 -16.447  1.00  0.00     0.015 C 
HETATM   14  C18 UNL     1      -1.320  50.292 -17.132  1.00  0.00    -0.009 C 
HETATM   15  C19 UNL     1      -2.486  51.274 -17.364  1.00  0.00     0.179 C 
HETATM   16  O2  UNL     1      -2.144  52.066 -18.516  1.00  0.00    -0.379 OA
HETATM   17  C20 UNL     1      -0.815  50.138 -18.589  1.00  0.00     0.032 C 
HETATM   18  C21 UNL     1      -1.712  49.227 -19.448  1.00  0.00     0.009 C 
HETATM   19  C22 UNL     1      -1.457  49.405 -20.936  1.00  0.00     0.014 C 
HETATM   20  C23 UNL     1      -1.670  50.859 -21.406  1.00  0.00    -0.014 C 
HETATM   21  C24 UNL     1      -3.162  51.236 -21.402  1.00  0.00     0.020 C 
ENDROOT
BRANCH   1  22
HETATM   22  C4  UNL     1      -1.018  50.706 -25.331  1.00  0.00     0.031 C 
BRANCH  22  23
HETATM   23  C3  UNL     1      -1.250  52.132 -25.862  1.00  0.00     0.037 C 
BRANCH  23  24
HETATM   24  C2  UNL     1      -0.022  53.010 -26.066  1.00  0.00    -0.086 C 
HETATM   25  C1  UNL     1       0.172  54.185 -25.437  1.00  0.00     0.014 C 
BRANCH  24  26
HETATM   26  C25 UNL     1       1.032  52.508 -27.055  1.00  0.00     0.005 C 
HETATM   27  C26 UNL     1       2.044  51.570 -26.392  1.00  0.00     0.014 C 
HETATM   28  C27 UNL     1       0.407  51.845 -28.286  1.00  0.00     0.014 C 
ENDBRANCH  24  26
ENDBRANCH  23  24
ENDBRANCH  22  23
ENDBRANCH   1  22
BRANCH  11  29
HETATM   29  O1  UNL     1       1.379  47.818 -14.959  1.00  0.00    -0.396 OA
HETATM   30  H21 UNL     1       0.844  47.703 -14.156  1.00  0.00     0.210 HD
ENDBRANCH  11  29
TORSDOF 5
ENDMDL
MODEL 7
REMARK minimizedAffinity -7.31101942
REMARK CNNscore 0.392770529
REMARK CNNaffinity 5.62277985
REMARK  5 active torsions:
REMARK  status: ('A' for Active; 'I' for Inactive)
REMARK    1  A    between atoms: C2_2  and  C3_3 
REMARK    2  A    between atoms: C2_2  and  C25_27 
REMARK    3  A    between atoms: C3_3  and  C4_4 
REMARK    4  A    between atoms: C4_4  and  C5_5 
REMARK    5  A    between atoms: C15_15  and  O1_16 
ROOT
HETATM    1  C5  UNL     1     -15.042  47.062 -25.182  1.00  0.00    -0.023 C 
HETATM    2  C6  UNL     1     -13.880  46.516 -25.587  1.00  0.00    -0.075 C 
HETATM    3  C7  UNL     1     -12.857  45.901 -24.674  1.00  0.00     0.035 C 
HETATM    4  C8  UNL     1     -11.636  45.708 -25.563  1.00  0.00     0.013 C 
HETATM    5  C9  UNL     1     -12.223  45.417 -26.951  1.00  0.00     0.033 C 
HETATM    6  C10 UNL     1     -11.210  45.472 -28.120  1.00  0.00     0.070 C 
HETATM    7  C11 UNL     1      -9.940  44.617 -27.843  1.00  0.00     0.039 C 
HETATM    8  C12 UNL     1      -8.667  45.226 -28.427  1.00  0.00     0.009 C 
HETATM    9  C13 UNL     1      -8.863  45.792 -29.841  1.00  0.00    -0.001 C 
HETATM   10  C14 UNL     1      -7.668  46.690 -30.220  1.00  0.00     0.037 C 
HETATM   11  C15 UNL     1      -7.914  48.154 -29.873  1.00  0.00     0.118 C 
HETATM   12  C16 UNL     1      -9.123  48.717 -30.621  1.00  0.00     0.032 C 
HETATM   13  C17 UNL     1     -10.134  47.644 -31.033  1.00  0.00     0.015 C 
HETATM   14  C18 UNL     1     -10.254  46.502 -30.013  1.00  0.00    -0.009 C 
HETATM   15  C19 UNL     1     -11.289  45.455 -30.471  1.00  0.00     0.179 C 
HETATM   16  O2  UNL     1     -11.823  44.845 -29.283  1.00  0.00    -0.379 OA
HETATM   17  C20 UNL     1     -10.858  46.879 -28.636  1.00  0.00     0.032 C 
HETATM   18  C21 UNL     1     -12.084  47.805 -28.745  1.00  0.00     0.009 C 
HETATM   19  C22 UNL     1     -12.899  47.835 -27.462  1.00  0.00     0.014 C 
HETATM   20  C23 UNL     1     -13.397  46.436 -27.041  1.00  0.00    -0.014 C 
HETATM   21  C24 UNL     1     -14.503  45.929 -27.982  1.00  0.00     0.020 C 
ENDROOT
BRANCH   1  22
HETATM   22  C4  UNL     1     -15.551  47.129 -23.765  1.00  0.00     0.031 C 
BRANCH  22  23
HETATM   23  C3  UNL     1     -16.599  46.033 -23.507  1.00  0.00     0.037 C 
BRANCH  23  24
HETATM   24  C2  UNL     1     -18.062  46.458 -23.477  1.00  0.00    -0.086 C 
HETATM   25  C1  UNL     1     -18.700  47.022 -24.520  1.00  0.00     0.014 C 
BRANCH  24  26
HETATM   26  C25 UNL     1     -18.823  46.227 -22.170  1.00  0.00     0.005 C 
HETATM   27  C26 UNL     1     -19.443  44.829 -22.103  1.00  0.00     0.014 C 
HETATM   28  C27 UNL     1     -17.957  46.495 -20.936  1.00  0.00     0.014 C 
ENDBRANCH  24  26
ENDBRANCH  23  24
ENDBRANCH  22  23
ENDBRANCH   1  22
BRANCH  11  29
HETATM   29  O1  UNL     1      -6.755  48.923 -30.174  1.00  0.00    -0.396 OA
HETATM   30  H21 UNL     1      -6.609  48.890 -31.134  1.00  0.00     0.210 HD
ENDBRANCH  11  29
TORSDOF 5
ENDMDL
MODEL 8
REMARK minimizedAffinity -8.55443859
REMARK CNNscore 0.380599797
REMARK CNNaffinity 6.51993322
REMARK  5 active torsions:
REMARK  status: ('A' for Active; 'I' for Inactive)
REMARK    1  A    between atoms: C2_2  and  C3_3 
REMARK    2  A    between atoms: C2_2  and  C25_27 
REMARK    3  A    between atoms: C3_3  and  C4_4 
REMARK    4  A    between atoms: C4_4  and  C5_5 
REMARK    5  A    between atoms: C15_15  and  O1_16 
ROOT
HETATM    1  C5  UNL     1      -3.142  51.966 -25.982  1.00  0.00    -0.023 C 
HETATM    2  C6  UNL     1      -3.167  50.880 -25.186  1.00  0.00    -0.075 C 
HETATM    3  C7  UNL     1      -2.677  49.515 -25.581  1.00  0.00     0.035 C 
HETATM    4  C8  UNL     1      -3.187  48.604 -24.473  1.00  0.00     0.013 C 
HETATM    5  C9  UNL     1      -3.162  49.488 -23.218  1.00  0.00     0.033 C 
HETATM    6  C10 UNL     1      -3.910  48.911 -21.991  1.00  0.00     0.070 C 
HETATM    7  C11 UNL     1      -3.486  47.450 -21.672  1.00  0.00     0.039 C 
HETATM    8  C12 UNL     1      -4.633  46.593 -21.138  1.00  0.00     0.009 C 
HETATM    9  C13 UNL     1      -5.509  47.331 -20.116  1.00  0.00    -0.001 C 
HETATM   10  C14 UNL     1      -6.824  46.556 -19.892  1.00  0.00     0.037 C 
HETATM   11  C15 UNL     1      -7.939  47.036 -20.815  1.00  0.00     0.118 C 
HETATM   12  C16 UNL     1      -8.270  48.511 -20.585  1.00  0.00     0.032 C 
HETATM   13  C17 UNL     1      -7.105  49.307 -19.991  1.00  0.00     0.015 C 
HETATM   14  C18 UNL     1      -5.732  48.839 -20.497  1.00  0.00    -0.009 C 
HETATM   15  C19 UNL     1      -4.597  49.678 -19.875  1.00  0.00     0.179 C 
HETATM   16  O2  UNL     1      -3.508  49.671 -20.816  1.00  0.00    -0.379 OA
HETATM   17  C20 UNL     1      -5.441  49.080 -21.999  1.00  0.00     0.032 C 
HETATM   18  C21 UNL     1      -5.891  50.469 -22.489  1.00  0.00     0.009 C 
HETATM   19  C22 UNL     1      -5.249  50.849 -23.814  1.00  0.00     0.014 C 
HETATM   20  C23 UNL     1      -3.707  50.845 -23.751  1.00  0.00    -0.014 C 
HETATM   21  C24 UNL     1      -3.179  52.024 -22.915  1.00  0.00     0.020 C 
ENDROOT
BRANCH   1  22
HETATM   22  C4  UNL     1      -2.593  52.031 -27.384  1.00  0.00     0.031 C 
BRANCH  22  23
HETATM   23  C3  UNL     1      -1.401  51.073 -27.552  1.00  0.00     0.037 C 
BRANCH  23  24
HETATM   24  C2  UNL     1      -0.004  51.664 -27.409  1.00  0.00    -0.086 C 
HETATM   25  C1  UNL     1       0.537  52.527 -28.289  1.00  0.00     0.014 C 
BRANCH  24  26
HETATM   26  C25 UNL     1       0.812  51.227 -26.191  1.00  0.00     0.005 C 
HETATM   27  C26 UNL     1       2.318  51.358 -26.429  1.00  0.00     0.014 C 
HETATM   28  C27 UNL     1       0.399  51.968 -24.916  1.00  0.00     0.014 C 
ENDBRANCH  24  26
ENDBRANCH  23  24
ENDBRANCH  22  23
ENDBRANCH   1  22
BRANCH  11  29
HETATM   29  O1  UNL     1      -9.102  46.240 -20.621  1.00  0.00    -0.396 OA
HETATM   30  H21 UNL     1      -9.419  46.382 -19.712  1.00  0.00     0.210 HD
ENDBRANCH  11  29
TORSDOF 5
ENDMDL
MODEL 9
REMARK minimizedAffinity -7.92594099
REMARK CNNscore 0.37622413
REMARK CNNaffinity 6.69106627
REMARK  5 active torsions:
REMARK  status: ('A' for Active; 'I' for Inactive)
REMARK    1  A    between atoms: C2_2  and  C3_3 
REMARK    2  A    between atoms: C2_2  and  C25_27 
REMARK    3  A    between atoms: C3_3  and  C4_4 
REMARK    4  A    between atoms: C4_4  and  C5_5 
REMARK    5  A    between atoms: C15_15  and  O1_16 
ROOT
HETATM    1  C5  UNL     1      -0.219  52.325 -21.801  1.00  0.00    -0.023 C 
HETATM    2  C6  UNL     1      -0.884  51.161 -21.928  1.00  0.00    -0.075 C 
HETATM    3  C7  UNL     1      -1.253  50.523 -23.238  1.00  0.00     0.035 C 
HETATM    4  C8  UNL     1      -2.223  49.415 -22.850  1.00  0.00     0.013 C 
HETATM    5  C9  UNL     1      -1.732  48.951 -21.471  1.00  0.00     0.033 C 
HETATM    6  C10 UNL     1      -2.708  48.031 -20.699  1.00  0.00     0.070 C 
HETATM    7  C11 UNL     1      -3.206  46.838 -21.562  1.00  0.00     0.039 C 
HETATM    8  C12 UNL     1      -4.651  46.441 -21.264  1.00  0.00     0.009 C 
HETATM    9  C13 UNL     1      -4.976  46.432 -19.763  1.00  0.00    -0.001 C 
HETATM   10  C14 UNL     1      -6.503  46.378 -19.554  1.00  0.00     0.037 C 
HETATM   11  C15 UNL     1      -7.116  47.767 -19.421  1.00  0.00     0.118 C 
HETATM   12  C16 UNL     1      -6.549  48.523 -18.218  1.00  0.00     0.032 C 
HETATM   13  C17 UNL     1      -5.155  48.044 -17.805  1.00  0.00     0.015 C 
HETATM   14  C18 UNL     1      -4.284  47.616 -18.995  1.00  0.00    -0.009 C 
HETATM   15  C19 UNL     1      -2.891  47.151 -18.524  1.00  0.00     0.179 C 
HETATM   16  O2  UNL     1      -1.977  47.408 -19.605  1.00  0.00    -0.379 OA
HETATM   17  C20 UNL     1      -3.866  48.742 -19.973  1.00  0.00     0.032 C 
HETATM   18  C21 UNL     1      -3.426  50.034 -19.259  1.00  0.00     0.009 C 
HETATM   19  C22 UNL     1      -2.646  50.962 -20.175  1.00  0.00     0.014 C 
HETATM   20  C23 UNL     1      -1.386  50.295 -20.766  1.00  0.00    -0.014 C 
HETATM   21  C24 UNL     1      -0.302  50.098 -19.693  1.00  0.00     0.020 C 
ENDROOT
BRANCH   1  22
HETATM   22  C4  UNL     1       0.307  53.179 -22.926  1.00  0.00     0.031 C 
BRANCH  22  23
HETATM   23  C3  UNL     1       1.049  52.321 -23.965  1.00  0.00     0.037 C 
BRANCH  23  24
HETATM   24  C2  UNL     1       0.660  52.502 -25.427  1.00  0.00    -0.086 C 
HETATM   25  C1  UNL     1      -0.041  53.553 -25.891  1.00  0.00     0.014 C 
BRANCH  24  26
HETATM   26  C25 UNL     1       1.098  51.406 -26.401  1.00  0.00     0.005 C 
HETATM   27  C26 UNL     1       0.319  51.460 -27.717  1.00  0.00     0.014 C 
HETATM   28  C27 UNL     1       2.607  51.428 -26.663  1.00  0.00     0.014 C 
ENDBRANCH  24  26
ENDBRANCH  23  24
ENDBRANCH  22  23
ENDBRANCH   1  22
BRANCH  11  29
HETATM   29  O1  UNL     1      -8.531  47.661 -19.306  1.00  0.00    -0.396 OA
HETATM   30  H21 UNL     1      -8.734  47.191 -18.479  1.00  0.00     0.210 HD
ENDBRANCH  11  29
TORSDOF 5
ENDMDL
