MODEL 1
REMARK minimizedAffinity -9.99430656
REMARK CNNscore 0.798114836
REMARK CNNaffinity 7.89969969
REMARK  8 active torsions:
REMARK  status: ('A' for Active; 'I' for Inactive)
REMARK    1  A    between atoms: C4_4  and  C5_5 
REMARK    2  A    between atoms: C5_5  and  C6_6 
REMARK    3  A    between atoms: C12_14  and  O3_15 
REMARK    4  A    between atoms: C20_24  and  O5_25 
REMARK    5  A    between atoms: C27_33  and  C28_34 
REMARK    6  A    between atoms: C28_34  and  C29_35 
REMARK    7  A    between atoms: C30_36  and  C32_38 
REMARK    8  A    between atoms: C32_38  and  O8_40 
ROOT
HETATM    1  C6  UNL     1      -2.316  51.226 -24.109  1.00  0.00     0.014 A 
HETATM    2  C7  UNL     1      -2.179  51.073 -22.718  1.00  0.00     0.096 A 
HETATM    3  O1  UNL     1      -3.198  50.443 -22.045  1.00  0.00    -0.333 OA
HETATM    4  C8  UNL     1      -2.922  49.998 -20.708  1.00  0.00     0.126 C 
HETATM    5  C9  UNL     1      -2.288  51.153 -19.911  1.00  0.00     0.129 C 
HETATM    6  C10 UNL     1      -0.987  51.489 -20.604  1.00  0.00     0.174 C 
HETATM    7  O2  UNL     1       0.067  51.725 -20.025  1.00  0.00    -0.292 OA
HETATM    8  C11 UNL     1      -1.038  51.559 -22.075  1.00  0.00     0.078 A 
HETATM    9  C12 UNL     1       0.013  52.123 -22.810  1.00  0.00     0.095 A 
HETATM   10  C13 UNL     1      -0.087  52.243 -24.202  1.00  0.00     0.032 A 
HETATM   11  C14 UNL     1      -1.255  51.805 -24.842  1.00  0.00     0.092 A 
HETATM   12  O4  UNL     1      -1.428  51.882 -26.199  1.00  0.00    -0.335 OA
HETATM   13  C15 UNL     1      -0.464  52.577 -27.012  1.00  0.00     0.078 C 
HETATM   14  C16 UNL     1      -1.159  53.832 -27.556  1.00  0.00     0.051 C 
HETATM   15  C17 UNL     1      -0.129  51.627 -28.169  1.00  0.00     0.051 C 
HETATM   16  C18 UNL     1       0.810  52.972 -26.309  1.00  0.00     0.012 C 
HETATM   17  C19 UNL     1       0.994  52.817 -24.996  1.00  0.00     0.016 C 
HETATM   18  C20 UNL     1      -2.078  50.778 -18.439  1.00  0.00     0.144 C 
HETATM   19  C21 UNL     1      -2.361  49.289 -18.243  1.00  0.00     0.089 C 
HETATM   20  C22 UNL     1      -1.540  48.483 -19.258  1.00  0.00     0.025 C 
HETATM   21  C23 UNL     1      -2.117  48.662 -20.690  1.00  0.00     0.060 C 
HETATM   22  C24 UNL     1      -3.207  47.609 -21.076  1.00  0.00     0.062 C 
HETATM   23  C25 UNL     1      -3.287  47.383 -22.592  1.00  0.00     0.046 C 
HETATM   24  C26 UNL     1      -3.071  46.232 -20.416  1.00  0.00     0.046 C 
HETATM   25  O6  UNL     1      -4.465  48.172 -20.650  1.00  0.00    -0.358 OA
HETATM   26  C27 UNL     1      -4.210  49.451 -20.022  1.00  0.00     0.158 C 
HETATM   27  C33 UNL     1      -3.833  49.106 -18.561  1.00  0.00     0.171 C 
HETATM   28  O9  UNL     1      -4.617  48.690 -17.712  1.00  0.00    -0.294 OA
ENDROOT
BRANCH  26  29
HETATM   29  C28 UNL     1      -5.476  50.323 -20.027  1.00  0.00     0.077 C 
BRANCH  29  30
HETATM   30  C29 UNL     1      -6.786  49.594 -19.848  1.00  0.00    -0.010 C 
HETATM   31  C30 UNL     1      -7.595  49.108 -20.811  1.00  0.00     0.008 C 
HETATM   32  C31 UNL     1      -8.877  48.397 -20.503  1.00  0.00     0.055 C 
BRANCH  31  33
HETATM   33  C32 UNL     1      -7.259  49.242 -22.245  1.00  0.00     0.171 C 
HETATM   34  O7  UNL     1      -6.872  48.366 -22.995  1.00  0.00    -0.646 OA
BRANCH  33  35
HETATM   35  O8  UNL     1      -7.461  50.499 -22.678  1.00  0.00    -0.773 OA
HETATM   36  H38 UNL     1      -7.164  50.454 -23.610  1.00  0.00     0.167 HD
ENDBRANCH  33  35
ENDBRANCH  31  33
ENDBRANCH  29  30
ENDBRANCH  26  29
BRANCH  18  37
HETATM   37  O5  UNL     1      -2.963  51.566 -17.644  1.00  0.00    -0.394 OA
HETATM   38  H21 UNL     1      -2.886  51.280 -16.714  1.00  0.00     0.210 HD
ENDBRANCH  18  37
BRANCH   1  39
HETATM   39  C5  UNL     1      -3.594  50.824 -24.825  1.00  0.00     0.072 C 
BRANCH  39  40
HETATM   40  C4  UNL     1      -3.317  49.968 -26.035  1.00  0.00    -0.020 C 
HETATM   41  C2  UNL     1      -3.985  48.878 -26.461  1.00  0.00    -0.091 C 
HETATM   42  C1  UNL     1      -5.186  48.274 -25.787  1.00  0.00     0.042 C 
HETATM   43  C3  UNL     1      -3.548  48.152 -27.706  1.00  0.00     0.042 C 
ENDBRANCH  39  40
ENDBRANCH   1  39
BRANCH   9  44
HETATM   44  O3  UNL     1       1.156  52.581 -22.198  1.00  0.00    -0.359 OA
HETATM   45  H11 UNL     1       1.102  52.387 -21.235  1.00  0.00     0.217 HD
ENDBRANCH   9  44
TORSDOF 8
ENDMDL
MODEL 2
REMARK minimizedAffinity -8.35530853
REMARK CNNscore 0.550238848
REMARK CNNaffinity 7.52648783
REMARK  8 active torsions:
REMARK  status: ('A' for Active; 'I' for Inactive)
REMARK    1  A    between atoms: C4_4  and  C5_5 
REMARK    2  A    between atoms: C5_5  and  C6_6 
REMARK    3  A    between atoms: C12_14  and  O3_15 
REMARK    4  A    between atoms: C20_24  and  O5_25 
REMARK    5  A    between atoms: C27_33  and  C28_34 
REMARK    6  A    between atoms: C28_34  and  C29_35 
REMARK    7  A    between atoms: C30_36  and  C32_38 
REMARK    8  A    between atoms: C32_38  and  O8_40 
ROOT
HETATM    1  C6  UNL     1       2.437  54.540 -10.004  1.00  0.00     0.014 A 
HETATM    2  C7  UNL     1       1.246  53.902 -10.392  1.00  0.00     0.096 A 
HETATM    3  O1  UNL     1       1.304  53.053 -11.470  1.00  0.00    -0.333 OA
HETATM    4  C8  UNL     1       0.191  52.164 -11.662  1.00  0.00     0.126 C 
HETATM    5  C9  UNL     1      -1.118  52.969 -11.590  1.00  0.00     0.129 C 
HETATM    6  C10 UNL     1      -1.184  53.558 -10.199  1.00  0.00     0.174 C 
HETATM    7  O2  UNL     1      -2.196  53.593  -9.507  1.00  0.00    -0.292 OA
HETATM    8  C11 UNL     1       0.065  54.149  -9.689  1.00  0.00     0.078 A 
HETATM    9  C12 UNL     1       0.068  54.961  -8.547  1.00  0.00     0.095 A 
HETATM   10  C13 UNL     1       1.255  55.570  -8.118  1.00  0.00     0.032 A 
HETATM   11  C14 UNL     1       2.430  55.366  -8.855  1.00  0.00     0.092 A 
HETATM   12  O4  UNL     1       3.631  55.920  -8.501  1.00  0.00    -0.335 OA
HETATM   13  C15 UNL     1       3.696  56.880  -7.429  1.00  0.00     0.078 C 
HETATM   14  C16 UNL     1       4.053  58.232  -8.060  1.00  0.00     0.051 C 
HETATM   15  C17 UNL     1       4.838  56.415  -6.518  1.00  0.00     0.051 C 
HETATM   16  C18 UNL     1       2.436  57.023  -6.613  1.00  0.00     0.012 C 
HETATM   17  C19 UNL     1       1.292  56.412  -6.928  1.00  0.00     0.016 C 
HETATM   18  C20 UNL     1      -2.339  52.097 -11.907  1.00  0.00     0.144 C 
HETATM   19  C21 UNL     1      -1.915  50.631 -11.987  1.00  0.00     0.089 C 
HETATM   20  C22 UNL     1      -1.143  50.259 -10.714  1.00  0.00     0.025 C 
HETATM   21  C23 UNL     1       0.260  50.927 -10.714  1.00  0.00     0.060 C 
HETATM   22  C24 UNL     1       1.381  50.060 -11.375  1.00  0.00     0.062 C 
HETATM   23  C25 UNL     1       2.774  50.390 -10.823  1.00  0.00     0.046 C 
HETATM   24  C26 UNL     1       1.199  48.541 -11.275  1.00  0.00     0.046 C 
HETATM   25  O6  UNL     1       1.371  50.407 -12.775  1.00  0.00    -0.358 OA
HETATM   26  C27 UNL     1       0.325  51.381 -13.003  1.00  0.00     0.158 C 
HETATM   27  C33 UNL     1      -0.966  50.544 -13.168  1.00  0.00     0.171 C 
HETATM   28  O9  UNL     1      -1.225  49.835 -14.137  1.00  0.00    -0.294 OA
ENDROOT
BRANCH  26  29
HETATM   29  C28 UNL     1       0.587  52.171 -14.296  1.00  0.00     0.077 C 
BRANCH  29  30
HETATM   30  C29 UNL     1       2.022  52.226 -14.761  1.00  0.00    -0.010 C 
HETATM   31  C30 UNL     1       2.475  52.221 -16.031  1.00  0.00     0.008 C 
HETATM   32  C31 UNL     1       3.934  52.282 -16.366  1.00  0.00     0.055 C 
BRANCH  31  33
HETATM   33  C32 UNL     1       1.550  52.164 -17.183  1.00  0.00     0.171 C 
HETATM   34  O7  UNL     1       0.718  51.308 -17.418  1.00  0.00    -0.646 OA
BRANCH  33  35
HETATM   35  O8  UNL     1       1.706  53.231 -17.987  1.00  0.00    -0.773 OA
HETATM   36  H38 UNL     1       1.076  53.043 -18.713  1.00  0.00     0.167 HD
ENDBRANCH  33  35
ENDBRANCH  31  33
ENDBRANCH  29  30
ENDBRANCH  26  29
BRANCH  18  37
HETATM   37  O5  UNL     1      -2.891  52.530 -13.149  1.00  0.00    -0.394 OA
HETATM   38  H21 UNL     1      -3.623  51.931 -13.392  1.00  0.00     0.210 HD
ENDBRANCH  18  37
BRANCH   1  39
HETATM   39  C5  UNL     1       3.712  54.395 -10.817  1.00  0.00     0.072 C 
BRANCH  39  40
HETATM   40  C4  UNL     1       4.943  54.678  -9.993  1.00  0.00    -0.020 C 
HETATM   41  C2  UNL     1       5.792  53.799  -9.427  1.00  0.00    -0.091 C 
HETATM   42  C1  UNL     1       5.676  52.302  -9.505  1.00  0.00     0.042 C 
HETATM   43  C3  UNL     1       6.976  54.285  -8.631  1.00  0.00     0.042 C 
ENDBRANCH  39  40
ENDBRANCH   1  39
BRANCH   9  44
HETATM   44  O3  UNL     1      -1.079  55.193  -7.823  1.00  0.00    -0.359 OA
HETATM   45  H11 UNL     1      -1.813  54.666  -8.213  1.00  0.00     0.217 HD
ENDBRANCH   9  44
TORSDOF 8
ENDMDL
MODEL 3
REMARK minimizedAffinity -8.53792667
REMARK CNNscore 0.482140929
REMARK CNNaffinity 6.84754038
REMARK  8 active torsions:
REMARK  status: ('A' for Active; 'I' for Inactive)
REMARK    1  A    between atoms: C4_4  and  C5_5 
REMARK    2  A    between atoms: C5_5  and  C6_6 
REMARK    3  A    between atoms: C12_14  and  O3_15 
REMARK    4  A    between atoms: C20_24  and  O5_25 
REMARK    5  A    between atoms: C27_33  and  C28_34 
REMARK    6  A    between atoms: C28_34  and  C29_35 
REMARK    7  A    between atoms: C30_36  and  C32_38 
REMARK    8  A    between atoms: C32_38  and  O8_40 
ROOT
HETATM    1  C6  UNL     1      -6.724  47.515 -25.784  1.00  0.00     0.014 A 
HETATM    2  C7  UNL     1      -7.178  47.013 -27.017  1.00  0.00     0.096 A 
HETATM    3  O1  UNL     1      -8.385  46.358 -27.029  1.00  0.00    -0.333 OA
HETATM    4  C8  UNL     1      -8.997  46.139 -28.310  1.00  0.00     0.126 C 
HETATM    5  C9  UNL     1      -7.960  45.525 -29.268  1.00  0.00     0.129 C 
HETATM    6  C10 UNL     1      -6.853  46.543 -29.411  1.00  0.00     0.174 C 
HETATM    7  O2  UNL     1      -6.308  46.831 -30.471  1.00  0.00    -0.292 OA
HETATM    8  C11 UNL     1      -6.403  47.188 -28.165  1.00  0.00     0.078 A 
HETATM    9  C12 UNL     1      -5.216  47.931 -28.123  1.00  0.00     0.095 A 
HETATM   10  C13 UNL     1      -4.771  48.478 -26.911  1.00  0.00     0.032 A 
HETATM   11  C14 UNL     1      -5.520  48.257 -25.748  1.00  0.00     0.092 A 
HETATM   12  O4  UNL     1      -5.157  48.761 -24.527  1.00  0.00    -0.335 OA
HETATM   13  C15 UNL     1      -3.882  49.411 -24.364  1.00  0.00     0.078 C 
HETATM   14  C16 UNL     1      -3.030  48.508 -23.463  1.00  0.00     0.051 C 
HETATM   15  C17 UNL     1      -4.175  50.733 -23.644  1.00  0.00     0.051 C 
HETATM   16  C18 UNL     1      -3.134  49.696 -25.642  1.00  0.00     0.012 C 
HETATM   17  C19 UNL     1      -3.545  49.264 -26.837  1.00  0.00     0.016 C 
HETATM   18  C20 UNL     1      -8.585  45.156 -30.619  1.00  0.00     0.144 C 
HETATM   19  C21 UNL     1     -10.008  45.708 -30.694  1.00  0.00     0.089 C 
HETATM   20  C22 UNL     1      -9.986  47.205 -30.357  1.00  0.00     0.025 C 
HETATM   21  C23 UNL     1      -9.714  47.418 -28.842  1.00  0.00     0.060 C 
HETATM   22  C24 UNL     1     -11.005  47.470 -27.962  1.00  0.00     0.062 C 
HETATM   23  C25 UNL     1     -10.801  48.285 -26.677  1.00  0.00     0.046 C 
HETATM   24  C26 UNL     1     -12.263  48.012 -28.651  1.00  0.00     0.046 C 
HETATM   25  O6  UNL     1     -11.274  46.106 -27.578  1.00  0.00    -0.358 OA
HETATM   26  C27 UNL     1     -10.271  45.251 -28.177  1.00  0.00     0.158 C 
HETATM   27  C33 UNL     1     -10.786  44.983 -29.612  1.00  0.00     0.171 C 
HETATM   28  O9  UNL     1     -11.753  44.279 -29.892  1.00  0.00    -0.294 OA
ENDROOT
BRANCH  26  29
HETATM   29  C28 UNL     1     -10.167  43.918 -27.419  1.00  0.00     0.077 C 
BRANCH  29  30
HETATM   30  C29 UNL     1     -10.493  43.966 -25.945  1.00  0.00    -0.010 C 
HETATM   31  C30 UNL     1      -9.839  43.350 -24.938  1.00  0.00     0.008 C 
HETATM   32  C31 UNL     1     -10.263  43.477 -23.507  1.00  0.00     0.055 C 
BRANCH  31  33
HETATM   33  C32 UNL     1      -8.647  42.511 -25.187  1.00  0.00     0.171 C 
HETATM   34  O7  UNL     1      -7.506  42.889 -25.369  1.00  0.00    -0.646 OA
BRANCH  33  35
HETATM   35  O8  UNL     1      -8.959  41.203 -25.162  1.00  0.00    -0.773 OA
HETATM   36  H38 UNL     1      -8.104  40.777 -25.380  1.00  0.00     0.167 HD
ENDBRANCH  33  35
ENDBRANCH  31  33
ENDBRANCH  29  30
ENDBRANCH  26  29
BRANCH  18  37
HETATM   37  O5  UNL     1      -8.591  43.734 -30.738  1.00  0.00    -0.394 OA
HETATM   38  H21 UNL     1      -9.054  43.491 -31.563  1.00  0.00     0.210 HD
ENDBRANCH  18  37
BRANCH   1  39
HETATM   39  C5  UNL     1      -7.476  47.238 -24.494  1.00  0.00     0.072 C 
BRANCH  39  40
HETATM   40  C4  UNL     1      -6.553  47.193 -23.301  1.00  0.00    -0.020 C 
HETATM   41  C2  UNL     1      -6.410  46.211 -22.390  1.00  0.00    -0.091 C 
HETATM   42  C1  UNL     1      -7.173  44.915 -22.379  1.00  0.00     0.042 C 
HETATM   43  C3  UNL     1      -5.425  46.356 -21.259  1.00  0.00     0.042 C 
ENDBRANCH  39  40
ENDBRANCH   1  39
BRANCH   9  44
HETATM   44  O3  UNL     1      -4.454  48.139 -29.249  1.00  0.00    -0.359 OA
HETATM   45  H11 UNL     1      -4.914  47.741 -30.022  1.00  0.00     0.217 HD
ENDBRANCH   9  44
TORSDOF 8
ENDMDL
MODEL 4
REMARK minimizedAffinity -7.58890772
REMARK CNNscore 0.462452054
REMARK CNNaffinity 6.78613472
REMARK  8 active torsions:
REMARK  status: ('A' for Active; 'I' for Inactive)
REMARK    1  A    between atoms: C4_4  and  C5_5 
REMARK    2  A    between atoms: C5_5  and  C6_6 
REMARK    3  A    between atoms: C12_14  and  O3_15 
REMARK    4  A    between atoms: C20_24  and  O5_25 
REMARK    5  A    between atoms: C27_33  and  C28_34 
REMARK    6  A    between atoms: C28_34  and  C29_35 
REMARK    7  A    between atoms: C30_36  and  C32_38 
REMARK    8  A    between atoms: C32_38  and  O8_40 
ROOT
HETATM    1  C6  UNL     1       2.060  54.026  -8.357  1.00  0.00     0.014 A 
HETATM    2  C7  UNL     1       0.929  53.703  -9.128  1.00  0.00     0.096 A 
HETATM    3  O1  UNL     1       0.910  52.474  -9.741  1.00  0.00    -0.333 OA
HETATM    4  C8  UNL     1      -0.355  52.015 -10.245  1.00  0.00     0.126 C 
HETATM    5  C9  UNL     1      -0.996  53.129 -11.091  1.00  0.00     0.129 C 
HETATM    6  C10 UNL     1      -1.224  54.298 -10.160  1.00  0.00     0.174 C 
HETATM    7  O2  UNL     1      -2.240  54.984 -10.144  1.00  0.00    -0.292 OA
HETATM    8  C11 UNL     1      -0.114  54.623  -9.248  1.00  0.00     0.078 A 
HETATM    9  C12 UNL     1      -0.089  55.832  -8.541  1.00  0.00     0.095 A 
HETATM   10  C13 UNL     1       1.010  56.152  -7.732  1.00  0.00     0.032 A 
HETATM   11  C14 UNL     1       2.083  55.253  -7.653  1.00  0.00     0.092 A 
HETATM   12  O4  UNL     1       3.190  55.488  -6.882  1.00  0.00    -0.335 OA
HETATM   13  C15 UNL     1       3.365  56.765  -6.239  1.00  0.00     0.078 C 
HETATM   14  C16 UNL     1       4.556  57.450  -6.921  1.00  0.00     0.051 C 
HETATM   15  C17 UNL     1       3.711  56.454  -4.778  1.00  0.00     0.051 C 
HETATM   16  C18 UNL     1       2.167  57.680  -6.282  1.00  0.00     0.012 C 
HETATM   17  C19 UNL     1       1.062  57.398  -6.977  1.00  0.00     0.016 C 
HETATM   18  C20 UNL     1      -2.295  52.658 -11.757  1.00  0.00     0.144 C 
HETATM   19  C21 UNL     1      -2.686  51.287 -11.208  1.00  0.00     0.089 C 
HETATM   20  C22 UNL     1      -2.707  51.345  -9.675  1.00  0.00     0.025 C 
HETATM   21  C23 UNL     1      -1.261  51.438  -9.114  1.00  0.00     0.060 C 
HETATM   22  C24 UNL     1      -0.597  50.052  -8.826  1.00  0.00     0.062 C 
HETATM   23  C25 UNL     1       0.478  50.137  -7.734  1.00  0.00     0.046 C 
HETATM   24  C26 UNL     1      -1.554  48.920  -8.436  1.00  0.00     0.046 C 
HETATM   25  O6  UNL     1       0.055  49.667 -10.053  1.00  0.00    -0.358 OA
HETATM   26  C27 UNL     1      -0.190  50.689 -11.048  1.00  0.00     0.158 C 
HETATM   27  C33 UNL     1      -1.578  50.343 -11.638  1.00  0.00     0.171 C 
HETATM   28  O9  UNL     1      -1.812  49.384 -12.368  1.00  0.00    -0.294 OA
ENDROOT
BRANCH  26  29
HETATM   29  C28 UNL     1       0.865  50.629 -12.164  1.00  0.00     0.077 C 
BRANCH  29  30
HETATM   30  C29 UNL     1       0.601  49.642 -13.275  1.00  0.00    -0.010 C 
HETATM   31  C30 UNL     1       1.501  48.879 -13.928  1.00  0.00     0.008 C 
HETATM   32  C31 UNL     1       1.111  47.929 -15.020  1.00  0.00     0.055 C 
BRANCH  31  33
HETATM   33  C32 UNL     1       2.942  48.926 -13.598  1.00  0.00     0.171 C 
HETATM   34  O7  UNL     1       3.735  49.800 -13.891  1.00  0.00    -0.646 OA
BRANCH  33  35
HETATM   35  O8  UNL     1       3.311  47.856 -12.872  1.00  0.00    -0.773 OA
HETATM   36  H38 UNL     1       4.275  47.994 -12.765  1.00  0.00     0.167 HD
ENDBRANCH  33  35
ENDBRANCH  31  33
ENDBRANCH  29  30
ENDBRANCH  26  29
BRANCH  18  37
HETATM   37  O5  UNL     1      -2.080  52.593 -13.166  1.00  0.00    -0.394 OA
HETATM   38  H21 UNL     1      -2.880  52.224 -13.588  1.00  0.00     0.210 HD
ENDBRANCH  18  37
BRANCH   1  39
HETATM   39  C5  UNL     1       3.268  53.106  -8.303  1.00  0.00     0.072 C 
BRANCH  39  40
HETATM   40  C4  UNL     1       4.553  53.845  -8.581  1.00  0.00    -0.020 C 
HETATM   41  C2  UNL     1       4.895  54.545  -9.680  1.00  0.00    -0.091 C 
HETATM   42  C1  UNL     1       4.032  54.734 -10.897  1.00  0.00     0.042 C 
HETATM   43  C3  UNL     1       6.241  55.218  -9.769  1.00  0.00     0.042 C 
ENDBRANCH  39  40
ENDBRANCH   1  39
BRANCH   9  44
HETATM   44  O3  UNL     1      -1.121  56.738  -8.623  1.00  0.00    -0.359 OA
HETATM   45  H11 UNL     1      -1.834  56.358  -9.184  1.00  0.00     0.217 HD
ENDBRANCH   9  44
TORSDOF 8
ENDMDL
MODEL 5
REMARK minimizedAffinity -6.99583912
REMARK CNNscore 0.429787189
REMARK CNNaffinity 6.36288643
REMARK  8 active torsions:
REMARK  status: ('A' for Active; 'I' for Inactive)
REMARK    1  A    between atoms: C4_4  and  C5_5 
REMARK    2  A    between atoms: C5_5  and  C6_6 
REMARK    3  A    between atoms: C12_14  and  O3_15 
REMARK    4  A    between atoms: C20_24  and  O5_25 
REMARK    5  A    between atoms: C27_33  and  C28_34 
REMARK    6  A    between atoms: C28_34  and  C29_35 
REMARK    7  A    between atoms: C30_36  and  C32_38 
REMARK    8  A    between atoms: C32_38  and  O8_40 
ROOT
HETATM    1  C6  UNL     1     -10.613  43.452 -30.199  1.00  0.00     0.014 A 
HETATM    2  C7  UNL     1      -9.916  44.597 -29.776  1.00  0.00     0.096 A 
HETATM    3  O1  UNL     1     -10.480  45.350 -28.775  1.00  0.00    -0.333 OA
HETATM    4  C8  UNL     1      -9.634  46.312 -28.124  1.00  0.00     0.126 C 
HETATM    5  C9  UNL     1      -8.914  47.156 -29.190  1.00  0.00     0.129 C 
HETATM    6  C10 UNL     1      -8.060  46.200 -29.990  1.00  0.00     0.174 C 
HETATM    7  O2  UNL     1      -6.909  46.430 -30.347  1.00  0.00    -0.292 OA
HETATM    8  C11 UNL     1      -8.699  44.930 -30.375  1.00  0.00     0.078 A 
HETATM    9  C12 UNL     1      -8.121  44.091 -31.337  1.00  0.00     0.095 A 
HETATM   10  C13 UNL     1      -8.781  42.922 -31.739  1.00  0.00     0.032 A 
HETATM   11  C14 UNL     1     -10.028  42.615 -31.177  1.00  0.00     0.092 A 
HETATM   12  O4  UNL     1     -10.734  41.490 -31.512  1.00  0.00    -0.335 OA
HETATM   13  C15 UNL     1     -10.285  40.651 -32.593  1.00  0.00     0.078 C 
HETATM   14  C16 UNL     1     -11.315  40.785 -33.721  1.00  0.00     0.051 C 
HETATM   15  C17 UNL     1     -10.300  39.218 -32.044  1.00  0.00     0.051 C 
HETATM   16  C18 UNL     1      -8.910  40.964 -33.127  1.00  0.00     0.012 C 
HETATM   17  C19 UNL     1      -8.200  42.023 -32.731  1.00  0.00     0.016 C 
HETATM   18  C20 UNL     1      -8.086  48.282 -28.558  1.00  0.00     0.144 C 
HETATM   19  C21 UNL     1      -8.044  48.099 -27.042  1.00  0.00     0.089 C 
HETATM   20  C22 UNL     1      -7.584  46.671 -26.719  1.00  0.00     0.025 C 
HETATM   21  C23 UNL     1      -8.701  45.647 -27.065  1.00  0.00     0.060 C 
HETATM   22  C24 UNL     1      -9.686  45.353 -25.887  1.00  0.00     0.062 C 
HETATM   23  C25 UNL     1     -10.326  43.963 -25.995  1.00  0.00     0.046 C 
HETATM   24  C26 UNL     1      -9.098  45.476 -24.476  1.00  0.00     0.046 C 
HETATM   25  O6  UNL     1     -10.740  46.331 -26.004  1.00  0.00    -0.358 OA
HETATM   26  C27 UNL     1     -10.449  47.193 -27.130  1.00  0.00     0.158 C 
HETATM   27  C33 UNL     1      -9.478  48.260 -26.570  1.00  0.00     0.171 C 
HETATM   28  O9  UNL     1      -9.790  49.155 -25.790  1.00  0.00    -0.294 OA
ENDROOT
BRANCH  26  29
HETATM   29  C28 UNL     1     -11.727  47.884 -27.633  1.00  0.00     0.077 C 
BRANCH  29  30
HETATM   30  C29 UNL     1     -12.748  46.991 -28.296  1.00  0.00    -0.010 C 
HETATM   31  C30 UNL     1     -13.772  46.337 -27.712  1.00  0.00     0.008 C 
HETATM   32  C31 UNL     1     -14.724  45.476 -28.484  1.00  0.00     0.055 C 
BRANCH  31  33
HETATM   33  C32 UNL     1     -14.027  46.438 -26.259  1.00  0.00     0.171 C 
HETATM   34  O7  UNL     1     -14.581  47.346 -25.670  1.00  0.00    -0.646 OA
BRANCH  33  35
HETATM   35  O8  UNL     1     -13.584  45.347 -25.610  1.00  0.00    -0.773 OA
HETATM   36  H38 UNL     1     -13.774  45.564 -24.674  1.00  0.00     0.167 HD
ENDBRANCH  33  35
ENDBRANCH  31  33
ENDBRANCH  29  30
ENDBRANCH  26  29
BRANCH  18  37
HETATM   37  O5  UNL     1      -8.689  49.529 -28.898  1.00  0.00    -0.394 OA
HETATM   38  H21 UNL     1      -8.208  50.244 -28.437  1.00  0.00     0.210 HD
ENDBRANCH  18  37
BRANCH   1  39
HETATM   39  C5  UNL     1     -11.996  43.127 -29.661  1.00  0.00     0.072 C 
BRANCH  39  40
HETATM   40  C4  UNL     1     -11.946  42.084 -28.572  1.00  0.00    -0.020 C 
HETATM   41  C2  UNL     1     -12.973  41.508 -27.916  1.00  0.00    -0.091 C 
HETATM   42  C1  UNL     1     -14.429  41.804 -28.147  1.00  0.00     0.042 C 
HETATM   43  C3  UNL     1     -12.715  40.477 -26.849  1.00  0.00     0.042 C 
ENDBRANCH  39  40
ENDBRANCH   1  39
BRANCH   9  44
HETATM   44  O3  UNL     1      -6.909  44.386 -31.917  1.00  0.00    -0.359 OA
HETATM   45  H11 UNL     1      -6.549  45.203 -31.504  1.00  0.00     0.217 HD
ENDBRANCH   9  44
TORSDOF 8
ENDMDL
MODEL 6
REMARK minimizedAffinity -7.54728937
REMARK CNNscore 0.350300252
REMARK CNNaffinity 7.05935526
REMARK  8 active torsions:
REMARK  status: ('A' for Active; 'I' for Inactive)
REMARK    1  A    between atoms: C4_4  and  C5_5 
REMARK    2  A    between atoms: C5_5  and  C6_6 
REMARK    3  A    between atoms: C12_14  and  O3_15 
REMARK    4  A    between atoms: C20_24  and  O5_25 
REMARK    5  A    between atoms: C27_33  and  C28_34 
REMARK    6  A    between atoms: C28_34  and  C29_35 
REMARK    7  A    between atoms: C30_36  and  C32_38 
REMARK    8  A    between atoms: C32_38  and  O8_40 
ROOT
HETATM    1  C6  UNL     1       2.387  52.838 -10.342  1.00  0.00     0.014 A 
HETATM    2  C7  UNL     1       0.990  52.944 -10.456  1.00  0.00     0.096 A 
HETATM    3  O1  UNL     1       0.338  51.982 -11.189  1.00  0.00    -0.333 OA
HETATM    4  C8  UNL     1      -1.088  51.898 -11.036  1.00  0.00     0.126 C 
HETATM    5  C9  UNL     1      -1.698  53.302 -11.194  1.00  0.00     0.129 C 
HETATM    6  C10 UNL     1      -1.125  54.147 -10.079  1.00  0.00     0.174 C 
HETATM    7  O2  UNL     1      -1.774  54.940  -9.406  1.00  0.00    -0.292 OA
HETATM    8  C11 UNL     1       0.321  54.002  -9.837  1.00  0.00     0.078 A 
HETATM    9  C12 UNL     1       1.015  54.916  -9.033  1.00  0.00     0.095 A 
HETATM   10  C13 UNL     1       2.402  54.800  -8.871  1.00  0.00     0.032 A 
HETATM   11  C14 UNL     1       3.082  53.769  -9.536  1.00  0.00     0.092 A 
HETATM   12  O4  UNL     1       4.435  53.585  -9.427  1.00  0.00    -0.335 OA
HETATM   13  C15 UNL     1       5.244  54.558  -8.741  1.00  0.00     0.078 C 
HETATM   14  C16 UNL     1       6.127  55.232  -9.799  1.00  0.00     0.051 C 
HETATM   15  C17 UNL     1       6.119  53.763  -7.764  1.00  0.00     0.051 C 
HETATM   16  C18 UNL     1       4.480  55.611  -7.978  1.00  0.00     0.012 C 
HETATM   17  C19 UNL     1       3.151  55.729  -8.033  1.00  0.00     0.016 C 
HETATM   18  C20 UNL     1      -3.230  53.262 -11.161  1.00  0.00     0.144 C 
HETATM   19  C21 UNL     1      -3.698  51.864 -10.761  1.00  0.00     0.089 C 
HETATM   20  C22 UNL     1      -2.993  51.448  -9.463  1.00  0.00     0.025 C 
HETATM   21  C23 UNL     1      -1.493  51.144  -9.733  1.00  0.00     0.060 C 
HETATM   22  C24 UNL     1      -1.200  49.653 -10.102  1.00  0.00     0.062 C 
HETATM   23  C25 UNL     1       0.230  49.233  -9.738  1.00  0.00     0.046 C 
HETATM   24  C26 UNL     1      -2.149  48.614  -9.494  1.00  0.00     0.046 C 
HETATM   25  O6  UNL     1      -1.329  49.572 -11.536  1.00  0.00    -0.358 OA
HETATM   26  C27 UNL     1      -1.700  50.876 -12.042  1.00  0.00     0.158 C 
HETATM   27  C33 UNL     1      -3.237  50.943 -11.875  1.00  0.00     0.171 C 
HETATM   28  O9  UNL     1      -4.045  50.303 -12.543  1.00  0.00    -0.294 OA
ENDROOT
BRANCH  26  29
HETATM   29  C28 UNL     1      -1.345  51.005 -13.532  1.00  0.00     0.077 C 
BRANCH  29  30
HETATM   30  C29 UNL     1      -1.166  49.710 -14.287  1.00  0.00    -0.010 C 
HETATM   31  C30 UNL     1      -1.877  49.269 -15.344  1.00  0.00     0.008 C 
HETATM   32  C31 UNL     1      -1.600  47.957 -16.011  1.00  0.00     0.055 C 
BRANCH  31  33
HETATM   33  C32 UNL     1      -2.981  50.066 -15.922  1.00  0.00     0.171 C 
HETATM   34  O7  UNL     1      -3.120  51.274 -15.874  1.00  0.00    -0.646 OA
BRANCH  33  35
HETATM   35  O8  UNL     1      -3.860  49.283 -16.572  1.00  0.00    -0.773 OA
HETATM   36  H38 UNL     1      -4.544  49.923 -16.859  1.00  0.00     0.167 HD
ENDBRANCH  33  35
ENDBRANCH  31  33
ENDBRANCH  29  30
ENDBRANCH  26  29
BRANCH  18  37
HETATM   37  O5  UNL     1      -3.717  53.604 -12.458  1.00  0.00    -0.394 OA
HETATM   38  H21 UNL     1      -4.689  53.509 -12.462  1.00  0.00     0.210 HD
ENDBRANCH  18  37
BRANCH   1  39
HETATM   39  C5  UNL     1       3.162  51.775 -11.102  1.00  0.00     0.072 C 
BRANCH  39  40
HETATM   40  C4  UNL     1       3.127  52.008 -12.592  1.00  0.00    -0.020 C 
HETATM   41  C2  UNL     1       3.240  51.104 -13.584  1.00  0.00    -0.091 C 
HETATM   42  C1  UNL     1       3.434  49.624 -13.396  1.00  0.00     0.042 C 
HETATM   43  C3  UNL     1       3.180  51.539 -15.025  1.00  0.00     0.042 C 
ENDBRANCH  39  40
ENDBRANCH   1  39
BRANCH   9  44
HETATM   44  O3  UNL     1       0.370  55.947  -8.391  1.00  0.00    -0.359 OA
HETATM   45  H11 UNL     1      -0.596  55.871  -8.558  1.00  0.00     0.217 HD
ENDBRANCH   9  44
TORSDOF 8
ENDMDL
MODEL 7
REMARK minimizedAffinity -7.49259758
REMARK CNNscore 0.344874024
REMARK CNNaffinity 6.15648031
REMARK  8 active torsions:
REMARK  status: ('A' for Active; 'I' for Inactive)
REMARK    1  A    between atoms: C4_4  and  C5_5 
REMARK    2  A    between atoms: C5_5  and  C6_6 
REMARK    3  A    between atoms: C12_14  and  O3_15 
REMARK    4  A    between atoms: C20_24  and  O5_25 
REMARK    5  A    between atoms: C27_33  and  C28_34 
REMARK    6  A    between atoms: C28_34  and  C29_35 
REMARK    7  A    between atoms: C30_36  and  C32_38 
REMARK    8  A    between atoms: C32_38  and  O8_40 
ROOT
HETATM    1  C6  UNL     1     -10.947  45.369 -30.395  1.00  0.00     0.014 A 
HETATM    2  C7  UNL     1     -10.396  46.246 -29.444  1.00  0.00     0.096 A 
HETATM    3  O1  UNL     1     -10.737  46.050 -28.128  1.00  0.00    -0.333 OA
HETATM    4  C8  UNL     1      -9.937  46.718 -27.139  1.00  0.00     0.126 C 
HETATM    5  C9  UNL     1      -9.799  48.203 -27.518  1.00  0.00     0.129 C 
HETATM    6  C10 UNL     1      -9.083  48.242 -28.849  1.00  0.00     0.174 C 
HETATM    7  O2  UNL     1      -8.188  49.031 -29.133  1.00  0.00    -0.292 OA
HETATM    8  C11 UNL     1      -9.542  47.271 -29.857  1.00  0.00     0.078 A 
HETATM    9  C12 UNL     1      -9.158  47.386 -31.200  1.00  0.00     0.095 A 
HETATM   10  C13 UNL     1      -9.662  46.492 -32.155  1.00  0.00     0.032 A 
HETATM   11  C14 UNL     1     -10.561  45.497 -31.749  1.00  0.00     0.092 A 
HETATM   12  O4  UNL     1     -11.094  44.583 -32.619  1.00  0.00    -0.335 OA
HETATM   13  C15 UNL     1     -10.869  44.716 -34.035  1.00  0.00     0.078 C 
HETATM   14  C16 UNL     1     -12.220  45.066 -34.673  1.00  0.00     0.051 C 
HETATM   15  C17 UNL     1     -10.409  43.334 -34.518  1.00  0.00     0.051 C 
HETATM   16  C18 UNL     1      -9.843  45.747 -34.432  1.00  0.00     0.012 C 
HETATM   17  C19 UNL     1      -9.273  46.580 -33.558  1.00  0.00     0.016 C 
HETATM   18  C20 UNL     1      -9.055  48.998 -26.438  1.00  0.00     0.144 C 
HETATM   19  C21 UNL     1      -8.477  48.036 -25.401  1.00  0.00     0.089 C 
HETATM   20  C22 UNL     1      -7.655  46.957 -26.117  1.00  0.00     0.025 C 
HETATM   21  C23 UNL     1      -8.591  45.975 -26.876  1.00  0.00     0.060 C 
HETATM   22  C24 UNL     1      -9.048  44.743 -26.027  1.00  0.00     0.062 C 
HETATM   23  C25 UNL     1      -9.391  43.529 -26.901  1.00  0.00     0.046 C 
HETATM   24  C26 UNL     1      -8.063  44.268 -24.953  1.00  0.00     0.046 C 
HETATM   25  O6  UNL     1     -10.256  45.156 -25.357  1.00  0.00    -0.358 OA
HETATM   26  C27 UNL     1     -10.537  46.530 -25.712  1.00  0.00     0.158 C 
HETATM   27  C33 UNL     1      -9.674  47.374 -24.744  1.00  0.00     0.171 C 
HETATM   28  O9  UNL     1      -9.885  47.498 -23.541  1.00  0.00    -0.294 OA
ENDROOT
BRANCH  26  29
HETATM   29  C28 UNL     1     -12.022  46.860 -25.487  1.00  0.00     0.077 C 
BRANCH  29  30
HETATM   30  C29 UNL     1     -12.686  46.171 -24.320  1.00  0.00    -0.010 C 
HETATM   31  C30 UNL     1     -14.000  46.142 -24.021  1.00  0.00     0.008 C 
HETATM   32  C31 UNL     1     -14.539  45.417 -22.826  1.00  0.00     0.055 C 
BRANCH  31  33
HETATM   33  C32 UNL     1     -15.002  46.826 -24.867  1.00  0.00     0.171 C 
HETATM   34  O7  UNL     1     -15.461  46.437 -25.924  1.00  0.00    -0.646 OA
BRANCH  33  35
HETATM   35  O8  UNL     1     -15.406  47.980 -24.309  1.00  0.00    -0.773 OA
HETATM   36  H38 UNL     1     -16.021  48.338 -24.982  1.00  0.00     0.167 HD
ENDBRANCH  33  35
ENDBRANCH  31  33
ENDBRANCH  29  30
ENDBRANCH  26  29
BRANCH  18  37
HETATM   37  O5  UNL     1      -9.977  49.900 -25.828  1.00  0.00    -0.394 OA
HETATM   38  H21 UNL     1      -9.527  50.356 -25.091  1.00  0.00     0.210 HD
ENDBRANCH  18  37
BRANCH   1  39
HETATM   39  C5  UNL     1     -11.976  44.323 -30.001  1.00  0.00     0.072 C 
BRANCH  39  40
HETATM   40  C4  UNL     1     -11.354  42.960 -29.820  1.00  0.00    -0.020 C 
HETATM   41  C2  UNL     1     -11.858  41.889 -29.177  1.00  0.00    -0.091 C 
HETATM   42  C1  UNL     1     -13.192  41.836 -28.485  1.00  0.00     0.042 C 
HETATM   43  C3  UNL     1     -11.075  40.604 -29.104  1.00  0.00     0.042 C 
ENDBRANCH  39  40
ENDBRANCH   1  39
BRANCH   9  44
HETATM   44  O3  UNL     1      -8.295  48.369 -31.622  1.00  0.00    -0.359 OA
HETATM   45  H11 UNL     1      -7.991  48.883 -30.840  1.00  0.00     0.217 HD
ENDBRANCH   9  44
TORSDOF 8
ENDMDL
MODEL 8
REMARK minimizedAffinity -7.59892702
REMARK CNNscore 0.33205092
REMARK CNNaffinity 6.7065196
REMARK  8 active torsions:
REMARK  status: ('A' for Active; 'I' for Inactive)
REMARK    1  A    between atoms: C4_4  and  C5_5 
REMARK    2  A    between atoms: C5_5  and  C6_6 
REMARK    3  A    between atoms: C12_14  and  O3_15 
REMARK    4  A    between atoms: C20_24  and  O5_25 
REMARK    5  A    between atoms: C27_33  and  C28_34 
REMARK    6  A    between atoms: C28_34  and  C29_35 
REMARK    7  A    between atoms: C30_36  and  C32_38 
REMARK    8  A    between atoms: C32_38  and  O8_40 
ROOT
HETATM    1  C6  UNL     1       0.264  52.505 -11.138  1.00  0.00     0.014 A 
HETATM    2  C7  UNL     1       0.948  52.598  -9.913  1.00  0.00     0.096 A 
HETATM    3  O1  UNL     1       2.279  52.935  -9.954  1.00  0.00    -0.333 OA
HETATM    4  C8  UNL     1       2.888  53.347  -8.719  1.00  0.00     0.126 C 
HETATM    5  C9  UNL     1       2.553  52.320  -7.623  1.00  0.00     0.129 C 
HETATM    6  C10 UNL     1       1.049  52.334  -7.467  1.00  0.00     0.174 C 
HETATM    7  O2  UNL     1       0.462  52.309  -6.391  1.00  0.00    -0.292 OA
HETATM    8  C11 UNL     1       0.271  52.346  -8.718  1.00  0.00     0.078 A 
HETATM    9  C12 UNL     1      -1.106  52.083  -8.717  1.00  0.00     0.095 A 
HETATM   10  C13 UNL     1      -1.814  52.031  -9.925  1.00  0.00     0.032 A 
HETATM   11  C14 UNL     1      -1.123  52.230 -11.128  1.00  0.00     0.092 A 
HETATM   12  O4  UNL     1      -1.742  52.200 -12.350  1.00  0.00    -0.335 OA
HETATM   13  C15 UNL     1      -3.120  51.796 -12.452  1.00  0.00     0.078 C 
HETATM   14  C16 UNL     1      -3.139  50.452 -13.191  1.00  0.00     0.051 C 
HETATM   15  C17 UNL     1      -3.810  52.867 -13.306  1.00  0.00     0.051 C 
HETATM   16  C18 UNL     1      -3.853  51.658 -11.141  1.00  0.00     0.012 C 
HETATM   17  C19 UNL     1      -3.248  51.769  -9.955  1.00  0.00     0.016 C 
HETATM   18  C20 UNL     1       3.273  52.640  -6.307  1.00  0.00     0.144 C 
HETATM   19  C21 UNL     1       3.942  54.010  -6.408  1.00  0.00     0.089 C 
HETATM   20  C22 UNL     1       2.906  55.044  -6.868  1.00  0.00     0.025 C 
HETATM   21  C23 UNL     1       2.549  54.828  -8.365  1.00  0.00     0.060 C 
HETATM   22  C24 UNL     1       3.453  55.626  -9.360  1.00  0.00     0.062 C 
HETATM   23  C25 UNL     1       2.740  55.923 -10.686  1.00  0.00     0.046 C 
HETATM   24  C26 UNL     1       4.013  56.954  -8.837  1.00  0.00     0.046 C 
HETATM   25  O6  UNL     1       4.574  54.766  -9.648  1.00  0.00    -0.358 OA
HETATM   26  C27 UNL     1       4.425  53.542  -8.890  1.00  0.00     0.158 C 
HETATM   27  C33 UNL     1       4.997  53.872  -7.490  1.00  0.00     0.171 C 
HETATM   28  O9  UNL     1       6.186  54.044  -7.239  1.00  0.00    -0.294 OA
ENDROOT
BRANCH  26  29
HETATM   29  C28 UNL     1       5.247  52.406  -9.519  1.00  0.00     0.077 C 
BRANCH  29  30
HETATM   30  C29 UNL     1       6.354  51.835  -8.665  1.00  0.00    -0.010 C 
HETATM   31  C30 UNL     1       7.073  50.717  -8.890  1.00  0.00     0.008 C 
HETATM   32  C31 UNL     1       8.153  50.253  -7.961  1.00  0.00     0.055 C 
BRANCH  31  33
HETATM   33  C32 UNL     1       6.844  49.876 -10.085  1.00  0.00     0.171 C 
HETATM   34  O7  UNL     1       5.901  49.136 -10.294  1.00  0.00    -0.646 OA
BRANCH  33  35
HETATM   35  O8  UNL     1       7.825  50.037 -10.990  1.00  0.00    -0.773 OA
HETATM   36  H38 UNL     1       7.572  49.403 -11.693  1.00  0.00     0.167 HD
ENDBRANCH  33  35
ENDBRANCH  31  33
ENDBRANCH  29  30
ENDBRANCH  26  29
BRANCH  18  37
HETATM   37  O5  UNL     1       4.244  51.623  -6.067  1.00  0.00    -0.394 OA
HETATM   38  H21 UNL     1       4.755  51.860  -5.270  1.00  0.00     0.210 HD
ENDBRANCH  18  37
BRANCH   1  39
HETATM   39  C5  UNL     1       0.994  52.649 -12.462  1.00  0.00     0.072 C 
BRANCH  39  40
HETATM   40  C4  UNL     1       2.045  51.583 -12.646  1.00  0.00    -0.020 C 
HETATM   41  C2  UNL     1       2.739  51.274 -13.758  1.00  0.00    -0.091 C 
HETATM   42  C1  UNL     1       2.596  51.955 -15.091  1.00  0.00     0.042 C 
HETATM   43  C3  UNL     1       3.757  50.163 -13.740  1.00  0.00     0.042 C 
ENDBRANCH  39  40
ENDBRANCH   1  39
BRANCH   9  44
HETATM   44  O3  UNL     1      -1.797  51.861  -7.548  1.00  0.00    -0.359 OA
HETATM   45  H11 UNL     1      -1.183  51.977  -6.789  1.00  0.00     0.217 HD
ENDBRANCH   9  44
TORSDOF 8
ENDMDL
MODEL 9
REMARK minimizedAffinity -8.22910881
REMARK CNNscore 0.325977921
REMARK CNNaffinity 6.43127966
REMARK  8 active torsions:
REMARK  status: ('A' for Active; 'I' for Inactive)
REMARK    1  A    between atoms: C4_4  and  C5_5 
REMARK    2  A    between atoms: C5_5  and  C6_6 
REMARK    3  A    between atoms: C12_14  and  O3_15 
REMARK    4  A    between atoms: C20_24  and  O5_25 
REMARK    5  A    between atoms: C27_33  and  C28_34 
REMARK    6  A    between atoms: C28_34  and  C29_35 
REMARK    7  A    between atoms: C30_36  and  C32_38 
REMARK    8  A    between atoms: C32_38  and  O8_40 
ROOT
HETATM    1  C6  UNL     1      -6.710  47.470 -25.990  1.00  0.00     0.014 A 
HETATM    2  C7  UNL     1      -7.227  47.039 -27.225  1.00  0.00     0.096 A 
HETATM    3  O1  UNL     1      -8.444  46.403 -27.216  1.00  0.00    -0.333 OA
HETATM    4  C8  UNL     1      -9.115  46.259 -28.478  1.00  0.00     0.126 C 
HETATM    5  C9  UNL     1      -8.132  45.681 -29.512  1.00  0.00     0.129 C 
HETATM    6  C10 UNL     1      -7.015  46.689 -29.652  1.00  0.00     0.174 C 
HETATM    7  O2  UNL     1      -6.514  47.025 -30.720  1.00  0.00    -0.292 OA
HETATM    8  C11 UNL     1      -6.500  47.262 -28.397  1.00  0.00     0.078 A 
HETATM    9  C12 UNL     1      -5.301  47.985 -28.369  1.00  0.00     0.095 A 
HETATM   10  C13 UNL     1      -4.793  48.462 -27.153  1.00  0.00     0.032 A 
HETATM   11  C14 UNL     1      -5.494  48.192 -25.970  1.00  0.00     0.092 A 
HETATM   12  O4  UNL     1      -5.069  48.626 -24.742  1.00  0.00    -0.335 OA
HETATM   13  C15 UNL     1      -3.778  49.249 -24.604  1.00  0.00     0.078 C 
HETATM   14  C16 UNL     1      -2.902  48.288 -23.790  1.00  0.00     0.051 C 
HETATM   15  C17 UNL     1      -4.017  50.536 -23.805  1.00  0.00     0.051 C 
HETATM   16  C18 UNL     1      -3.082  49.589 -25.898  1.00  0.00     0.012 C 
HETATM   17  C19 UNL     1      -3.552  49.226 -27.093  1.00  0.00     0.016 C 
HETATM   18  C20 UNL     1      -8.823  45.391 -30.851  1.00  0.00     0.144 C 
HETATM   19  C21 UNL     1     -10.238  45.967 -30.833  1.00  0.00     0.089 C 
HETATM   20  C22 UNL     1     -10.176  47.444 -30.422  1.00  0.00     0.025 C 
HETATM   21  C23 UNL     1      -9.834  47.574 -28.911  1.00  0.00     0.060 C 
HETATM   22  C24 UNL     1     -11.084  47.599 -27.972  1.00  0.00     0.062 C 
HETATM   23  C25 UNL     1     -10.810  48.342 -26.658  1.00  0.00     0.046 C 
HETATM   24  C26 UNL     1     -12.362  48.194 -28.575  1.00  0.00     0.046 C 
HETATM   25  O6  UNL     1     -11.358  46.221 -27.648  1.00  0.00    -0.358 OA
HETATM   26  C27 UNL     1     -10.397  45.384 -28.334  1.00  0.00     0.158 C 
HETATM   27  C33 UNL     1     -10.980  45.198 -29.756  1.00  0.00     0.171 C 
HETATM   28  O9  UNL     1     -11.969  44.523 -30.028  1.00  0.00    -0.294 OA
ENDROOT
BRANCH  26  29
HETATM   29  C28 UNL     1     -10.281  44.012 -27.650  1.00  0.00     0.077 C 
BRANCH  29  30
HETATM   30  C29 UNL     1     -10.077  42.829 -28.566  1.00  0.00    -0.010 C 
HETATM   31  C30 UNL     1     -10.879  41.754 -28.712  1.00  0.00     0.008 C 
HETATM   32  C31 UNL     1     -10.566  40.638 -29.661  1.00  0.00     0.055 C 
BRANCH  31  33
HETATM   33  C32 UNL     1     -12.134  41.614 -27.942  1.00  0.00     0.171 C 
HETATM   34  O7  UNL     1     -12.270  41.114 -26.841  1.00  0.00    -0.646 OA
BRANCH  33  35
HETATM   35  O8  UNL     1     -13.174  42.151 -28.603  1.00  0.00    -0.773 OA
HETATM   36  H38 UNL     1     -13.928  41.953 -28.011  1.00  0.00     0.167 HD
ENDBRANCH  33  35
ENDBRANCH  31  33
ENDBRANCH  29  30
ENDBRANCH  26  29
BRANCH  18  37
HETATM   37  O5  UNL     1      -8.857  43.978 -31.042  1.00  0.00    -0.394 OA
HETATM   38  H21 UNL     1      -9.360  43.785 -31.857  1.00  0.00     0.210 HD
ENDBRANCH  18  37
BRANCH   1  39
HETATM   39  C5  UNL     1      -7.409  47.136 -24.683  1.00  0.00     0.072 C 
BRANCH  39  40
HETATM   40  C4  UNL     1      -7.563  48.349 -23.800  1.00  0.00    -0.020 C 
HETATM   41  C2  UNL     1      -7.160  48.513 -22.525  1.00  0.00    -0.091 C 
HETATM   42  C1  UNL     1      -6.450  47.479 -21.696  1.00  0.00     0.042 C 
HETATM   43  C3  UNL     1      -7.411  49.814 -21.806  1.00  0.00     0.042 C 
ENDBRANCH  39  40
ENDBRANCH   1  39
BRANCH   9  44
HETATM   44  O3  UNL     1      -4.586  48.241 -29.516  1.00  0.00    -0.359 OA
HETATM   45  H11 UNL     1      -5.086  47.890 -30.288  1.00  0.00     0.217 HD
ENDBRANCH   9  44
TORSDOF 8
ENDMDL
