MODEL 1
REMARK minimizedAffinity -10.4722195
REMARK CNNscore 0.807992995
REMARK CNNaffinity 7.55496407
REMARK  12 active torsions:
REMARK  status: ('A' for Active; 'I' for Inactive)
REMARK    1  A    between atoms: C4_5  and  C5_6 
REMARK    2  A    between atoms: C5_6  and  O2_7 
REMARK    3  A    between atoms: C5_6  and  C6_8 
REMARK    4  A    between atoms: C6_8  and  O3_10 
REMARK    5  A    between atoms: C6_8  and  C8_11 
REMARK    6  A    between atoms: C11_14  and  O4_15 
REMARK    7  A    between atoms: C17_22  and  O6_23 
REMARK    8  A    between atoms: O6_23  and  C18_24 
REMARK    9  A    between atoms: C18_24  and  C19_25 
REMARK   10  A    between atoms: C19_25  and  C20_26 
REMARK   11  A    between atoms: C35_41  and  C36_42 
REMARK   12  A    between atoms: C36_42  and  O7_43 
ROOT
HETATM    1  C8  UNL     1      -1.025   7.467  13.827  1.00  0.00     0.034 C 
HETATM    2  C9  UNL     1      -0.709   6.019  14.257  1.00  0.00     0.012 C 
HETATM    3  C10 UNL     1      -2.019   5.275  14.085  1.00  0.00     0.044 C 
HETATM    4  C11 UNL     1      -3.028   6.210  14.754  1.00  0.00     0.089 C 
HETATM    5  C12 UNL     1      -4.486   6.019  14.380  1.00  0.00    -0.037 C 
HETATM    6  C13 UNL     1      -4.961   4.993  13.654  1.00  0.00     0.057 C 
HETATM    7  C14 UNL     1      -6.388   4.924  13.246  1.00  0.00     0.154 C 
HETATM    8  O5  UNL     1      -6.782   3.930  12.643  1.00  0.00    -0.293 OA
HETATM    9  C15 UNL     1      -7.264   6.137  13.522  1.00  0.00     0.071 C 
HETATM   10  C16 UNL     1      -8.755   5.800  13.416  1.00  0.00     0.045 C 
HETATM   11  C17 UNL     1      -9.631   7.030  13.656  1.00  0.00     0.122 C 
HETATM   12  C26 UNL     1      -9.288   7.734  14.972  1.00  0.00     0.033 C 
HETATM   13  C27 UNL     1      -7.792   8.041  15.091  1.00  0.00     0.013 C 
HETATM   14  C28 UNL     1      -6.895   6.791  14.879  1.00  0.00    -0.026 C 
HETATM   15  C29 UNL     1      -7.145   5.813  16.068  1.00  0.00     0.016 C 
HETATM   16  C30 UNL     1      -5.368   7.153  14.876  1.00  0.00     0.026 C 
HETATM   17  C31 UNL     1      -4.976   8.425  14.101  1.00  0.00     0.011 C 
HETATM   18  C32 UNL     1      -3.521   8.443  13.582  1.00  0.00     0.014 C 
HETATM   19  C33 UNL     1      -2.494   7.676  14.452  1.00  0.00    -0.002 C 
HETATM   20  C34 UNL     1      -2.303   8.498  15.758  1.00  0.00     0.019 C 
ENDROOT
BRANCH   1  21
HETATM   21  C6  UNL     1      -0.756   7.776  12.303  1.00  0.00     0.087 C 
HETATM   22  C7  UNL     1      -1.486   9.067  11.867  1.00  0.00     0.049 C 
BRANCH  21  23
HETATM   23  C5  UNL     1       0.754   7.930  11.864  1.00  0.00     0.181 C 
BRANCH  23  24
HETATM   24  C4  UNL     1       1.060   7.726  10.363  1.00  0.00     0.159 C 
HETATM   25  O1  UNL     1       2.106   8.600   9.903  1.00  0.00    -0.382 OA
HETATM   26  C3  UNL     1       2.935   7.894   8.970  1.00  0.00     0.173 C 
HETATM   27  C2  UNL     1       2.184   6.626   8.605  1.00  0.00     0.014 C 
HETATM   28  C1  UNL     1       3.070   5.543   8.018  1.00  0.00     0.012 C 
HETATM   29  C35 UNL     1       1.428   6.300   9.897  1.00  0.00     0.046 C 
BRANCH  29  30
HETATM   30  C36 UNL     1       2.198   5.422  10.892  1.00  0.00     0.172 C 
BRANCH  30  31
HETATM   31  O7  UNL     1       2.383   4.095  10.430  1.00  0.00    -0.400 OA
HETATM   32  H52 UNL     1       3.028   4.162   9.690  1.00  0.00     0.209 HD
ENDBRANCH  30  31
ENDBRANCH  29  30
ENDBRANCH  23  24
BRANCH  23  33
HETATM   33  O2  UNL     1       1.279   9.173  12.362  1.00  0.00    -0.390 OA
HETATM   34  H9  UNL     1       0.747   9.372  13.161  1.00  0.00     0.210 HD
ENDBRANCH  23  33
ENDBRANCH  21  23
BRANCH  21  35
HETATM   35  O3  UNL     1      -1.252   6.676  11.512  1.00  0.00    -0.387 OA
HETATM   36  H13 UNL     1      -1.356   6.983  10.593  1.00  0.00     0.210 HD
ENDBRANCH  21  35
ENDBRANCH   1  21
BRANCH   4  37
HETATM   37  O4  UNL     1      -2.964   5.945  16.163  1.00  0.00    -0.384 OA
HETATM   38  H19 UNL     1      -3.251   5.026  16.299  1.00  0.00     0.211 HD
ENDBRANCH   4  37
BRANCH  11  39
HETATM   39  O6  UNL     1     -10.991   6.594  13.720  1.00  0.00    -0.386 OA
BRANCH  39  40
HETATM   40  C18 UNL     1     -11.950   7.647  13.626  1.00  0.00     0.172 C 
BRANCH  40  41
HETATM   41  C19 UNL     1     -13.079   7.450  14.640  1.00  0.00     0.064 C 
BRANCH  41  42
HETATM   42  C20 UNL     1     -14.338   6.925  14.000  1.00  0.00    -0.056 A 
HETATM   43  C21 UNL     1     -15.137   5.984  14.665  1.00  0.00     0.007 A 
HETATM   44  C22 UNL     1     -16.295   5.491  14.064  1.00  0.00     0.001 A 
HETATM   45  C23 UNL     1     -16.664   5.929  12.793  1.00  0.00     0.000 A 
HETATM   46  C24 UNL     1     -15.874   6.860  12.122  1.00  0.00     0.001 A 
HETATM   47  C25 UNL     1     -14.714   7.355  12.721  1.00  0.00     0.007 A 
ENDBRANCH  41  42
ENDBRANCH  40  41
ENDBRANCH  39  40
ENDBRANCH  11  39
TORSDOF 12
ENDMDL
MODEL 2
REMARK minimizedAffinity -9.97049332
REMARK CNNscore 0.655295134
REMARK CNNaffinity 6.78287506
REMARK  12 active torsions:
REMARK  status: ('A' for Active; 'I' for Inactive)
REMARK    1  A    between atoms: C4_5  and  C5_6 
REMARK    2  A    between atoms: C5_6  and  O2_7 
REMARK    3  A    between atoms: C5_6  and  C6_8 
REMARK    4  A    between atoms: C6_8  and  O3_10 
REMARK    5  A    between atoms: C6_8  and  C8_11 
REMARK    6  A    between atoms: C11_14  and  O4_15 
REMARK    7  A    between atoms: C17_22  and  O6_23 
REMARK    8  A    between atoms: O6_23  and  C18_24 
REMARK    9  A    between atoms: C18_24  and  C19_25 
REMARK   10  A    between atoms: C19_25  and  C20_26 
REMARK   11  A    between atoms: C35_41  and  C36_42 
REMARK   12  A    between atoms: C36_42  and  O7_43 
ROOT
HETATM    1  C8  UNL     1       0.974   8.462  13.797  1.00  0.00     0.034 C 
HETATM    2  C9  UNL     1       1.467   7.301  14.685  1.00  0.00     0.012 C 
HETATM    3  C10 UNL     1       0.348   6.280  14.636  1.00  0.00     0.044 C 
HETATM    4  C11 UNL     1      -0.898   7.133  14.885  1.00  0.00     0.089 C 
HETATM    5  C12 UNL     1      -2.226   6.538  14.459  1.00  0.00    -0.037 C 
HETATM    6  C13 UNL     1      -2.401   5.270  14.050  1.00  0.00     0.057 C 
HETATM    7  C14 UNL     1      -3.717   4.787  13.558  1.00  0.00     0.154 C 
HETATM    8  O5  UNL     1      -3.837   3.601  13.263  1.00  0.00    -0.293 OA
HETATM    9  C15 UNL     1      -4.822   5.814  13.359  1.00  0.00     0.071 C 
HETATM   10  C16 UNL     1      -6.198   5.154  13.229  1.00  0.00     0.045 C 
HETATM   11  C17 UNL     1      -7.301   6.187  12.992  1.00  0.00     0.122 C 
HETATM   12  C26 UNL     1      -7.287   7.296  14.047  1.00  0.00     0.033 C 
HETATM   13  C27 UNL     1      -5.902   7.933  14.199  1.00  0.00     0.013 C 
HETATM   14  C28 UNL     1      -4.780   6.894  14.471  1.00  0.00    -0.026 C 
HETATM   15  C29 UNL     1      -5.033   6.272  15.879  1.00  0.00     0.016 C 
HETATM   16  C30 UNL     1      -3.357   7.554  14.494  1.00  0.00     0.026 C 
HETATM   17  C31 UNL     1      -3.079   8.601  13.399  1.00  0.00     0.011 C 
HETATM   18  C32 UNL     1      -1.589   8.775  13.034  1.00  0.00     0.014 C 
HETATM   19  C33 UNL     1      -0.586   8.527  14.190  1.00  0.00    -0.002 C 
HETATM   20  C34 UNL     1      -0.740   9.712  15.184  1.00  0.00     0.019 C 
ENDROOT
BRANCH   1  21
HETATM   21  C6  UNL     1       1.412   8.368  12.284  1.00  0.00     0.087 C 
HETATM   22  C7  UNL     1       2.870   8.848  12.103  1.00  0.00     0.049 C 
BRANCH  21  23
HETATM   23  C5  UNL     1       1.306   6.947  11.601  1.00  0.00     0.181 C 
BRANCH  23  24
HETATM   24  C4  UNL     1       0.838   6.924  10.128  1.00  0.00     0.159 C 
HETATM   25  O1  UNL     1       0.273   8.184   9.722  1.00  0.00    -0.382 OA
HETATM   26  C3  UNL     1       0.667   8.464   8.372  1.00  0.00     0.173 C 
HETATM   27  C2  UNL     1       1.243   7.174   7.818  1.00  0.00     0.014 C 
HETATM   28  C1  UNL     1       2.127   7.377   6.600  1.00  0.00     0.012 C 
HETATM   29  C35 UNL     1       1.877   6.530   9.055  1.00  0.00     0.046 C 
BRANCH  29  30
HETATM   30  C36 UNL     1       3.334   6.934   9.318  1.00  0.00     0.172 C 
BRANCH  30  31
HETATM   31  O7  UNL     1       4.190   5.822   9.512  1.00  0.00    -0.400 OA
HETATM   32  H52 UNL     1       4.264   5.391   8.631  1.00  0.00     0.209 HD
ENDBRANCH  30  31
ENDBRANCH  29  30
ENDBRANCH  23  24
BRANCH  23  33
HETATM   33  O2  UNL     1       2.534   6.224  11.792  1.00  0.00    -0.390 OA
HETATM   34  H9  UNL     1       2.918   6.590  12.617  1.00  0.00     0.210 HD
ENDBRANCH  23  33
ENDBRANCH  21  23
BRANCH  21  35
HETATM   35  O3  UNL     1       0.547   9.213  11.497  1.00  0.00    -0.387 OA
HETATM   36  H13 UNL     1       0.983   9.385  10.643  1.00  0.00     0.210 HD
ENDBRANCH  21  35
ENDBRANCH   1  21
BRANCH   4  37
HETATM   37  O4  UNL     1      -1.001   7.305  16.306  1.00  0.00    -0.384 OA
HETATM   38  H19 UNL     1      -1.142   6.425  16.696  1.00  0.00     0.211 HD
ENDBRANCH   4  37
BRANCH  11  39
HETATM   39  O6  UNL     1      -8.557   5.510  13.066  1.00  0.00    -0.386 OA
BRANCH  39  40
HETATM   40  C18 UNL     1      -9.684   6.330  12.754  1.00  0.00     0.172 C 
BRANCH  40  41
HETATM   41  C19 UNL     1     -10.533   6.588  14.001  1.00  0.00     0.064 C 
BRANCH  41  42
HETATM   42  C20 UNL     1     -11.939   7.010  13.659  1.00  0.00    -0.056 A 
HETATM   43  C21 UNL     1     -12.176   8.214  12.981  1.00  0.00     0.007 A 
HETATM   44  C22 UNL     1     -13.480   8.607  12.677  1.00  0.00     0.001 A 
HETATM   45  C23 UNL     1     -14.557   7.805  13.049  1.00  0.00     0.000 A 
HETATM   46  C24 UNL     1     -14.332   6.609  13.728  1.00  0.00     0.001 A 
HETATM   47  C25 UNL     1     -13.028   6.213  14.034  1.00  0.00     0.007 A 
ENDBRANCH  41  42
ENDBRANCH  40  41
ENDBRANCH  39  40
ENDBRANCH  11  39
TORSDOF 12
ENDMDL
MODEL 3
REMARK minimizedAffinity -10.1709194
REMARK CNNscore 0.638557136
REMARK CNNaffinity 7.33376074
REMARK  12 active torsions:
REMARK  status: ('A' for Active; 'I' for Inactive)
REMARK    1  A    between atoms: C4_5  and  C5_6 
REMARK    2  A    between atoms: C5_6  and  O2_7 
REMARK    3  A    between atoms: C5_6  and  C6_8 
REMARK    4  A    between atoms: C6_8  and  O3_10 
REMARK    5  A    between atoms: C6_8  and  C8_11 
REMARK    6  A    between atoms: C11_14  and  O4_15 
REMARK    7  A    between atoms: C17_22  and  O6_23 
REMARK    8  A    between atoms: O6_23  and  C18_24 
REMARK    9  A    between atoms: C18_24  and  C19_25 
REMARK   10  A    between atoms: C19_25  and  C20_26 
REMARK   11  A    between atoms: C35_41  and  C36_42 
REMARK   12  A    between atoms: C36_42  and  O7_43 
ROOT
HETATM    1  C8  UNL     1      -0.724   7.206  13.326  1.00  0.00     0.034 C 
HETATM    2  C9  UNL     1      -0.416   5.723  13.619  1.00  0.00     0.012 C 
HETATM    3  C10 UNL     1      -1.754   5.022  13.494  1.00  0.00     0.044 C 
HETATM    4  C11 UNL     1      -2.684   5.924  14.310  1.00  0.00     0.089 C 
HETATM    5  C12 UNL     1      -4.171   5.793  14.037  1.00  0.00    -0.037 C 
HETATM    6  C13 UNL     1      -4.728   4.837  13.274  1.00  0.00     0.057 C 
HETATM    7  C14 UNL     1      -6.183   4.830  12.976  1.00  0.00     0.154 C 
HETATM    8  O5  UNL     1      -6.649   3.895  12.332  1.00  0.00    -0.293 OA
HETATM    9  C15 UNL     1      -7.002   6.037  13.411  1.00  0.00     0.071 C 
HETATM   10  C16 UNL     1      -8.505   5.741  13.397  1.00  0.00     0.045 C 
HETATM   11  C17 UNL     1      -9.327   6.967  13.798  1.00  0.00     0.122 C 
HETATM   12  C26 UNL     1      -8.865   7.558  15.132  1.00  0.00     0.033 C 
HETATM   13  C27 UNL     1      -7.357   7.823  15.157  1.00  0.00     0.013 C 
HETATM   14  C28 UNL     1      -6.513   6.575  14.781  1.00  0.00    -0.026 C 
HETATM   15  C29 UNL     1      -6.697   5.513  15.908  1.00  0.00     0.016 C 
HETATM   16  C30 UNL     1      -4.981   6.903  14.686  1.00  0.00     0.026 C 
HETATM   17  C31 UNL     1      -4.615   8.223  13.981  1.00  0.00     0.011 C 
HETATM   18  C32 UNL     1      -3.205   8.251  13.353  1.00  0.00     0.014 C 
HETATM   19  C33 UNL     1      -2.134   7.396  14.079  1.00  0.00    -0.002 C 
HETATM   20  C34 UNL     1      -1.822   8.111  15.424  1.00  0.00     0.019 C 
ENDROOT
BRANCH   1  21
HETATM   21  C6  UNL     1      -0.564   7.627  11.814  1.00  0.00     0.087 C 
HETATM   22  C7  UNL     1      -1.539   8.772  11.456  1.00  0.00     0.049 C 
BRANCH  21  23
HETATM   23  C5  UNL     1       0.876   8.086  11.352  1.00  0.00     0.181 C 
BRANCH  23  24
HETATM   24  C4  UNL     1       1.965   6.991  11.302  1.00  0.00     0.159 C 
HETATM   25  O1  UNL     1       2.157   6.483   9.969  1.00  0.00    -0.382 OA
HETATM   26  C3  UNL     1       3.554   6.241   9.754  1.00  0.00     0.173 C 
HETATM   27  C2  UNL     1       4.215   6.309  11.118  1.00  0.00     0.014 C 
HETATM   28  C1  UNL     1       5.714   6.547  11.056  1.00  0.00     0.012 C 
HETATM   29  C35 UNL     1       3.363   7.348  11.853  1.00  0.00     0.046 C 
BRANCH  29  30
HETATM   30  C36 UNL     1       3.826   8.801  11.682  1.00  0.00     0.172 C 
BRANCH  30  31
HETATM   31  O7  UNL     1       3.906   9.505  12.908  1.00  0.00    -0.400 OA
HETATM   32  H52 UNL     1       4.672   9.112  13.386  1.00  0.00     0.209 HD
ENDBRANCH  30  31
ENDBRANCH  29  30
ENDBRANCH  23  24
BRANCH  23  33
HETATM   33  O2  UNL     1       0.779   8.813  10.115  1.00  0.00    -0.390 OA
HETATM   34  H9  UNL     1      -0.124   9.197  10.116  1.00  0.00     0.210 HD
ENDBRANCH  23  33
ENDBRANCH  21  23
BRANCH  21  35
HETATM   35  O3  UNL     1      -0.865   6.488  10.981  1.00  0.00    -0.387 OA
HETATM   36  H13 UNL     1      -1.053   6.809  10.080  1.00  0.00     0.210 HD
ENDBRANCH  21  35
ENDBRANCH   1  21
BRANCH   4  37
HETATM   37  O4  UNL     1      -2.519   5.548  15.685  1.00  0.00    -0.384 OA
HETATM   38  H19 UNL     1      -2.820   4.627  15.772  1.00  0.00     0.211 HD
ENDBRANCH   4  37
BRANCH  11  39
HETATM   39  O6  UNL     1     -10.689   6.555  13.935  1.00  0.00    -0.386 OA
BRANCH  39  40
HETATM   40  C18 UNL     1     -11.616   7.633  14.078  1.00  0.00     0.172 C 
BRANCH  40  41
HETATM   41  C19 UNL     1     -12.619   7.647  12.923  1.00  0.00     0.064 C 
BRANCH  41  42
HETATM   42  C20 UNL     1     -13.894   6.919  13.263  1.00  0.00    -0.056 A 
HETATM   43  C21 UNL     1     -13.932   6.010  14.330  1.00  0.00     0.007 A 
HETATM   44  C22 UNL     1     -15.110   5.329  14.635  1.00  0.00     0.001 A 
HETATM   45  C23 UNL     1     -16.259   5.546  13.876  1.00  0.00     0.000 A 
HETATM   46  C24 UNL     1     -16.230   6.443  12.811  1.00  0.00     0.001 A 
HETATM   47  C25 UNL     1     -15.052   7.126  12.503  1.00  0.00     0.007 A 
ENDBRANCH  41  42
ENDBRANCH  40  41
ENDBRANCH  39  40
ENDBRANCH  11  39
TORSDOF 12
ENDMDL
MODEL 4
REMARK minimizedAffinity -9.86820316
REMARK CNNscore 0.613529086
REMARK CNNaffinity 7.30697775
REMARK  12 active torsions:
REMARK  status: ('A' for Active; 'I' for Inactive)
REMARK    1  A    between atoms: C4_5  and  C5_6 
REMARK    2  A    between atoms: C5_6  and  O2_7 
REMARK    3  A    between atoms: C5_6  and  C6_8 
REMARK    4  A    between atoms: C6_8  and  O3_10 
REMARK    5  A    between atoms: C6_8  and  C8_11 
REMARK    6  A    between atoms: C11_14  and  O4_15 
REMARK    7  A    between atoms: C17_22  and  O6_23 
REMARK    8  A    between atoms: O6_23  and  C18_24 
REMARK    9  A    between atoms: C18_24  and  C19_25 
REMARK   10  A    between atoms: C19_25  and  C20_26 
REMARK   11  A    between atoms: C35_41  and  C36_42 
REMARK   12  A    between atoms: C36_42  and  O7_43 
ROOT
HETATM    1  C8  UNL     1      -1.280   7.445  14.068  1.00  0.00     0.034 C 
HETATM    2  C9  UNL     1      -1.042   5.987  14.515  1.00  0.00     0.012 C 
HETATM    3  C10 UNL     1      -2.389   5.312  14.351  1.00  0.00     0.044 C 
HETATM    4  C11 UNL     1      -3.347   6.307  15.010  1.00  0.00     0.089 C 
HETATM    5  C12 UNL     1      -4.813   6.190  14.638  1.00  0.00    -0.037 C 
HETATM    6  C13 UNL     1      -5.342   5.182  13.924  1.00  0.00     0.057 C 
HETATM    7  C14 UNL     1      -6.772   5.185  13.518  1.00  0.00     0.154 C 
HETATM    8  O5  UNL     1      -7.218   4.206  12.926  1.00  0.00    -0.293 OA
HETATM    9  C15 UNL     1      -7.581   6.446  13.780  1.00  0.00     0.071 C 
HETATM   10  C16 UNL     1      -9.088   6.188  13.678  1.00  0.00     0.045 C 
HETATM   11  C17 UNL     1      -9.898   7.466  13.905  1.00  0.00     0.122 C 
HETATM   12  C26 UNL     1      -9.516   8.164  15.212  1.00  0.00     0.033 C 
HETATM   13  C27 UNL     1      -8.006   8.392  15.327  1.00  0.00     0.013 C 
HETATM   14  C28 UNL     1      -7.177   7.094  15.129  1.00  0.00    -0.026 C 
HETATM   15  C29 UNL     1      -7.478   6.145  16.330  1.00  0.00     0.016 C 
HETATM   16  C30 UNL     1      -5.633   7.374  15.122  1.00  0.00     0.026 C 
HETATM   17  C31 UNL     1      -5.174   8.615  14.333  1.00  0.00     0.011 C 
HETATM   18  C32 UNL     1      -3.721   8.550  13.814  1.00  0.00     0.014 C 
HETATM   19  C33 UNL     1      -2.735   7.738  14.692  1.00  0.00    -0.002 C 
HETATM   20  C34 UNL     1      -2.500   8.564  15.988  1.00  0.00     0.019 C 
ENDROOT
BRANCH   1  21
HETATM   21  C6  UNL     1      -0.996   7.722  12.541  1.00  0.00     0.087 C 
HETATM   22  C7  UNL     1      -1.735   8.994  12.067  1.00  0.00     0.049 C 
BRANCH  21  23
HETATM   23  C5  UNL     1       0.517   7.883  12.117  1.00  0.00     0.181 C 
BRANCH  23  24
HETATM   24  C4  UNL     1       0.836   7.697  10.616  1.00  0.00     0.159 C 
HETATM   25  O1  UNL     1       1.835   8.625  10.158  1.00  0.00    -0.382 OA
HETATM   26  C3  UNL     1       2.701   7.964   9.226  1.00  0.00     0.173 C 
HETATM   27  C2  UNL     1       2.018   6.659   8.859  1.00  0.00     0.014 C 
HETATM   28  C1  UNL     1       2.961   5.624   8.272  1.00  0.00     0.012 C 
HETATM   29  C35 UNL     1       1.278   6.292  10.149  1.00  0.00     0.046 C 
BRANCH  29  30
HETATM   30  C36 UNL     1       2.092   5.455  11.144  1.00  0.00     0.172 C 
BRANCH  30  31
HETATM   31  O7  UNL     1       3.257   6.118  11.602  1.00  0.00    -0.400 OA
HETATM   32  H52 UNL     1       2.935   6.846  12.179  1.00  0.00     0.209 HD
ENDBRANCH  30  31
ENDBRANCH  29  30
ENDBRANCH  23  24
BRANCH  23  33
HETATM   33  O2  UNL     1       1.036   9.121  12.633  1.00  0.00    -0.390 OA
HETATM   34  H9  UNL     1       0.497   9.310  13.430  1.00  0.00     0.210 HD
ENDBRANCH  23  33
ENDBRANCH  21  23
BRANCH  21  35
HETATM   35  O3  UNL     1      -1.470   6.599  11.770  1.00  0.00    -0.387 OA
HETATM   36  H13 UNL     1      -1.567   6.883  10.843  1.00  0.00     0.210 HD
ENDBRANCH  21  35
ENDBRANCH   1  21
BRANCH   4  37
HETATM   37  O4  UNL     1      -3.295   6.054  16.422  1.00  0.00    -0.384 OA
HETATM   38  H19 UNL     1      -3.631   5.153  16.568  1.00  0.00     0.211 HD
ENDBRANCH   4  37
BRANCH  11  39
HETATM   39  O6  UNL     1     -11.278   7.103  13.974  1.00  0.00    -0.386 OA
BRANCH  39  40
HETATM   40  C18 UNL     1     -12.039   7.467  12.821  1.00  0.00     0.172 C 
BRANCH  40  41
HETATM   41  C19 UNL     1     -11.875   8.955  12.506  1.00  0.00     0.064 C 
BRANCH  41  42
HETATM   42  C20 UNL     1     -12.551   9.834  13.526  1.00  0.00    -0.056 A 
HETATM   43  C21 UNL     1     -11.844  10.867  14.157  1.00  0.00     0.007 A 
HETATM   44  C22 UNL     1     -12.470  11.670  15.110  1.00  0.00     0.001 A 
HETATM   45  C23 UNL     1     -13.805  11.448  15.444  1.00  0.00     0.000 A 
HETATM   46  C24 UNL     1     -14.515  10.420  14.826  1.00  0.00     0.001 A 
HETATM   47  C25 UNL     1     -13.890   9.614  13.872  1.00  0.00     0.007 A 
ENDBRANCH  41  42
ENDBRANCH  40  41
ENDBRANCH  39  40
ENDBRANCH  11  39
TORSDOF 12
ENDMDL
MODEL 5
REMARK minimizedAffinity -8.11509514
REMARK CNNscore 0.575102508
REMARK CNNaffinity 6.64198923
REMARK  12 active torsions:
REMARK  status: ('A' for Active; 'I' for Inactive)
REMARK    1  A    between atoms: C4_5  and  C5_6 
REMARK    2  A    between atoms: C5_6  and  O2_7 
REMARK    3  A    between atoms: C5_6  and  C6_8 
REMARK    4  A    between atoms: C6_8  and  O3_10 
REMARK    5  A    between atoms: C6_8  and  C8_11 
REMARK    6  A    between atoms: C11_14  and  O4_15 
REMARK    7  A    between atoms: C17_22  and  O6_23 
REMARK    8  A    between atoms: O6_23  and  C18_24 
REMARK    9  A    between atoms: C18_24  and  C19_25 
REMARK   10  A    between atoms: C19_25  and  C20_26 
REMARK   11  A    between atoms: C35_41  and  C36_42 
REMARK   12  A    between atoms: C36_42  and  O7_43 
ROOT
HETATM    1  C8  UNL     1      -1.462   7.613  13.674  1.00  0.00     0.034 C 
HETATM    2  C9  UNL     1      -2.979   7.432  13.457  1.00  0.00     0.012 C 
HETATM    3  C10 UNL     1      -3.590   8.742  13.910  1.00  0.00     0.044 C 
HETATM    4  C11 UNL     1      -2.899   8.989  15.254  1.00  0.00     0.089 C 
HETATM    5  C12 UNL     1      -2.918  10.412  15.778  1.00  0.00    -0.037 C 
HETATM    6  C13 UNL     1      -3.636  11.415  15.244  1.00  0.00     0.057 C 
HETATM    7  C14 UNL     1      -3.529  12.806  15.756  1.00  0.00     0.154 C 
HETATM    8  O5  UNL     1      -4.260  13.668  15.276  1.00  0.00    -0.293 OA
HETATM    9  C15 UNL     1      -2.451  13.101  16.787  1.00  0.00     0.071 C 
HETATM   10  C16 UNL     1      -2.694  14.435  17.500  1.00  0.00     0.045 C 
HETATM   11  C17 UNL     1      -1.588  14.747  18.510  1.00  0.00     0.122 C 
HETATM   12  C26 UNL     1      -1.365  13.595  19.493  1.00  0.00     0.033 C 
HETATM   13  C27 UNL     1      -1.154  12.257  18.779  1.00  0.00     0.013 C 
HETATM   14  C28 UNL     1      -2.288  11.917  17.775  1.00  0.00    -0.026 C 
HETATM   15  C29 UNL     1      -3.595  11.674  18.591  1.00  0.00     0.016 C 
HETATM   16  C30 UNL     1      -1.987  10.609  16.963  1.00  0.00     0.026 C 
HETATM   17  C31 UNL     1      -0.542  10.446  16.454  1.00  0.00     0.011 C 
HETATM   18  C32 UNL     1      -0.393   9.554  15.203  1.00  0.00     0.014 C 
HETATM   19  C33 UNL     1      -1.431   8.410  15.073  1.00  0.00    -0.002 C 
HETATM   20  C34 UNL     1      -1.087   7.362  16.168  1.00  0.00     0.019 C 
ENDROOT
BRANCH   1  21
HETATM   21  C6  UNL     1      -0.677   8.168  12.422  1.00  0.00     0.087 C 
HETATM   22  C7  UNL     1       0.646   8.838  12.857  1.00  0.00     0.049 C 
BRANCH  21  23
HETATM   23  C5  UNL     1      -0.318   7.127  11.289  1.00  0.00     0.181 C 
BRANCH  23  24
HETATM   24  C4  UNL     1       1.061   7.295  10.611  1.00  0.00     0.159 C 
HETATM   25  O1  UNL     1       1.617   6.034  10.200  1.00  0.00    -0.382 OA
HETATM   26  C3  UNL     1       2.280   6.199   8.941  1.00  0.00     0.173 C 
HETATM   27  C2  UNL     1       2.406   7.695   8.716  1.00  0.00     0.014 C 
HETATM   28  C1  UNL     1       2.643   8.073   7.264  1.00  0.00     0.012 C 
HETATM   29  C35 UNL     1       1.147   8.243   9.394  1.00  0.00     0.046 C 
BRANCH  29  30
HETATM   30  C36 UNL     1      -0.090   8.326   8.490  1.00  0.00     0.172 C 
BRANCH  30  31
HETATM   31  O7  UNL     1      -0.959   9.389   8.837  1.00  0.00    -0.400 OA
HETATM   32  H52 UNL     1      -0.480  10.211   8.586  1.00  0.00     0.209 HD
ENDBRANCH  30  31
ENDBRANCH  29  30
ENDBRANCH  23  24
BRANCH  23  33
HETATM   33  O2  UNL     1      -0.524   5.790  11.777  1.00  0.00    -0.390 OA
HETATM   34  H9  UNL     1      -1.211   5.876  12.472  1.00  0.00     0.210 HD
ENDBRANCH  23  33
ENDBRANCH  21  23
BRANCH  21  35
HETATM   35  O3  UNL     1      -1.498   9.154  11.761  1.00  0.00    -0.387 OA
HETATM   36  H13 UNL     1      -0.923   9.695  11.188  1.00  0.00     0.210 HD
ENDBRANCH  21  35
ENDBRANCH   1  21
BRANCH   4  37
HETATM   37  O4  UNL     1      -3.614   8.218  16.231  1.00  0.00    -0.384 OA
HETATM   38  H19 UNL     1      -4.518   8.573  16.275  1.00  0.00     0.211 HD
ENDBRANCH   4  37
BRANCH  11  39
HETATM   39  O6  UNL     1      -1.985  15.903  19.251  1.00  0.00    -0.386 OA
BRANCH  39  40
HETATM   40  C18 UNL     1      -2.119  15.681  20.656  1.00  0.00     0.172 C 
BRANCH  40  41
HETATM   41  C19 UNL     1      -3.399  16.326  21.190  1.00  0.00     0.064 C 
BRANCH  41  42
HETATM   42  C20 UNL     1      -4.450  15.305  21.544  1.00  0.00    -0.056 A 
HETATM   43  C21 UNL     1      -4.829  14.324  20.618  1.00  0.00     0.007 A 
HETATM   44  C22 UNL     1      -5.811  13.388  20.944  1.00  0.00     0.001 A 
HETATM   45  C23 UNL     1      -6.424  13.424  22.195  1.00  0.00     0.000 A 
HETATM   46  C24 UNL     1      -6.057  14.399  23.121  1.00  0.00     0.001 A 
HETATM   47  C25 UNL     1      -5.075  15.338  22.796  1.00  0.00     0.007 A 
ENDBRANCH  41  42
ENDBRANCH  40  41
ENDBRANCH  39  40
ENDBRANCH  11  39
TORSDOF 12
ENDMDL
MODEL 6
REMARK minimizedAffinity -9.56840229
REMARK CNNscore 0.554546714
REMARK CNNaffinity 7.30515814
REMARK  12 active torsions:
REMARK  status: ('A' for Active; 'I' for Inactive)
REMARK    1  A    between atoms: C4_5  and  C5_6 
REMARK    2  A    between atoms: C5_6  and  O2_7 
REMARK    3  A    between atoms: C5_6  and  C6_8 
REMARK    4  A    between atoms: C6_8  and  O3_10 
REMARK    5  A    between atoms: C6_8  and  C8_11 
REMARK    6  A    between atoms: C11_14  and  O4_15 
REMARK    7  A    between atoms: C17_22  and  O6_23 
REMARK    8  A    between atoms: O6_23  and  C18_24 
REMARK    9  A    between atoms: C18_24  and  C19_25 
REMARK   10  A    between atoms: C19_25  and  C20_26 
REMARK   11  A    between atoms: C35_41  and  C36_42 
REMARK   12  A    between atoms: C36_42  and  O7_43 
ROOT
HETATM    1  C8  UNL     1      -1.267   7.260  13.967  1.00  0.00     0.034 C 
HETATM    2  C9  UNL     1      -1.078   5.910  14.690  1.00  0.00     0.012 C 
HETATM    3  C10 UNL     1      -2.459   5.285  14.701  1.00  0.00     0.044 C 
HETATM    4  C11 UNL     1      -3.347   6.439  15.172  1.00  0.00     0.089 C 
HETATM    5  C12 UNL     1      -4.829   6.324  14.870  1.00  0.00    -0.037 C 
HETATM    6  C13 UNL     1      -5.428   5.223  14.387  1.00  0.00     0.057 C 
HETATM    7  C14 UNL     1      -6.870   5.217  14.026  1.00  0.00     0.154 C 
HETATM    8  O5  UNL     1      -7.381   4.165  13.655  1.00  0.00    -0.293 OA
HETATM    9  C15 UNL     1      -7.613   6.545  14.052  1.00  0.00     0.071 C 
HETATM   10  C16 UNL     1      -9.132   6.349  14.044  1.00  0.00     0.045 C 
HETATM   11  C17 UNL     1      -9.875   7.685  14.032  1.00  0.00     0.122 C 
HETATM   12  C26 UNL     1      -9.416   8.609  15.162  1.00  0.00     0.033 C 
HETATM   13  C27 UNL     1      -7.894   8.779  15.189  1.00  0.00     0.013 C 
HETATM   14  C28 UNL     1      -7.131   7.427  15.233  1.00  0.00    -0.026 C 
HETATM   15  C29 UNL     1      -7.430   6.752  16.607  1.00  0.00     0.016 C 
HETATM   16  C30 UNL     1      -5.578   7.621  15.129  1.00  0.00     0.026 C 
HETATM   17  C31 UNL     1      -5.093   8.655  14.095  1.00  0.00     0.011 C 
HETATM   18  C32 UNL     1      -3.664   8.415  13.561  1.00  0.00     0.014 C 
HETATM   19  C33 UNL     1      -2.684   7.745  14.557  1.00  0.00    -0.002 C 
HETATM   20  C34 UNL     1      -2.365   8.799  15.655  1.00  0.00     0.019 C 
ENDROOT
BRANCH   1  21
HETATM   21  C6  UNL     1      -1.026   7.213  12.408  1.00  0.00     0.087 C 
HETATM   22  C7  UNL     1      -1.206   8.615  11.782  1.00  0.00     0.049 C 
BRANCH  21  23
HETATM   23  C5  UNL     1       0.374   6.667  11.920  1.00  0.00     0.181 C 
BRANCH  23  24
HETATM   24  C4  UNL     1       1.544   7.676  11.918  1.00  0.00     0.159 C 
HETATM   25  O1  UNL     1       2.454   7.449  13.009  1.00  0.00    -0.382 OA
HETATM   26  C3  UNL     1       3.796   7.671  12.558  1.00  0.00     0.173 C 
HETATM   27  C2  UNL     1       3.686   8.367  11.213  1.00  0.00     0.014 C 
HETATM   28  C1  UNL     1       4.946   8.265  10.372  1.00  0.00     0.012 C 
HETATM   29  C35 UNL     1       2.397   7.776  10.634  1.00  0.00     0.046 C 
BRANCH  29  30
HETATM   30  C36 UNL     1       2.586   6.487   9.823  1.00  0.00     0.172 C 
BRANCH  30  31
HETATM   31  O7  UNL     1       2.372   6.670   8.435  1.00  0.00    -0.400 OA
HETATM   32  H52 UNL     1       3.133   7.210   8.122  1.00  0.00     0.209 HD
ENDBRANCH  30  31
ENDBRANCH  29  30
ENDBRANCH  23  24
BRANCH  23  33
HETATM   33  O2  UNL     1       0.698   5.460  12.633  1.00  0.00    -0.390 OA
HETATM   34  H9  UNL     1      -0.168   5.074  12.886  1.00  0.00     0.210 HD
ENDBRANCH  23  33
ENDBRANCH  21  23
BRANCH  21  35
HETATM   35  O3  UNL     1      -1.990   6.317  11.817  1.00  0.00    -0.387 OA
HETATM   36  H13 UNL     1      -2.040   6.508  10.862  1.00  0.00     0.210 HD
ENDBRANCH  21  35
ENDBRANCH   1  21
BRANCH   4  37
HETATM   37  O4  UNL     1      -3.255   6.469  16.604  1.00  0.00    -0.384 OA
HETATM   38  H19 UNL     1      -3.626   5.633  16.936  1.00  0.00     0.211 HD
ENDBRANCH   4  37
BRANCH  11  39
HETATM   39  O6  UNL     1     -11.267   7.414  14.209  1.00  0.00    -0.386 OA
BRANCH  39  40
HETATM   40  C18 UNL     1     -12.008   7.327  12.990  1.00  0.00     0.172 C 
BRANCH  40  41
HETATM   41  C19 UNL     1     -13.456   6.913  13.260  1.00  0.00     0.064 C 
BRANCH  41  42
HETATM   42  C20 UNL     1     -14.447   7.911  12.720  1.00  0.00    -0.056 A 
HETATM   43  C21 UNL     1     -15.602   7.480  12.054  1.00  0.00     0.007 A 
HETATM   44  C22 UNL     1     -16.511   8.407  11.545  1.00  0.00     0.001 A 
HETATM   45  C23 UNL     1     -16.274   9.773  11.693  1.00  0.00     0.000 A 
HETATM   46  C24 UNL     1     -15.125  10.212  12.349  1.00  0.00     0.001 A 
HETATM   47  C25 UNL     1     -14.213   9.285  12.859  1.00  0.00     0.007 A 
ENDBRANCH  41  42
ENDBRANCH  40  41
ENDBRANCH  39  40
ENDBRANCH  11  39
TORSDOF 12
ENDMDL
MODEL 7
REMARK minimizedAffinity -7.8536644
REMARK CNNscore 0.521627545
REMARK CNNaffinity 6.39645767
REMARK  12 active torsions:
REMARK  status: ('A' for Active; 'I' for Inactive)
REMARK    1  A    between atoms: C4_5  and  C5_6 
REMARK    2  A    between atoms: C5_6  and  O2_7 
REMARK    3  A    between atoms: C5_6  and  C6_8 
REMARK    4  A    between atoms: C6_8  and  O3_10 
REMARK    5  A    between atoms: C6_8  and  C8_11 
REMARK    6  A    between atoms: C11_14  and  O4_15 
REMARK    7  A    between atoms: C17_22  and  O6_23 
REMARK    8  A    between atoms: O6_23  and  C18_24 
REMARK    9  A    between atoms: C18_24  and  C19_25 
REMARK   10  A    between atoms: C19_25  and  C20_26 
REMARK   11  A    between atoms: C35_41  and  C36_42 
REMARK   12  A    between atoms: C36_42  and  O7_43 
ROOT
HETATM    1  C8  UNL     1      -2.429  13.164  16.944  1.00  0.00     0.034 C 
HETATM    2  C9  UNL     1      -2.215  12.657  18.386  1.00  0.00     0.012 C 
HETATM    3  C10 UNL     1      -1.657  11.258  18.221  1.00  0.00     0.044 C 
HETATM    4  C11 UNL     1      -2.596  10.640  17.183  1.00  0.00     0.089 C 
HETATM    5  C12 UNL     1      -2.083   9.421  16.440  1.00  0.00    -0.037 C 
HETATM    6  C13 UNL     1      -0.958   8.754  16.749  1.00  0.00     0.057 C 
HETATM    7  C14 UNL     1      -0.470   7.626  15.915  1.00  0.00     0.154 C 
HETATM    8  O5  UNL     1       0.526   7.008  16.283  1.00  0.00    -0.293 OA
HETATM    9  C15 UNL     1      -1.183   7.356  14.598  1.00  0.00     0.071 C 
HETATM   10  C16 UNL     1      -0.847   5.969  14.042  1.00  0.00     0.045 C 
HETATM   11  C17 UNL     1      -1.535   5.716  12.700  1.00  0.00     0.122 C 
HETATM   12  C26 UNL     1      -3.044   5.962  12.771  1.00  0.00     0.033 C 
HETATM   13  C27 UNL     1      -3.379   7.336  13.358  1.00  0.00     0.013 C 
HETATM   14  C28 UNL     1      -2.709   7.590  14.736  1.00  0.00    -0.026 C 
HETATM   15  C29 UNL     1      -3.345   6.607  15.767  1.00  0.00     0.016 C 
HETATM   16  C30 UNL     1      -2.960   9.049  15.255  1.00  0.00     0.026 C 
HETATM   17  C31 UNL     1      -2.833  10.171  14.208  1.00  0.00     0.011 C 
HETATM   18  C32 UNL     1      -2.467  11.556  14.785  1.00  0.00     0.014 C 
HETATM   19  C33 UNL     1      -2.987  11.840  16.217  1.00  0.00    -0.002 C 
HETATM   20  C34 UNL     1      -4.529  12.014  16.112  1.00  0.00     0.019 C 
ENDROOT
BRANCH   1  21
HETATM   21  C6  UNL     1      -1.206  13.953  16.333  1.00  0.00     0.087 C 
HETATM   22  C7  UNL     1       0.074  13.711  17.166  1.00  0.00     0.049 C 
BRANCH  21  23
HETATM   23  C5  UNL     1      -0.841  13.644  14.827  1.00  0.00     0.181 C 
BRANCH  23  24
HETATM   24  C4  UNL     1      -1.510  14.539  13.760  1.00  0.00     0.159 C 
HETATM   25  O1  UNL     1      -2.471  15.441  14.337  1.00  0.00    -0.382 OA
HETATM   26  C3  UNL     1      -2.394  16.706  13.666  1.00  0.00     0.173 C 
HETATM   27  C2  UNL     1      -1.565  16.477  12.415  1.00  0.00     0.014 C 
HETATM   28  C1  UNL     1      -0.982  17.751  11.831  1.00  0.00     0.012 C 
HETATM   29  C35 UNL     1      -0.585  15.386  12.856  1.00  0.00     0.046 C 
BRANCH  29  30
HETATM   30  C36 UNL     1       0.715  15.903  13.486  1.00  0.00     0.172 C 
BRANCH  30  31
HETATM   31  O7  UNL     1       0.508  16.559  14.724  1.00  0.00    -0.400 OA
HETATM   32  H52 UNL     1       0.254  15.850  15.357  1.00  0.00     0.209 HD
ENDBRANCH  30  31
ENDBRANCH  29  30
ENDBRANCH  23  24
BRANCH  23  33
HETATM   33  O2  UNL     1       0.588  13.592  14.675  1.00  0.00    -0.390 OA
HETATM   34  H9  UNL     1       0.928  13.331  15.557  1.00  0.00     0.210 HD
ENDBRANCH  23  33
ENDBRANCH  21  23
BRANCH  21  35
HETATM   35  O3  UNL     1      -1.508  15.363  16.351  1.00  0.00    -0.387 OA
HETATM   36  H13 UNL     1      -0.672  15.856  16.258  1.00  0.00     0.210 HD
ENDBRANCH  21  35
ENDBRANCH   1  21
BRANCH   4  37
HETATM   37  O4  UNL     1      -3.755  10.186  17.896  1.00  0.00    -0.384 OA
HETATM   38  H19 UNL     1      -3.464   9.489  18.508  1.00  0.00     0.211 HD
ENDBRANCH   4  37
BRANCH  11  39
HETATM   39  O6  UNL     1      -1.317   4.348  12.347  1.00  0.00    -0.386 OA
BRANCH  39  40
HETATM   40  C18 UNL     1      -2.144   3.878  11.281  1.00  0.00     0.172 C 
BRANCH  40  41
HETATM   41  C19 UNL     1      -2.660   2.467  11.572  1.00  0.00     0.064 C 
BRANCH  41  42
HETATM   42  C20 UNL     1      -4.151   2.437  11.788  1.00  0.00    -0.056 A 
HETATM   43  C21 UNL     1      -4.794   3.481  12.465  1.00  0.00     0.007 A 
HETATM   44  C22 UNL     1      -6.173   3.444  12.674  1.00  0.00     0.001 A 
HETATM   45  C23 UNL     1      -6.921   2.362  12.211  1.00  0.00     0.000 A 
HETATM   46  C24 UNL     1      -6.290   1.316  11.541  1.00  0.00     0.001 A 
HETATM   47  C25 UNL     1      -4.910   1.352  11.331  1.00  0.00     0.007 A 
ENDBRANCH  41  42
ENDBRANCH  40  41
ENDBRANCH  39  40
ENDBRANCH  11  39
TORSDOF 12
ENDMDL
MODEL 8
REMARK minimizedAffinity -9.88686752
REMARK CNNscore 0.50738287
REMARK CNNaffinity 7.28912544
REMARK  12 active torsions:
REMARK  status: ('A' for Active; 'I' for Inactive)
REMARK    1  A    between atoms: C4_5  and  C5_6 
REMARK    2  A    between atoms: C5_6  and  O2_7 
REMARK    3  A    between atoms: C5_6  and  C6_8 
REMARK    4  A    between atoms: C6_8  and  O3_10 
REMARK    5  A    between atoms: C6_8  and  C8_11 
REMARK    6  A    between atoms: C11_14  and  O4_15 
REMARK    7  A    between atoms: C17_22  and  O6_23 
REMARK    8  A    between atoms: O6_23  and  C18_24 
REMARK    9  A    between atoms: C18_24  and  C19_25 
REMARK   10  A    between atoms: C19_25  and  C20_26 
REMARK   11  A    between atoms: C35_41  and  C36_42 
REMARK   12  A    between atoms: C36_42  and  O7_43 
ROOT
HETATM    1  C8  UNL     1      -9.038   6.561  15.348  1.00  0.00     0.034 C 
HETATM    2  C9  UNL     1      -8.613   7.313  16.627  1.00  0.00     0.012 C 
HETATM    3  C10 UNL     1      -7.205   7.794  16.337  1.00  0.00     0.044 C 
HETATM    4  C11 UNL     1      -6.532   6.544  15.766  1.00  0.00     0.089 C 
HETATM    5  C12 UNL     1      -5.272   6.761  14.951  1.00  0.00    -0.037 C 
HETATM    6  C13 UNL     1      -4.621   7.932  14.846  1.00  0.00     0.057 C 
HETATM    7  C14 UNL     1      -3.445   8.089  13.951  1.00  0.00     0.154 C 
HETATM    8  O5  UNL     1      -2.847   9.161  13.947  1.00  0.00    -0.293 OA
HETATM    9  C15 UNL     1      -3.104   6.937  13.018  1.00  0.00     0.071 C 
HETATM   10  C16 UNL     1      -1.686   7.063  12.451  1.00  0.00     0.045 C 
HETATM   11  C17 UNL     1      -1.360   5.924  11.484  1.00  0.00     0.122 C 
HETATM   12  C26 UNL     1      -1.614   4.550  12.108  1.00  0.00     0.033 C 
HETATM   13  C27 UNL     1      -3.020   4.435  12.704  1.00  0.00     0.013 C 
HETATM   14  C28 UNL     1      -3.349   5.571  13.711  1.00  0.00    -0.026 C 
HETATM   15  C29 UNL     1      -2.428   5.391  14.956  1.00  0.00     0.016 C 
HETATM   16  C30 UNL     1      -4.836   5.508  14.208  1.00  0.00     0.026 C 
HETATM   17  C31 UNL     1      -5.897   5.209  13.133  1.00  0.00     0.011 C 
HETATM   18  C32 UNL     1      -7.311   5.740  13.454  1.00  0.00     0.014 C 
HETATM   19  C33 UNL     1      -7.677   5.794  14.959  1.00  0.00    -0.002 C 
HETATM   20  C34 UNL     1      -7.849   4.324  15.435  1.00  0.00     0.019 C 
ENDROOT
BRANCH   1  21
HETATM   21  C6  UNL     1      -9.788   7.447  14.279  1.00  0.00     0.087 C 
HETATM   22  C7  UNL     1      -9.904   6.701  12.931  1.00  0.00     0.049 C 
BRANCH  21  23
HETATM   23  C5  UNL     1     -11.239   7.943  14.659  1.00  0.00     0.181 C 
BRANCH  23  24
HETATM   24  C4  UNL     1     -12.419   7.136  14.070  1.00  0.00     0.159 C 
HETATM   25  O1  UNL     1     -13.452   6.904  15.043  1.00  0.00    -0.382 OA
HETATM   26  C3  UNL     1     -14.732   7.012  14.407  1.00  0.00     0.173 C 
HETATM   27  C2  UNL     1     -14.469   7.004  12.912  1.00  0.00     0.014 C 
HETATM   28  C1  UNL     1     -15.613   7.572  12.091  1.00  0.00     0.012 C 
HETATM   29  C35 UNL     1     -13.108   7.698  12.806  1.00  0.00     0.046 C 
BRANCH  29  30
HETATM   30  C36 UNL     1     -13.172   9.226  12.672  1.00  0.00     0.172 C 
BRANCH  30  31
HETATM   31  O7  UNL     1     -12.319   9.728  11.659  1.00  0.00    -0.400 OA
HETATM   32  H52 UNL     1     -12.724   9.441  10.809  1.00  0.00     0.209 HD
ENDBRANCH  30  31
ENDBRANCH  29  30
ENDBRANCH  23  24
BRANCH  23  33
HETATM   33  O2  UNL     1     -11.343   8.093  16.085  1.00  0.00    -0.390 OA
HETATM   34  H9  UNL     1     -10.428   8.274  16.388  1.00  0.00     0.210 HD
ENDBRANCH  23  33
ENDBRANCH  21  23
BRANCH  21  35
HETATM   35  O3  UNL     1      -9.034   8.660  14.072  1.00  0.00    -0.387 OA
HETATM   36  H13 UNL     1      -9.320   9.057  13.229  1.00  0.00     0.210 HD
ENDBRANCH  21  35
ENDBRANCH   1  21
BRANCH   4  37
HETATM   37  O4  UNL     1      -6.122   5.749  16.889  1.00  0.00    -0.384 OA
HETATM   38  H19 UNL     1      -5.460   6.263  17.381  1.00  0.00     0.211 HD
ENDBRANCH   4  37
BRANCH  11  39
HETATM   39  O6  UNL     1       0.026   6.017  11.149  1.00  0.00    -0.386 OA
BRANCH  39  40
HETATM   40  C18 UNL     1       0.786   6.852  12.023  1.00  0.00     0.172 C 
BRANCH  40  41
HETATM   41  C19 UNL     1       1.547   7.920  11.234  1.00  0.00     0.064 C 
BRANCH  41  42
HETATM   42  C20 UNL     1       1.723   7.544   9.786  1.00  0.00    -0.056 A 
HETATM   43  C21 UNL     1       1.012   8.219   8.783  1.00  0.00     0.007 A 
HETATM   44  C22 UNL     1       1.168   7.860   7.444  1.00  0.00     0.001 A 
HETATM   45  C23 UNL     1       2.032   6.824   7.094  1.00  0.00     0.000 A 
HETATM   46  C24 UNL     1       2.739   6.143   8.084  1.00  0.00     0.001 A 
HETATM   47  C25 UNL     1       2.584   6.500   9.425  1.00  0.00     0.007 A 
ENDBRANCH  41  42
ENDBRANCH  40  41
ENDBRANCH  39  40
ENDBRANCH  11  39
TORSDOF 12
ENDMDL
MODEL 9
REMARK minimizedAffinity -8.93901539
REMARK CNNscore 0.493143141
REMARK CNNaffinity 6.7678299
REMARK  12 active torsions:
REMARK  status: ('A' for Active; 'I' for Inactive)
REMARK    1  A    between atoms: C4_5  and  C5_6 
REMARK    2  A    between atoms: C5_6  and  O2_7 
REMARK    3  A    between atoms: C5_6  and  C6_8 
REMARK    4  A    between atoms: C6_8  and  O3_10 
REMARK    5  A    between atoms: C6_8  and  C8_11 
REMARK    6  A    between atoms: C11_14  and  O4_15 
REMARK    7  A    between atoms: C17_22  and  O6_23 
REMARK    8  A    between atoms: O6_23  and  C18_24 
REMARK    9  A    between atoms: C18_24  and  C19_25 
REMARK   10  A    between atoms: C19_25  and  C20_26 
REMARK   11  A    between atoms: C35_41  and  C36_42 
REMARK   12  A    between atoms: C36_42  and  O7_43 
ROOT
HETATM    1  C8  UNL     1      -2.774   7.904  14.057  1.00  0.00     0.034 C 
HETATM    2  C9  UNL     1      -1.915   8.290  12.834  1.00  0.00     0.012 C 
HETATM    3  C10 UNL     1      -0.671   8.923  13.424  1.00  0.00     0.044 C 
HETATM    4  C11 UNL     1      -1.245   9.893  14.459  1.00  0.00     0.089 C 
HETATM    5  C12 UNL     1      -0.301  10.361  15.550  1.00  0.00    -0.037 C 
HETATM    6  C13 UNL     1       1.022  10.129  15.568  1.00  0.00     0.057 C 
HETATM    7  C14 UNL     1       1.867  10.538  16.720  1.00  0.00     0.154 C 
HETATM    8  O5  UNL     1       3.080  10.363  16.653  1.00  0.00    -0.293 OA
HETATM    9  C15 UNL     1       1.165  11.071  17.961  1.00  0.00     0.071 C 
HETATM   10  C16 UNL     1       2.135  11.802  18.895  1.00  0.00     0.045 C 
HETATM   11  C17 UNL     1       1.434  12.303  20.159  1.00  0.00     0.122 C 
HETATM   12  C26 UNL     1       0.196  13.143  19.835  1.00  0.00     0.033 C 
HETATM   13  C27 UNL     1      -0.757  12.424  18.876  1.00  0.00     0.013 C 
HETATM   14  C28 UNL     1      -0.060  11.939  17.576  1.00  0.00    -0.026 C 
HETATM   15  C29 UNL     1       0.368  13.199  16.762  1.00  0.00     0.016 C 
HETATM   16  C30 UNL     1      -1.023  11.094  16.670  1.00  0.00     0.026 C 
HETATM   17  C31 UNL     1      -1.915  10.071  17.399  1.00  0.00     0.011 C 
HETATM   18  C32 UNL     1      -2.365   8.873  16.534  1.00  0.00     0.014 C 
HETATM   19  C33 UNL     1      -2.542   9.170  15.024  1.00  0.00    -0.002 C 
HETATM   20  C34 UNL     1      -3.806  10.066  14.885  1.00  0.00     0.019 C 
ENDROOT
BRANCH   1  21
HETATM   21  C6  UNL     1      -2.539   6.438  14.592  1.00  0.00     0.087 C 
HETATM   22  C7  UNL     1      -3.576   6.078  15.680  1.00  0.00     0.049 C 
BRANCH  21  23
HETATM   23  C5  UNL     1      -2.570   5.277  13.522  1.00  0.00     0.181 C 
BRANCH  23  24
HETATM   24  C4  UNL     1      -3.874   4.451  13.439  1.00  0.00     0.159 C 
HETATM   25  O1  UNL     1      -4.969   5.224  12.916  1.00  0.00    -0.382 OA
HETATM   26  C3  UNL     1      -5.768   4.394  12.063  1.00  0.00     0.173 C 
HETATM   27  C2  UNL     1      -5.322   2.966  12.316  1.00  0.00     0.014 C 
HETATM   28  C1  UNL     1      -5.697   2.005  11.202  1.00  0.00     0.012 C 
HETATM   29  C35 UNL     1      -3.833   3.130  12.639  1.00  0.00     0.046 C 
BRANCH  29  30
HETATM   30  C36 UNL     1      -2.901   3.085  11.421  1.00  0.00     0.172 C 
BRANCH  30  31
HETATM   31  O7  UNL     1      -2.435   1.779  11.129  1.00  0.00    -0.400 OA
HETATM   32  H52 UNL     1      -3.220   1.291  10.791  1.00  0.00     0.209 HD
ENDBRANCH  30  31
ENDBRANCH  29  30
ENDBRANCH  23  24
BRANCH  23  33
HETATM   33  O2  UNL     1      -2.169   5.789  12.239  1.00  0.00    -0.390 OA
HETATM   34  H9  UNL     1      -1.590   6.554  12.441  1.00  0.00     0.210 HD
ENDBRANCH  23  33
ENDBRANCH  21  23
BRANCH  21  35
HETATM   35  O3  UNL     1      -1.219   6.362  15.170  1.00  0.00    -0.387 OA
HETATM   36  H13 UNL     1      -1.183   5.577  15.747  1.00  0.00     0.210 HD
ENDBRANCH  21  35
ENDBRANCH   1  21
BRANCH   4  37
HETATM   37  O4  UNL     1      -1.616  11.082  13.746  1.00  0.00    -0.384 OA
HETATM   38  H19 UNL     1      -0.803  11.465  13.377  1.00  0.00     0.211 HD
ENDBRANCH   4  37
BRANCH  11  39
HETATM   39  O6  UNL     1       2.360  13.121  20.877  1.00  0.00    -0.386 OA
BRANCH  39  40
HETATM   40  C18 UNL     1       3.732  12.822  20.618  1.00  0.00     0.172 C 
BRANCH  40  41
HETATM   41  C19 UNL     1       4.425  12.301  21.879  1.00  0.00     0.064 C 
BRANCH  41  42
HETATM   42  C20 UNL     1       3.799  11.030  22.392  1.00  0.00    -0.056 A 
HETATM   43  C21 UNL     1       3.678   9.909  21.558  1.00  0.00     0.007 A 
HETATM   44  C22 UNL     1       3.086   8.738  22.033  1.00  0.00     0.001 A 
HETATM   45  C23 UNL     1       2.608   8.676  23.341  1.00  0.00     0.000 A 
HETATM   46  C24 UNL     1       2.720   9.787  24.175  1.00  0.00     0.001 A 
HETATM   47  C25 UNL     1       3.311  10.960  23.702  1.00  0.00     0.007 A 
ENDBRANCH  41  42
ENDBRANCH  40  41
ENDBRANCH  39  40
ENDBRANCH  11  39
TORSDOF 12
ENDMDL
