MODEL 1
REMARK minimizedAffinity -8.62209415
REMARK CNNscore 0.620508492
REMARK CNNaffinity 7.01605463
REMARK  13 active torsions:
REMARK  status: ('A' for Active; 'I' for Inactive)
REMARK    1  A    between atoms: C3_3  and  O1_4 
REMARK    2  A    between atoms: N1_14  and  O2_16 
REMARK    3  A    between atoms: O2_16  and  C13_17 
REMARK    4  A    between atoms: C13_17  and  C14_18 
REMARK       I    between atoms: C14_18  and  N2_20 
REMARK    5  A    between atoms: N2_20  and  C15_21 
REMARK    6  A    between atoms: C15_21  and  C16_22 
REMARK    7  A    between atoms: C15_21  and  C21_33 
REMARK       I    between atoms: C16_22  and  N3_24 
REMARK    8  A    between atoms: N3_24  and  C17_25 
REMARK    9  A    between atoms: C17_25  and  C18_26 
REMARK   10  A    between atoms: C17_25  and  C20_30 
REMARK   11  A    between atoms: C18_26  and  C19_27 
REMARK   12  A    between atoms: C19_27  and  O6_29 
REMARK   13  A    between atoms: C20_30  and  O8_32 
ROOT
HETATM    1  C1  UNL     1      -7.343   2.915  13.838  1.00  0.00     0.015 C 
HETATM    2  C2  UNL     1      -7.321   4.114  13.766  1.00  0.00    -0.078 C 
HETATM    3  C3  UNL     1      -7.311   5.592  13.676  1.00  0.00     0.128 C 
HETATM    4  C4  UNL     1      -7.909   6.192  14.953  1.00  0.00     0.052 C 
HETATM    5  C5  UNL     1      -6.732   6.408  15.906  1.00  0.00     0.010 C 
HETATM    6  C6  UNL     1      -5.436   6.140  15.103  1.00  0.00     0.002 C 
HETATM    7  C7  UNL     1      -4.285   7.079  15.534  1.00  0.00    -0.004 C 
HETATM    8  C8  UNL     1      -2.903   6.457  15.212  1.00  0.00     0.010 C 
HETATM    9  C9  UNL     1      -1.790   7.472  14.962  1.00  0.00     0.035 C 
HETATM   10  C10 UNL     1      -2.005   8.689  15.811  1.00  0.00    -0.069 C 
HETATM   11  C11 UNL     1      -1.148   8.997  16.798  1.00  0.00     0.030 C 
HETATM   12  C12 UNL     1      -1.375  10.160  17.694  1.00  0.00     0.032 C 
HETATM   13  N1  UNL     1      -0.423  10.475  18.525  1.00  0.00    -0.271 N 
ATOM     14  H1  UNL     1       0.453   9.960  18.617  1.00  0.00     0.194 HD
HETATM   15  C24 UNL     1      -2.678  10.927  17.569  1.00  0.00     0.060 C 
HETATM   16  C25 UNL     1      -3.755  10.119  16.854  1.00  0.00     0.020 C 
HETATM   17  C26 UNL     1      -3.281   9.475  15.519  1.00  0.00    -0.016 C 
HETATM   18  C27 UNL     1      -2.947  10.597  14.513  1.00  0.00     0.020 C 
HETATM   19  C28 UNL     1      -4.442   8.528  14.997  1.00  0.00     0.002 C 
HETATM   20  C29 UNL     1      -4.675   8.501  13.475  1.00  0.00     0.007 C 
HETATM   21  C30 UNL     1      -5.921   7.685  13.118  1.00  0.00     0.014 C 
HETATM   22  C31 UNL     1      -5.876   6.215  13.615  1.00  0.00     0.003 C 
HETATM   23  C32 UNL     1      -4.956   5.423  12.662  1.00  0.00     0.020 C 
ENDROOT
BRANCH   3  24
HETATM   24  O1  UNL     1      -8.100   5.975  12.557  1.00  0.00    -0.377 OA
HETATM   25  H2  UNL     1      -7.772   5.467  11.795  1.00  0.00     0.211 HD
ENDBRANCH   3  24
BRANCH  13  26
HETATM   26  O2  UNL     1      -0.751  11.610  19.279  1.00  0.00    -0.271 OA
BRANCH  26  27
HETATM   27  C13 UNL     1       0.434  12.163  19.846  1.00  0.00     0.303 C 
BRANCH  27  28
HETATM   28  C14 UNL     1       1.297  11.080  20.489  1.00  0.00     0.244 C 
HETATM   29  O3  UNL     1       0.857   9.965  20.766  1.00  0.00    -0.271 OA
HETATM   30  N2  UNL     1       2.598  11.446  20.734  1.00  0.00    -0.346 N 
HETATM   31  H16 UNL     1       2.906  12.367  20.424  1.00  0.00     0.163 HD
BRANCH  30  32
HETATM   32  C15 UNL     1       3.601  10.543  21.286  1.00  0.00     0.180 C 
BRANCH  32  33
HETATM   33  C16 UNL     1       4.977  11.109  20.870  1.00  0.00     0.241 C 
HETATM   34  O4  UNL     1       5.535  10.787  19.820  1.00  0.00    -0.271 OA
HETATM   35  N3  UNL     1       5.529  12.010  21.743  1.00  0.00    -0.344 N 
HETATM   36  H18 UNL     1       5.068  12.221  22.626  1.00  0.00     0.163 HD
BRANCH  35  37
HETATM   37  C17 UNL     1       6.812  12.669  21.490  1.00  0.00     0.192 C 
BRANCH  37  38
HETATM   38  C18 UNL     1       7.581  12.976  22.775  1.00  0.00     0.146 C 
BRANCH  38  39
HETATM   39  C19 UNL     1       8.995  12.476  22.729  1.00  0.00     0.141 C 
HETATM   40  O5  UNL     1       9.536  11.863  21.826  1.00  0.00    -0.650 OA
BRANCH  39  41
HETATM   41  O6  UNL     1       9.674  12.780  23.853  1.00  0.00    -0.776 OA
HETATM   42  H22 UNL     1      10.574  12.422  23.705  1.00  0.00     0.167 HD
ENDBRANCH  39  41
ENDBRANCH  38  39
ENDBRANCH  37  38
BRANCH  37  43
HETATM   43  C20 UNL     1       6.568  13.912  20.629  1.00  0.00     0.164 C 
HETATM   44  O7  UNL     1       5.477  14.378  20.335  1.00  0.00    -0.648 OA
BRANCH  43  45
HETATM   45  O8  UNL     1       7.697  14.459  20.136  1.00  0.00    -0.775 OA
HETATM   46  H23 UNL     1       7.378  15.230  19.619  1.00  0.00     0.167 HD
ENDBRANCH  43  45
ENDBRANCH  37  43
ENDBRANCH  35  37
ENDBRANCH  32  33
BRANCH  32  47
HETATM   47  C21 UNL     1       3.430  10.375  22.813  1.00  0.00     0.009 C 
HETATM   48  C22 UNL     1       2.716  11.565  23.458  1.00  0.00     0.012 C 
HETATM   49  C23 UNL     1       2.724   9.070  23.198  1.00  0.00     0.012 C 
ENDBRANCH  32  47
ENDBRANCH  30  32
ENDBRANCH  27  28
ENDBRANCH  26  27
ENDBRANCH  13  26
TORSDOF 13
ENDMDL
MODEL 2
REMARK minimizedAffinity -7.72632742
REMARK CNNscore 0.472427547
REMARK CNNaffinity 7.11383772
REMARK  13 active torsions:
REMARK  status: ('A' for Active; 'I' for Inactive)
REMARK    1  A    between atoms: C3_3  and  O1_4 
REMARK    2  A    between atoms: N1_14  and  O2_16 
REMARK    3  A    between atoms: O2_16  and  C13_17 
REMARK    4  A    between atoms: C13_17  and  C14_18 
REMARK       I    between atoms: C14_18  and  N2_20 
REMARK    5  A    between atoms: N2_20  and  C15_21 
REMARK    6  A    between atoms: C15_21  and  C16_22 
REMARK    7  A    between atoms: C15_21  and  C21_33 
REMARK       I    between atoms: C16_22  and  N3_24 
REMARK    8  A    between atoms: N3_24  and  C17_25 
REMARK    9  A    between atoms: C17_25  and  C18_26 
REMARK   10  A    between atoms: C17_25  and  C20_30 
REMARK   11  A    between atoms: C18_26  and  C19_27 
REMARK   12  A    between atoms: C19_27  and  O6_29 
REMARK   13  A    between atoms: C20_30  and  O8_32 
ROOT
HETATM    1  C1  UNL     1      -0.605   5.980  11.368  1.00  0.00     0.015 C 
HETATM    2  C2  UNL     1      -1.122   6.390  12.372  1.00  0.00    -0.078 C 
HETATM    3  C3  UNL     1      -1.744   6.905  13.613  1.00  0.00     0.128 C 
HETATM    4  C4  UNL     1      -2.146   8.372  13.421  1.00  0.00     0.052 C 
HETATM    5  C5  UNL     1      -3.586   8.347  12.905  1.00  0.00     0.010 C 
HETATM    6  C6  UNL     1      -4.086   6.885  13.011  1.00  0.00     0.002 C 
HETATM    7  C7  UNL     1      -5.586   6.814  13.384  1.00  0.00    -0.004 C 
HETATM    8  C8  UNL     1      -6.218   5.480  12.915  1.00  0.00     0.010 C 
HETATM    9  C9  UNL     1      -7.405   5.008  13.751  1.00  0.00     0.035 C 
HETATM   10  C10 UNL     1      -8.176   6.189  14.260  1.00  0.00    -0.069 C 
HETATM   11  C11 UNL     1      -9.428   6.426  13.836  1.00  0.00     0.030 C 
HETATM   12  C12 UNL     1     -10.187   7.624  14.276  1.00  0.00     0.032 C 
HETATM   13  N1  UNL     1     -11.443   7.700  13.937  1.00  0.00    -0.271 N 
ATOM     14  H1  UNL     1     -11.927   7.004  13.370  1.00  0.00     0.194 HD
HETATM   15  C24 UNL     1      -9.472   8.667  15.114  1.00  0.00     0.060 C 
HETATM   16  C25 UNL     1      -7.955   8.555  15.002  1.00  0.00     0.020 C 
HETATM   17  C26 UNL     1      -7.412   7.111  15.207  1.00  0.00    -0.016 C 
HETATM   18  C27 UNL     1      -7.699   6.670  16.659  1.00  0.00     0.020 C 
HETATM   19  C28 UNL     1      -5.860   7.126  14.881  1.00  0.00     0.002 C 
HETATM   20  C29 UNL     1      -4.962   6.247  15.773  1.00  0.00     0.007 C 
HETATM   21  C30 UNL     1      -3.479   6.477  15.465  1.00  0.00     0.014 C 
HETATM   22  C31 UNL     1      -3.091   6.201  13.988  1.00  0.00     0.003 C 
HETATM   23  C32 UNL     1      -3.001   4.672  13.801  1.00  0.00     0.020 C 
ENDROOT
BRANCH   3  24
HETATM   24  O1  UNL     1      -0.790   6.808  14.663  1.00  0.00    -0.377 OA
HETATM   25  H2  UNL     1      -0.461   5.893  14.661  1.00  0.00     0.211 HD
ENDBRANCH   3  24
BRANCH  13  26
HETATM   26  O2  UNL     1     -12.046   8.857  14.448  1.00  0.00    -0.271 OA
BRANCH  26  27
HETATM   27  C13 UNL     1     -13.097   8.491  15.338  1.00  0.00     0.303 C 
BRANCH  27  28
HETATM   28  C14 UNL     1     -14.423   8.341  14.596  1.00  0.00     0.244 C 
HETATM   29  O3  UNL     1     -14.604   8.802  13.470  1.00  0.00    -0.271 OA
HETATM   30  N2  UNL     1     -15.396   7.655  15.281  1.00  0.00    -0.346 N 
HETATM   31  H16 UNL     1     -15.155   7.252  16.186  1.00  0.00     0.163 HD
BRANCH  30  32
HETATM   32  C15 UNL     1     -16.710   7.350  14.729  1.00  0.00     0.180 C 
BRANCH  32  33
HETATM   33  C16 UNL     1     -16.570   6.006  13.979  1.00  0.00     0.241 C 
HETATM   34  O4  UNL     1     -16.317   5.944  12.775  1.00  0.00    -0.271 OA
HETATM   35  N3  UNL     1     -16.731   4.884  14.750  1.00  0.00    -0.344 N 
HETATM   36  H18 UNL     1     -16.987   4.966  15.731  1.00  0.00     0.163 HD
BRANCH  35  37
HETATM   37  C17 UNL     1     -16.599   3.530  14.208  1.00  0.00     0.192 C 
BRANCH  37  38
HETATM   38  C18 UNL     1     -17.951   2.880  13.912  1.00  0.00     0.146 C 
BRANCH  38  39
HETATM   39  C19 UNL     1     -18.010   2.287  12.534  1.00  0.00     0.141 C 
HETATM   40  O5  UNL     1     -18.923   2.364  11.732  1.00  0.00    -0.650 OA
BRANCH  39  41
HETATM   41  O6  UNL     1     -16.886   1.607  12.230  1.00  0.00    -0.776 OA
HETATM   42  H22 UNL     1     -17.031   1.282  11.317  1.00  0.00     0.167 HD
ENDBRANCH  39  41
ENDBRANCH  38  39
ENDBRANCH  37  38
BRANCH  37  43
HETATM   43  C20 UNL     1     -15.734   2.700  15.160  1.00  0.00     0.164 C 
HETATM   44  O7  UNL     1     -14.597   2.306  14.939  1.00  0.00    -0.648 OA
BRANCH  43  45
HETATM   45  O8  UNL     1     -16.362   2.356  16.302  1.00  0.00    -0.775 OA
HETATM   46  H23 UNL     1     -15.689   1.839  16.794  1.00  0.00     0.167 HD
ENDBRANCH  43  45
ENDBRANCH  37  43
ENDBRANCH  35  37
ENDBRANCH  32  33
BRANCH  32  47
HETATM   47  C21 UNL     1     -17.796   7.341  15.829  1.00  0.00     0.009 C 
HETATM   48  C22 UNL     1     -18.314   5.933  16.131  1.00  0.00     0.012 C 
HETATM   49  C23 UNL     1     -17.342   8.020  17.126  1.00  0.00     0.012 C 
ENDBRANCH  32  47
ENDBRANCH  30  32
ENDBRANCH  27  28
ENDBRANCH  26  27
ENDBRANCH  13  26
TORSDOF 13
ENDMDL
MODEL 3
REMARK minimizedAffinity -8.79914284
REMARK CNNscore 0.471094429
REMARK CNNaffinity 7.06439829
REMARK  13 active torsions:
REMARK  status: ('A' for Active; 'I' for Inactive)
REMARK    1  A    between atoms: C3_3  and  O1_4 
REMARK    2  A    between atoms: N1_14  and  O2_16 
REMARK    3  A    between atoms: O2_16  and  C13_17 
REMARK    4  A    between atoms: C13_17  and  C14_18 
REMARK       I    between atoms: C14_18  and  N2_20 
REMARK    5  A    between atoms: N2_20  and  C15_21 
REMARK    6  A    between atoms: C15_21  and  C16_22 
REMARK    7  A    between atoms: C15_21  and  C21_33 
REMARK       I    between atoms: C16_22  and  N3_24 
REMARK    8  A    between atoms: N3_24  and  C17_25 
REMARK    9  A    between atoms: C17_25  and  C18_26 
REMARK   10  A    between atoms: C17_25  and  C20_30 
REMARK   11  A    between atoms: C18_26  and  C19_27 
REMARK   12  A    between atoms: C19_27  and  O6_29 
REMARK   13  A    between atoms: C20_30  and  O8_32 
ROOT
HETATM    1  C1  UNL     1      -7.473   3.264  14.254  1.00  0.00     0.015 C 
HETATM    2  C2  UNL     1      -7.280   4.432  14.056  1.00  0.00    -0.078 C 
HETATM    3  C3  UNL     1      -7.059   5.876  13.810  1.00  0.00     0.128 C 
HETATM    4  C4  UNL     1      -7.485   6.682  15.042  1.00  0.00     0.052 C 
HETATM    5  C5  UNL     1      -6.234   6.808  15.913  1.00  0.00     0.010 C 
HETATM    6  C6  UNL     1      -5.042   6.269  15.086  1.00  0.00     0.002 C 
HETATM    7  C7  UNL     1      -3.742   7.060  15.364  1.00  0.00    -0.004 C 
HETATM    8  C8  UNL     1      -2.488   6.206  15.048  1.00  0.00     0.010 C 
HETATM    9  C9  UNL     1      -1.255   7.011  14.643  1.00  0.00     0.035 C 
HETATM   10  C10 UNL     1      -1.238   8.323  15.368  1.00  0.00    -0.069 C 
HETATM   11  C11 UNL     1      -0.287   8.593  16.277  1.00  0.00     0.030 C 
HETATM   12  C12 UNL     1      -0.287   9.858  17.055  1.00  0.00     0.032 C 
HETATM   13  N1  UNL     1       0.749  10.105  17.805  1.00  0.00    -0.271 N 
ATOM     14  H1  UNL     1       1.544   9.474  17.912  1.00  0.00     0.194 HD
HETATM   15  C24 UNL     1      -1.468  10.799  16.907  1.00  0.00     0.060 C 
HETATM   16  C25 UNL     1      -2.694  10.098  16.330  1.00  0.00     0.020 C 
HETATM   17  C26 UNL     1      -2.399   9.262  15.052  1.00  0.00    -0.016 C 
HETATM   18  C27 UNL     1      -1.965  10.216  13.919  1.00  0.00     0.020 C 
HETATM   19  C28 UNL     1      -3.716   8.457  14.685  1.00  0.00     0.002 C 
HETATM   20  C29 UNL     1      -4.041   8.316  13.185  1.00  0.00     0.007 C 
HETATM   21  C30 UNL     1      -5.413   7.669  12.972  1.00  0.00     0.014 C 
HETATM   22  C31 UNL     1      -5.554   6.265  13.619  1.00  0.00     0.003 C 
HETATM   23  C32 UNL     1      -4.819   5.253  12.715  1.00  0.00     0.020 C 
ENDROOT
BRANCH   3  24
HETATM   24  O1  UNL     1      -7.848   6.263  12.692  1.00  0.00    -0.377 OA
HETATM   25  H2  UNL     1      -7.645   5.639  11.975  1.00  0.00     0.211 HD
ENDBRANCH   3  24
BRANCH  13  26
HETATM   26  O2  UNL     1       0.637  11.344  18.449  1.00  0.00    -0.271 OA
BRANCH  26  27
HETATM   27  C13 UNL     1       0.708  11.156  19.860  1.00  0.00     0.303 C 
BRANCH  27  28
HETATM   28  C14 UNL     1       2.062  10.583  20.274  1.00  0.00     0.244 C 
HETATM   29  O3  UNL     1       2.728   9.865  19.530  1.00  0.00    -0.271 OA
HETATM   30  N2  UNL     1       2.475  10.929  21.536  1.00  0.00    -0.346 N 
HETATM   31  H16 UNL     1       1.898  11.575  22.073  1.00  0.00     0.163 HD
BRANCH  30  32
HETATM   32  C15 UNL     1       3.761  10.538  22.101  1.00  0.00     0.180 C 
BRANCH  32  33
HETATM   33  C16 UNL     1       4.538  11.846  22.372  1.00  0.00     0.241 C 
HETATM   34  O4  UNL     1       3.972  12.917  22.597  1.00  0.00    -0.271 OA
HETATM   35  N3  UNL     1       5.904  11.729  22.363  1.00  0.00    -0.344 N 
HETATM   36  H18 UNL     1       6.344  10.843  22.127  1.00  0.00     0.163 HD
BRANCH  35  37
HETATM   37  C17 UNL     1       6.793  12.861  22.633  1.00  0.00     0.192 C 
BRANCH  37  38
HETATM   38  C18 UNL     1       7.048  13.719  21.393  1.00  0.00     0.146 C 
BRANCH  38  39
HETATM   39  C19 UNL     1       6.991  12.919  20.124  1.00  0.00     0.141 C 
HETATM   40  O5  UNL     1       6.092  12.894  19.302  1.00  0.00    -0.650 OA
BRANCH  39  41
HETATM   41  O6  UNL     1       8.099  12.172  19.949  1.00  0.00    -0.776 OA
HETATM   42  H22 UNL     1       7.957  11.712  19.095  1.00  0.00     0.167 HD
ENDBRANCH  39  41
ENDBRANCH  38  39
ENDBRANCH  37  38
BRANCH  37  43
HETATM   43  C20 UNL     1       8.082  12.336  23.270  1.00  0.00     0.164 C 
HETATM   44  O7  UNL     1       9.050  13.009  23.593  1.00  0.00    -0.648 OA
BRANCH  43  45
HETATM   45  O8  UNL     1       8.110  10.995  23.407  1.00  0.00    -0.775 OA
HETATM   46  H23 UNL     1       8.982  10.819  23.821  1.00  0.00     0.167 HD
ENDBRANCH  43  45
ENDBRANCH  37  43
ENDBRANCH  35  37
ENDBRANCH  32  33
BRANCH  32  47
HETATM   47  C21 UNL     1       3.581   9.647  23.352  1.00  0.00     0.009 C 
HETATM   48  C22 UNL     1       2.832  10.363  24.478  1.00  0.00     0.012 C 
HETATM   49  C23 UNL     1       2.903   8.308  23.041  1.00  0.00     0.012 C 
ENDBRANCH  32  47
ENDBRANCH  30  32
ENDBRANCH  27  28
ENDBRANCH  26  27
ENDBRANCH  13  26
TORSDOF 13
ENDMDL
MODEL 4
REMARK minimizedAffinity -8.36359501
REMARK CNNscore 0.419841796
REMARK CNNaffinity 6.27696753
REMARK  13 active torsions:
REMARK  status: ('A' for Active; 'I' for Inactive)
REMARK    1  A    between atoms: C3_3  and  O1_4 
REMARK    2  A    between atoms: N1_14  and  O2_16 
REMARK    3  A    between atoms: O2_16  and  C13_17 
REMARK    4  A    between atoms: C13_17  and  C14_18 
REMARK       I    between atoms: C14_18  and  N2_20 
REMARK    5  A    between atoms: N2_20  and  C15_21 
REMARK    6  A    between atoms: C15_21  and  C16_22 
REMARK    7  A    between atoms: C15_21  and  C21_33 
REMARK       I    between atoms: C16_22  and  N3_24 
REMARK    8  A    between atoms: N3_24  and  C17_25 
REMARK    9  A    between atoms: C17_25  and  C18_26 
REMARK   10  A    between atoms: C17_25  and  C20_30 
REMARK   11  A    between atoms: C18_26  and  C19_27 
REMARK   12  A    between atoms: C19_27  and  O6_29 
REMARK   13  A    between atoms: C20_30  and  O8_32 
ROOT
HETATM    1  C1  UNL     1       1.958   7.095   6.914  1.00  0.00     0.015 C 
HETATM    2  C2  UNL     1       2.275   6.702   8.005  1.00  0.00    -0.078 C 
HETATM    3  C3  UNL     1       2.678   6.210   9.341  1.00  0.00     0.128 C 
HETATM    4  C4  UNL     1       3.970   6.907   9.782  1.00  0.00     0.052 C 
HETATM    5  C5  UNL     1       3.531   8.152  10.555  1.00  0.00     0.010 C 
HETATM    6  C6  UNL     1       1.998   8.056  10.749  1.00  0.00     0.002 C 
HETATM    7  C7  UNL     1       1.553   8.632  12.114  1.00  0.00    -0.004 C 
HETATM    8  C8  UNL     1       0.072   9.089  12.073  1.00  0.00     0.010 C 
HETATM    9  C9  UNL     1      -0.649   9.036  13.418  1.00  0.00     0.035 C 
HETATM   10  C10 UNL     1       0.312   9.343  14.527  1.00  0.00    -0.069 C 
HETATM   11  C11 UNL     1       0.181  10.461  15.259  1.00  0.00     0.030 C 
HETATM   12  C12 UNL     1       1.157  10.819  16.319  1.00  0.00     0.032 C 
HETATM   13  N1  UNL     1       0.875  11.839  17.080  1.00  0.00    -0.271 N 
ATOM     14  H1  UNL     1       0.043  12.419  16.975  1.00  0.00     0.194 HD
HETATM   15  C24 UNL     1       2.401   9.965  16.477  1.00  0.00     0.060 C 
HETATM   16  C25 UNL     1       2.691   9.134  15.230  1.00  0.00     0.020 C 
HETATM   17  C26 UNL     1       1.459   8.349  14.694  1.00  0.00    -0.016 C 
HETATM   18  C27 UNL     1       1.045   7.293  15.741  1.00  0.00     0.020 C 
HETATM   19  C28 UNL     1       1.868   7.692  13.310  1.00  0.00     0.002 C 
HETATM   20  C29 UNL     1       1.315   6.282  13.028  1.00  0.00     0.007 C 
HETATM   21  C30 UNL     1       1.913   5.697  11.745  1.00  0.00     0.014 C 
HETATM   22  C31 UNL     1       1.664   6.563  10.481  1.00  0.00     0.003 C 
HETATM   23  C32 UNL     1       0.206   6.332  10.031  1.00  0.00     0.020 C 
ENDROOT
BRANCH   3  24
HETATM   24  O1  UNL     1       2.902   4.809   9.251  1.00  0.00    -0.377 OA
HETATM   25  H2  UNL     1       2.109   4.423   8.840  1.00  0.00     0.211 HD
ENDBRANCH   3  24
BRANCH  13  26
HETATM   26  O2  UNL     1       1.858  12.040  18.058  1.00  0.00    -0.271 OA
BRANCH  26  27
HETATM   27  C13 UNL     1       1.364  11.609  19.323  1.00  0.00     0.303 C 
BRANCH  27  28
HETATM   28  C14 UNL     1       2.455  10.918  20.138  1.00  0.00     0.244 C 
HETATM   29  O3  UNL     1       2.584   9.695  20.162  1.00  0.00    -0.271 OA
HETATM   30  N2  UNL     1       3.277  11.764  20.839  1.00  0.00    -0.346 N 
HETATM   31  H16 UNL     1       3.147  12.768  20.724  1.00  0.00     0.163 HD
BRANCH  30  32
HETATM   32  C15 UNL     1       4.417  11.313  21.630  1.00  0.00     0.180 C 
BRANCH  32  33
HETATM   33  C16 UNL     1       5.570  12.300  21.341  1.00  0.00     0.241 C 
HETATM   34  O4  UNL     1       5.464  13.223  20.532  1.00  0.00    -0.271 OA
HETATM   35  N3  UNL     1       6.718  12.087  22.060  1.00  0.00    -0.344 N 
HETATM   36  H18 UNL     1       6.793  11.288  22.685  1.00  0.00     0.163 HD
BRANCH  35  37
HETATM   37  C17 UNL     1       7.896  12.947  21.934  1.00  0.00     0.192 C 
BRANCH  37  38
HETATM   38  C18 UNL     1       9.200  12.152  21.858  1.00  0.00     0.146 C 
BRANCH  38  39
HETATM   39  C19 UNL     1      10.184  12.758  20.900  1.00  0.00     0.141 C 
HETATM   40  O5  UNL     1      10.910  12.175  20.115  1.00  0.00    -0.650 OA
BRANCH  39  41
HETATM   41  O6  UNL     1      10.204  14.103  20.982  1.00  0.00    -0.776 OA
HETATM   42  H22 UNL     1      10.862  14.384  20.312  1.00  0.00     0.167 HD
ENDBRANCH  39  41
ENDBRANCH  38  39
ENDBRANCH  37  38
BRANCH  37  43
HETATM   43  C20 UNL     1       7.887  13.968  23.076  1.00  0.00     0.164 C 
HETATM   44  O7  UNL     1       7.077  14.872  23.223  1.00  0.00    -0.648 OA
BRANCH  43  45
HETATM   45  O8  UNL     1       8.924  13.838  23.927  1.00  0.00    -0.775 OA
HETATM   46  H23 UNL     1       8.777  14.548  24.587  1.00  0.00     0.167 HD
ENDBRANCH  43  45
ENDBRANCH  37  43
ENDBRANCH  35  37
ENDBRANCH  32  33
BRANCH  32  47
HETATM   47  C21 UNL     1       4.054  11.198  23.128  1.00  0.00     0.009 C 
HETATM   48  C22 UNL     1       3.069  12.279  23.577  1.00  0.00     0.012 C 
HETATM   49  C23 UNL     1       3.521   9.813  23.511  1.00  0.00     0.012 C 
ENDBRANCH  32  47
ENDBRANCH  30  32
ENDBRANCH  27  28
ENDBRANCH  26  27
ENDBRANCH  13  26
TORSDOF 13
ENDMDL
MODEL 5
REMARK minimizedAffinity -7.53534603
REMARK CNNscore 0.379834592
REMARK CNNaffinity 7.22018194
REMARK  13 active torsions:
REMARK  status: ('A' for Active; 'I' for Inactive)
REMARK    1  A    between atoms: C3_3  and  O1_4 
REMARK    2  A    between atoms: N1_14  and  O2_16 
REMARK    3  A    between atoms: O2_16  and  C13_17 
REMARK    4  A    between atoms: C13_17  and  C14_18 
REMARK       I    between atoms: C14_18  and  N2_20 
REMARK    5  A    between atoms: N2_20  and  C15_21 
REMARK    6  A    between atoms: C15_21  and  C16_22 
REMARK    7  A    between atoms: C15_21  and  C21_33 
REMARK       I    between atoms: C16_22  and  N3_24 
REMARK    8  A    between atoms: N3_24  and  C17_25 
REMARK    9  A    between atoms: C17_25  and  C18_26 
REMARK   10  A    between atoms: C17_25  and  C20_30 
REMARK   11  A    between atoms: C18_26  and  C19_27 
REMARK   12  A    between atoms: C19_27  and  O6_29 
REMARK   13  A    between atoms: C20_30  and  O8_32 
ROOT
HETATM    1  C1  UNL     1       0.203   6.729  11.150  1.00  0.00     0.015 C 
HETATM    2  C2  UNL     1      -0.352   7.028  12.172  1.00  0.00    -0.078 C 
HETATM    3  C3  UNL     1      -1.024   7.408  13.436  1.00  0.00     0.128 C 
HETATM    4  C4  UNL     1      -1.660   8.795  13.286  1.00  0.00     0.052 C 
HETATM    5  C5  UNL     1      -3.088   8.550  12.793  1.00  0.00     0.010 C 
HETATM    6  C6  UNL     1      -3.345   7.026  12.870  1.00  0.00     0.002 C 
HETATM    7  C7  UNL     1      -4.806   6.706  13.265  1.00  0.00    -0.004 C 
HETATM    8  C8  UNL     1      -5.225   5.298  12.772  1.00  0.00     0.010 C 
HETATM    9  C9  UNL     1      -6.304   4.623  13.615  1.00  0.00     0.035 C 
HETATM   10  C10 UNL     1      -7.244   5.653  14.166  1.00  0.00    -0.069 C 
HETATM   11  C11 UNL     1      -8.526   5.695  13.768  1.00  0.00     0.030 C 
HETATM   12  C12 UNL     1      -9.459   6.746  14.249  1.00  0.00     0.032 C 
HETATM   13  N1  UNL     1     -10.717   6.626  13.932  1.00  0.00    -0.271 N 
ATOM     14  H1  UNL     1     -11.095   5.875  13.356  1.00  0.00     0.194 HD
HETATM   15  C24 UNL     1      -8.905   7.871  15.102  1.00  0.00     0.060 C 
HETATM   16  C25 UNL     1      -7.392   8.007  14.963  1.00  0.00     0.020 C 
HETATM   17  C26 UNL     1      -6.620   6.665  15.124  1.00  0.00    -0.016 C 
HETATM   18  C27 UNL     1      -6.804   6.151  16.568  1.00  0.00     0.020 C 
HETATM   19  C28 UNL     1      -5.097   6.936  14.774  1.00  0.00     0.002 C 
HETATM   20  C29 UNL     1      -4.052   6.193  15.629  1.00  0.00     0.007 C 
HETATM   21  C30 UNL     1      -2.632   6.666  15.304  1.00  0.00     0.014 C 
HETATM   22  C31 UNL     1      -2.234   6.489  13.814  1.00  0.00     0.003 C 
HETATM   23  C32 UNL     1      -1.903   4.999  13.587  1.00  0.00     0.020 C 
ENDROOT
BRANCH   3  24
HETATM   24  O1  UNL     1      -0.047   7.443  14.468  1.00  0.00    -0.377 OA
HETATM   25  H2  UNL     1       0.424   6.593  14.437  1.00  0.00     0.211 HD
ENDBRANCH   3  24
BRANCH  13  26
HETATM   26  O2  UNL     1     -11.488   7.659  14.482  1.00  0.00    -0.271 OA
BRANCH  26  27
HETATM   27  C13 UNL     1     -12.852   7.253  14.546  1.00  0.00     0.303 C 
BRANCH  27  28
HETATM   28  C14 UNL     1     -13.791   8.456  14.498  1.00  0.00     0.244 C 
HETATM   29  O3  UNL     1     -14.722   8.597  15.291  1.00  0.00    -0.271 OA
HETATM   30  N2  UNL     1     -13.518   9.365  13.506  1.00  0.00    -0.346 N 
HETATM   31  H16 UNL     1     -12.695   9.211  12.925  1.00  0.00     0.163 HD
BRANCH  30  32
HETATM   32  C15 UNL     1     -14.255  10.610  13.326  1.00  0.00     0.180 C 
BRANCH  32  33
HETATM   33  C16 UNL     1     -15.751  10.229  13.263  1.00  0.00     0.241 C 
HETATM   34  O4  UNL     1     -16.628  10.899  13.810  1.00  0.00    -0.271 OA
HETATM   35  N3  UNL     1     -16.039   9.100  12.541  1.00  0.00    -0.344 N 
HETATM   36  H18 UNL     1     -15.290   8.540  12.140  1.00  0.00     0.163 HD
BRANCH  35  37
HETATM   37  C17 UNL     1     -17.407   8.614  12.351  1.00  0.00     0.192 C 
BRANCH  37  38
HETATM   38  C18 UNL     1     -17.552   7.125  12.669  1.00  0.00     0.146 C 
BRANCH  38  39
HETATM   39  C19 UNL     1     -18.001   6.884  14.081  1.00  0.00     0.141 C 
HETATM   40  O5  UNL     1     -17.732   7.545  15.068  1.00  0.00    -0.650 OA
BRANCH  39  41
HETATM   41  O6  UNL     1     -18.787   5.793  14.181  1.00  0.00    -0.776 OA
HETATM   42  H22 UNL     1     -19.026   5.745  15.130  1.00  0.00     0.167 HD
ENDBRANCH  39  41
ENDBRANCH  38  39
ENDBRANCH  37  38
BRANCH  37  43
HETATM   43  C20 UNL     1     -17.865   8.967  10.933  1.00  0.00     0.164 C 
HETATM   44  O7  UNL     1     -17.330   9.773  10.186  1.00  0.00    -0.648 OA
BRANCH  43  45
HETATM   45  O8  UNL     1     -18.999   8.343  10.559  1.00  0.00    -0.775 OA
HETATM   46  H23 UNL     1     -19.157   8.667   9.647  1.00  0.00     0.167 HD
ENDBRANCH  43  45
ENDBRANCH  37  43
ENDBRANCH  35  37
ENDBRANCH  32  33
BRANCH  32  47
HETATM   47  C21 UNL     1     -13.917  11.633  14.435  1.00  0.00     0.009 C 
HETATM   48  C22 UNL     1     -13.663  13.036  13.881  1.00  0.00     0.012 C 
HETATM   49  C23 UNL     1     -14.976  11.690  15.541  1.00  0.00     0.012 C 
ENDBRANCH  32  47
ENDBRANCH  30  32
ENDBRANCH  27  28
ENDBRANCH  26  27
ENDBRANCH  13  26
TORSDOF 13
ENDMDL
MODEL 6
REMARK minimizedAffinity -8.5405283
REMARK CNNscore 0.289178967
REMARK CNNaffinity 7.17096472
REMARK  13 active torsions:
REMARK  status: ('A' for Active; 'I' for Inactive)
REMARK    1  A    between atoms: C3_3  and  O1_4 
REMARK    2  A    between atoms: N1_14  and  O2_16 
REMARK    3  A    between atoms: O2_16  and  C13_17 
REMARK    4  A    between atoms: C13_17  and  C14_18 
REMARK       I    between atoms: C14_18  and  N2_20 
REMARK    5  A    between atoms: N2_20  and  C15_21 
REMARK    6  A    between atoms: C15_21  and  C16_22 
REMARK    7  A    between atoms: C15_21  and  C21_33 
REMARK       I    between atoms: C16_22  and  N3_24 
REMARK    8  A    between atoms: N3_24  and  C17_25 
REMARK    9  A    between atoms: C17_25  and  C18_26 
REMARK   10  A    between atoms: C17_25  and  C20_30 
REMARK   11  A    between atoms: C18_26  and  C19_27 
REMARK   12  A    between atoms: C19_27  and  O6_29 
REMARK   13  A    between atoms: C20_30  and  O8_32 
ROOT
HETATM    1  C1  UNL     1       2.633   5.767   6.825  1.00  0.00     0.015 C 
HETATM    2  C2  UNL     1       2.507   6.582   7.698  1.00  0.00    -0.078 C 
HETATM    3  C3  UNL     1       2.358   7.600   8.763  1.00  0.00     0.128 C 
HETATM    4  C4  UNL     1       1.133   8.475   8.475  1.00  0.00     0.052 C 
HETATM    5  C5  UNL     1      -0.042   7.799   9.185  1.00  0.00     0.010 C 
HETATM    6  C6  UNL     1       0.543   6.664  10.060  1.00  0.00     0.002 C 
HETATM    7  C7  UNL     1      -0.236   6.498  11.386  1.00  0.00    -0.004 C 
HETATM    8  C8  UNL     1      -0.077   5.065  11.954  1.00  0.00     0.010 C 
HETATM    9  C9  UNL     1      -0.199   4.964  13.473  1.00  0.00     0.035 C 
HETATM   10  C10 UNL     1      -1.178   5.983  13.977  1.00  0.00    -0.069 C 
HETATM   11  C11 UNL     1      -2.341   5.602  14.530  1.00  0.00     0.030 C 
HETATM   12  C12 UNL     1      -3.354   6.592  14.977  1.00  0.00     0.032 C 
HETATM   13  N1  UNL     1      -4.385   6.145  15.635  1.00  0.00    -0.271 N 
ATOM     14  H1  UNL     1      -4.552   5.159  15.839  1.00  0.00     0.194 HD
HETATM   15  C24 UNL     1      -3.116   8.059  14.672  1.00  0.00     0.060 C 
HETATM   16  C25 UNL     1      -2.096   8.257  13.555  1.00  0.00     0.020 C 
HETATM   17  C26 UNL     1      -0.786   7.439  13.744  1.00  0.00    -0.016 C 
HETATM   18  C27 UNL     1      -0.050   7.957  14.998  1.00  0.00     0.020 C 
HETATM   19  C28 UNL     1       0.083   7.606  12.427  1.00  0.00     0.002 C 
HETATM   20  C29 UNL     1       1.607   7.721  12.620  1.00  0.00     0.007 C 
HETATM   21  C30 UNL     1       2.312   8.043  11.298  1.00  0.00     0.014 C 
HETATM   22  C31 UNL     1       2.055   7.000  10.177  1.00  0.00     0.003 C 
HETATM   23  C32 UNL     1       2.938   5.768  10.469  1.00  0.00     0.020 C 
ENDROOT
BRANCH   3  24
HETATM   24  O1  UNL     1       3.527   8.409   8.774  1.00  0.00    -0.377 OA
HETATM   25  H2  UNL     1       4.287   7.804   8.821  1.00  0.00     0.211 HD
ENDBRANCH   3  24
BRANCH  13  26
HETATM   26  O2  UNL     1      -5.237   7.185  16.029  1.00  0.00    -0.271 OA
BRANCH  26  27
HETATM   27  C13 UNL     1      -6.549   6.671  16.241  1.00  0.00     0.303 C 
BRANCH  27  28
HETATM   28  C14 UNL     1      -7.394   6.772  14.973  1.00  0.00     0.244 C 
HETATM   29  O3  UNL     1      -6.994   7.342  13.959  1.00  0.00    -0.271 OA
HETATM   30  N2  UNL     1      -8.631   6.181  15.054  1.00  0.00    -0.346 N 
HETATM   31  H16 UNL     1      -8.870   5.677  15.906  1.00  0.00     0.163 HD
BRANCH  30  32
HETATM   32  C15 UNL     1      -9.568   6.113  13.938  1.00  0.00     0.180 C 
BRANCH  32  33
HETATM   33  C16 UNL     1     -10.473   7.360  14.049  1.00  0.00     0.241 C 
HETATM   34  O4  UNL     1     -10.019   8.500  14.154  1.00  0.00    -0.271 OA
HETATM   35  N3  UNL     1     -11.821   7.112  14.005  1.00  0.00    -0.344 N 
HETATM   36  H18 UNL     1     -12.168   6.156  13.967  1.00  0.00     0.163 HD
BRANCH  35  37
HETATM   37  C17 UNL     1     -12.821   8.180  14.064  1.00  0.00     0.192 C 
BRANCH  37  38
HETATM   38  C18 UNL     1     -13.547   8.234  15.409  1.00  0.00     0.146 C 
BRANCH  38  39
HETATM   39  C19 UNL     1     -12.961   9.260  16.334  1.00  0.00     0.141 C 
HETATM   40  O5  UNL     1     -13.270   9.478  17.492  1.00  0.00    -0.650 OA
BRANCH  39  41
HETATM   41  O6  UNL     1     -11.990   9.980  15.737  1.00  0.00    -0.776 OA
HETATM   42  H22 UNL     1     -11.677  10.599  16.431  1.00  0.00     0.167 HD
ENDBRANCH  39  41
ENDBRANCH  38  39
ENDBRANCH  37  38
BRANCH  37  43
HETATM   43  C20 UNL     1     -13.776   8.028  12.877  1.00  0.00     0.164 C 
HETATM   44  O7  UNL     1     -14.159   8.929  12.144  1.00  0.00    -0.648 OA
BRANCH  43  45
HETATM   45  O8  UNL     1     -14.244   6.775  12.716  1.00  0.00    -0.775 OA
HETATM   46  H23 UNL     1     -14.829   6.841  11.931  1.00  0.00     0.167 HD
ENDBRANCH  43  45
ENDBRANCH  37  43
ENDBRANCH  35  37
ENDBRANCH  32  33
BRANCH  32  47
HETATM   47  C21 UNL     1      -8.828   5.996  12.586  1.00  0.00     0.009 C 
HETATM   48  C22 UNL     1      -8.235   4.603  12.361  1.00  0.00     0.012 C 
HETATM   49  C23 UNL     1      -9.699   6.394  11.389  1.00  0.00     0.012 C 
ENDBRANCH  32  47
ENDBRANCH  30  32
ENDBRANCH  27  28
ENDBRANCH  26  27
ENDBRANCH  13  26
TORSDOF 13
ENDMDL
MODEL 7
REMARK minimizedAffinity -8.2593174
REMARK CNNscore 0.270254433
REMARK CNNaffinity 7.02147341
REMARK  13 active torsions:
REMARK  status: ('A' for Active; 'I' for Inactive)
REMARK    1  A    between atoms: C3_3  and  O1_4 
REMARK    2  A    between atoms: N1_14  and  O2_16 
REMARK    3  A    between atoms: O2_16  and  C13_17 
REMARK    4  A    between atoms: C13_17  and  C14_18 
REMARK       I    between atoms: C14_18  and  N2_20 
REMARK    5  A    between atoms: N2_20  and  C15_21 
REMARK    6  A    between atoms: C15_21  and  C16_22 
REMARK    7  A    between atoms: C15_21  and  C21_33 
REMARK       I    between atoms: C16_22  and  N3_24 
REMARK    8  A    between atoms: N3_24  and  C17_25 
REMARK    9  A    between atoms: C17_25  and  C18_26 
REMARK   10  A    between atoms: C17_25  and  C20_30 
REMARK   11  A    between atoms: C18_26  and  C19_27 
REMARK   12  A    between atoms: C19_27  and  O6_29 
REMARK   13  A    between atoms: C20_30  and  O8_32 
ROOT
HETATM    1  C1  UNL     1      -0.590   5.857  11.339  1.00  0.00     0.015 C 
HETATM    2  C2  UNL     1      -1.070   6.319  12.339  1.00  0.00    -0.078 C 
HETATM    3  C3  UNL     1      -1.646   6.897  13.574  1.00  0.00     0.128 C 
HETATM    4  C4  UNL     1      -2.030   8.361  13.329  1.00  0.00     0.052 C 
HETATM    5  C5  UNL     1      -3.486   8.339  12.857  1.00  0.00     0.010 C 
HETATM    6  C6  UNL     1      -4.006   6.893  13.040  1.00  0.00     0.002 C 
HETATM    7  C7  UNL     1      -5.494   6.864  13.460  1.00  0.00    -0.004 C 
HETATM    8  C8  UNL     1      -6.162   5.522  13.067  1.00  0.00     0.010 C 
HETATM    9  C9  UNL     1      -7.331   5.107  13.956  1.00  0.00     0.035 C 
HETATM   10  C10 UNL     1      -8.067   6.322  14.436  1.00  0.00    -0.069 C 
HETATM   11  C11 UNL     1      -9.327   6.563  14.038  1.00  0.00     0.030 C 
HETATM   12  C12 UNL     1     -10.054   7.792  14.447  1.00  0.00     0.032 C 
HETATM   13  N1  UNL     1     -11.318   7.875  14.141  1.00  0.00    -0.271 N 
ATOM     14  H1  UNL     1     -11.830   7.164  13.619  1.00  0.00     0.194 HD
HETATM   15  C24 UNL     1      -9.298   8.857  15.218  1.00  0.00     0.060 C 
HETATM   16  C25 UNL     1      -7.787   8.713  15.068  1.00  0.00     0.020 C 
HETATM   17  C26 UNL     1      -7.261   7.271  15.319  1.00  0.00    -0.016 C 
HETATM   18  C27 UNL     1      -7.512   6.898  16.797  1.00  0.00     0.020 C 
HETATM   19  C28 UNL     1      -5.719   7.244  14.949  1.00  0.00     0.002 C 
HETATM   20  C29 UNL     1      -4.810   6.389  15.851  1.00  0.00     0.007 C 
HETATM   21  C30 UNL     1      -3.333   6.579  15.492  1.00  0.00     0.014 C 
HETATM   22  C31 UNL     1      -2.993   6.234  14.017  1.00  0.00     0.003 C 
HETATM   23  C32 UNL     1      -2.934   4.697  13.895  1.00  0.00     0.020 C 
ENDROOT
BRANCH   3  24
HETATM   24  O1  UNL     1      -0.664   6.829  14.599  1.00  0.00    -0.377 OA
HETATM   25  H2  UNL     1      -0.350   5.909  14.627  1.00  0.00     0.211 HD
ENDBRANCH   3  24
BRANCH  13  26
HETATM   26  O2  UNL     1     -11.887   9.063  14.619  1.00  0.00    -0.271 OA
BRANCH  26  27
HETATM   27  C13 UNL     1     -13.208   8.804  15.085  1.00  0.00     0.303 C 
BRANCH  27  28
HETATM   28  C14 UNL     1     -13.962   7.884  14.127  1.00  0.00     0.244 C 
HETATM   29  O3  UNL     1     -13.829   7.953  12.906  1.00  0.00    -0.271 OA
HETATM   30  N2  UNL     1     -14.798   6.978  14.731  1.00  0.00    -0.346 N 
HETATM   31  H16 UNL     1     -14.813   6.941  15.750  1.00  0.00     0.163 HD
BRANCH  30  32
HETATM   32  C15 UNL     1     -15.562   5.972  14.003  1.00  0.00     0.180 C 
BRANCH  32  33
HETATM   33  C16 UNL     1     -15.889   4.852  15.015  1.00  0.00     0.241 C 
HETATM   34  O4  UNL     1     -16.365   5.083  16.127  1.00  0.00    -0.271 OA
HETATM   35  N3  UNL     1     -15.628   3.577  14.583  1.00  0.00    -0.344 N 
HETATM   36  H18 UNL     1     -15.191   3.419  13.679  1.00  0.00     0.163 HD
BRANCH  35  37
HETATM   37  C17 UNL     1     -15.909   2.395  15.402  1.00  0.00     0.192 C 
BRANCH  37  38
HETATM   38  C18 UNL     1     -14.849   1.305  15.244  1.00  0.00     0.146 C 
BRANCH  38  39
HETATM   39  C19 UNL     1     -15.452  -0.063  15.104  1.00  0.00     0.141 C 
HETATM   40  O5  UNL     1     -16.024  -0.713  15.961  1.00  0.00    -0.650 OA
BRANCH  39  41
HETATM   41  O6  UNL     1     -15.300  -0.555  13.858  1.00  0.00    -0.776 OA
HETATM   42  H22 UNL     1     -15.738  -1.431  13.882  1.00  0.00     0.167 HD
ENDBRANCH  39  41
ENDBRANCH  38  39
ENDBRANCH  37  38
BRANCH  37  43
HETATM   43  C20 UNL     1     -17.324   1.901  15.087  1.00  0.00     0.164 C 
HETATM   44  O7  UNL     1     -17.849   1.883  13.983  1.00  0.00    -0.648 OA
BRANCH  43  45
HETATM   45  O8  UNL     1     -18.019   1.520  16.177  1.00  0.00    -0.775 OA
HETATM   46  H23 UNL     1     -18.886   1.235  15.815  1.00  0.00     0.167 HD
ENDBRANCH  43  45
ENDBRANCH  37  43
ENDBRANCH  35  37
ENDBRANCH  32  33
BRANCH  32  47
HETATM   47  C21 UNL     1     -16.809   6.589  13.328  1.00  0.00     0.009 C 
HETATM   48  C22 UNL     1     -17.737   5.529  12.732  1.00  0.00     0.012 C 
HETATM   49  C23 UNL     1     -17.600   7.513  14.262  1.00  0.00     0.012 C 
ENDBRANCH  32  47
ENDBRANCH  30  32
ENDBRANCH  27  28
ENDBRANCH  26  27
ENDBRANCH  13  26
TORSDOF 13
ENDMDL
MODEL 8
REMARK minimizedAffinity -8.02066135
REMARK CNNscore 0.255769461
REMARK CNNaffinity 6.59864616
REMARK  13 active torsions:
REMARK  status: ('A' for Active; 'I' for Inactive)
REMARK    1  A    between atoms: C3_3  and  O1_4 
REMARK    2  A    between atoms: N1_14  and  O2_16 
REMARK    3  A    between atoms: O2_16  and  C13_17 
REMARK    4  A    between atoms: C13_17  and  C14_18 
REMARK       I    between atoms: C14_18  and  N2_20 
REMARK    5  A    between atoms: N2_20  and  C15_21 
REMARK    6  A    between atoms: C15_21  and  C16_22 
REMARK    7  A    between atoms: C15_21  and  C21_33 
REMARK       I    between atoms: C16_22  and  N3_24 
REMARK    8  A    between atoms: N3_24  and  C17_25 
REMARK    9  A    between atoms: C17_25  and  C18_26 
REMARK   10  A    between atoms: C17_25  and  C20_30 
REMARK   11  A    between atoms: C18_26  and  C19_27 
REMARK   12  A    between atoms: C19_27  and  O6_29 
REMARK   13  A    between atoms: C20_30  and  O8_32 
ROOT
HETATM    1  C1  UNL     1      -7.452   3.456  14.484  1.00  0.00     0.015 C 
HETATM    2  C2  UNL     1      -7.214   4.604  14.224  1.00  0.00    -0.078 C 
HETATM    3  C3  UNL     1      -6.937   6.023  13.903  1.00  0.00     0.128 C 
HETATM    4  C4  UNL     1      -7.332   6.909  15.090  1.00  0.00     0.052 C 
HETATM    5  C5  UNL     1      -6.077   7.032  15.956  1.00  0.00     0.010 C 
HETATM    6  C6  UNL     1      -4.907   6.405  15.161  1.00  0.00     0.002 C 
HETATM    7  C7  UNL     1      -3.577   7.158  15.401  1.00  0.00    -0.004 C 
HETATM    8  C8  UNL     1      -2.357   6.241  15.133  1.00  0.00     0.010 C 
HETATM    9  C9  UNL     1      -1.094   6.975  14.689  1.00  0.00     0.035 C 
HETATM   10  C10 UNL     1      -1.026   8.322  15.343  1.00  0.00    -0.069 C 
HETATM   11  C11 UNL     1      -0.066   8.603  16.239  1.00  0.00     0.030 C 
HETATM   12  C12 UNL     1      -0.017   9.906  16.949  1.00  0.00     0.032 C 
HETATM   13  N1  UNL     1       1.028  10.152  17.688  1.00  0.00    -0.271 N 
ATOM     14  H1  UNL     1       1.797   9.497  17.829  1.00  0.00     0.194 HD
HETATM   15  C24 UNL     1      -1.161  10.883  16.750  1.00  0.00     0.060 C 
HETATM   16  C25 UNL     1      -2.412  10.200  16.208  1.00  0.00     0.020 C 
HETATM   17  C26 UNL     1      -2.150   9.287  14.976  1.00  0.00    -0.016 C 
HETATM   18  C27 UNL     1      -1.679  10.163  13.795  1.00  0.00     0.020 C 
HETATM   19  C28 UNL     1      -3.497   8.515  14.649  1.00  0.00     0.002 C 
HETATM   20  C29 UNL     1      -3.827   8.309  13.158  1.00  0.00     0.007 C 
HETATM   21  C30 UNL     1      -5.223   7.704  12.976  1.00  0.00     0.014 C 
HETATM   22  C31 UNL     1      -5.419   6.343  13.696  1.00  0.00     0.003 C 
HETATM   23  C32 UNL     1      -4.723   5.257  12.848  1.00  0.00     0.020 C 
ENDROOT
BRANCH   3  24
HETATM   24  O1  UNL     1      -7.710   6.381  12.765  1.00  0.00    -0.377 OA
HETATM   25  H2  UNL     1      -7.531   5.712  12.082  1.00  0.00     0.211 HD
ENDBRANCH   3  24
BRANCH  13  26
HETATM   26  O2  UNL     1       0.963  11.427  18.265  1.00  0.00    -0.271 OA
BRANCH  26  27
HETATM   27  C13 UNL     1       1.099  11.316  19.679  1.00  0.00     0.303 C 
BRANCH  27  28
HETATM   28  C14 UNL     1       2.438  10.688  20.060  1.00  0.00     0.244 C 
HETATM   29  O3  UNL     1       2.666   9.488  19.916  1.00  0.00    -0.271 OA
HETATM   30  N2  UNL     1       3.362  11.563  20.574  1.00  0.00    -0.346 N 
HETATM   31  H16 UNL     1       3.122  12.553  20.609  1.00  0.00     0.163 HD
BRANCH  30  32
HETATM   32  C15 UNL     1       4.720  11.180  20.943  1.00  0.00     0.180 C 
BRANCH  32  33
HETATM   33  C16 UNL     1       5.666  12.158  20.213  1.00  0.00     0.241 C 
HETATM   34  O4  UNL     1       5.265  13.194  19.680  1.00  0.00    -0.271 OA
HETATM   35  N3  UNL     1       6.990  11.803  20.211  1.00  0.00    -0.344 N 
HETATM   36  H18 UNL     1       7.286  10.917  20.617  1.00  0.00     0.163 HD
BRANCH  35  37
HETATM   37  C17 UNL     1       8.028  12.631  19.593  1.00  0.00     0.192 C 
BRANCH  37  38
HETATM   38  C18 UNL     1       8.151  14.007  20.249  1.00  0.00     0.146 C 
BRANCH  38  39
HETATM   39  C19 UNL     1       9.458  14.185  20.964  1.00  0.00     0.141 C 
HETATM   40  O5  UNL     1      10.466  14.726  20.545  1.00  0.00    -0.650 OA
BRANCH  39  41
HETATM   41  O6  UNL     1       9.430  13.657  22.204  1.00  0.00    -0.776 OA
HETATM   42  H22 UNL     1      10.318  13.843  22.574  1.00  0.00     0.167 HD
ENDBRANCH  39  41
ENDBRANCH  38  39
ENDBRANCH  37  38
BRANCH  37  43
HETATM   43  C20 UNL     1       7.766  12.709  18.087  1.00  0.00     0.164 C 
HETATM   44  O7  UNL     1       7.559  13.730  17.446  1.00  0.00    -0.648 OA
BRANCH  43  45
HETATM   45  O8  UNL     1       7.713  11.505  17.484  1.00  0.00    -0.775 OA
HETATM   46  H23 UNL     1       7.543  11.721  16.542  1.00  0.00     0.167 HD
ENDBRANCH  43  45
ENDBRANCH  37  43
ENDBRANCH  35  37
ENDBRANCH  32  33
BRANCH  32  47
HETATM   47  C21 UNL     1       4.904  11.161  22.478  1.00  0.00     0.009 C 
HETATM   48  C22 UNL     1       4.601  12.516  23.121  1.00  0.00     0.012 C 
HETATM   49  C23 UNL     1       4.088  10.061  23.166  1.00  0.00     0.012 C 
ENDBRANCH  32  47
ENDBRANCH  30  32
ENDBRANCH  27  28
ENDBRANCH  26  27
ENDBRANCH  13  26
TORSDOF 13
ENDMDL
MODEL 9
REMARK minimizedAffinity -8.15602207
REMARK CNNscore 0.241697252
REMARK CNNaffinity 6.9676609
REMARK  13 active torsions:
REMARK  status: ('A' for Active; 'I' for Inactive)
REMARK    1  A    between atoms: C3_3  and  O1_4 
REMARK    2  A    between atoms: N1_14  and  O2_16 
REMARK    3  A    between atoms: O2_16  and  C13_17 
REMARK    4  A    between atoms: C13_17  and  C14_18 
REMARK       I    between atoms: C14_18  and  N2_20 
REMARK    5  A    between atoms: N2_20  and  C15_21 
REMARK    6  A    between atoms: C15_21  and  C16_22 
REMARK    7  A    between atoms: C15_21  and  C21_33 
REMARK       I    between atoms: C16_22  and  N3_24 
REMARK    8  A    between atoms: N3_24  and  C17_25 
REMARK    9  A    between atoms: C17_25  and  C18_26 
REMARK   10  A    between atoms: C17_25  and  C20_30 
REMARK   11  A    between atoms: C18_26  and  C19_27 
REMARK   12  A    between atoms: C19_27  and  O6_29 
REMARK   13  A    between atoms: C20_30  and  O8_32 
ROOT
HETATM    1  C1  UNL     1       0.991   7.143  11.550  1.00  0.00     0.015 C 
HETATM    2  C2  UNL     1       0.319   7.396  12.513  1.00  0.00    -0.078 C 
HETATM    3  C3  UNL     1      -0.498   7.721  13.705  1.00  0.00     0.128 C 
HETATM    4  C4  UNL     1      -1.224   9.053  13.487  1.00  0.00     0.052 C 
HETATM    5  C5  UNL     1      -2.575   8.697  12.863  1.00  0.00     0.010 C 
HETATM    6  C6  UNL     1      -2.717   7.157  12.925  1.00  0.00     0.002 C 
HETATM    7  C7  UNL     1      -4.179   6.722  13.183  1.00  0.00    -0.004 C 
HETATM    8  C8  UNL     1      -4.437   5.286  12.662  1.00  0.00     0.010 C 
HETATM    9  C9  UNL     1      -5.535   4.527  13.404  1.00  0.00     0.035 C 
HETATM   10  C10 UNL     1      -6.601   5.479  13.856  1.00  0.00    -0.069 C 
HETATM   11  C11 UNL     1      -7.839   5.420  13.339  1.00  0.00     0.030 C 
HETATM   12  C12 UNL     1      -8.893   6.393  13.724  1.00  0.00     0.032 C 
HETATM   13  N1  UNL     1     -10.102   6.174  13.290  1.00  0.00    -0.271 N 
ATOM     14  H1  UNL     1     -10.363   5.395  12.686  1.00  0.00     0.194 HD
HETATM   15  C24 UNL     1      -8.512   7.557  14.618  1.00  0.00     0.060 C 
HETATM   16  C25 UNL     1      -7.008   7.812  14.622  1.00  0.00     0.020 C 
HETATM   17  C26 UNL     1      -6.152   6.535  14.862  1.00  0.00    -0.016 C 
HETATM   18  C27 UNL     1      -6.430   6.008  16.286  1.00  0.00     0.020 C 
HETATM   19  C28 UNL     1      -4.628   6.927  14.656  1.00  0.00     0.002 C 
HETATM   20  C29 UNL     1      -3.614   6.268  15.610  1.00  0.00     0.007 C 
HETATM   21  C30 UNL     1      -2.211   6.852  15.418  1.00  0.00     0.014 C 
HETATM   22  C31 UNL     1      -1.661   6.709  13.973  1.00  0.00     0.003 C 
HETATM   23  C32 UNL     1      -1.194   5.249  13.788  1.00  0.00     0.020 C 
ENDROOT
BRANCH   3  24
HETATM   24  O1  UNL     1       0.372   7.832  14.824  1.00  0.00    -0.377 OA
HETATM   25  H2  UNL     1       0.910   7.022  14.843  1.00  0.00     0.211 HD
ENDBRANCH   3  24
BRANCH  13  26
HETATM   26  O2  UNL     1     -11.000   7.143  13.758  1.00  0.00    -0.271 OA
BRANCH  26  27
HETATM   27  C13 UNL     1     -12.103   6.501  14.393  1.00  0.00     0.303 C 
BRANCH  27  28
HETATM   28  C14 UNL     1     -13.379   7.329  14.257  1.00  0.00     0.244 C 
HETATM   29  O3  UNL     1     -14.040   7.353  13.220  1.00  0.00    -0.271 OA
HETATM   30  N2  UNL     1     -13.728   8.043  15.377  1.00  0.00    -0.346 N 
HETATM   31  H16 UNL     1     -13.163   7.928  16.217  1.00  0.00     0.163 HD
BRANCH  30  32
HETATM   32  C15 UNL     1     -14.939   8.849  15.476  1.00  0.00     0.180 C 
BRANCH  32  33
HETATM   33  C16 UNL     1     -15.038   9.655  14.162  1.00  0.00     0.241 C 
HETATM   34  O4  UNL     1     -14.129  10.385  13.763  1.00  0.00    -0.271 OA
HETATM   35  N3  UNL     1     -16.204   9.491  13.460  1.00  0.00    -0.344 N 
HETATM   36  H18 UNL     1     -16.957   8.920  13.838  1.00  0.00     0.163 HD
BRANCH  35  37
HETATM   37  C17 UNL     1     -16.452  10.155  12.178  1.00  0.00     0.192 C 
BRANCH  37  38
HETATM   38  C18 UNL     1     -17.520  11.245  12.276  1.00  0.00     0.146 C 
BRANCH  38  39
HETATM   39  C19 UNL     1     -17.268  12.379  11.325  1.00  0.00     0.141 C 
HETATM   40  O5  UNL     1     -16.551  13.348  11.500  1.00  0.00    -0.650 OA
BRANCH  39  41
HETATM   41  O6  UNL     1     -17.950  12.231  10.173  1.00  0.00    -0.776 OA
HETATM   42  H22 UNL     1     -17.700  13.010   9.633  1.00  0.00     0.167 HD
ENDBRANCH  39  41
ENDBRANCH  38  39
ENDBRANCH  37  38
BRANCH  37  43
HETATM   43  C20 UNL     1     -16.780   9.091  11.127  1.00  0.00     0.164 C 
HETATM   44  O7  UNL     1     -17.798   9.039  10.451  1.00  0.00    -0.648 OA
BRANCH  43  45
HETATM   45  O8  UNL     1     -15.849   8.121  11.029  1.00  0.00    -0.775 OA
HETATM   46  H23 UNL     1     -16.198   7.530  10.328  1.00  0.00     0.167 HD
ENDBRANCH  43  45
ENDBRANCH  37  43
ENDBRANCH  35  37
ENDBRANCH  32  33
BRANCH  32  47
HETATM   47  C21 UNL     1     -16.178   7.971  15.766  1.00  0.00     0.009 C 
HETATM   48  C22 UNL     1     -16.653   7.202  14.532  1.00  0.00     0.012 C 
HETATM   49  C23 UNL     1     -15.968   7.005  16.937  1.00  0.00     0.012 C 
ENDBRANCH  32  47
ENDBRANCH  30  32
ENDBRANCH  27  28
ENDBRANCH  26  27
ENDBRANCH  13  26
TORSDOF 13
ENDMDL
