MODEL 1
REMARK minimizedAffinity -6.96783018
REMARK CNNscore 0.578994215
REMARK CNNaffinity 5.53828859
REMARK  9 active torsions:
REMARK  status: ('A' for Active; 'I' for Inactive)
REMARK    1  A    between atoms: C5_5  and  O1_6 
REMARK    2  A    between atoms: C8_9  and  C9_10 
REMARK    3  A    between atoms: C19_20  and  C20_21 
REMARK    4  A    between atoms: C20_21  and  C22_23 
REMARK    5  A    between atoms: C23_24  and  C24_25 
REMARK    6  A    between atoms: C24_25  and  O2_27 
REMARK    7  A    between atoms: C24_25  and  C26_28 
REMARK    8  A    between atoms: C26_28  and  C28_30 
REMARK    9  A    between atoms: C28_30  and  O3_31 
ROOT
HETATM    1  C9  UNL     1      -5.068 -10.774   5.966  1.00  0.00     0.004 C 
HETATM    2  C10 UNL     1      -4.592 -10.284   4.802  1.00  0.00    -0.075 C 
HETATM    3  C11 UNL     1      -3.273  -9.576   4.621  1.00  0.00     0.034 C 
HETATM    4  C12 UNL     1      -2.457 -10.239   3.517  1.00  0.00     0.005 C 
HETATM    5  C13 UNL     1      -3.210 -10.193   2.191  1.00  0.00     0.010 C 
HETATM    6  C14 UNL     1      -4.610 -10.865   2.241  1.00  0.00    -0.032 C 
HETATM    7  C15 UNL     1      -4.447 -12.398   2.262  1.00  0.00     0.016 C 
HETATM    8  C16 UNL     1      -5.406 -10.468   3.532  1.00  0.00     0.023 C 
HETATM    9  C17 UNL     1      -6.224  -9.253   3.114  1.00  0.00     0.010 C 
HETATM   10  C18 UNL     1      -6.737  -9.698   1.751  1.00  0.00     0.007 C 
HETATM   11  C19 UNL     1      -5.491 -10.283   1.054  1.00  0.00     0.002 C 
ENDROOT
BRANCH  11  12
HETATM   12  C20 UNL     1      -5.789 -11.201  -0.166  1.00  0.00     0.009 C 
HETATM   13  C21 UNL     1      -4.514 -11.447  -0.991  1.00  0.00     0.014 C 
BRANCH  12  14
HETATM   14  C22 UNL     1      -6.933 -10.660  -1.016  1.00  0.00    -0.023 C 
HETATM   15  C23 UNL     1      -6.909  -9.622  -1.872  1.00  0.00     0.007 C 
BRANCH  15  16
HETATM   16  C24 UNL     1      -8.058  -9.101  -2.725  1.00  0.00     0.077 C 
HETATM   17  C25 UNL     1      -7.614  -8.296  -3.954  1.00  0.00     0.051 C 
BRANCH  16  18
HETATM   18  O2  UNL     1      -8.689 -10.279  -3.262  1.00  0.00    -0.386 OA
HETATM   19  H37 UNL     1      -8.964 -10.839  -2.520  1.00  0.00     0.211 HD
ENDBRANCH  16  18
BRANCH  16  20
HETATM   20  C26 UNL     1      -9.103  -8.362  -1.827  1.00  0.00     0.043 C 
HETATM   21  C27 UNL     1     -10.542  -8.501  -2.350  1.00  0.00     0.015 C 
BRANCH  20  22
HETATM   22  C28 UNL     1      -8.776  -6.884  -1.556  1.00  0.00     0.171 C 
BRANCH  22  23
HETATM   23  O3  UNL     1      -9.582  -6.012  -2.334  1.00  0.00    -0.400 OA
HETATM   24  H44 UNL     1      -9.308  -5.102  -2.123  1.00  0.00     0.209 HD
ENDBRANCH  22  23
ENDBRANCH  20  22
ENDBRANCH  16  20
ENDBRANCH  15  16
ENDBRANCH  12  14
ENDBRANCH  11  12
BRANCH   1  25
HETATM   25  C8  UNL     1      -4.436 -10.727   7.271  1.00  0.00     0.008 C 
HETATM   26  C7  UNL     1      -4.909 -10.110   8.374  1.00  0.00    -0.050 C 
HETATM   27  C2  UNL     1      -6.142  -9.336   8.459  1.00  0.00    -0.061 C 
HETATM   28  C6  UNL     1      -4.186 -10.244   9.706  1.00  0.00     0.070 C 
HETATM   29  C1  UNL     1      -6.353  -8.236   7.719  1.00  0.00     0.019 C 
HETATM   30  C3  UNL     1      -7.126  -9.773   9.519  1.00  0.00     0.041 C 
HETATM   31  C4  UNL     1      -6.550 -10.806  10.495  1.00  0.00     0.036 C 
HETATM   32  C5  UNL     1      -5.124 -10.444  10.914  1.00  0.00     0.122 C 
BRANCH  32  33
HETATM   33  O1  UNL     1      -5.148  -9.248  11.699  1.00  0.00    -0.395 OA
HETATM   34  H8  UNL     1      -5.725  -9.410  12.466  1.00  0.00     0.210 HD
ENDBRANCH  32  33
ENDBRANCH   1  25
TORSDOF 9
ENDMDL
MODEL 2
REMARK minimizedAffinity -7.61077738
REMARK CNNscore 0.569224119
REMARK CNNaffinity 6.88382387
REMARK  9 active torsions:
REMARK  status: ('A' for Active; 'I' for Inactive)
REMARK    1  A    between atoms: C5_5  and  O1_6 
REMARK    2  A    between atoms: C8_9  and  C9_10 
REMARK    3  A    between atoms: C19_20  and  C20_21 
REMARK    4  A    between atoms: C20_21  and  C22_23 
REMARK    5  A    between atoms: C23_24  and  C24_25 
REMARK    6  A    between atoms: C24_25  and  O2_27 
REMARK    7  A    between atoms: C24_25  and  C26_28 
REMARK    8  A    between atoms: C26_28  and  C28_30 
REMARK    9  A    between atoms: C28_30  and  O3_31 
ROOT
HETATM    1  C9  UNL     1      -3.004   5.181  12.489  1.00  0.00     0.004 C 
HETATM    2  C10 UNL     1      -2.413   5.998  13.387  1.00  0.00    -0.075 C 
HETATM    3  C11 UNL     1      -2.705   6.039  14.865  1.00  0.00     0.034 C 
HETATM    4  C12 UNL     1      -1.420   5.876  15.669  1.00  0.00     0.005 C 
HETATM    5  C13 UNL     1      -0.438   6.997  15.346  1.00  0.00     0.010 C 
HETATM    6  C14 UNL     1      -0.069   7.092  13.839  1.00  0.00    -0.032 C 
HETATM    7  C15 UNL     1       0.894   5.947  13.470  1.00  0.00     0.016 C 
HETATM    8  C16 UNL     1      -1.328   6.953  12.916  1.00  0.00     0.023 C 
HETATM    9  C17 UNL     1      -1.791   8.387  12.689  1.00  0.00     0.010 C 
HETATM   10  C18 UNL     1      -0.465   9.087  12.430  1.00  0.00     0.007 C 
HETATM   11  C19 UNL     1       0.463   8.560  13.544  1.00  0.00     0.002 C 
ENDROOT
BRANCH  11  12
HETATM   12  C20 UNL     1       1.984   8.758  13.284  1.00  0.00     0.009 C 
HETATM   13  C21 UNL     1       2.457  10.124  13.808  1.00  0.00     0.014 C 
BRANCH  12  14
HETATM   14  C22 UNL     1       2.339   8.548  11.816  1.00  0.00    -0.023 C 
HETATM   15  C23 UNL     1       3.028   7.529  11.269  1.00  0.00     0.007 C 
BRANCH  15  16
HETATM   16  C24 UNL     1       3.365   7.326   9.797  1.00  0.00     0.077 C 
HETATM   17  C25 UNL     1       3.767   8.611   9.061  1.00  0.00     0.051 C 
BRANCH  16  18
HETATM   18  O2  UNL     1       4.554   6.512   9.796  1.00  0.00    -0.386 OA
HETATM   19  H37 UNL     1       4.359   5.694  10.279  1.00  0.00     0.211 HD
ENDBRANCH  16  18
BRANCH  16  20
HETATM   20  C26 UNL     1       2.228   6.519   9.091  1.00  0.00     0.043 C 
HETATM   21  C27 UNL     1       2.071   6.885   7.606  1.00  0.00     0.015 C 
BRANCH  20  22
HETATM   22  C28 UNL     1       0.866   6.586   9.802  1.00  0.00     0.171 C 
BRANCH  22  23
HETATM   23  O3  UNL     1       0.492   5.332  10.352  1.00  0.00    -0.400 OA
HETATM   24  H44 UNL     1      -0.380   5.447  10.767  1.00  0.00     0.209 HD
ENDBRANCH  22  23
ENDBRANCH  20  22
ENDBRANCH  16  20
ENDBRANCH  15  16
ENDBRANCH  12  14
ENDBRANCH  11  12
BRANCH   1  25
HETATM   25  C8  UNL     1      -4.031   4.188  12.739  1.00  0.00     0.008 C 
HETATM   26  C7  UNL     1      -5.313   4.423  13.089  1.00  0.00    -0.050 C 
HETATM   27  C2  UNL     1      -5.910   5.734  13.317  1.00  0.00    -0.061 C 
HETATM   28  C6  UNL     1      -6.307   3.277  13.206  1.00  0.00     0.070 C 
HETATM   29  C1  UNL     1      -5.467   6.570  14.270  1.00  0.00     0.019 C 
HETATM   30  C3  UNL     1      -7.140   6.053  12.499  1.00  0.00     0.041 C 
HETATM   31  C4  UNL     1      -7.698   4.842  11.743  1.00  0.00     0.036 C 
HETATM   32  C5  UNL     1      -7.699   3.588  12.619  1.00  0.00     0.122 C 
BRANCH  32  33
HETATM   33  O1  UNL     1      -8.637   3.754  13.687  1.00  0.00    -0.395 OA
HETATM   34  H8  UNL     1      -9.509   3.923  13.289  1.00  0.00     0.210 HD
ENDBRANCH  32  33
ENDBRANCH   1  25
TORSDOF 9
ENDMDL
MODEL 3
REMARK minimizedAffinity -8.49261856
REMARK CNNscore 0.443432897
REMARK CNNaffinity 6.63847685
REMARK  9 active torsions:
REMARK  status: ('A' for Active; 'I' for Inactive)
REMARK    1  A    between atoms: C5_5  and  O1_6 
REMARK    2  A    between atoms: C8_9  and  C9_10 
REMARK    3  A    between atoms: C19_20  and  C20_21 
REMARK    4  A    between atoms: C20_21  and  C22_23 
REMARK    5  A    between atoms: C23_24  and  C24_25 
REMARK    6  A    between atoms: C24_25  and  O2_27 
REMARK    7  A    between atoms: C24_25  and  C26_28 
REMARK    8  A    between atoms: C26_28  and  C28_30 
REMARK    9  A    between atoms: C28_30  and  O3_31 
ROOT
HETATM    1  C9  UNL     1      -1.801   6.281  12.781  1.00  0.00     0.004 C 
HETATM    2  C10 UNL     1      -0.810   7.179  12.597  1.00  0.00    -0.075 C 
HETATM    3  C11 UNL     1      -0.269   8.117  13.645  1.00  0.00     0.034 C 
HETATM    4  C12 UNL     1       1.245   7.973  13.762  1.00  0.00     0.005 C 
HETATM    5  C13 UNL     1       1.919   8.300  12.433  1.00  0.00     0.010 C 
HETATM    6  C14 UNL     1       1.430   7.422  11.249  1.00  0.00    -0.032 C 
HETATM    7  C15 UNL     1       2.030   6.007  11.371  1.00  0.00     0.016 C 
HETATM    8  C16 UNL     1      -0.130   7.263  11.241  1.00  0.00     0.023 C 
HETATM    9  C17 UNL     1      -0.621   8.394  10.347  1.00  0.00     0.010 C 
HETATM   10  C18 UNL     1       0.372   8.313   9.196  1.00  0.00     0.007 C 
HETATM   11  C19 UNL     1       1.744   8.188   9.893  1.00  0.00     0.002 C 
ENDROOT
BRANCH  11  12
HETATM   12  C20 UNL     1       2.894   7.655   8.991  1.00  0.00     0.009 C 
HETATM   13  C21 UNL     1       2.404   6.499   8.102  1.00  0.00     0.014 C 
BRANCH  12  14
HETATM   14  C22 UNL     1       4.124   7.275   9.807  1.00  0.00    -0.023 C 
HETATM   15  C23 UNL     1       4.977   8.094  10.448  1.00  0.00     0.007 C 
BRANCH  15  16
HETATM   16  C24 UNL     1       6.197   7.699  11.271  1.00  0.00     0.077 C 
HETATM   17  C25 UNL     1       6.681   6.263  11.027  1.00  0.00     0.051 C 
BRANCH  16  18
HETATM   18  O2  UNL     1       7.263   8.537  10.785  1.00  0.00    -0.386 OA
HETATM   19  H37 UNL     1       6.991   9.462  10.891  1.00  0.00     0.211 HD
ENDBRANCH  16  18
BRANCH  16  20
HETATM   20  C26 UNL     1       5.964   8.043  12.779  1.00  0.00     0.043 C 
HETATM   21  C27 UNL     1       5.787   9.550  13.025  1.00  0.00     0.015 C 
BRANCH  20  22
HETATM   22  C28 UNL     1       7.025   7.469  13.732  1.00  0.00     0.171 C 
BRANCH  22  23
HETATM   23  O3  UNL     1       6.520   6.385  14.497  1.00  0.00    -0.400 OA
HETATM   24  H44 UNL     1       7.236   6.087  15.084  1.00  0.00     0.209 HD
ENDBRANCH  22  23
ENDBRANCH  20  22
ENDBRANCH  16  20
ENDBRANCH  15  16
ENDBRANCH  12  14
ENDBRANCH  11  12
BRANCH   1  25
HETATM   25  C8  UNL     1      -2.551   6.027  13.997  1.00  0.00     0.008 C 
HETATM   26  C7  UNL     1      -3.689   6.639  14.385  1.00  0.00    -0.050 C 
HETATM   27  C2  UNL     1      -4.374   7.707  13.665  1.00  0.00    -0.061 C 
HETATM   28  C6  UNL     1      -4.426   6.184  15.636  1.00  0.00     0.070 C 
HETATM   29  C1  UNL     1      -3.792   8.890  13.410  1.00  0.00     0.019 C 
HETATM   30  C3  UNL     1      -5.825   7.454  13.327  1.00  0.00     0.041 C 
HETATM   31  C4  UNL     1      -6.403   6.214  14.018  1.00  0.00     0.036 C 
HETATM   32  C5  UNL     1      -5.960   6.131  15.480  1.00  0.00     0.122 C 
BRANCH  32  33
HETATM   33  O1  UNL     1      -6.549   7.206  16.218  1.00  0.00    -0.395 OA
HETATM   34  H8  UNL     1      -7.514   7.134  16.123  1.00  0.00     0.210 HD
ENDBRANCH  32  33
ENDBRANCH   1  25
TORSDOF 9
ENDMDL
MODEL 4
REMARK minimizedAffinity -8.49253559
REMARK CNNscore 0.408944428
REMARK CNNaffinity 6.64826584
REMARK  9 active torsions:
REMARK  status: ('A' for Active; 'I' for Inactive)
REMARK    1  A    between atoms: C5_5  and  O1_6 
REMARK    2  A    between atoms: C8_9  and  C9_10 
REMARK    3  A    between atoms: C19_20  and  C20_21 
REMARK    4  A    between atoms: C20_21  and  C22_23 
REMARK    5  A    between atoms: C23_24  and  C24_25 
REMARK    6  A    between atoms: C24_25  and  O2_27 
REMARK    7  A    between atoms: C24_25  and  C26_28 
REMARK    8  A    between atoms: C26_28  and  C28_30 
REMARK    9  A    between atoms: C28_30  and  O3_31 
ROOT
HETATM    1  C9  UNL     1      -6.441   6.236  13.298  1.00  0.00     0.004 C 
HETATM    2  C10 UNL     1      -7.367   6.288  14.279  1.00  0.00    -0.075 C 
HETATM    3  C11 UNL     1      -7.268   5.608  15.620  1.00  0.00     0.034 C 
HETATM    4  C12 UNL     1      -7.474   6.614  16.747  1.00  0.00     0.005 C 
HETATM    5  C13 UNL     1      -8.850   7.264  16.642  1.00  0.00     0.010 C 
HETATM    6  C14 UNL     1      -9.103   7.982  15.287  1.00  0.00    -0.032 C 
HETATM    7  C15 UNL     1      -8.315   9.306  15.248  1.00  0.00     0.016 C 
HETATM    8  C16 UNL     1      -8.621   7.121  14.068  1.00  0.00     0.023 C 
HETATM    9  C17 UNL     1      -9.854   6.329  13.652  1.00  0.00     0.010 C 
HETATM   10  C18 UNL     1     -10.931   7.403  13.722  1.00  0.00     0.007 C 
HETATM   11  C19 UNL     1     -10.672   8.108  15.070  1.00  0.00     0.002 C 
ENDROOT
BRANCH  11  12
HETATM   12  C20 UNL     1     -11.329   9.510  15.217  1.00  0.00     0.009 C 
HETATM   13  C21 UNL     1     -10.489  10.587  14.508  1.00  0.00     0.014 C 
BRANCH  12  14
HETATM   14  C22 UNL     1     -11.601   9.858  16.676  1.00  0.00    -0.023 C 
HETATM   15  C23 UNL     1     -11.045  10.839  17.411  1.00  0.00     0.007 C 
BRANCH  15  16
HETATM   16  C24 UNL     1     -11.337  11.183  18.867  1.00  0.00     0.077 C 
HETATM   17  C25 UNL     1     -10.449  12.295  19.440  1.00  0.00     0.051 C 
BRANCH  16  18
HETATM   18  O2  UNL     1     -12.666  11.736  18.860  1.00  0.00    -0.386 OA
HETATM   19  H37 UNL     1     -13.266  11.077  18.476  1.00  0.00     0.211 HD
ENDBRANCH  16  18
BRANCH  16  20
HETATM   20  C26 UNL     1     -11.362   9.881  19.732  1.00  0.00     0.043 C 
HETATM   21  C27 UNL     1     -12.713   9.150  19.669  1.00  0.00     0.015 C 
BRANCH  20  22
HETATM   22  C28 UNL     1     -10.935  10.084  21.196  1.00  0.00     0.171 C 
BRANCH  22  23
HETATM   23  O3  UNL     1     -11.360   9.013  22.026  1.00  0.00    -0.400 OA
HETATM   24  H44 UNL     1     -11.072   9.218  22.931  1.00  0.00     0.209 HD
ENDBRANCH  22  23
ENDBRANCH  20  22
ENDBRANCH  16  20
ENDBRANCH  15  16
ENDBRANCH  12  14
ENDBRANCH  11  12
BRANCH   1  25
HETATM   25  C8  UNL     1      -5.175   5.526  13.315  1.00  0.00     0.008 C 
HETATM   26  C7  UNL     1      -4.912   4.333  12.741  1.00  0.00    -0.050 C 
HETATM   27  C2  UNL     1      -5.867   3.504  12.016  1.00  0.00    -0.061 C 
HETATM   28  C6  UNL     1      -3.500   3.767  12.746  1.00  0.00     0.070 C 
HETATM   29  C1  UNL     1      -6.977   3.014  12.591  1.00  0.00     0.019 C 
HETATM   30  C3  UNL     1      -5.477   3.123  10.606  1.00  0.00     0.041 C 
HETATM   31  C4  UNL     1      -4.024   3.469  10.263  1.00  0.00     0.036 C 
HETATM   32  C5  UNL     1      -3.079   3.115  11.412  1.00  0.00     0.122 C 
BRANCH  32  33
HETATM   33  O1  UNL     1      -3.035   1.694  11.572  1.00  0.00    -0.395 OA
HETATM   34  H8  UNL     1      -2.743   1.311  10.727  1.00  0.00     0.210 HD
ENDBRANCH  32  33
ENDBRANCH   1  25
TORSDOF 9
ENDMDL
MODEL 5
REMARK minimizedAffinity -9.54277611
REMARK CNNscore 0.39993915
REMARK CNNaffinity 6.72458315
REMARK  9 active torsions:
REMARK  status: ('A' for Active; 'I' for Inactive)
REMARK    1  A    between atoms: C5_5  and  O1_6 
REMARK    2  A    between atoms: C8_9  and  C9_10 
REMARK    3  A    between atoms: C19_20  and  C20_21 
REMARK    4  A    between atoms: C20_21  and  C22_23 
REMARK    5  A    between atoms: C23_24  and  C24_25 
REMARK    6  A    between atoms: C24_25  and  O2_27 
REMARK    7  A    between atoms: C24_25  and  C26_28 
REMARK    8  A    between atoms: C26_28  and  C28_30 
REMARK    9  A    between atoms: C28_30  and  O3_31 
ROOT
HETATM    1  C9  UNL     1      -7.718   5.806  12.866  1.00  0.00     0.004 C 
HETATM    2  C10 UNL     1      -7.031   4.655  13.030  1.00  0.00    -0.075 C 
HETATM    3  C11 UNL     1      -7.613   3.341  13.483  1.00  0.00     0.034 C 
HETATM    4  C12 UNL     1      -7.269   2.233  12.493  1.00  0.00     0.005 C 
HETATM    5  C13 UNL     1      -5.757   2.070  12.373  1.00  0.00     0.010 C 
HETATM    6  C14 UNL     1      -5.019   3.367  11.939  1.00  0.00    -0.032 C 
HETATM    7  C15 UNL     1      -5.257   3.618  10.437  1.00  0.00     0.016 C 
HETATM    8  C16 UNL     1      -5.546   4.627  12.708  1.00  0.00     0.023 C 
HETATM    9  C17 UNL     1      -4.626   4.745  13.917  1.00  0.00     0.010 C 
HETATM   10  C18 UNL     1      -3.268   4.490  13.279  1.00  0.00     0.007 C 
HETATM   11  C19 UNL     1      -3.499   3.253  12.386  1.00  0.00     0.002 C 
ENDROOT
BRANCH  11  12
HETATM   12  C20 UNL     1      -2.420   3.022  11.289  1.00  0.00     0.009 C 
HETATM   13  C21 UNL     1      -2.058   1.531  11.181  1.00  0.00     0.014 C 
BRANCH  12  14
HETATM   14  C22 UNL     1      -1.194   3.901  11.506  1.00  0.00    -0.023 C 
HETATM   15  C23 UNL     1      -0.937   5.110  10.975  1.00  0.00     0.007 C 
BRANCH  15  16
HETATM   16  C24 UNL     1       0.289   5.983  11.212  1.00  0.00     0.077 C 
HETATM   17  C25 UNL     1       0.834   5.926  12.645  1.00  0.00     0.051 C 
BRANCH  16  18
HETATM   18  O2  UNL     1       1.325   5.399  10.399  1.00  0.00    -0.386 OA
HETATM   19  H37 UNL     1       1.015   5.385   9.479  1.00  0.00     0.211 HD
ENDBRANCH  16  18
BRANCH  16  20
HETATM   20  C26 UNL     1       0.027   7.433  10.689  1.00  0.00     0.043 C 
HETATM   21  C27 UNL     1       1.027   7.865   9.604  1.00  0.00     0.015 C 
BRANCH  20  22
HETATM   22  C28 UNL     1      -0.055   8.501  11.793  1.00  0.00     0.171 C 
BRANCH  22  23
HETATM   23  O3  UNL     1      -1.176   9.354  11.623  1.00  0.00    -0.400 OA
HETATM   24  H44 UNL     1      -1.152  10.008  12.342  1.00  0.00     0.209 HD
ENDBRANCH  22  23
ENDBRANCH  20  22
ENDBRANCH  16  20
ENDBRANCH  15  16
ENDBRANCH  12  14
ENDBRANCH  11  12
BRANCH   1  25
HETATM   25  C8  UNL     1      -9.134   6.030  13.090  1.00  0.00     0.008 C 
HETATM   26  C7  UNL     1      -9.692   6.686  14.128  1.00  0.00    -0.050 C 
HETATM   27  C2  UNL     1      -8.975   7.273  15.254  1.00  0.00    -0.061 C 
HETATM   28  C6  UNL     1     -11.192   6.941  14.167  1.00  0.00     0.070 C 
HETATM   29  C1  UNL     1      -8.220   6.540  16.088  1.00  0.00     0.019 C 
HETATM   30  C3  UNL     1      -9.226   8.742  15.506  1.00  0.00     0.041 C 
HETATM   31  C4  UNL     1     -10.387   9.311  14.682  1.00  0.00     0.036 C 
HETATM   32  C5  UNL     1     -11.578   8.351  14.660  1.00  0.00     0.122 C 
BRANCH  32  33
HETATM   33  O1  UNL     1     -12.139   8.257  15.972  1.00  0.00    -0.395 OA
HETATM   34  H8  UNL     1     -12.397   9.154  16.248  1.00  0.00     0.210 HD
ENDBRANCH  32  33
ENDBRANCH   1  25
TORSDOF 9
ENDMDL
MODEL 6
REMARK minimizedAffinity -8.12257767
REMARK CNNscore 0.370041519
REMARK CNNaffinity 7.13468313
REMARK  9 active torsions:
REMARK  status: ('A' for Active; 'I' for Inactive)
REMARK    1  A    between atoms: C5_5  and  O1_6 
REMARK    2  A    between atoms: C8_9  and  C9_10 
REMARK    3  A    between atoms: C19_20  and  C20_21 
REMARK    4  A    between atoms: C20_21  and  C22_23 
REMARK    5  A    between atoms: C23_24  and  C24_25 
REMARK    6  A    between atoms: C24_25  and  O2_27 
REMARK    7  A    between atoms: C24_25  and  C26_28 
REMARK    8  A    between atoms: C26_28  and  C28_30 
REMARK    9  A    between atoms: C28_30  and  O3_31 
ROOT
HETATM    1  C9  UNL     1      -9.254   6.945  13.547  1.00  0.00     0.004 C 
HETATM    2  C10 UNL     1      -8.225   6.765  14.402  1.00  0.00    -0.075 C 
HETATM    3  C11 UNL     1      -8.320   6.149  15.774  1.00  0.00     0.034 C 
HETATM    4  C12 UNL     1      -7.327   5.000  15.915  1.00  0.00     0.005 C 
HETATM    5  C13 UNL     1      -5.899   5.496  15.712  1.00  0.00     0.010 C 
HETATM    6  C14 UNL     1      -5.664   6.186  14.339  1.00  0.00    -0.032 C 
HETATM    7  C15 UNL     1      -5.606   5.120  13.228  1.00  0.00     0.016 C 
HETATM    8  C16 UNL     1      -6.826   7.173  13.972  1.00  0.00     0.023 C 
HETATM    9  C17 UNL     1      -6.360   8.522  14.507  1.00  0.00     0.010 C 
HETATM   10  C18 UNL     1      -4.902   8.525  14.067  1.00  0.00     0.007 C 
HETATM   11  C19 UNL     1      -4.388   7.124  14.461  1.00  0.00     0.002 C 
ENDROOT
BRANCH  11  12
HETATM   12  C20 UNL     1      -3.074   6.682  13.754  1.00  0.00     0.009 C 
HETATM   13  C21 UNL     1      -2.550   7.792  12.827  1.00  0.00     0.014 C 
BRANCH  12  14
HETATM   14  C22 UNL     1      -3.242   5.353  13.027  1.00  0.00    -0.023 C 
HETATM   15  C23 UNL     1      -2.333   4.696  12.284  1.00  0.00     0.007 C 
BRANCH  15  16
HETATM   16  C24 UNL     1      -2.511   3.360  11.573  1.00  0.00     0.077 C 
HETATM   17  C25 UNL     1      -3.738   2.562  12.033  1.00  0.00     0.051 C 
BRANCH  16  18
HETATM   18  O2  UNL     1      -2.785   3.702  10.200  1.00  0.00    -0.386 OA
HETATM   19  H37 UNL     1      -2.046   4.236   9.869  1.00  0.00     0.211 HD
ENDBRANCH  16  18
BRANCH  16  20
HETATM   20  C26 UNL     1      -1.175   2.549  11.610  1.00  0.00     0.043 C 
HETATM   21  C27 UNL     1       0.070   3.449  11.553  1.00  0.00     0.015 C 
BRANCH  20  22
HETATM   22  C28 UNL     1      -1.077   1.438  10.549  1.00  0.00     0.171 C 
BRANCH  22  23
HETATM   23  O3  UNL     1      -0.179   0.411  10.939  1.00  0.00    -0.400 OA
HETATM   24  H44 UNL     1      -0.156  -0.241  10.218  1.00  0.00     0.209 HD
ENDBRANCH  22  23
ENDBRANCH  20  22
ENDBRANCH  16  20
ENDBRANCH  15  16
ENDBRANCH  12  14
ENDBRANCH  11  12
BRANCH   1  25
HETATM   25  C8  UNL     1     -10.648   6.599  13.754  1.00  0.00     0.008 C 
HETATM   26  C7  UNL     1     -11.637   7.432  14.139  1.00  0.00    -0.050 C 
HETATM   27  C2  UNL     1     -11.488   8.848  14.454  1.00  0.00    -0.061 C 
HETATM   28  C6  UNL     1     -13.077   6.945  14.204  1.00  0.00     0.070 C 
HETATM   29  C1  UNL     1     -10.698   9.284  15.448  1.00  0.00     0.019 C 
HETATM   30  C3  UNL     1     -12.371   9.796  13.677  1.00  0.00     0.041 C 
HETATM   31  C4  UNL     1     -13.456   9.085  12.860  1.00  0.00     0.036 C 
HETATM   32  C5  UNL     1     -14.109   7.956  13.659  1.00  0.00     0.122 C 
BRANCH  32  33
HETATM   33  O1  UNL     1     -14.849   8.511  14.750  1.00  0.00    -0.395 OA
HETATM   34  H8  UNL     1     -15.507   9.124  14.378  1.00  0.00     0.210 HD
ENDBRANCH  32  33
ENDBRANCH   1  25
TORSDOF 9
ENDMDL
MODEL 7
REMARK minimizedAffinity -7.16979456
REMARK CNNscore 0.362311989
REMARK CNNaffinity 6.10518885
REMARK  9 active torsions:
REMARK  status: ('A' for Active; 'I' for Inactive)
REMARK    1  A    between atoms: C5_5  and  O1_6 
REMARK    2  A    between atoms: C8_9  and  C9_10 
REMARK    3  A    between atoms: C19_20  and  C20_21 
REMARK    4  A    between atoms: C20_21  and  C22_23 
REMARK    5  A    between atoms: C23_24  and  C24_25 
REMARK    6  A    between atoms: C24_25  and  O2_27 
REMARK    7  A    between atoms: C24_25  and  C26_28 
REMARK    8  A    between atoms: C26_28  and  C28_30 
REMARK    9  A    between atoms: C28_30  and  O3_31 
ROOT
HETATM    1  C9  UNL     1      -5.082  12.836  20.093  1.00  0.00     0.004 C 
HETATM    2  C10 UNL     1      -4.118  13.063  19.175  1.00  0.00    -0.075 C 
HETATM    3  C11 UNL     1      -3.210  14.266  19.133  1.00  0.00     0.034 C 
HETATM    4  C12 UNL     1      -1.749  13.833  19.092  1.00  0.00     0.005 C 
HETATM    5  C13 UNL     1      -1.475  12.985  17.854  1.00  0.00     0.010 C 
HETATM    6  C14 UNL     1      -2.369  11.718  17.752  1.00  0.00    -0.032 C 
HETATM    7  C15 UNL     1      -1.882  10.660  18.762  1.00  0.00     0.016 C 
HETATM    8  C16 UNL     1      -3.867  12.027  18.092  1.00  0.00     0.023 C 
HETATM    9  C17 UNL     1      -4.504  12.343  16.745  1.00  0.00     0.010 C 
HETATM   10  C18 UNL     1      -3.909  11.245  15.874  1.00  0.00     0.007 C 
HETATM   11  C19 UNL     1      -2.409  11.252  16.233  1.00  0.00     0.002 C 
ENDROOT
BRANCH  11  12
HETATM   12  C20 UNL     1      -1.629   9.967  15.832  1.00  0.00     0.009 C 
HETATM   13  C21 UNL     1      -0.935  10.149  14.472  1.00  0.00     0.014 C 
BRANCH  12  14
HETATM   14  C22 UNL     1      -2.520   8.730  15.865  1.00  0.00    -0.023 C 
HETATM   15  C23 UNL     1      -2.709   7.820  14.893  1.00  0.00     0.007 C 
BRANCH  15  16
HETATM   16  C24 UNL     1      -3.594   6.581  14.945  1.00  0.00     0.077 C 
HETATM   17  C25 UNL     1      -2.995   5.351  14.249  1.00  0.00     0.051 C 
BRANCH  16  18
HETATM   18  O2  UNL     1      -3.653   6.224  16.340  1.00  0.00    -0.386 OA
HETATM   19  H37 UNL     1      -4.000   6.984  16.831  1.00  0.00     0.211 HD
ENDBRANCH  16  18
BRANCH  16  20
HETATM   20  C26 UNL     1      -5.043   6.934  14.477  1.00  0.00     0.043 C 
HETATM   21  C27 UNL     1      -5.064   7.945  13.319  1.00  0.00     0.015 C 
BRANCH  20  22
HETATM   22  C28 UNL     1      -5.980   7.398  15.605  1.00  0.00     0.171 C 
BRANCH  22  23
HETATM   23  O3  UNL     1      -6.384   6.319  16.435  1.00  0.00    -0.400 OA
HETATM   24  H44 UNL     1      -6.982   6.683  17.110  1.00  0.00     0.209 HD
ENDBRANCH  22  23
ENDBRANCH  20  22
ENDBRANCH  16  20
ENDBRANCH  15  16
ENDBRANCH  12  14
ENDBRANCH  11  12
BRANCH   1  25
HETATM   25  C8  UNL     1      -5.454  13.680  21.212  1.00  0.00     0.008 C 
HETATM   26  C7  UNL     1      -6.705  13.945  21.642  1.00  0.00    -0.050 C 
HETATM   27  C2  UNL     1      -7.938  13.455  21.036  1.00  0.00    -0.061 C 
HETATM   28  C6  UNL     1      -6.934  14.760  22.906  1.00  0.00     0.070 C 
HETATM   29  C1  UNL     1      -8.282  13.742  19.771  1.00  0.00     0.019 C 
HETATM   30  C3  UNL     1      -8.874  12.702  21.955  1.00  0.00     0.041 C 
HETATM   31  C4  UNL     1      -8.480  12.795  23.433  1.00  0.00     0.036 C 
HETATM   32  C5  UNL     1      -8.059  14.217  23.811  1.00  0.00     0.122 C 
BRANCH  32  33
HETATM   33  O1  UNL     1      -9.193  15.086  23.731  1.00  0.00    -0.395 OA
HETATM   34  H8  UNL     1      -9.876  14.735  24.329  1.00  0.00     0.210 HD
ENDBRANCH  32  33
ENDBRANCH   1  25
TORSDOF 9
ENDMDL
MODEL 8
REMARK minimizedAffinity -8.18125343
REMARK CNNscore 0.289863765
REMARK CNNaffinity 6.55368042
REMARK  9 active torsions:
REMARK  status: ('A' for Active; 'I' for Inactive)
REMARK    1  A    between atoms: C5_5  and  O1_6 
REMARK    2  A    between atoms: C8_9  and  C9_10 
REMARK    3  A    between atoms: C19_20  and  C20_21 
REMARK    4  A    between atoms: C20_21  and  C22_23 
REMARK    5  A    between atoms: C23_24  and  C24_25 
REMARK    6  A    between atoms: C24_25  and  O2_27 
REMARK    7  A    between atoms: C24_25  and  C26_28 
REMARK    8  A    between atoms: C26_28  and  C28_30 
REMARK    9  A    between atoms: C28_30  and  O3_31 
ROOT
HETATM    1  C9  UNL     1      -9.361   8.839  14.962  1.00  0.00     0.004 C 
HETATM    2  C10 UNL     1      -8.329   8.082  15.392  1.00  0.00    -0.075 C 
HETATM    3  C11 UNL     1      -8.337   7.194  16.610  1.00  0.00     0.034 C 
HETATM    4  C12 UNL     1      -7.917   5.776  16.241  1.00  0.00     0.005 C 
HETATM    5  C13 UNL     1      -6.510   5.767  15.653  1.00  0.00     0.010 C 
HETATM    6  C14 UNL     1      -6.348   6.671  14.400  1.00  0.00    -0.032 C 
HETATM    7  C15 UNL     1      -7.015   5.995  13.186  1.00  0.00     0.016 C 
HETATM    8  C16 UNL     1      -7.038   8.066  14.589  1.00  0.00     0.023 C 
HETATM    9  C17 UNL     1      -5.934   8.964  15.134  1.00  0.00     0.010 C 
HETATM   10  C18 UNL     1      -4.766   8.567  14.243  1.00  0.00     0.007 C 
HETATM   11  C19 UNL     1      -4.809   7.025  14.231  1.00  0.00     0.002 C 
ENDROOT
BRANCH  11  12
HETATM   12  C20 UNL     1      -4.018   6.353  13.072  1.00  0.00     0.009 C 
HETATM   13  C21 UNL     1      -3.800   4.856  13.352  1.00  0.00     0.014 C 
BRANCH  12  14
HETATM   14  C22 UNL     1      -2.711   7.082  12.780  1.00  0.00    -0.023 C 
HETATM   15  C23 UNL     1      -1.501   6.547  12.538  1.00  0.00     0.007 C 
BRANCH  15  16
HETATM   16  C24 UNL     1      -0.205   7.289  12.235  1.00  0.00     0.077 C 
HETATM   17  C25 UNL     1      -0.209   8.762  12.665  1.00  0.00     0.051 C 
BRANCH  16  18
HETATM   18  O2  UNL     1       0.788   6.662  13.069  1.00  0.00    -0.386 OA
HETATM   19  H37 UNL     1       0.808   5.716  12.855  1.00  0.00     0.211 HD
ENDBRANCH  16  18
BRANCH  16  20
HETATM   20  C26 UNL     1       0.208   7.064  10.744  1.00  0.00     0.043 C 
HETATM   21  C27 UNL     1       1.157   5.867  10.563  1.00  0.00     0.015 C 
BRANCH  20  22
HETATM   22  C28 UNL     1       0.785   8.310  10.050  1.00  0.00     0.171 C 
BRANCH  22  23
HETATM   23  O3  UNL     1      -0.132   8.872   9.123  1.00  0.00    -0.400 OA
HETATM   24  H44 UNL     1       0.305   9.639   8.715  1.00  0.00     0.209 HD
ENDBRANCH  22  23
ENDBRANCH  20  22
ENDBRANCH  16  20
ENDBRANCH  15  16
ENDBRANCH  12  14
ENDBRANCH  11  12
BRANCH   1  25
HETATM   25  C8  UNL     1     -10.674   8.968  15.565  1.00  0.00     0.008 C 
HETATM   26  C7  UNL     1     -11.861   8.714  14.976  1.00  0.00    -0.050 C 
HETATM   27  C2  UNL     1     -12.055   8.287  13.595  1.00  0.00    -0.061 C 
HETATM   28  C6  UNL     1     -13.153   8.786  15.775  1.00  0.00     0.070 C 
HETATM   29  C1  UNL     1     -11.665   9.034  12.549  1.00  0.00     0.019 C 
HETATM   30  C3  UNL     1     -12.835   7.007  13.401  1.00  0.00     0.041 C 
HETATM   31  C4  UNL     1     -13.505   6.502  14.684  1.00  0.00     0.036 C 
HETATM   32  C5  UNL     1     -14.149   7.648  15.466  1.00  0.00     0.122 C 
BRANCH  32  33
HETATM   33  O1  UNL     1     -15.252   8.172  14.720  1.00  0.00    -0.395 OA
HETATM   34  H8  UNL     1     -15.874   7.442  14.562  1.00  0.00     0.210 HD
ENDBRANCH  32  33
ENDBRANCH   1  25
TORSDOF 9
ENDMDL
MODEL 9
REMARK minimizedAffinity -6.80914831
REMARK CNNscore 0.267736673
REMARK CNNaffinity 6.47326994
REMARK  9 active torsions:
REMARK  status: ('A' for Active; 'I' for Inactive)
REMARK    1  A    between atoms: C5_5  and  O1_6 
REMARK    2  A    between atoms: C8_9  and  C9_10 
REMARK    3  A    between atoms: C19_20  and  C20_21 
REMARK    4  A    between atoms: C20_21  and  C22_23 
REMARK    5  A    between atoms: C23_24  and  C24_25 
REMARK    6  A    between atoms: C24_25  and  O2_27 
REMARK    7  A    between atoms: C24_25  and  C26_28 
REMARK    8  A    between atoms: C26_28  and  C28_30 
REMARK    9  A    between atoms: C28_30  and  O3_31 
ROOT
HETATM    1  C9  UNL     1      -9.273   6.937  14.295  1.00  0.00     0.004 C 
HETATM    2  C10 UNL     1      -8.222   6.108  14.123  1.00  0.00    -0.075 C 
HETATM    3  C11 UNL     1      -8.235   4.822  13.336  1.00  0.00     0.034 C 
HETATM    4  C12 UNL     1      -7.123   4.822  12.293  1.00  0.00     0.005 C 
HETATM    5  C13 UNL     1      -5.759   4.957  12.962  1.00  0.00     0.010 C 
HETATM    6  C14 UNL     1      -5.614   6.233  13.838  1.00  0.00    -0.032 C 
HETATM    7  C15 UNL     1      -5.452   7.467  12.929  1.00  0.00     0.016 C 
HETATM    8  C16 UNL     1      -6.879   6.479  14.731  1.00  0.00     0.023 C 
HETATM    9  C17 UNL     1      -6.556   5.780  16.046  1.00  0.00     0.010 C 
HETATM   10  C18 UNL     1      -5.112   6.212  16.261  1.00  0.00     0.007 C 
HETATM   11  C19 UNL     1      -4.445   5.992  14.887  1.00  0.00     0.002 C 
ENDROOT
BRANCH  11  12
HETATM   12  C20 UNL     1      -3.099   6.743  14.680  1.00  0.00     0.009 C 
HETATM   13  C21 UNL     1      -1.943   5.750  14.469  1.00  0.00     0.014 C 
BRANCH  12  14
HETATM   14  C22 UNL     1      -2.818   7.725  15.812  1.00  0.00    -0.023 C 
HETATM   15  C23 UNL     1      -2.854   9.070  15.770  1.00  0.00     0.007 C 
BRANCH  15  16
HETATM   16  C24 UNL     1      -2.583  10.038  16.914  1.00  0.00     0.077 C 
HETATM   17  C25 UNL     1      -3.696  11.070  17.141  1.00  0.00     0.051 C 
BRANCH  16  18
HETATM   18  O2  UNL     1      -2.586   9.223  18.101  1.00  0.00    -0.386 OA
HETATM   19  H37 UNL     1      -1.913   8.532  17.994  1.00  0.00     0.211 HD
ENDBRANCH  16  18
BRANCH  16  20
HETATM   20  C26 UNL     1      -1.158  10.664  16.763  1.00  0.00     0.043 C 
HETATM   21  C27 UNL     1      -0.052   9.603  16.641  1.00  0.00     0.015 C 
BRANCH  20  22
HETATM   22  C28 UNL     1      -0.796  11.688  17.853  1.00  0.00     0.171 C 
BRANCH  22  23
HETATM   23  O3  UNL     1      -0.764  11.099  19.144  1.00  0.00    -0.400 OA
HETATM   24  H44 UNL     1      -0.546  11.804  19.777  1.00  0.00     0.209 HD
ENDBRANCH  22  23
ENDBRANCH  20  22
ENDBRANCH  16  20
ENDBRANCH  15  16
ENDBRANCH  12  14
ENDBRANCH  11  12
BRANCH   1  25
HETATM   25  C8  UNL     1     -10.619   6.779  13.777  1.00  0.00     0.008 C 
HETATM   26  C7  UNL     1     -11.647   7.640  13.925  1.00  0.00    -0.050 C 
HETATM   27  C2  UNL     1     -11.611   8.893  14.671  1.00  0.00    -0.061 C 
HETATM   28  C6  UNL     1     -12.974   7.390  13.225  1.00  0.00     0.070 C 
HETATM   29  C1  UNL     1     -11.346   8.940  15.986  1.00  0.00     0.019 C 
HETATM   30  C3  UNL     1     -12.013  10.131  13.904  1.00  0.00     0.041 C 
HETATM   31  C4  UNL     1     -12.630   9.825  12.534  1.00  0.00     0.036 C 
HETATM   32  C5  UNL     1     -13.611   8.654  12.612  1.00  0.00     0.122 C 
BRANCH  32  33
HETATM   33  O1  UNL     1     -14.748   9.037  13.391  1.00  0.00    -0.395 OA
HETATM   34  H8  UNL     1     -15.144   9.819  12.969  1.00  0.00     0.210 HD
ENDBRANCH  32  33
ENDBRANCH   1  25
TORSDOF 9
ENDMDL
