MODEL 1
REMARK minimizedAffinity -7.99888229
REMARK CNNscore 0.167953372
REMARK CNNaffinity 7.13894272
REMARK  9 active torsions:
REMARK  status: ('A' for Active; 'I' for Inactive)
REMARK    1  A    between atoms: C13_13  and  S1_14 
REMARK    2  A    between atoms: C25_30  and  O5_31 
REMARK    3  A    between atoms: C31_37  and  C32_38 
REMARK    4  A    between atoms: C32_38  and  O6_39 
REMARK    5  A    between atoms: C40_47  and  C41_48 
REMARK    6  A    between atoms: C40_47  and  N1_56 
REMARK    7  A    between atoms: C41_48  and  C42_49 
REMARK    8  A    between atoms: C42_49  and  C43_50 
REMARK    9  A    between atoms: C43_50  and  O7_51 
REMARK       I    between atoms: C48_58  and  N2_59 
REMARK       I    between atoms: C48_58  and  N3_60 
ROOT
HETATM    1  C1  UNL     1       0.965  57.183  -2.322  1.00  0.00     0.010 C 
HETATM    2  C2  UNL     1       2.156  56.241  -2.364  1.00  0.00    -0.010 C 
HETATM    3  C3  UNL     1       1.841  54.945  -1.569  1.00  0.00     0.009 C 
HETATM    4  C4  UNL     1       2.707  53.729  -1.926  1.00  0.00     0.039 C 
HETATM    5  C5  UNL     1       4.011  54.106  -2.573  1.00  0.00    -0.049 C 
HETATM    6  C6  UNL     1       5.126  53.275  -2.468  1.00  0.00     0.044 C 
HETATM    7  C7  UNL     1       6.295  53.619  -3.140  1.00  0.00     0.073 C 
HETATM    8  C8  UNL     1       6.437  54.902  -3.678  1.00  0.00     0.037 C 
HETATM    9  C9  UNL     1       5.307  55.698  -3.864  1.00  0.00     0.011 C 
HETATM   10  C10 UNL     1       4.070  55.247  -3.400  1.00  0.00    -0.047 C 
HETATM   11  C11 UNL     1       2.766  55.957  -3.774  1.00  0.00     0.024 C 
HETATM   12  C12 UNL     1       1.935  55.023  -4.711  1.00  0.00     0.033 C 
HETATM   13  C13 UNL     1       1.326  55.450  -6.068  1.00  0.00     0.140 C 
HETATM   14  C14 UNL     1       2.043  55.401  -7.465  1.00  0.00     0.050 C 
HETATM   15  C15 UNL     1       1.132  54.722  -8.494  1.00  0.00    -0.013 C 
HETATM   16  C16 UNL     1       1.338  54.945  -9.809  1.00  0.00    -0.050 C 
HETATM   17  C17 UNL     1       2.583  55.711 -10.170  1.00  0.00     0.043 C 
HETATM   18  C18 UNL     1       3.708  54.929  -9.486  1.00  0.00     0.013 C 
HETATM   19  C19 UNL     1       3.797  53.405  -9.966  1.00  0.00     0.039 C 
HETATM   20  C20 UNL     1       2.943  52.992 -11.201  1.00  0.00     0.130 C 
HETATM   21  O4  UNL     1       1.586  52.882 -10.760  1.00  0.00    -0.371 OA
HETATM   22  C21 UNL     1       0.818  54.083 -10.912  1.00  0.00     0.185 C 
HETATM   23  C22 UNL     1      -0.652  53.708 -11.045  1.00  0.00    -0.006 A 
HETATM   24  C23 UNL     1      -1.664  54.333 -10.297  1.00  0.00     0.014 A 
HETATM   25  C24 UNL     1      -3.008  54.001 -10.501  1.00  0.00     0.037 A 
HETATM   26  C25 UNL     1      -3.350  53.059 -11.467  1.00  0.00     0.067 A 
HETATM   27  C26 UNL     1      -2.377  52.436 -12.240  1.00  0.00     0.057 A 
HETATM   28  C27 UNL     1      -1.035  52.754 -12.028  1.00  0.00     0.029 A 
HETATM   29  C28 UNL     1      -0.011  52.090 -12.797  1.00  0.00    -0.066 C 
HETATM   30  C29 UNL     1       1.068  51.671 -13.132  1.00  0.00    -0.101 C 
HETATM   31  C30 UNL     1       2.526  51.400 -13.209  1.00  0.00     0.103 C 
HETATM   32  C31 UNL     1       3.289  51.620 -11.851  1.00  0.00     0.049 C 
HETATM   33  C33 UNL     1       3.564  55.131  -7.886  1.00  0.00     0.102 A 
HETATM   34  C34 UNL     1       4.591  54.250  -7.206  1.00  0.00     0.081 A 
HETATM   35  C35 UNL     1       5.942  54.627  -7.360  1.00  0.00     0.006 C 
HETATM   36  C36 UNL     1       6.971  53.949  -6.712  1.00  0.00     0.010 C 
HETATM   37  C37 UNL     1       6.691  52.899  -5.824  1.00  0.00    -0.003 C 
HETATM   38  C38 UNL     1       5.361  52.418  -5.812  1.00  0.00     0.010 C 
HETATM   39  C39 UNL     1       4.325  53.082  -6.501  1.00  0.00     0.006 C 
HETATM   40  C40 UNL     1       7.752  52.527  -4.726  1.00  0.00     0.170 C 
HETATM   41  O8  UNL     1       7.165  52.572  -3.388  1.00  0.00    -0.316 OA
HETATM   42 NA1  UNL     1       3.967  53.138  -6.366  1.00  0.00    -0.223 Na
ENDROOT
BRANCH  40  43
HETATM   43  C41 UNL     1       8.289  51.078  -5.018  1.00  0.00     0.070 C 
BRANCH  43  44
HETATM   44  C42 UNL     1       7.589  50.172  -6.047  1.00  0.00     0.043 C 
BRANCH  44  45
HETATM   45  C43 UNL     1       8.411  49.750  -7.282  1.00  0.00     0.058 C 
HETATM   46  C44 UNL     1       8.204  48.314  -7.760  1.00  0.00     0.038 C 
HETATM   47  C45 UNL     1       9.427  48.029  -8.628  1.00  0.00     0.003 C 
HETATM   48  C46 UNL     1      10.548  48.917  -8.082  1.00  0.00     0.003 C 
HETATM   49  C47 UNL     1       9.917  49.771  -6.982  1.00  0.00     0.038 C 
BRANCH  45  50
HETATM   50  O7  UNL     1       8.175  50.620  -8.394  1.00  0.00    -0.390 OA
HETATM   51  H44 UNL     1       7.898  51.490  -8.039  1.00  0.00     0.210 HD
ENDBRANCH  45  50
ENDBRANCH  44  45
ENDBRANCH  43  44
ENDBRANCH  40  43
BRANCH  40  52
HETATM   52  N1  UNL     1       8.976  53.365  -4.908  1.00  0.00    -0.336 N 
HETATM   53  C48 UNL     1       9.848  53.475  -3.986  1.00  0.00     0.124 C 
HETATM   54  N2  UNL     1       9.862  52.980  -2.732  1.00  0.00    -0.279 NA
HETATM   55  N3  UNL     1      10.957  54.216  -4.202  1.00  0.00    -0.279 NA
HETATM   56  H53 UNL     1       9.083  52.362  -2.511  1.00  0.00     0.126 HD
HETATM   57  H54 UNL     1      10.748  52.577  -2.457  1.00  0.00     0.126 HD
HETATM   58  H55 UNL     1      10.839  54.772  -5.044  1.00  0.00     0.126 HD
HETATM   59  H56 UNL     1      11.164  54.809  -3.410  1.00  0.00     0.126 HD
ATOM     60  H1  UNL     1       9.116  53.859  -5.789  1.00  0.00     0.165 HD
ENDBRANCH  40  52
BRANCH  13  61
HETATM   61  S1  UNL     1       0.326  56.975  -5.939  1.00  0.00     0.106 S 
HETATM   62  O1  UNL     1      -0.644  56.668  -4.892  1.00  0.00    -0.595 OA
HETATM   63  O2  UNL     1      -0.294  57.149  -7.254  1.00  0.00    -0.595 OA
HETATM   64  O3  UNL     1       1.312  58.006  -5.608  1.00  0.00    -0.595 OA
ENDBRANCH  13  61
BRANCH  32  65
HETATM   65  C32 UNL     1       3.018  50.442 -10.900  1.00  0.00     0.172 C 
BRANCH  65  66
HETATM   66  O6  UNL     1       3.736  49.287 -11.344  1.00  0.00    -0.400 OA
HETATM   67  H34 UNL     1       4.669  49.402 -11.070  1.00  0.00     0.209 HD
ENDBRANCH  65  66
ENDBRANCH  32  65
BRANCH  26  68
HETATM   68  O5  UNL     1      -4.657  52.725 -11.689  1.00  0.00    -0.361 OA
HETATM   69  H27 UNL     1      -5.180  53.079 -10.946  1.00  0.00     0.217 HD
ENDBRANCH  26  68
TORSDOF 9
ENDMDL
MODEL 2
REMARK minimizedAffinity -9.03119373
REMARK CNNscore 0.158580422
REMARK CNNaffinity 6.57024956
REMARK  9 active torsions:
REMARK  status: ('A' for Active; 'I' for Inactive)
REMARK    1  A    between atoms: C13_13  and  S1_14 
REMARK    2  A    between atoms: C25_30  and  O5_31 
REMARK    3  A    between atoms: C31_37  and  C32_38 
REMARK    4  A    between atoms: C32_38  and  O6_39 
REMARK    5  A    between atoms: C40_47  and  C41_48 
REMARK    6  A    between atoms: C40_47  and  N1_56 
REMARK    7  A    between atoms: C41_48  and  C42_49 
REMARK    8  A    between atoms: C42_49  and  C43_50 
REMARK    9  A    between atoms: C43_50  and  O7_51 
REMARK       I    between atoms: C48_58  and  N2_59 
REMARK       I    between atoms: C48_58  and  N3_60 
ROOT
HETATM    1  C1  UNL     1     -10.096  44.077 -13.423  1.00  0.00     0.010 C 
HETATM    2  C2  UNL     1      -9.191  44.391 -14.602  1.00  0.00    -0.010 C 
HETATM    3  C3  UNL     1      -8.603  43.080 -15.189  1.00  0.00     0.009 C 
HETATM    4  C4  UNL     1      -8.099  43.177 -16.636  1.00  0.00     0.039 C 
HETATM    5  C5  UNL     1      -7.778  44.585 -17.052  1.00  0.00    -0.049 C 
HETATM    6  C6  UNL     1      -6.833  44.837 -18.046  1.00  0.00     0.044 C 
HETATM    7  C7  UNL     1      -6.614  46.147 -18.460  1.00  0.00     0.073 C 
HETATM    8  C8  UNL     1      -7.124  47.209 -17.705  1.00  0.00     0.037 C 
HETATM    9  C9  UNL     1      -8.133  46.967 -16.774  1.00  0.00     0.011 C 
HETATM   10  C10 UNL     1      -8.533  45.654 -16.525  1.00  0.00    -0.047 C 
HETATM   11  C11 UNL     1      -9.780  45.338 -15.696  1.00  0.00     0.024 C 
HETATM   12  C12 UNL     1     -10.865  44.717 -16.634  1.00  0.00     0.033 C 
HETATM   13  C13 UNL     1     -12.333  45.199 -16.726  1.00  0.00     0.140 C 
HETATM   14  C14 UNL     1     -12.881  46.341 -17.656  1.00  0.00     0.050 C 
HETATM   15  C15 UNL     1     -14.127  45.850 -18.402  1.00  0.00    -0.013 C 
HETATM   16  C16 UNL     1     -14.994  46.754 -18.905  1.00  0.00    -0.050 C 
HETATM   17  C17 UNL     1     -14.565  48.196 -18.850  1.00  0.00     0.043 C 
HETATM   18  C18 UNL     1     -13.195  48.199 -19.534  1.00  0.00     0.013 C 
HETATM   19  C19 UNL     1     -13.243  47.658 -21.039  1.00  0.00     0.039 C 
HETATM   20  C20 UNL     1     -14.646  47.453 -21.683  1.00  0.00     0.130 C 
HETATM   21  O4  UNL     1     -15.196  46.256 -21.126  1.00  0.00    -0.371 OA
HETATM   22  C21 UNL     1     -16.008  46.465 -19.963  1.00  0.00     0.185 C 
HETATM   23  C22 UNL     1     -17.012  45.326 -19.857  1.00  0.00    -0.006 A 
HETATM   24  C23 UNL     1     -17.229  44.615 -18.665  1.00  0.00     0.014 A 
HETATM   25  C24 UNL     1     -18.209  43.619 -18.598  1.00  0.00     0.037 A 
HETATM   26  C25 UNL     1     -18.992  43.342 -19.715  1.00  0.00     0.067 A 
HETATM   27  C26 UNL     1     -18.819  44.038 -20.905  1.00  0.00     0.057 A 
HETATM   28  C27 UNL     1     -17.832  45.021 -20.979  1.00  0.00     0.029 A 
HETATM   29  C28 UNL     1     -17.616  45.728 -22.217  1.00  0.00    -0.066 C 
HETATM   30  C29 UNL     1     -17.085  46.396 -23.068  1.00  0.00    -0.101 C 
HETATM   31  C30 UNL     1     -16.138  47.276 -23.800  1.00  0.00     0.103 C 
HETATM   32  C31 UNL     1     -14.673  47.254 -23.227  1.00  0.00     0.049 C 
HETATM   33  C33 UNL     1     -12.146  47.432 -18.568  1.00  0.00     0.102 A 
HETATM   34  C34 UNL     1     -10.827  47.316 -19.303  1.00  0.00     0.081 A 
HETATM   35  C35 UNL     1     -10.113  48.516 -19.504  1.00  0.00     0.006 C 
HETATM   36  C36 UNL     1      -8.850  48.529 -20.089  1.00  0.00     0.010 C 
HETATM   37  C37 UNL     1      -8.210  47.331 -20.442  1.00  0.00    -0.003 C 
HETATM   38  C38 UNL     1      -8.998  46.157 -20.400  1.00  0.00     0.010 C 
HETATM   39  C39 UNL     1     -10.294  46.152 -19.845  1.00  0.00     0.006 C 
HETATM   40  C40 UNL     1      -6.645  47.313 -20.574  1.00  0.00     0.170 C 
HETATM   41  O8  UNL     1      -6.054  46.286 -19.717  1.00  0.00    -0.316 OA
HETATM   42 NA1  UNL     1     -10.440  45.873 -19.618  1.00  0.00    -0.223 Na
ENDROOT
BRANCH  40  43
HETATM   43  C41 UNL     1      -6.271  47.026 -22.075  1.00  0.00     0.070 C 
BRANCH  43  44
HETATM   44  C42 UNL     1      -7.358  46.989 -23.163  1.00  0.00     0.043 C 
BRANCH  44  45
HETATM   45  C43 UNL     1      -7.035  47.685 -24.501  1.00  0.00     0.058 C 
HETATM   46  C44 UNL     1      -7.201  46.827 -25.754  1.00  0.00     0.038 C 
HETATM   47  C45 UNL     1      -6.388  47.559 -26.819  1.00  0.00     0.003 C 
HETATM   48  C46 UNL     1      -5.285  48.308 -26.067  1.00  0.00     0.003 C 
HETATM   49  C47 UNL     1      -5.551  48.076 -24.579  1.00  0.00     0.038 C 
BRANCH  45  50
HETATM   50  O7  UNL     1      -7.811  48.874 -24.679  1.00  0.00    -0.390 OA
HETATM   51  H44 UNL     1      -8.049  49.210 -23.789  1.00  0.00     0.210 HD
ENDBRANCH  45  50
ENDBRANCH  44  45
ENDBRANCH  43  44
ENDBRANCH  40  43
BRANCH  40  52
HETATM   52  N1  UNL     1      -6.109  48.693 -20.368  1.00  0.00    -0.336 N 
HETATM   53  C48 UNL     1      -6.544  49.681 -21.045  1.00  0.00     0.124 C 
HETATM   54  N2  UNL     1      -7.443  49.726 -22.049  1.00  0.00    -0.279 NA
HETATM   55  N3  UNL     1      -6.057  50.919 -20.806  1.00  0.00    -0.279 NA
HETATM   56  H53 UNL     1      -7.897  48.837 -22.251  1.00  0.00     0.126 HD
HETATM   57  H54 UNL     1      -8.114  50.479 -21.970  1.00  0.00     0.126 HD
HETATM   58  H55 UNL     1      -5.226  50.854 -20.225  1.00  0.00     0.126 HD
HETATM   59  H56 UNL     1      -5.852  51.407 -21.667  1.00  0.00     0.126 HD
ATOM     60  H1  UNL     1      -5.381  48.847 -19.672  1.00  0.00     0.165 HD
ENDBRANCH  40  52
BRANCH  13  61
HETATM   61  S1  UNL     1     -13.143  45.292 -15.089  1.00  0.00     0.106 S 
HETATM   62  O1  UNL     1     -14.288  46.169 -15.318  1.00  0.00    -0.595 OA
HETATM   63  O2  UNL     1     -12.148  45.881 -14.192  1.00  0.00    -0.595 OA
HETATM   64  O3  UNL     1     -13.465  43.896 -14.784  1.00  0.00    -0.595 OA
ENDBRANCH  13  61
BRANCH  32  65
HETATM   65  C32 UNL     1     -13.962  45.960 -23.658  1.00  0.00     0.172 C 
BRANCH  65  66
HETATM   66  O6  UNL     1     -12.750  46.282 -24.349  1.00  0.00    -0.400 OA
HETATM   67  H34 UNL     1     -12.085  46.522 -23.672  1.00  0.00     0.209 HD
ENDBRANCH  65  66
ENDBRANCH  32  65
BRANCH  26  68
HETATM   68  O5  UNL     1     -19.961  42.377 -19.670  1.00  0.00    -0.361 OA
HETATM   69  H27 UNL     1     -19.817  41.854 -18.860  1.00  0.00     0.217 HD
ENDBRANCH  26  68
TORSDOF 9
ENDMDL
MODEL 3
REMARK minimizedAffinity -8.52110195
REMARK CNNscore 0.139790773
REMARK CNNaffinity 6.32918978
REMARK  9 active torsions:
REMARK  status: ('A' for Active; 'I' for Inactive)
REMARK    1  A    between atoms: C13_13  and  S1_14 
REMARK    2  A    between atoms: C25_30  and  O5_31 
REMARK    3  A    between atoms: C31_37  and  C32_38 
REMARK    4  A    between atoms: C32_38  and  O6_39 
REMARK    5  A    between atoms: C40_47  and  C41_48 
REMARK    6  A    between atoms: C40_47  and  N1_56 
REMARK    7  A    between atoms: C41_48  and  C42_49 
REMARK    8  A    between atoms: C42_49  and  C43_50 
REMARK    9  A    between atoms: C43_50  and  O7_51 
REMARK       I    between atoms: C48_58  and  N2_59 
REMARK       I    between atoms: C48_58  and  N3_60 
ROOT
HETATM    1  C1  UNL     1     -12.138  45.139 -15.077  1.00  0.00     0.010 C 
HETATM    2  C2  UNL     1     -12.929  45.267 -16.369  1.00  0.00    -0.010 C 
HETATM    3  C3  UNL     1     -13.785  46.562 -16.346  1.00  0.00     0.009 C 
HETATM    4  C4  UNL     1     -14.229  47.080 -17.721  1.00  0.00     0.039 C 
HETATM    5  C5  UNL     1     -14.219  46.014 -18.780  1.00  0.00    -0.049 C 
HETATM    6  C6  UNL     1     -15.066  46.098 -19.885  1.00  0.00     0.044 C 
HETATM    7  C7  UNL     1     -14.978  45.133 -20.884  1.00  0.00     0.073 C 
HETATM    8  C8  UNL     1     -14.257  43.958 -20.654  1.00  0.00     0.037 C 
HETATM    9  C9  UNL     1     -13.345  43.906 -19.601  1.00  0.00     0.011 C 
HETATM   10  C10 UNL     1     -13.254  44.986 -18.723  1.00  0.00    -0.047 C 
HETATM   11  C11 UNL     1     -12.124  45.092 -17.695  1.00  0.00     0.024 C 
HETATM   12  C12 UNL     1     -11.189  46.280 -18.096  1.00  0.00     0.033 C 
HETATM   13  C13 UNL     1      -9.649  46.187 -18.220  1.00  0.00     0.140 C 
HETATM   14  C14 UNL     1      -8.843  45.759 -19.499  1.00  0.00     0.050 C 
HETATM   15  C15 UNL     1      -7.725  46.772 -19.772  1.00  0.00    -0.013 C 
HETATM   16  C16 UNL     1      -6.668  46.403 -20.526  1.00  0.00    -0.050 C 
HETATM   17  C17 UNL     1      -6.765  45.061 -21.201  1.00  0.00     0.043 C 
HETATM   18  C18 UNL     1      -8.087  45.130 -21.971  1.00  0.00     0.013 C 
HETATM   19  C19 UNL     1      -8.135  46.325 -23.033  1.00  0.00     0.039 C 
HETATM   20  C20 UNL     1      -6.802  47.074 -23.330  1.00  0.00     0.130 C 
HETATM   21  O4  UNL     1      -6.544  47.935 -22.216  1.00  0.00    -0.371 OA
HETATM   22  C21 UNL     1      -5.726  47.350 -21.194  1.00  0.00     0.185 C 
HETATM   23  C22 UNL     1      -5.004  48.463 -20.449  1.00  0.00    -0.006 A 
HETATM   24  C23 UNL     1      -4.974  48.539 -19.046  1.00  0.00     0.014 A 
HETATM   25  C24 UNL     1      -4.243  49.544 -18.404  1.00  0.00     0.037 A 
HETATM   26  C25 UNL     1      -3.522  50.466 -19.157  1.00  0.00     0.067 A 
HETATM   27  C26 UNL     1      -3.513  50.410 -20.546  1.00  0.00     0.057 A 
HETATM   28  C27 UNL     1      -4.253  49.417 -21.189  1.00  0.00     0.029 A 
HETATM   29  C28 UNL     1      -4.284  49.367 -22.630  1.00  0.00    -0.066 C 
HETATM   30  C29 UNL     1      -4.637  49.104 -23.752  1.00  0.00    -0.101 C 
HETATM   31  C30 UNL     1      -5.349  48.524 -24.920  1.00  0.00     0.103 C 
HETATM   32  C31 UNL     1      -6.792  47.992 -24.587  1.00  0.00     0.049 C 
HETATM   33  C33 UNL     1      -9.298  45.125 -20.896  1.00  0.00     0.102 A 
HETATM   34  C34 UNL     1     -10.596  45.330 -21.649  1.00  0.00     0.081 A 
HETATM   35  C35 UNL     1     -11.020  44.264 -22.471  1.00  0.00     0.006 C 
HETATM   36  C36 UNL     1     -12.237  44.297 -23.145  1.00  0.00     0.010 C 
HETATM   37  C37 UNL     1     -13.122  45.373 -22.976  1.00  0.00    -0.003 C 
HETATM   38  C38 UNL     1     -12.618  46.506 -22.296  1.00  0.00     0.010 C 
HETATM   39  C39 UNL     1     -11.366  46.487 -21.648  1.00  0.00     0.006 C 
HETATM   40  C40 UNL     1     -14.649  45.158 -23.276  1.00  0.00     0.170 C 
HETATM   41  O8  UNL     1     -15.471  45.514 -22.120  1.00  0.00    -0.316 OA
HETATM   42 NA1  UNL     1     -11.291  46.644 -21.302  1.00  0.00    -0.223 Na
ENDROOT
BRANCH  40  43
HETATM   43  C41 UNL     1     -15.051  46.054 -24.504  1.00  0.00     0.070 C 
BRANCH  43  44
HETATM   44  C42 UNL     1     -16.385  46.822 -24.515  1.00  0.00     0.043 C 
BRANCH  44  45
HETATM   45  C43 UNL     1     -17.673  45.987 -24.664  1.00  0.00     0.058 C 
HETATM   46  C44 UNL     1     -17.931  45.405 -26.053  1.00  0.00     0.038 C 
HETATM   47  C45 UNL     1     -19.421  45.071 -26.047  1.00  0.00     0.003 C 
HETATM   48  C46 UNL     1     -20.069  46.048 -25.063  1.00  0.00     0.003 C 
HETATM   49  C47 UNL     1     -18.924  46.851 -24.445  1.00  0.00     0.038 C 
BRANCH  45  50
HETATM   50  O7  UNL     1     -17.715  44.909 -23.724  1.00  0.00    -0.390 OA
HETATM   51  H44 UNL     1     -17.169  45.166 -22.952  1.00  0.00     0.210 HD
ENDBRANCH  45  50
ENDBRANCH  44  45
ENDBRANCH  43  44
ENDBRANCH  40  43
BRANCH  40  52
HETATM   52  N1  UNL     1     -14.866  43.776 -23.803  1.00  0.00    -0.336 N 
HETATM   53  C48 UNL     1     -14.678  43.498 -25.033  1.00  0.00     0.124 C 
HETATM   54  N2  UNL     1     -14.341  44.293 -26.068  1.00  0.00    -0.279 NA
HETATM   55  N3  UNL     1     -14.853  42.229 -25.464  1.00  0.00    -0.279 NA
HETATM   56  H53 UNL     1     -14.137  45.258 -25.812  1.00  0.00     0.126 HD
HETATM   57  H54 UNL     1     -13.626  43.907 -26.670  1.00  0.00     0.126 HD
HETATM   58  H55 UNL     1     -15.327  41.686 -24.747  1.00  0.00     0.126 HD
HETATM   59  H56 UNL     1     -15.371  42.203 -26.331  1.00  0.00     0.126 HD
ATOM     60  H1  UNL     1     -15.171  43.041 -23.167  1.00  0.00     0.165 HD
ENDBRANCH  40  52
BRANCH  13  61
HETATM   61  S1  UNL     1      -8.867  45.473 -16.729  1.00  0.00     0.106 S 
HETATM   62  O1  UNL     1      -9.336  44.090 -16.719  1.00  0.00    -0.595 OA
HETATM   63  O2  UNL     1      -9.383  46.255 -15.603  1.00  0.00    -0.595 OA
HETATM   64  O3  UNL     1      -7.434  45.656 -16.970  1.00  0.00    -0.595 OA
ENDBRANCH  13  61
BRANCH  32  65
HETATM   65  C32 UNL     1      -7.767  49.173 -24.451  1.00  0.00     0.172 C 
BRANCH  65  66
HETATM   66  O6  UNL     1      -8.709  49.149 -25.528  1.00  0.00    -0.400 OA
HETATM   67  H34 UNL     1      -9.376  48.465 -25.315  1.00  0.00     0.209 HD
ENDBRANCH  65  66
ENDBRANCH  32  65
BRANCH  26  68
HETATM   68  O5  UNL     1      -2.795  51.452 -18.550  1.00  0.00    -0.361 OA
HETATM   69  H27 UNL     1      -3.067  51.485 -17.615  1.00  0.00     0.217 HD
ENDBRANCH  26  68
TORSDOF 9
ENDMDL
MODEL 4
REMARK minimizedAffinity -8.70477009
REMARK CNNscore 0.135321543
REMARK CNNaffinity 5.94465065
REMARK  9 active torsions:
REMARK  status: ('A' for Active; 'I' for Inactive)
REMARK    1  A    between atoms: C13_13  and  S1_14 
REMARK    2  A    between atoms: C25_30  and  O5_31 
REMARK    3  A    between atoms: C31_37  and  C32_38 
REMARK    4  A    between atoms: C32_38  and  O6_39 
REMARK    5  A    between atoms: C40_47  and  C41_48 
REMARK    6  A    between atoms: C40_47  and  N1_56 
REMARK    7  A    between atoms: C41_48  and  C42_49 
REMARK    8  A    between atoms: C42_49  and  C43_50 
REMARK    9  A    between atoms: C43_50  and  O7_51 
REMARK       I    between atoms: C48_58  and  N2_59 
REMARK       I    between atoms: C48_58  and  N3_60 
ROOT
HETATM    1  C1  UNL     1     -18.177  45.092 -26.788  1.00  0.00     0.010 C 
HETATM    2  C2  UNL     1     -16.795  45.632 -26.456  1.00  0.00    -0.010 C 
HETATM    3  C3  UNL     1     -16.678  45.900 -24.932  1.00  0.00     0.009 C 
HETATM    4  C4  UNL     1     -15.244  45.960 -24.385  1.00  0.00     0.039 C 
HETATM    5  C5  UNL     1     -14.224  46.267 -25.445  1.00  0.00    -0.049 C 
HETATM    6  C6  UNL     1     -13.022  46.894 -25.118  1.00  0.00     0.044 C 
HETATM    7  C7  UNL     1     -12.069  47.096 -26.111  1.00  0.00     0.073 C 
HETATM    8  C8  UNL     1     -12.418  46.929 -27.454  1.00  0.00     0.037 C 
HETATM    9  C9  UNL     1     -13.575  46.224 -27.781  1.00  0.00     0.011 C 
HETATM   10  C10 UNL     1     -14.428  45.801 -26.761  1.00  0.00    -0.047 C 
HETATM   11  C11 UNL     1     -15.583  44.832 -27.030  1.00  0.00     0.024 C 
HETATM   12  C12 UNL     1     -15.266  43.467 -26.336  1.00  0.00     0.033 C 
HETATM   13  C13 UNL     1     -15.335  42.087 -27.033  1.00  0.00     0.140 C 
HETATM   14  C14 UNL     1     -14.176  41.392 -27.836  1.00  0.00     0.050 C 
HETATM   15  C15 UNL     1     -14.014  39.942 -27.365  1.00  0.00    -0.013 C 
HETATM   16  C16 UNL     1     -13.406  39.049 -28.172  1.00  0.00    -0.050 C 
HETATM   17  C17 UNL     1     -12.761  39.602 -29.416  1.00  0.00     0.043 C 
HETATM   18  C18 UNL     1     -11.834  40.702 -28.892  1.00  0.00     0.013 C 
HETATM   19  C19 UNL     1     -10.741  40.163 -27.855  1.00  0.00     0.039 C 
HETATM   20  C20 UNL     1     -10.589  38.620 -27.712  1.00  0.00     0.130 C 
HETATM   21  O4  UNL     1     -11.701  38.155 -26.941  1.00  0.00    -0.371 OA
HETATM   22  C21 UNL     1     -12.831  37.746 -27.722  1.00  0.00     0.185 C 
HETATM   23  C22 UNL     1     -13.629  36.721 -26.928  1.00  0.00    -0.006 A 
HETATM   24  C23 UNL     1     -15.022  36.805 -26.767  1.00  0.00     0.014 A 
HETATM   25  C24 UNL     1     -15.721  35.804 -26.084  1.00  0.00     0.037 A 
HETATM   26  C25 UNL     1     -15.036  34.703 -25.576  1.00  0.00     0.067 A 
HETATM   27  C26 UNL     1     -13.660  34.577 -25.734  1.00  0.00     0.057 A 
HETATM   28  C27 UNL     1     -12.959  35.581 -26.402  1.00  0.00     0.029 A 
HETATM   29  C28 UNL     1     -11.527  35.483 -26.543  1.00  0.00    -0.066 C 
HETATM   30  C29 UNL     1     -10.378  35.796 -26.729  1.00  0.00    -0.101 C 
HETATM   31  C30 UNL     1      -9.149  36.558 -27.068  1.00  0.00     0.103 C 
HETATM   32  C31 UNL     1      -9.317  38.118 -26.967  1.00  0.00     0.049 C 
HETATM   33  C33 UNL     1     -12.752  41.918 -28.343  1.00  0.00     0.102 A 
HETATM   34  C34 UNL     1     -11.840  42.944 -27.703  1.00  0.00     0.081 A 
HETATM   35  C35 UNL     1     -11.003  43.671 -28.575  1.00  0.00     0.006 C 
HETATM   36  C36 UNL     1     -10.184  44.700 -28.118  1.00  0.00     0.010 C 
HETATM   37  C37 UNL     1     -10.214  45.096 -26.772  1.00  0.00    -0.003 C 
HETATM   38  C38 UNL     1     -10.919  44.255 -25.880  1.00  0.00     0.010 C 
HETATM   39  C39 UNL     1     -11.715  43.186 -26.340  1.00  0.00     0.006 C 
HETATM   40  C40 UNL     1      -9.735  46.544 -26.394  1.00  0.00     0.170 C 
HETATM   41  O8  UNL     1     -10.772  47.269 -25.660  1.00  0.00    -0.316 OA
HETATM   42 NA1  UNL     1     -12.063  43.091 -26.199  1.00  0.00    -0.223 Na
ENDROOT
BRANCH  40  43
HETATM   43  C41 UNL     1      -8.442  46.430 -25.505  1.00  0.00     0.070 C 
BRANCH  43  44
HETATM   44  C42 UNL     1      -8.167  47.446 -24.383  1.00  0.00     0.043 C 
BRANCH  44  45
HETATM   45  C43 UNL     1      -6.870  48.274 -24.491  1.00  0.00     0.058 C 
HETATM   46  C44 UNL     1      -5.999  47.990 -25.712  1.00  0.00     0.038 C 
HETATM   47  C45 UNL     1      -4.629  48.548 -25.332  1.00  0.00     0.003 C 
HETATM   48  C46 UNL     1      -4.547  48.462 -23.806  1.00  0.00     0.003 C 
HETATM   49  C47 UNL     1      -5.910  47.955 -23.334  1.00  0.00     0.038 C 
BRANCH  45  50
HETATM   50  O7  UNL     1      -7.138  49.680 -24.462  1.00  0.00    -0.390 OA
HETATM   51  H44 UNL     1      -7.980  49.813 -23.979  1.00  0.00     0.210 HD
ENDBRANCH  45  50
ENDBRANCH  44  45
ENDBRANCH  43  44
ENDBRANCH  40  43
BRANCH  40  52
HETATM   52  N1  UNL     1      -9.224  47.237 -27.615  1.00  0.00    -0.336 N 
HETATM   53  C48 UNL     1      -9.085  48.503 -27.651  1.00  0.00     0.124 C 
HETATM   54  N2  UNL     1      -9.389  49.443 -26.733  1.00  0.00    -0.279 NA
HETATM   55  N3  UNL     1      -8.588  49.089 -28.763  1.00  0.00    -0.279 NA
HETATM   56  H53 UNL     1      -9.718  49.074 -25.843  1.00  0.00     0.126 HD
HETATM   57  H54 UNL     1      -8.671  50.143 -26.605  1.00  0.00     0.126 HD
HETATM   58  H55 UNL     1      -8.579  48.420 -29.528  1.00  0.00     0.126 HD
HETATM   59  H56 UNL     1      -9.119  49.911 -29.015  1.00  0.00     0.126 HD
ATOM     60  H1  UNL     1      -8.981  46.685 -28.438  1.00  0.00     0.165 HD
ENDBRANCH  40  52
BRANCH  13  61
HETATM   61  S1  UNL     1     -16.929  41.809 -27.884  1.00  0.00     0.106 S 
HETATM   62  O1  UNL     1     -17.926  42.063 -26.847  1.00  0.00    -0.595 OA
HETATM   63  O2  UNL     1     -16.904  40.411 -28.317  1.00  0.00    -0.595 OA
HETATM   64  O3  UNL     1     -16.903  42.772 -28.988  1.00  0.00    -0.595 OA
ENDBRANCH  13  61
BRANCH  32  65
HETATM   65  C32 UNL     1      -9.300  38.552 -25.491  1.00  0.00     0.172 C 
BRANCH  65  66
HETATM   66  O6  UNL     1      -8.171  39.398 -25.249  1.00  0.00    -0.400 OA
HETATM   67  H34 UNL     1      -8.395  40.286 -25.595  1.00  0.00     0.209 HD
ENDBRANCH  65  66
ENDBRANCH  32  65
BRANCH  26  68
HETATM   68  O5  UNL     1     -15.700  33.710 -24.911  1.00  0.00    -0.361 OA
HETATM   69  H27 UNL     1     -16.593  34.040 -24.706  1.00  0.00     0.217 HD
ENDBRANCH  26  68
TORSDOF 9
ENDMDL
MODEL 5
REMARK minimizedAffinity -8.00922966
REMARK CNNscore 0.129924148
REMARK CNNaffinity 5.41082239
REMARK  9 active torsions:
REMARK  status: ('A' for Active; 'I' for Inactive)
REMARK    1  A    between atoms: C13_13  and  S1_14 
REMARK    2  A    between atoms: C25_30  and  O5_31 
REMARK    3  A    between atoms: C31_37  and  C32_38 
REMARK    4  A    between atoms: C32_38  and  O6_39 
REMARK    5  A    between atoms: C40_47  and  C41_48 
REMARK    6  A    between atoms: C40_47  and  N1_56 
REMARK    7  A    between atoms: C41_48  and  C42_49 
REMARK    8  A    between atoms: C42_49  and  C43_50 
REMARK    9  A    between atoms: C43_50  and  O7_51 
REMARK       I    between atoms: C48_58  and  N2_59 
REMARK       I    between atoms: C48_58  and  N3_60 
ROOT
HETATM    1  C1  UNL     1     -18.903  44.591 -26.551  1.00  0.00     0.010 C 
HETATM    2  C2  UNL     1     -17.543  45.264 -26.622  1.00  0.00    -0.010 C 
HETATM    3  C3  UNL     1     -17.207  45.935 -25.263  1.00  0.00     0.009 C 
HETATM    4  C4  UNL     1     -15.716  46.206 -25.016  1.00  0.00     0.039 C 
HETATM    5  C5  UNL     1     -14.913  46.267 -26.285  1.00  0.00    -0.049 C 
HETATM    6  C6  UNL     1     -13.737  47.015 -26.350  1.00  0.00     0.044 C 
HETATM    7  C7  UNL     1     -12.979  46.990 -27.517  1.00  0.00     0.073 C 
HETATM    8  C8  UNL     1     -13.523  46.454 -28.688  1.00  0.00     0.037 C 
HETATM    9  C9  UNL     1     -14.648  45.633 -28.611  1.00  0.00     0.011 C 
HETATM   10  C10 UNL     1     -15.282  45.458 -27.380  1.00  0.00    -0.047 C 
HETATM   11  C11 UNL     1     -16.369  44.399 -27.181  1.00  0.00     0.024 C 
HETATM   12  C12 UNL     1     -15.820  43.285 -26.232  1.00  0.00     0.033 C 
HETATM   13  C13 UNL     1     -15.871  41.767 -26.530  1.00  0.00     0.140 C 
HETATM   14  C14 UNL     1     -14.797  40.939 -27.324  1.00  0.00     0.050 C 
HETATM   15  C15 UNL     1     -14.427  39.677 -26.536  1.00  0.00    -0.013 C 
HETATM   16  C16 UNL     1     -13.876  38.631 -27.185  1.00  0.00    -0.050 C 
HETATM   17  C17 UNL     1     -13.495  38.861 -28.624  1.00  0.00     0.043 C 
HETATM   18  C18 UNL     1     -12.602  40.104 -28.573  1.00  0.00     0.013 C 
HETATM   19  C19 UNL     1     -11.311  39.914 -27.647  1.00  0.00     0.039 C 
HETATM   20  C20 UNL     1     -10.995  38.474 -27.145  1.00  0.00     0.130 C 
HETATM   21  O4  UNL     1     -11.920  38.180 -26.094  1.00  0.00    -0.371 OA
HETATM   22  C21 UNL     1     -13.118  37.524 -26.529  1.00  0.00     0.185 C 
HETATM   23  C22 UNL     1     -13.678  36.711 -25.370  1.00  0.00    -0.006 A 
HETATM   24  C23 UNL     1     -15.029  36.769 -24.988  1.00  0.00     0.014 A 
HETATM   25  C24 UNL     1     -15.512  35.955 -23.958  1.00  0.00     0.037 A 
HETATM   26  C25 UNL     1     -14.655  35.064 -23.319  1.00  0.00     0.067 A 
HETATM   27  C26 UNL     1     -13.317  34.965 -23.684  1.00  0.00     0.057 A 
HETATM   28  C27 UNL     1     -12.830  35.787 -24.700  1.00  0.00     0.029 A 
HETATM   29  C28 UNL     1     -11.436  35.722 -25.067  1.00  0.00    -0.066 C 
HETATM   30  C29 UNL     1     -10.366  36.028 -25.530  1.00  0.00    -0.101 C 
HETATM   31  C30 UNL     1      -9.284  36.729 -26.268  1.00  0.00     0.103 C 
HETATM   32  C31 UNL     1      -9.578  38.251 -26.538  1.00  0.00     0.049 C 
HETATM   33  C33 UNL     1     -13.528  41.377 -28.196  1.00  0.00     0.102 A 
HETATM   34  C34 UNL     1     -12.625  42.579 -28.013  1.00  0.00     0.081 A 
HETATM   35  C35 UNL     1     -12.010  43.085 -29.177  1.00  0.00     0.006 C 
HETATM   36  C36 UNL     1     -11.228  44.237 -29.152  1.00  0.00     0.010 C 
HETATM   37  C37 UNL     1     -11.077  44.976 -27.970  1.00  0.00    -0.003 C 
HETATM   38  C38 UNL     1     -11.548  44.371 -26.781  1.00  0.00     0.010 C 
HETATM   39  C39 UNL     1     -12.305  43.182 -26.802  1.00  0.00     0.006 C 
HETATM   40  C40 UNL     1     -10.681  46.493 -28.065  1.00  0.00     0.170 C 
HETATM   41  O8  UNL     1     -11.648  47.338 -27.366  1.00  0.00    -0.316 OA
HETATM   42 NA1  UNL     1     -12.615  43.111 -26.581  1.00  0.00    -0.223 Na
ENDROOT
BRANCH  40  43
HETATM   43  C41 UNL     1      -9.257  46.682 -27.424  1.00  0.00     0.070 C 
BRANCH  43  44
HETATM   44  C42 UNL     1      -7.986  46.304 -28.206  1.00  0.00     0.043 C 
BRANCH  44  45
HETATM   45  C43 UNL     1      -7.029  47.453 -28.584  1.00  0.00     0.058 C 
HETATM   46  C44 UNL     1      -6.213  47.247 -29.859  1.00  0.00     0.038 C 
HETATM   47  C45 UNL     1      -5.063  48.243 -29.732  1.00  0.00     0.003 C 
HETATM   48  C46 UNL     1      -4.835  48.436 -28.231  1.00  0.00     0.003 C 
HETATM   49  C47 UNL     1      -5.927  47.629 -27.528  1.00  0.00     0.038 C 
BRANCH  45  50
HETATM   50  O7  UNL     1      -7.722  48.699 -28.705  1.00  0.00    -0.390 OA
HETATM   51  H44 UNL     1      -8.522  48.651 -28.140  1.00  0.00     0.210 HD
ENDBRANCH  45  50
ENDBRANCH  44  45
ENDBRANCH  43  44
ENDBRANCH  40  43
BRANCH  40  52
HETATM   52  N1  UNL     1     -10.440  46.859 -29.494  1.00  0.00    -0.336 N 
HETATM   53  C48 UNL     1      -9.765  46.104 -30.267  1.00  0.00     0.124 C 
HETATM   54  N2  UNL     1      -9.114  44.951 -30.014  1.00  0.00    -0.279 NA
HETATM   55  N3  UNL     1      -9.597  46.453 -31.562  1.00  0.00    -0.279 NA
HETATM   56  H53 UNL     1      -9.240  44.591 -29.070  1.00  0.00     0.126 HD
HETATM   57  H54 UNL     1      -9.261  44.231 -30.710  1.00  0.00     0.126 HD
HETATM   58  H55 UNL     1      -9.881  47.420 -31.695  1.00  0.00     0.126 HD
HETATM   59  H56 UNL     1      -8.640  46.320 -31.859  1.00  0.00     0.126 HD
ATOM     60  H1  UNL     1     -10.823  47.731 -29.858  1.00  0.00     0.165 HD
ENDBRANCH  40  52
BRANCH  13  61
HETATM   61  S1  UNL     1     -17.549  41.197 -26.981  1.00  0.00     0.106 S 
HETATM   62  O1  UNL     1     -18.385  41.675 -25.883  1.00  0.00    -0.595 OA
HETATM   63  O2  UNL     1     -17.465  39.736 -27.036  1.00  0.00    -0.595 OA
HETATM   64  O3  UNL     1     -17.789  41.827 -28.281  1.00  0.00    -0.595 OA
ENDBRANCH  13  61
BRANCH  32  65
HETATM   65  C32 UNL     1      -9.365  39.063 -25.250  1.00  0.00     0.172 C 
BRANCH  65  66
HETATM   66  O6  UNL     1     -10.516  38.946 -24.408  1.00  0.00    -0.400 OA
HETATM   67  H34 UNL     1     -10.465  38.074 -23.967  1.00  0.00     0.209 HD
ENDBRANCH  65  66
ENDBRANCH  32  65
BRANCH  26  68
HETATM   68  O5  UNL     1     -15.108  34.253 -22.314  1.00  0.00    -0.361 OA
HETATM   69  H27 UNL     1     -15.984  34.584 -22.043  1.00  0.00     0.217 HD
ENDBRANCH  26  68
TORSDOF 9
ENDMDL
MODEL 6
REMARK minimizedAffinity -8.53209019
REMARK CNNscore 0.109216101
REMARK CNNaffinity 6.77534342
REMARK  9 active torsions:
REMARK  status: ('A' for Active; 'I' for Inactive)
REMARK    1  A    between atoms: C13_13  and  S1_14 
REMARK    2  A    between atoms: C25_30  and  O5_31 
REMARK    3  A    between atoms: C31_37  and  C32_38 
REMARK    4  A    between atoms: C32_38  and  O6_39 
REMARK    5  A    between atoms: C40_47  and  C41_48 
REMARK    6  A    between atoms: C40_47  and  N1_56 
REMARK    7  A    between atoms: C41_48  and  C42_49 
REMARK    8  A    between atoms: C42_49  and  C43_50 
REMARK    9  A    between atoms: C43_50  and  O7_51 
REMARK       I    between atoms: C48_58  and  N2_59 
REMARK       I    between atoms: C48_58  and  N3_60 
ROOT
HETATM    1  C1  UNL     1       4.913  46.605 -10.014  1.00  0.00     0.010 C 
HETATM    2  C2  UNL     1       3.451  47.013 -10.083  1.00  0.00    -0.010 C 
HETATM    3  C3  UNL     1       2.668  46.403  -8.890  1.00  0.00     0.009 C 
HETATM    4  C4  UNL     1       1.348  47.105  -8.543  1.00  0.00     0.039 C 
HETATM    5  C5  UNL     1       0.787  47.898  -9.690  1.00  0.00    -0.049 C 
HETATM    6  C6  UNL     1      -0.585  48.132  -9.792  1.00  0.00     0.044 C 
HETATM    7  C7  UNL     1      -1.062  48.933 -10.826  1.00  0.00     0.073 C 
HETATM    8  C8  UNL     1      -0.222  49.265 -11.893  1.00  0.00     0.037 C 
HETATM    9  C9  UNL     1       1.156  49.113 -11.756  1.00  0.00     0.011 C 
HETATM   10  C10 UNL     1       1.667  48.521 -10.600  1.00  0.00    -0.047 C 
HETATM   11  C11 UNL     1       3.165  48.535 -10.285  1.00  0.00     0.024 C 
HETATM   12  C12 UNL     1       3.410  49.454  -9.045  1.00  0.00     0.033 C 
HETATM   13  C13 UNL     1       4.457  50.592  -8.983  1.00  0.00     0.140 C 
HETATM   14  C14 UNL     1       4.238  52.082  -9.432  1.00  0.00     0.050 C 
HETATM   15  C15 UNL     1       4.726  53.033  -8.333  1.00  0.00    -0.013 C 
HETATM   16  C16 UNL     1       5.035  54.307  -8.651  1.00  0.00    -0.050 C 
HETATM   17  C17 UNL     1       4.694  54.749 -10.049  1.00  0.00     0.043 C 
HETATM   18  C18 UNL     1       3.206  54.414 -10.189  1.00  0.00     0.013 C 
HETATM   19  C19 UNL     1       2.292  55.150  -9.102  1.00  0.00     0.039 C 
HETATM   20  C20 UNL     1       2.956  56.267  -8.244  1.00  0.00     0.130 C 
HETATM   21  O4  UNL     1       3.776  55.618  -7.267  1.00  0.00    -0.371 OA
HETATM   22  C21 UNL     1       5.138  55.430  -7.671  1.00  0.00     0.185 C 
HETATM   23  C22 UNL     1       6.013  55.363  -6.427  1.00  0.00    -0.006 A 
HETATM   24  C23 UNL     1       6.970  54.355  -6.227  1.00  0.00     0.014 A 
HETATM   25  C24 UNL     1       7.796  54.372  -5.097  1.00  0.00     0.037 A 
HETATM   26  C25 UNL     1       7.685  55.406  -4.173  1.00  0.00     0.067 A 
HETATM   27  C26 UNL     1       6.762  56.431  -4.348  1.00  0.00     0.057 A 
HETATM   28  C27 UNL     1       5.927  56.409  -5.465  1.00  0.00     0.029 A 
HETATM   29  C28 UNL     1       4.941  57.445  -5.644  1.00  0.00    -0.066 C 
HETATM   30  C29 UNL     1       3.964  58.031  -6.039  1.00  0.00    -0.101 C 
HETATM   31  C30 UNL     1       2.739  58.408  -6.791  1.00  0.00     0.103 C 
HETATM   32  C31 UNL     1       1.990  57.188  -7.442  1.00  0.00     0.049 C 
HETATM   33  C33 UNL     1       3.053  52.803 -10.230  1.00  0.00     0.102 A 
HETATM   34  C34 UNL     1       1.575  52.471 -10.230  1.00  0.00     0.081 A 
HETATM   35  C35 UNL     1       0.859  52.795 -11.402  1.00  0.00     0.006 C 
HETATM   36  C36 UNL     1      -0.484  52.462 -11.557  1.00  0.00     0.010 C 
HETATM   37  C37 UNL     1      -1.159  51.727 -10.572  1.00  0.00    -0.003 C 
HETATM   38  C38 UNL     1      -0.490  51.560  -9.336  1.00  0.00     0.010 C 
HETATM   39  C39 UNL     1       0.858  51.936  -9.166  1.00  0.00     0.006 C 
HETATM   40  C40 UNL     1      -2.440  50.910 -10.973  1.00  0.00     0.170 C 
HETATM   41  O8  UNL     1      -2.305  49.501 -10.608  1.00  0.00    -0.316 OA
HETATM   42 NA1  UNL     1       1.124  51.732  -8.972  1.00  0.00    -0.223 Na
ENDROOT
BRANCH  40  43
HETATM   43  C41 UNL     1      -3.682  51.530 -10.235  1.00  0.00     0.070 C 
BRANCH  43  44
HETATM   44  C42 UNL     1      -5.110  51.063 -10.570  1.00  0.00     0.043 C 
BRANCH  44  45
HETATM   45  C43 UNL     1      -5.529  49.669 -10.059  1.00  0.00     0.058 C 
HETATM   46  C44 UNL     1      -5.445  48.534 -11.077  1.00  0.00     0.038 C 
HETATM   47  C45 UNL     1      -6.333  47.439 -10.491  1.00  0.00     0.003 C 
HETATM   48  C46 UNL     1      -7.385  48.158  -9.643  1.00  0.00     0.003 C 
HETATM   49  C47 UNL     1      -7.016  49.641  -9.675  1.00  0.00     0.038 C 
BRANCH  45  50
HETATM   50  O7  UNL     1      -4.772  49.280  -8.907  1.00  0.00    -0.390 OA
HETATM   51  H44 UNL     1      -4.474  50.098  -8.457  1.00  0.00     0.210 HD
ENDBRANCH  45  50
ENDBRANCH  44  45
ENDBRANCH  43  44
ENDBRANCH  40  43
BRANCH  40  52
HETATM   52  N1  UNL     1      -2.763  51.162 -12.411  1.00  0.00    -0.336 N 
HETATM   53  C48 UNL     1      -3.167  52.303 -12.810  1.00  0.00     0.124 C 
HETATM   54  N2  UNL     1      -3.441  53.426 -12.116  1.00  0.00    -0.279 NA
HETATM   55  N3  UNL     1      -3.418  52.499 -14.123  1.00  0.00    -0.279 NA
HETATM   56  H53 UNL     1      -3.223  53.374 -11.123  1.00  0.00     0.126 HD
HETATM   57  H54 UNL     1      -3.075  54.271 -12.535  1.00  0.00     0.126 HD
HETATM   58  H55 UNL     1      -3.439  51.605 -14.606  1.00  0.00     0.126 HD
HETATM   59  H56 UNL     1      -4.286  52.999 -14.262  1.00  0.00     0.126 HD
ATOM     60  H1  UNL     1      -2.658  50.406 -13.086  1.00  0.00     0.165 HD
ENDBRANCH  40  52
BRANCH  13  61
HETATM   61  S1  UNL     1       6.127  50.036  -9.478  1.00  0.00     0.106 S 
HETATM   62  O1  UNL     1       6.959  51.221  -9.288  1.00  0.00    -0.595 OA
HETATM   63  O2  UNL     1       6.009  49.645 -10.884  1.00  0.00    -0.595 OA
HETATM   64  O3  UNL     1       6.400  48.918  -8.573  1.00  0.00    -0.595 OA
ENDBRANCH  13  61
BRANCH  32  65
HETATM   65  C32 UNL     1       1.212  56.414  -6.364  1.00  0.00     0.172 C 
BRANCH  65  66
HETATM   66  O6  UNL     1      -0.189  56.676  -6.497  1.00  0.00    -0.400 OA
HETATM   67  H34 UNL     1      -0.516  56.132  -7.243  1.00  0.00     0.209 HD
ENDBRANCH  65  66
ENDBRANCH  32  65
BRANCH  26  68
HETATM   68  O5  UNL     1       8.487  55.446  -3.066  1.00  0.00    -0.361 OA
HETATM   69  H27 UNL     1       8.915  54.575  -2.982  1.00  0.00     0.217 HD
ENDBRANCH  26  68
TORSDOF 9
ENDMDL
MODEL 7
REMARK minimizedAffinity -9.26717663
REMARK CNNscore 0.108573116
REMARK CNNaffinity 6.77826309
REMARK  9 active torsions:
REMARK  status: ('A' for Active; 'I' for Inactive)
REMARK    1  A    between atoms: C13_13  and  S1_14 
REMARK    2  A    between atoms: C25_30  and  O5_31 
REMARK    3  A    between atoms: C31_37  and  C32_38 
REMARK    4  A    between atoms: C32_38  and  O6_39 
REMARK    5  A    between atoms: C40_47  and  C41_48 
REMARK    6  A    between atoms: C40_47  and  N1_56 
REMARK    7  A    between atoms: C41_48  and  C42_49 
REMARK    8  A    between atoms: C42_49  and  C43_50 
REMARK    9  A    between atoms: C43_50  and  O7_51 
REMARK       I    between atoms: C48_58  and  N2_59 
REMARK       I    between atoms: C48_58  and  N3_60 
ROOT
HETATM    1  C1  UNL     1     -11.130  39.988 -23.274  1.00  0.00     0.010 C 
HETATM    2  C2  UNL     1     -10.149  41.043 -22.792  1.00  0.00    -0.010 C 
HETATM    3  C3  UNL     1      -8.709  40.465 -22.775  1.00  0.00     0.009 C 
HETATM    4  C4  UNL     1      -7.582  41.508 -22.801  1.00  0.00     0.039 C 
HETATM    5  C5  UNL     1      -8.026  42.862 -22.323  1.00  0.00    -0.049 C 
HETATM    6  C6  UNL     1      -7.114  43.752 -21.754  1.00  0.00     0.044 C 
HETATM    7  C7  UNL     1      -7.544  45.024 -21.389  1.00  0.00     0.073 C 
HETATM    8  C8  UNL     1      -8.912  45.308 -21.336  1.00  0.00     0.037 C 
HETATM    9  C9  UNL     1      -9.814  44.464 -21.982  1.00  0.00     0.011 C 
HETATM   10  C10 UNL     1      -9.349  43.287 -22.569  1.00  0.00    -0.047 C 
HETATM   11  C11 UNL     1     -10.237  42.440 -23.484  1.00  0.00     0.024 C 
HETATM   12  C12 UNL     1      -9.682  42.524 -24.942  1.00  0.00     0.033 C 
HETATM   13  C13 UNL     1     -10.529  42.869 -26.191  1.00  0.00     0.140 C 
HETATM   14  C14 UNL     1     -10.829  44.309 -26.742  1.00  0.00     0.050 C 
HETATM   15  C15 UNL     1     -10.550  44.358 -28.249  1.00  0.00    -0.013 C 
HETATM   16  C16 UNL     1     -11.126  45.322 -28.997  1.00  0.00    -0.050 C 
HETATM   17  C17 UNL     1     -11.863  46.400 -28.247  1.00  0.00     0.043 C 
HETATM   18  C18 UNL     1     -10.830  46.922 -27.244  1.00  0.00     0.013 C 
HETATM   19  C19 UNL     1      -9.507  47.491 -27.942  1.00  0.00     0.039 C 
HETATM   20  C20 UNL     1      -9.537  47.680 -29.487  1.00  0.00     0.130 C 
HETATM   21  O4  UNL     1      -9.413  46.382 -30.074  1.00  0.00    -0.371 OA
HETATM   22  C21 UNL     1     -10.663  45.738 -30.354  1.00  0.00     0.185 C 
HETATM   23  C22 UNL     1     -10.461  44.754 -31.497  1.00  0.00    -0.006 A 
HETATM   24  C23 UNL     1     -10.921  43.428 -31.445  1.00  0.00     0.014 A 
HETATM   25  C24 UNL     1     -10.770  42.578 -32.546  1.00  0.00     0.037 A 
HETATM   26  C25 UNL     1     -10.177  43.053 -33.712  1.00  0.00     0.067 A 
HETATM   27  C26 UNL     1      -9.728  44.366 -33.807  1.00  0.00     0.057 A 
HETATM   28  C27 UNL     1      -9.864  45.210 -32.705  1.00  0.00     0.029 A 
HETATM   29  C28 UNL     1      -9.372  46.564 -32.775  1.00  0.00    -0.066 C 
HETATM   30  C29 UNL     1      -8.983  47.652 -32.433  1.00  0.00    -0.101 C 
HETATM   31  C30 UNL     1      -8.631  48.846 -31.622  1.00  0.00     0.103 C 
HETATM   32  C31 UNL     1      -8.388  48.535 -30.099  1.00  0.00     0.049 C 
HETATM   33  C33 UNL     1     -10.573  45.769 -26.136  1.00  0.00     0.102 A 
HETATM   34  C34 UNL     1      -9.454  46.232 -25.226  1.00  0.00     0.081 A 
HETATM   35  C35 UNL     1      -9.751  47.309 -24.364  1.00  0.00     0.006 C 
HETATM   36  C36 UNL     1      -8.836  47.767 -23.421  1.00  0.00     0.010 C 
HETATM   37  C37 UNL     1      -7.600  47.126 -23.249  1.00  0.00    -0.003 C 
HETATM   38  C38 UNL     1      -7.243  46.167 -24.227  1.00  0.00     0.010 C 
HETATM   39  C39 UNL     1      -8.157  45.732 -25.209  1.00  0.00     0.006 C 
HETATM   40  C40 UNL     1      -6.844  47.282 -21.881  1.00  0.00     0.170 C 
HETATM   41  O8  UNL     1      -6.547  45.979 -21.289  1.00  0.00    -0.316 OA
HETATM   42 NA1  UNL     1      -8.200  45.366 -25.327  1.00  0.00    -0.223 Na
ENDROOT
BRANCH  40  43
HETATM   43  C41 UNL     1      -5.503  48.064 -22.135  1.00  0.00     0.070 C 
BRANCH  43  44
HETATM   44  C42 UNL     1      -5.504  49.400 -22.899  1.00  0.00     0.043 C 
BRANCH  44  45
HETATM   45  C43 UNL     1      -4.706  49.453 -24.218  1.00  0.00     0.058 C 
HETATM   46  C44 UNL     1      -5.116  48.441 -25.285  1.00  0.00     0.038 C 
HETATM   47  C45 UNL     1      -3.915  48.384 -26.227  1.00  0.00     0.003 C 
HETATM   48  C46 UNL     1      -2.693  48.738 -25.376  1.00  0.00     0.003 C 
HETATM   49  C47 UNL     1      -3.230  49.093 -23.989  1.00  0.00     0.038 C 
BRANCH  45  50
HETATM   50  O7  UNL     1      -4.751  50.756 -24.809  1.00  0.00    -0.390 OA
HETATM   51  H44 UNL     1      -4.903  51.405 -24.090  1.00  0.00     0.210 HD
ENDBRANCH  45  50
ENDBRANCH  44  45
ENDBRANCH  43  44
ENDBRANCH  40  43
BRANCH  40  52
HETATM   52  N1  UNL     1      -7.599  48.221 -20.997  1.00  0.00    -0.336 N 
HETATM   53  C48 UNL     1      -7.362  48.291 -19.747  1.00  0.00     0.124 C 
HETATM   54  N2  UNL     1      -6.519  47.576 -18.976  1.00  0.00    -0.279 NA
HETATM   55  N3  UNL     1      -8.044  49.177 -18.987  1.00  0.00    -0.279 NA
HETATM   56  H53 UNL     1      -5.926  46.924 -19.486  1.00  0.00     0.126 HD
HETATM   57  H54 UNL     1      -5.983  48.133 -18.322  1.00  0.00     0.126 HD
HETATM   58  H55 UNL     1      -8.832  49.544 -19.513  1.00  0.00     0.126 HD
HETATM   59  H56 UNL     1      -8.357  48.756 -18.123  1.00  0.00     0.126 HD
ATOM     60  H1  UNL     1      -8.320  48.818 -21.402  1.00  0.00     0.165 HD
ENDBRANCH  40  52
BRANCH  13  61
HETATM   61  S1  UNL     1     -12.027  41.829 -26.331  1.00  0.00     0.106 S 
HETATM   62  O1  UNL     1     -12.608  42.226 -27.610  1.00  0.00    -0.595 OA
HETATM   63  O2  UNL     1     -12.866  42.195 -25.188  1.00  0.00    -0.595 OA
HETATM   64  O3  UNL     1     -11.504  40.462 -26.268  1.00  0.00    -0.595 OA
ENDBRANCH  13  61
BRANCH  32  65
HETATM   65  C32 UNL     1      -7.012  47.875 -29.912  1.00  0.00     0.172 C 
BRANCH  65  66
HETATM   66  O6  UNL     1      -6.325  48.493 -28.818  1.00  0.00    -0.400 OA
HETATM   67  H34 UNL     1      -6.706  48.128 -27.994  1.00  0.00     0.209 HD
ENDBRANCH  65  66
ENDBRANCH  32  65
BRANCH  26  68
HETATM   68  O5  UNL     1     -10.026  42.242 -34.803  1.00  0.00    -0.361 OA
HETATM   69  H27 UNL     1     -10.191  41.327 -34.513  1.00  0.00     0.217 HD
ENDBRANCH  26  68
TORSDOF 9
ENDMDL
MODEL 8
REMARK minimizedAffinity -11.0960379
REMARK CNNscore 0.105153784
REMARK CNNaffinity 7.25947952
REMARK  9 active torsions:
REMARK  status: ('A' for Active; 'I' for Inactive)
REMARK    1  A    between atoms: C13_13  and  S1_14 
REMARK    2  A    between atoms: C25_30  and  O5_31 
REMARK    3  A    between atoms: C31_37  and  C32_38 
REMARK    4  A    between atoms: C32_38  and  O6_39 
REMARK    5  A    between atoms: C40_47  and  C41_48 
REMARK    6  A    between atoms: C40_47  and  N1_56 
REMARK    7  A    between atoms: C41_48  and  C42_49 
REMARK    8  A    between atoms: C42_49  and  C43_50 
REMARK    9  A    between atoms: C43_50  and  O7_51 
REMARK       I    between atoms: C48_58  and  N2_59 
REMARK       I    between atoms: C48_58  and  N3_60 
ROOT
HETATM    1  C1  UNL     1      -7.478  45.593 -15.858  1.00  0.00     0.010 C 
HETATM    2  C2  UNL     1      -8.129  45.961 -17.181  1.00  0.00    -0.010 C 
HETATM    3  C3  UNL     1      -9.132  47.128 -16.976  1.00  0.00     0.009 C 
HETATM    4  C4  UNL     1      -9.479  47.926 -18.241  1.00  0.00     0.039 C 
HETATM    5  C5  UNL     1      -9.222  47.158 -19.507  1.00  0.00    -0.049 C 
HETATM    6  C6  UNL     1      -9.945  47.434 -20.668  1.00  0.00     0.044 C 
HETATM    7  C7  UNL     1      -9.631  46.755 -21.842  1.00  0.00     0.073 C 
HETATM    8  C8  UNL     1      -8.804  45.629 -21.793  1.00  0.00     0.037 C 
HETATM    9  C9  UNL     1      -8.015  45.403 -20.666  1.00  0.00     0.011 C 
HETATM   10  C10 UNL     1      -8.153  46.239 -19.557  1.00  0.00    -0.047 C 
HETATM   11  C11 UNL     1      -7.166  46.191 -18.388  1.00  0.00     0.024 C 
HETATM   12  C12 UNL     1      -6.342  47.519 -18.371  1.00  0.00     0.033 C 
HETATM   13  C13 UNL     1      -4.798  47.599 -18.300  1.00  0.00     0.140 C 
HETATM   14  C14 UNL     1      -3.808  47.571 -19.521  1.00  0.00     0.050 C 
HETATM   15  C15 UNL     1      -2.797  48.717 -19.395  1.00  0.00    -0.013 C 
HETATM   16  C16 UNL     1      -1.627  48.641 -20.062  1.00  0.00    -0.050 C 
HETATM   17  C17 UNL     1      -1.485  47.502 -21.036  1.00  0.00     0.043 C 
HETATM   18  C18 UNL     1      -2.711  47.638 -21.943  1.00  0.00     0.013 C 
HETATM   19  C19 UNL     1      -2.784  49.049 -22.696  1.00  0.00     0.039 C 
HETATM   20  C20 UNL     1      -1.526  49.964 -22.625  1.00  0.00     0.130 C 
HETATM   21  O4  UNL     1      -1.499  50.546 -21.318  1.00  0.00    -0.371 OA
HETATM   22  C21 UNL     1      -0.736  49.804 -20.357  1.00  0.00     0.185 C 
HETATM   23  C22 UNL     1      -0.242  50.760 -19.282  1.00  0.00    -0.006 A 
HETATM   24  C23 UNL     1      -0.377  50.493 -17.910  1.00  0.00     0.014 A 
HETATM   25  C24 UNL     1       0.151  51.371 -16.957  1.00  0.00     0.037 A 
HETATM   26  C25 UNL     1       0.836  52.511 -17.371  1.00  0.00     0.067 A 
HETATM   27  C26 UNL     1       1.006  52.797 -18.720  1.00  0.00     0.057 A 
HETATM   28  C27 UNL     1       0.467  51.931 -19.671  1.00  0.00     0.029 A 
HETATM   29  C28 UNL     1       0.604  52.232 -21.075  1.00  0.00    -0.066 C 
HETATM   30  C29 UNL     1       0.413  52.222 -22.264  1.00  0.00    -0.101 C 
HETATM   31  C30 UNL     1      -0.090  51.884 -23.621  1.00  0.00     0.103 C 
HETATM   32  C31 UNL     1      -1.487  51.160 -23.622  1.00  0.00     0.049 C 
HETATM   33  C33 UNL     1      -4.025  47.261 -21.076  1.00  0.00     0.102 A 
HETATM   34  C34 UNL     1      -5.246  47.527 -21.932  1.00  0.00     0.081 A 
HETATM   35  C35 UNL     1      -5.444  46.661 -23.028  1.00  0.00     0.006 C 
HETATM   36  C36 UNL     1      -6.574  46.749 -23.837  1.00  0.00     0.010 C 
HETATM   37  C37 UNL     1      -7.595  47.666 -23.546  1.00  0.00    -0.003 C 
HETATM   38  C38 UNL     1      -7.310  48.639 -22.559  1.00  0.00     0.010 C 
HETATM   39  C39 UNL     1      -6.145  48.574 -21.768  1.00  0.00     0.006 C 
HETATM   40  C40 UNL     1      -9.042  47.394 -24.094  1.00  0.00     0.170 C 
HETATM   41  O8  UNL     1     -10.025  47.381 -23.011  1.00  0.00    -0.316 OA
HETATM   42 NA1  UNL     1      -6.129  48.648 -21.388  1.00  0.00    -0.223 Na
ENDROOT
BRANCH  40  43
HETATM   43  C41 UNL     1      -9.410  48.525 -25.125  1.00  0.00     0.070 C 
BRANCH  43  44
HETATM   44  C42 UNL     1      -9.876  48.170 -26.547  1.00  0.00     0.043 C 
BRANCH  44  45
HETATM   45  C43 UNL     1     -11.397  48.044 -26.775  1.00  0.00     0.058 C 
HETATM   46  C44 UNL     1     -12.159  47.221 -25.738  1.00  0.00     0.038 C 
HETATM   47  C45 UNL     1     -13.470  46.865 -26.434  1.00  0.00     0.003 C 
HETATM   48  C46 UNL     1     -13.159  46.837 -27.932  1.00  0.00     0.003 C 
HETATM   49  C47 UNL     1     -11.703  47.281 -28.073  1.00  0.00     0.038 C 
BRANCH  45  50
HETATM   50  O7  UNL     1     -12.025  49.327 -26.862  1.00  0.00    -0.390 OA
HETATM   51  H44 UNL     1     -11.352  49.968 -27.173  1.00  0.00     0.210 HD
ENDBRANCH  45  50
ENDBRANCH  44  45
ENDBRANCH  43  44
ENDBRANCH  40  43
BRANCH  40  52
HETATM   52  N1  UNL     1      -9.031  46.171 -24.952  1.00  0.00    -0.336 N 
HETATM   53  C48 UNL     1      -8.220  46.051 -25.927  1.00  0.00     0.124 C 
HETATM   54  N2  UNL     1      -7.315  46.919 -26.424  1.00  0.00    -0.279 NA
HETATM   55  N3  UNL     1      -8.219  44.915 -26.659  1.00  0.00    -0.279 NA
HETATM   56  H53 UNL     1      -7.217  47.781 -25.890  1.00  0.00     0.126 HD
HETATM   57  H54 UNL     1      -6.416  46.505 -26.633  1.00  0.00     0.126 HD
HETATM   58  H55 UNL     1      -9.045  44.366 -26.439  1.00  0.00     0.126 HD
HETATM   59  H56 UNL     1      -8.176  45.114 -27.649  1.00  0.00     0.126 HD
ATOM     60  H1  UNL     1      -9.686  45.415 -24.753  1.00  0.00     0.165 HD
ENDBRANCH  40  52
BRANCH  13  61
HETATM   61  S1  UNL     1      -4.107  46.614 -16.923  1.00  0.00     0.106 S 
HETATM   62  O1  UNL     1      -5.253  45.856 -16.428  1.00  0.00    -0.595 OA
HETATM   63  O2  UNL     1      -3.611  47.592 -15.952  1.00  0.00    -0.595 OA
HETATM   64  O3  UNL     1      -3.051  45.824 -17.560  1.00  0.00    -0.595 OA
ENDBRANCH  13  61
BRANCH  32  65
HETATM   65  C32 UNL     1      -2.606  52.178 -23.350  1.00  0.00     0.172 C 
BRANCH  65  66
HETATM   66  O6  UNL     1      -2.761  53.039 -24.483  1.00  0.00    -0.400 OA
HETATM   67  H34 UNL     1      -3.264  52.541 -25.159  1.00  0.00     0.209 HD
ENDBRANCH  65  66
ENDBRANCH  32  65
BRANCH  26  68
HETATM   68  O5  UNL     1       1.367  53.379 -16.457  1.00  0.00    -0.361 OA
HETATM   69  H27 UNL     1       0.990  53.157 -15.587  1.00  0.00     0.217 HD
ENDBRANCH  26  68
TORSDOF 9
ENDMDL
MODEL 9
REMARK minimizedAffinity -9.41287041
REMARK CNNscore 0.100538127
REMARK CNNaffinity 6.91886759
REMARK  9 active torsions:
REMARK  status: ('A' for Active; 'I' for Inactive)
REMARK    1  A    between atoms: C13_13  and  S1_14 
REMARK    2  A    between atoms: C25_30  and  O5_31 
REMARK    3  A    between atoms: C31_37  and  C32_38 
REMARK    4  A    between atoms: C32_38  and  O6_39 
REMARK    5  A    between atoms: C40_47  and  C41_48 
REMARK    6  A    between atoms: C40_47  and  N1_56 
REMARK    7  A    between atoms: C41_48  and  C42_49 
REMARK    8  A    between atoms: C42_49  and  C43_50 
REMARK    9  A    between atoms: C43_50  and  O7_51 
REMARK       I    between atoms: C48_58  and  N2_59 
REMARK       I    between atoms: C48_58  and  N3_60 
ROOT
HETATM    1  C1  UNL     1      -6.107  45.442 -14.426  1.00  0.00     0.010 C 
HETATM    2  C2  UNL     1      -7.183  45.491 -15.497  1.00  0.00    -0.010 C 
HETATM    3  C3  UNL     1      -8.243  46.568 -15.141  1.00  0.00     0.009 C 
HETATM    4  C4  UNL     1      -9.083  47.078 -16.320  1.00  0.00     0.039 C 
HETATM    5  C5  UNL     1      -9.114  46.118 -17.476  1.00  0.00    -0.049 C 
HETATM    6  C6  UNL     1     -10.193  46.099 -18.360  1.00  0.00     0.044 C 
HETATM    7  C7  UNL     1     -10.156  45.250 -19.461  1.00  0.00     0.073 C 
HETATM    8  C8  UNL     1      -9.189  44.242 -19.529  1.00  0.00     0.037 C 
HETATM    9  C9  UNL     1      -8.066  44.310 -18.706  1.00  0.00     0.011 C 
HETATM   10  C10 UNL     1      -7.983  45.319 -17.746  1.00  0.00    -0.047 C 
HETATM   11  C11 UNL     1      -6.688  45.589 -16.975  1.00  0.00     0.024 C 
HETATM   12  C12 UNL     1      -6.117  46.974 -17.421  1.00  0.00     0.033 C 
HETATM   13  C13 UNL     1      -4.659  47.221 -17.877  1.00  0.00     0.140 C 
HETATM   14  C14 UNL     1      -4.103  47.068 -19.339  1.00  0.00     0.050 C 
HETATM   15  C15 UNL     1      -3.294  48.313 -19.720  1.00  0.00    -0.013 C 
HETATM   16  C16 UNL     1      -2.390  48.234 -20.718  1.00  0.00    -0.050 C 
HETATM   17  C17 UNL     1      -2.380  46.954 -21.512  1.00  0.00     0.043 C 
HETATM   18  C18 UNL     1      -3.832  46.795 -21.971  1.00  0.00     0.013 C 
HETATM   19  C19 UNL     1      -4.352  48.026 -22.851  1.00  0.00     0.039 C 
HETATM   20  C20 UNL     1      -3.293  49.062 -23.331  1.00  0.00     0.130 C 
HETATM   21  O4  UNL     1      -2.955  49.875 -22.204  1.00  0.00    -0.371 OA
HETATM   22  C21 UNL     1      -1.827  49.405 -21.454  1.00  0.00     0.185 C 
HETATM   23  C22 UNL     1      -1.179  50.590 -20.752  1.00  0.00    -0.006 A 
HETATM   24  C23 UNL     1      -0.841  50.569 -19.388  1.00  0.00     0.014 A 
HETATM   25  C24 UNL     1      -0.188  51.658 -18.800  1.00  0.00     0.037 A 
HETATM   26  C25 UNL     1       0.149  52.765 -19.575  1.00  0.00     0.067 A 
HETATM   27  C26 UNL     1      -0.153  52.812 -20.931  1.00  0.00     0.057 A 
HETATM   28  C27 UNL     1      -0.817  51.734 -21.516  1.00  0.00     0.029 A 
HETATM   29  C28 UNL     1      -1.169  51.782 -22.914  1.00  0.00    -0.066 C 
HETATM   30  C29 UNL     1      -1.714  51.532 -23.959  1.00  0.00    -0.101 C 
HETATM   31  C30 UNL     1      -2.553  50.899 -25.010  1.00  0.00     0.103 C 
HETATM   32  C31 UNL     1      -3.750  50.049 -24.445  1.00  0.00     0.049 C 
HETATM   33  C33 UNL     1      -4.738  46.454 -20.674  1.00  0.00     0.102 A 
HETATM   34  C34 UNL     1      -6.190  46.431 -21.106  1.00  0.00     0.081 A 
HETATM   35  C35 UNL     1      -6.580  45.362 -21.940  1.00  0.00     0.006 C 
HETATM   36  C36 UNL     1      -7.903  45.183 -22.333  1.00  0.00     0.010 C 
HETATM   37  C37 UNL     1      -8.914  46.030 -21.855  1.00  0.00    -0.003 C 
HETATM   38  C38 UNL     1      -8.494  47.193 -21.167  1.00  0.00     0.010 C 
HETATM   39  C39 UNL     1      -7.146  47.394 -20.805  1.00  0.00     0.006 C 
HETATM   40  C40 UNL     1     -10.399  45.516 -21.848  1.00  0.00     0.170 C 
HETATM   41  O8  UNL     1     -10.984  45.605 -20.511  1.00  0.00    -0.316 OA
HETATM   42 NA1  UNL     1      -7.025  47.539 -20.467  1.00  0.00    -0.223 Na
ENDROOT
BRANCH  40  43
HETATM   43  C41 UNL     1     -11.238  46.393 -22.850  1.00  0.00     0.070 C 
BRANCH  43  44
HETATM   44  C42 UNL     1     -12.647  46.885 -22.474  1.00  0.00     0.043 C 
BRANCH  44  45
HETATM   45  C43 UNL     1     -13.803  46.480 -23.411  1.00  0.00     0.058 C 
HETATM   46  C44 UNL     1     -13.576  46.740 -24.898  1.00  0.00     0.038 C 
HETATM   47  C45 UNL     1     -14.979  46.714 -25.501  1.00  0.00     0.003 C 
HETATM   48  C46 UNL     1     -15.927  47.150 -24.382  1.00  0.00     0.003 C 
HETATM   49  C47 UNL     1     -15.063  47.315 -23.132  1.00  0.00     0.038 C 
BRANCH  45  50
HETATM   50  O7  UNL     1     -14.150  45.100 -23.255  1.00  0.00    -0.390 OA
HETATM   51  H44 UNL     1     -13.896  44.830 -22.348  1.00  0.00     0.210 HD
ENDBRANCH  45  50
ENDBRANCH  44  45
ENDBRANCH  43  44
ENDBRANCH  40  43
BRANCH  40  52
HETATM   52  N1  UNL     1     -10.463  44.163 -22.478  1.00  0.00    -0.336 N 
HETATM   53  C48 UNL     1     -11.424  43.362 -22.236  1.00  0.00     0.124 C 
HETATM   54  N2  UNL     1     -12.473  43.484 -21.398  1.00  0.00    -0.279 NA
HETATM   55  N3  UNL     1     -11.462  42.159 -22.850  1.00  0.00    -0.279 NA
HETATM   56  H53 UNL     1     -12.546  44.390 -20.938  1.00  0.00     0.126 HD
HETATM   57  H54 UNL     1     -13.358  43.198 -21.798  1.00  0.00     0.126 HD
HETATM   58  H55 UNL     1     -10.567  41.972 -23.293  1.00  0.00     0.126 HD
HETATM   59  H56 UNL     1     -11.700  41.422 -22.201  1.00  0.00     0.126 HD
ATOM     60  H1  UNL     1      -9.721  43.872 -23.114  1.00  0.00     0.165 HD
ENDBRANCH  40  52
BRANCH  13  61
HETATM   61  S1  UNL     1      -3.432  46.584 -16.680  1.00  0.00     0.106 S 
HETATM   62  O1  UNL     1      -3.918  47.070 -15.392  1.00  0.00    -0.595 OA
HETATM   63  O2  UNL     1      -2.155  47.187 -17.069  1.00  0.00    -0.595 OA
HETATM   64  O3  UNL     1      -3.485  45.133 -16.872  1.00  0.00    -0.595 OA
ENDBRANCH  13  61
BRANCH  32  65
HETATM   65  C32 UNL     1      -4.875  50.982 -23.967  1.00  0.00     0.172 C 
BRANCH  65  66
HETATM   66  O6  UNL     1      -6.141  50.477 -24.405  1.00  0.00    -0.400 OA
HETATM   67  H34 UNL     1      -6.382  49.741 -23.806  1.00  0.00     0.209 HD
ENDBRANCH  65  66
ENDBRANCH  32  65
BRANCH  26  68
HETATM   68  O5  UNL     1       0.794  53.837 -19.023  1.00  0.00    -0.361 OA
HETATM   69  H27 UNL     1       0.744  53.743 -18.054  1.00  0.00     0.217 HD
ENDBRANCH  26  68
TORSDOF 9
ENDMDL
