MODEL 1
REMARK minimizedAffinity -8.16939449
REMARK CNNscore 0.357521892
REMARK CNNaffinity 6.11287069
REMARK  7 active torsions:
REMARK  status: ('A' for Active; 'I' for Inactive)
REMARK    1  A    between atoms: C5_5  and  C6_6 
REMARK    2  A    between atoms: C8_8  and  O1_9 
REMARK    3  A    between atoms: C10_11  and  C11_12 
REMARK    4  A    between atoms: C11_12  and  O2_13 
REMARK    5  A    between atoms: C20_24  and  O5_25 
REMARK    6  A    between atoms: C25_30  and  C26_31 
REMARK    7  A    between atoms: C26_31  and  O6_32 
ROOT
HETATM    1  C1  UNL     1      -8.995 -12.112   3.498  1.00  0.00     0.036 C 
HETATM    2  C2  UNL     1      -9.479 -10.802   4.034  1.00  0.00    -0.018 C 
HETATM    3  C3  UNL     1      -8.970 -10.085   5.061  1.00  0.00     0.015 C 
HETATM    4  C4  UNL     1      -9.557  -8.746   5.453  1.00  0.00     0.066 C 
HETATM    5  C5  UNL     1     -10.701  -8.750   6.506  1.00  0.00     0.102 C 
HETATM    6  C13 UNL     1     -10.177  -8.800   7.887  1.00  0.00    -0.096 C 
HETATM    7  C14 UNL     1      -9.682  -8.759   8.983  1.00  0.00    -0.096 C 
HETATM    8  C15 UNL     1      -8.928  -8.680  10.255  1.00  0.00     0.110 C 
HETATM    9  C16 UNL     1      -9.532  -9.636  11.270  1.00  0.00     0.133 C 
HETATM   10  C17 UNL     1      -8.699  -9.679  12.516  1.00  0.00     0.265 C 
HETATM   11  O3  UNL     1      -9.187  -9.616  13.640  1.00  0.00    -0.265 OA
HETATM   12  O4  UNL     1      -7.341  -9.888  12.319  1.00  0.00    -0.278 OA
HETATM   13  C18 UNL     1      -6.756  -9.640  11.067  1.00  0.00     0.089 A 
HETATM   14  C19 UNL     1      -5.426 -10.014  10.898  1.00  0.00     0.075 A 
HETATM   15  C20 UNL     1      -4.798  -9.763   9.680  1.00  0.00     0.074 A 
HETATM   16  C21 UNL     1      -5.475  -9.123   8.638  1.00  0.00    -0.022 A 
HETATM   17  C22 UNL     1      -6.796  -8.707   8.862  1.00  0.00     0.021 A 
HETATM   18  C23 UNL     1      -7.469  -9.012  10.051  1.00  0.00    -0.007 A 
HETATM   19  C24 UNL     1      -4.927  -8.995   7.229  1.00  0.00     0.077 C 
HETATM   20  C25 UNL     1      -5.521 -10.099   6.324  1.00  0.00     0.171 C 
HETATM   21  O8  UNL     1      -6.826  -9.648   5.868  1.00  0.00    -0.309 OA
HETATM   22  C36 UNL     1      -7.783 -10.611   5.781  1.00  0.00     0.289 C 
HETATM   23  O9  UNL     1      -7.661 -11.767   6.151  1.00  0.00    -0.260 OA
ENDROOT
BRANCH  20  24
HETATM   24  C26 UNL     1      -4.630 -10.477   5.083  1.00  0.00     0.089 C 
HETATM   25  C27 UNL     1      -5.432 -10.285   3.778  1.00  0.00     0.041 C 
HETATM   26  C28 UNL     1      -4.566 -10.449   2.526  1.00  0.00     0.004 C 
HETATM   27  C29 UNL     1      -3.474 -11.510   2.678  1.00  0.00     0.005 C 
HETATM   28  C30 UNL     1      -3.821 -12.562   3.737  1.00  0.00    -0.001 C 
HETATM   29  C31 UNL     1      -2.771 -13.684   3.725  1.00  0.00     0.083 C 
HETATM   30  C35 UNL     1      -4.040 -11.925   5.150  1.00  0.00     0.027 C 
HETATM   31  C32 UNL     1      -2.713 -14.368   5.066  1.00  0.00     0.127 C 
HETATM   32  O7  UNL     1      -2.881 -15.580   5.188  1.00  0.00    -0.298 OA
HETATM   33  C33 UNL     1      -2.376 -13.496   6.251  1.00  0.00     0.079 C 
HETATM   34  C34 UNL     1      -2.742 -12.037   5.980  1.00  0.00     0.015 C 
BRANCH  24  35
HETATM   35  O6  UNL     1      -3.526  -9.555   5.016  1.00  0.00    -0.387 OA
HETATM   36  H24 UNL     1      -3.863  -8.652   5.189  1.00  0.00     0.210 HD
ENDBRANCH  24  35
ENDBRANCH  20  24
BRANCH  15  37
HETATM   37  O5  UNL     1      -3.510 -10.194   9.558  1.00  0.00    -0.360 OA
HETATM   38  H19 UNL     1      -3.007  -9.529   9.062  1.00  0.00     0.217 HD
ENDBRANCH  15  37
BRANCH   5  39
HETATM   39  C6  UNL     1     -11.798  -9.760   6.210  1.00  0.00    -0.039 A 
HETATM   40  C7  UNL     1     -11.873 -10.999   6.865  1.00  0.00     0.045 A 
HETATM   41  C8  UNL     1     -12.864 -11.915   6.524  1.00  0.00     0.066 A 
HETATM   42  C9  UNL     1     -13.786 -11.637   5.521  1.00  0.00     0.045 A 
HETATM   43  C10 UNL     1     -13.716 -10.417   4.835  1.00  0.00    -0.032 A 
HETATM   44  C12 UNL     1     -12.736  -9.481   5.200  1.00  0.00     0.018 A 
BRANCH  41  45
HETATM   45  O1  UNL     1     -12.898 -13.093   7.209  1.00  0.00    -0.361 OA
HETATM   46  H9  UNL     1     -13.623 -13.641   6.871  1.00  0.00     0.217 HD
ENDBRANCH  41  45
BRANCH  43  47
HETATM   47  C11 UNL     1     -14.710 -10.087   3.754  1.00  0.00     0.203 C 
BRANCH  47  48
HETATM   48  O2  UNL     1     -14.178  -9.122   2.859  1.00  0.00    -0.396 OA
HETATM   49  H13 UNL     1     -13.293  -8.866   3.178  1.00  0.00     0.209 HD
ENDBRANCH  47  48
ENDBRANCH  43  47
ENDBRANCH   5  39
TORSDOF 7
ENDMDL
MODEL 2
REMARK minimizedAffinity -8.20383644
REMARK CNNscore 0.253918439
REMARK CNNaffinity 5.72733545
REMARK  7 active torsions:
REMARK  status: ('A' for Active; 'I' for Inactive)
REMARK    1  A    between atoms: C5_5  and  C6_6 
REMARK    2  A    between atoms: C8_8  and  O1_9 
REMARK    3  A    between atoms: C10_11  and  C11_12 
REMARK    4  A    between atoms: C11_12  and  O2_13 
REMARK    5  A    between atoms: C20_24  and  O5_25 
REMARK    6  A    between atoms: C25_30  and  C26_31 
REMARK    7  A    between atoms: C26_31  and  O6_32 
ROOT
HETATM    1  C1  UNL     1     -16.059  -7.522  12.308  1.00  0.00     0.036 C 
HETATM    2  C2  UNL     1     -15.042  -6.459  12.035  1.00  0.00    -0.018 C 
HETATM    3  C3  UNL     1     -14.929  -5.246  12.623  1.00  0.00     0.015 C 
HETATM    4  C4  UNL     1     -13.808  -4.297  12.259  1.00  0.00     0.066 C 
HETATM    5  C5  UNL     1     -14.066  -3.300  11.094  1.00  0.00     0.102 C 
HETATM    6  C13 UNL     1     -14.789  -2.095  11.553  1.00  0.00    -0.096 C 
HETATM    7  C14 UNL     1     -15.304  -1.108  12.008  1.00  0.00    -0.096 C 
HETATM    8  C15 UNL     1     -15.905   0.044  12.718  1.00  0.00     0.110 C 
HETATM    9  C16 UNL     1     -17.085   0.579  11.923  1.00  0.00     0.133 C 
HETATM   10  C17 UNL     1     -17.796   1.653  12.692  1.00  0.00     0.265 C 
HETATM   11  O3  UNL     1     -18.137   2.715  12.182  1.00  0.00    -0.265 OA
HETATM   12  O4  UNL     1     -18.128   1.330  14.001  1.00  0.00    -0.278 OA
HETATM   13  C18 UNL     1     -17.472   0.280  14.664  1.00  0.00     0.089 A 
HETATM   14  C19 UNL     1     -17.958  -0.087  15.916  1.00  0.00     0.075 A 
HETATM   15  C20 UNL     1     -17.322  -1.106  16.620  1.00  0.00     0.074 A 
HETATM   16  C21 UNL     1     -16.193  -1.747  16.100  1.00  0.00    -0.022 A 
HETATM   17  C22 UNL     1     -15.695  -1.313  14.862  1.00  0.00     0.021 A 
HETATM   18  C23 UNL     1     -16.360  -0.341  14.105  1.00  0.00    -0.007 A 
HETATM   19  C24 UNL     1     -15.571  -2.988  16.712  1.00  0.00     0.077 C 
HETATM   20  C25 UNL     1     -16.065  -4.252  15.972  1.00  0.00     0.171 C 
HETATM   21  O8  UNL     1     -15.249  -4.418  14.779  1.00  0.00    -0.309 OA
HETATM   22  C36 UNL     1     -15.904  -4.869  13.676  1.00  0.00     0.289 C 
HETATM   23  O9  UNL     1     -17.111  -5.032  13.585  1.00  0.00    -0.260 OA
ENDROOT
BRANCH  20  24
HETATM   24  C26 UNL     1     -16.022  -5.571  16.828  1.00  0.00     0.089 C 
HETATM   25  C27 UNL     1     -14.953  -6.533  16.266  1.00  0.00     0.041 C 
HETATM   26  C28 UNL     1     -14.725  -7.750  17.167  1.00  0.00     0.004 C 
HETATM   27  C29 UNL     1     -15.999  -8.241  17.857  1.00  0.00     0.005 C 
HETATM   28  C30 UNL     1     -17.269  -7.850  17.094  1.00  0.00    -0.001 C 
HETATM   29  C31 UNL     1     -18.495  -8.509  17.743  1.00  0.00     0.083 C 
HETATM   30  C35 UNL     1     -17.404  -6.298  16.934  1.00  0.00     0.027 C 
HETATM   31  C32 UNL     1     -19.742  -7.716  17.447  1.00  0.00     0.127 C 
HETATM   32  O7  UNL     1     -20.722  -8.220  16.903  1.00  0.00    -0.298 OA
HETATM   33  C33 UNL     1     -19.749  -6.279  17.909  1.00  0.00     0.079 C 
HETATM   34  C34 UNL     1     -18.326  -5.737  18.040  1.00  0.00     0.015 C 
BRANCH  24  35
HETATM   35  O6  UNL     1     -15.599  -5.235  18.163  1.00  0.00    -0.387 OA
HETATM   36  H24 UNL     1     -14.855  -4.601  18.103  1.00  0.00     0.210 HD
ENDBRANCH  24  35
ENDBRANCH  20  24
BRANCH  15  37
HETATM   37  O5  UNL     1     -17.871  -1.453  17.820  1.00  0.00    -0.360 OA
HETATM   38  H19 UNL     1     -17.153  -1.638  18.446  1.00  0.00     0.217 HD
ENDBRANCH  15  37
BRANCH   5  39
HETATM   39  C6  UNL     1     -14.652  -3.953   9.852  1.00  0.00    -0.039 A 
HETATM   40  C7  UNL     1     -15.910  -4.575   9.854  1.00  0.00     0.045 A 
HETATM   41  C8  UNL     1     -16.382  -5.207   8.708  1.00  0.00     0.066 A 
HETATM   42  C9  UNL     1     -15.620  -5.254   7.546  1.00  0.00     0.045 A 
HETATM   43  C10 UNL     1     -14.351  -4.662   7.527  1.00  0.00    -0.032 A 
HETATM   44  C12 UNL     1     -13.887  -3.998   8.673  1.00  0.00     0.018 A 
BRANCH  41  45
HETATM   45  O1  UNL     1     -17.620  -5.776   8.766  1.00  0.00    -0.361 OA
HETATM   46  H9  UNL     1     -17.825  -6.188   7.912  1.00  0.00     0.217 HD
ENDBRANCH  41  45
BRANCH  43  47
HETATM   47  C11 UNL     1     -13.511  -4.687   6.278  1.00  0.00     0.203 C 
BRANCH  47  48
HETATM   48  O2  UNL     1     -14.277  -4.299   5.148  1.00  0.00    -0.396 OA
HETATM   49  H13 UNL     1     -15.193  -4.140   5.441  1.00  0.00     0.209 HD
ENDBRANCH  47  48
ENDBRANCH  43  47
ENDBRANCH   5  39
TORSDOF 7
ENDMDL
MODEL 3
REMARK minimizedAffinity -8.99607563
REMARK CNNscore 0.246571794
REMARK CNNaffinity 5.96536493
REMARK  7 active torsions:
REMARK  status: ('A' for Active; 'I' for Inactive)
REMARK    1  A    between atoms: C5_5  and  C6_6 
REMARK    2  A    between atoms: C8_8  and  O1_9 
REMARK    3  A    between atoms: C10_11  and  C11_12 
REMARK    4  A    between atoms: C11_12  and  O2_13 
REMARK    5  A    between atoms: C20_24  and  O5_25 
REMARK    6  A    between atoms: C25_30  and  C26_31 
REMARK    7  A    between atoms: C26_31  and  O6_32 
ROOT
HETATM    1  C1  UNL     1      -8.047  -9.112   5.941  1.00  0.00     0.036 C 
HETATM    2  C2  UNL     1      -9.111  -9.635   5.029  1.00  0.00    -0.018 C 
HETATM    3  C3  UNL     1      -8.971 -10.092   3.764  1.00  0.00     0.015 C 
HETATM    4  C4  UNL     1     -10.151 -10.631   2.986  1.00  0.00     0.066 C 
HETATM    5  C5  UNL     1     -10.970  -9.617   2.137  1.00  0.00     0.102 C 
HETATM    6  C13 UNL     1     -10.350  -9.380   0.817  1.00  0.00    -0.096 C 
HETATM    7  C14 UNL     1      -9.837  -9.297  -0.269  1.00  0.00    -0.096 C 
HETATM    8  C15 UNL     1      -9.113  -9.322  -1.560  1.00  0.00     0.110 C 
HETATM    9  C16 UNL     1      -8.962  -7.907  -2.092  1.00  0.00     0.133 C 
HETATM   10  C17 UNL     1      -8.107  -7.895  -3.325  1.00  0.00     0.265 C 
HETATM   11  O3  UNL     1      -8.413  -7.271  -4.336  1.00  0.00    -0.265 OA
HETATM   12  O4  UNL     1      -6.895  -8.564  -3.218  1.00  0.00    -0.278 OA
HETATM   13  C18 UNL     1      -6.696  -9.521  -2.209  1.00  0.00     0.089 A 
HETATM   14  C19 UNL     1      -5.413 -10.041  -2.065  1.00  0.00     0.075 A 
HETATM   15  C20 UNL     1      -5.177 -11.011  -1.095  1.00  0.00     0.074 A 
HETATM   16  C21 UNL     1      -6.211 -11.487  -0.283  1.00  0.00    -0.022 A 
HETATM   17  C22 UNL     1      -7.504 -10.984  -0.493  1.00  0.00     0.021 A 
HETATM   18  C23 UNL     1      -7.751  -9.957  -1.413  1.00  0.00    -0.007 A 
HETATM   19  C24 UNL     1      -5.994 -12.388   0.917  1.00  0.00     0.077 C 
HETATM   20  C25 UNL     1      -5.975 -11.551   2.217  1.00  0.00     0.171 C 
HETATM   21  O8  UNL     1      -7.354 -11.326   2.622  1.00  0.00    -0.309 OA
HETATM   22  C36 UNL     1      -7.617 -10.102   3.153  1.00  0.00     0.289 C 
HETATM   23  O9  UNL     1      -6.832  -9.169   3.210  1.00  0.00    -0.260 OA
ENDROOT
BRANCH  20  24
HETATM   24  C26 UNL     1      -5.176 -12.205   3.405  1.00  0.00     0.089 C 
HETATM   25  C27 UNL     1      -6.093 -13.162   4.196  1.00  0.00     0.041 C 
HETATM   26  C28 UNL     1      -5.329 -13.976   5.244  1.00  0.00     0.004 C 
HETATM   27  C29 UNL     1      -4.182 -13.201   5.896  1.00  0.00     0.005 C 
HETATM   28  C30 UNL     1      -4.392 -11.684   5.840  1.00  0.00    -0.001 C 
HETATM   29  C31 UNL     1      -3.298 -10.973   6.651  1.00  0.00     0.083 C 
HETATM   30  C35 UNL     1      -4.519 -11.162   4.369  1.00  0.00     0.027 C 
HETATM   31  C32 UNL     1      -3.096  -9.567   6.149  1.00  0.00     0.127 C 
HETATM   32  O7  UNL     1      -3.199  -8.589   6.888  1.00  0.00    -0.298 OA
HETATM   33  C33 UNL     1      -2.700  -9.420   4.700  1.00  0.00     0.079 C 
HETATM   34  C34 UNL     1      -3.152 -10.630   3.883  1.00  0.00     0.015 C 
BRANCH  24  35
HETATM   35  O6  UNL     1      -4.124 -13.018   2.854  1.00  0.00    -0.387 OA
HETATM   36  H24 UNL     1      -4.485 -13.525   2.098  1.00  0.00     0.210 HD
ENDBRANCH  24  35
ENDBRANCH  20  24
BRANCH  15  37
HETATM   37  O5  UNL     1      -3.891 -11.448  -0.970  1.00  0.00    -0.360 OA
HETATM   38  H19 UNL     1      -3.904 -12.404  -0.803  1.00  0.00     0.217 HD
ENDBRANCH  15  37
BRANCH   5  39
HETATM   39  C6  UNL     1     -11.346  -8.353   2.894  1.00  0.00    -0.039 A 
HETATM   40  C7  UNL     1     -11.879  -8.387   4.192  1.00  0.00     0.045 A 
HETATM   41  C8  UNL     1     -12.259  -7.207   4.826  1.00  0.00     0.066 A 
HETATM   42  C9  UNL     1     -12.139  -5.978   4.189  1.00  0.00     0.045 A 
HETATM   43  C10 UNL     1     -11.633  -5.920   2.883  1.00  0.00    -0.032 A 
HETATM   44  C12 UNL     1     -11.221  -7.107   2.255  1.00  0.00     0.018 A 
BRANCH  41  45
HETATM   45  O1  UNL     1     -12.751  -7.303   6.093  1.00  0.00    -0.361 OA
HETATM   46  H9  UNL     1     -12.986  -6.418   6.415  1.00  0.00     0.217 HD
ENDBRANCH  41  45
BRANCH  43  47
HETATM   47  C11 UNL     1     -11.481  -4.600   2.176  1.00  0.00     0.203 C 
BRANCH  47  48
HETATM   48  O2  UNL     1     -11.112  -4.796   0.820  1.00  0.00    -0.396 OA
HETATM   49  H13 UNL     1     -11.004  -5.752   0.668  1.00  0.00     0.209 HD
ENDBRANCH  47  48
ENDBRANCH  43  47
ENDBRANCH   5  39
TORSDOF 7
ENDMDL
MODEL 4
REMARK minimizedAffinity -8.46069717
REMARK CNNscore 0.236956522
REMARK CNNaffinity 5.93984556
REMARK  7 active torsions:
REMARK  status: ('A' for Active; 'I' for Inactive)
REMARK    1  A    between atoms: C5_5  and  C6_6 
REMARK    2  A    between atoms: C8_8  and  O1_9 
REMARK    3  A    between atoms: C10_11  and  C11_12 
REMARK    4  A    between atoms: C11_12  and  O2_13 
REMARK    5  A    between atoms: C20_24  and  O5_25 
REMARK    6  A    between atoms: C25_30  and  C26_31 
REMARK    7  A    between atoms: C26_31  and  O6_32 
ROOT
HETATM    1  C1  UNL     1     -10.895 -12.411   4.607  1.00  0.00     0.036 C 
HETATM    2  C2  UNL     1     -10.903 -10.966   4.994  1.00  0.00    -0.018 C 
HETATM    3  C3  UNL     1      -9.923 -10.264   5.608  1.00  0.00     0.015 C 
HETATM    4  C4  UNL     1     -10.074  -8.786   5.893  1.00  0.00     0.066 C 
HETATM    5  C5  UNL     1     -10.709  -8.382   7.254  1.00  0.00     0.102 C 
HETATM    6  C13 UNL     1      -9.713  -8.378   8.346  1.00  0.00    -0.096 C 
HETATM    7  C14 UNL     1      -8.837  -8.316   9.168  1.00  0.00    -0.096 C 
HETATM    8  C15 UNL     1      -7.653  -8.257  10.054  1.00  0.00     0.110 C 
HETATM    9  C16 UNL     1      -7.978  -8.904  11.390  1.00  0.00     0.133 C 
HETATM   10  C17 UNL     1      -6.752  -8.984  12.250  1.00  0.00     0.265 C 
HETATM   11  O3  UNL     1      -6.753  -8.664  13.435  1.00  0.00    -0.265 OA
HETATM   12  O4  UNL     1      -5.631  -9.533  11.643  1.00  0.00    -0.278 OA
HETATM   13  C18 UNL     1      -5.537  -9.594  10.243  1.00  0.00     0.089 A 
HETATM   14  C19 UNL     1      -4.460 -10.292   9.705  1.00  0.00     0.075 A 
HETATM   15  C20 UNL     1      -4.313 -10.355   8.322  1.00  0.00     0.074 A 
HETATM   16  C21 UNL     1      -5.215  -9.711   7.470  1.00  0.00    -0.022 A 
HETATM   17  C22 UNL     1      -6.257  -8.968   8.047  1.00  0.00     0.021 A 
HETATM   18  C23 UNL     1      -6.464  -8.950   9.431  1.00  0.00    -0.007 A 
HETATM   19  C24 UNL     1      -5.235  -9.899   5.965  1.00  0.00     0.077 C 
HETATM   20  C25 UNL     1      -6.312 -10.937   5.571  1.00  0.00     0.171 C 
HETATM   21  O8  UNL     1      -7.593 -10.250   5.513  1.00  0.00    -0.309 OA
HETATM   22  C36 UNL     1      -8.661 -10.961   5.964  1.00  0.00     0.289 C 
HETATM   23  O9  UNL     1      -8.609 -12.056   6.501  1.00  0.00    -0.260 OA
ENDROOT
BRANCH  20  24
HETATM   24  C26 UNL     1      -6.044 -11.671   4.206  1.00  0.00     0.089 C 
HETATM   25  C27 UNL     1      -6.240 -13.192   4.374  1.00  0.00     0.041 C 
HETATM   26  C28 UNL     1      -6.185 -13.944   3.042  1.00  0.00     0.004 C 
HETATM   27  C29 UNL     1      -5.190 -13.344   2.048  1.00  0.00     0.005 C 
HETATM   28  C30 UNL     1      -4.073 -12.553   2.739  1.00  0.00    -0.001 C 
HETATM   29  C31 UNL     1      -3.022 -12.119   1.706  1.00  0.00     0.083 C 
HETATM   30  C35 UNL     1      -4.635 -11.369   3.596  1.00  0.00     0.027 C 
HETATM   31  C32 UNL     1      -2.286 -10.894   2.183  1.00  0.00     0.127 C 
HETATM   32  O7  UNL     1      -1.062 -10.870   2.296  1.00  0.00    -0.298 OA
HETATM   33  C33 UNL     1      -3.126  -9.671   2.460  1.00  0.00     0.079 C 
HETATM   34  C34 UNL     1      -4.569 -10.058   2.781  1.00  0.00     0.015 C 
BRANCH  24  35
HETATM   35  O6  UNL     1      -7.036 -11.240   3.254  1.00  0.00    -0.387 OA
HETATM   36  H24 UNL     1      -7.907 -11.222   3.700  1.00  0.00     0.210 HD
ENDBRANCH  24  35
ENDBRANCH  20  24
BRANCH  15  37
HETATM   37  O5  UNL     1      -3.265 -11.092   7.853  1.00  0.00    -0.360 OA
HETATM   38  H19 UNL     1      -2.884 -10.635   7.087  1.00  0.00     0.217 HD
ENDBRANCH  15  37
BRANCH   5  39
HETATM   39  C6  UNL     1     -11.993  -9.132   7.573  1.00  0.00    -0.039 A 
HETATM   40  C7  UNL     1     -12.025 -10.222   8.457  1.00  0.00     0.045 A 
HETATM   41  C8  UNL     1     -13.214 -10.912   8.677  1.00  0.00     0.066 A 
HETATM   42  C9  UNL     1     -14.385 -10.555   8.020  1.00  0.00     0.045 A 
HETATM   43  C10 UNL     1     -14.373  -9.487   7.113  1.00  0.00    -0.032 A 
HETATM   44  C12 UNL     1     -13.182  -8.771   6.914  1.00  0.00     0.018 A 
BRANCH  41  45
HETATM   45  O1  UNL     1     -13.186 -11.949   9.562  1.00  0.00    -0.361 OA
HETATM   46  H9  UNL     1     -14.068 -12.348   9.617  1.00  0.00     0.217 HD
ENDBRANCH  41  45
BRANCH  43  47
HETATM   47  C11 UNL     1     -15.631  -9.073   6.398  1.00  0.00     0.203 C 
BRANCH  47  48
HETATM   48  O2  UNL     1     -15.579  -7.699   6.044  1.00  0.00    -0.396 OA
HETATM   49  H13 UNL     1     -14.745  -7.328   6.384  1.00  0.00     0.209 HD
ENDBRANCH  47  48
ENDBRANCH  43  47
ENDBRANCH   5  39
TORSDOF 7
ENDMDL
MODEL 5
REMARK minimizedAffinity -10.7423306
REMARK CNNscore 0.232076719
REMARK CNNaffinity 6.56113672
REMARK  7 active torsions:
REMARK  status: ('A' for Active; 'I' for Inactive)
REMARK    1  A    between atoms: C5_5  and  C6_6 
REMARK    2  A    between atoms: C8_8  and  O1_9 
REMARK    3  A    between atoms: C10_11  and  C11_12 
REMARK    4  A    between atoms: C11_12  and  O2_13 
REMARK    5  A    between atoms: C20_24  and  O5_25 
REMARK    6  A    between atoms: C25_30  and  C26_31 
REMARK    7  A    between atoms: C26_31  and  O6_32 
ROOT
HETATM    1  C1  UNL     1       2.887  11.245  17.738  1.00  0.00     0.036 C 
HETATM    2  C2  UNL     1       2.187   9.960  17.425  1.00  0.00    -0.018 C 
HETATM    3  C3  UNL     1       2.406   9.127  16.383  1.00  0.00     0.015 C 
HETATM    4  C4  UNL     1       1.634   7.834  16.233  1.00  0.00     0.066 C 
HETATM    5  C5  UNL     1       0.300   7.887  15.436  1.00  0.00     0.102 C 
HETATM    6  C13 UNL     1       0.527   7.791  13.979  1.00  0.00    -0.096 C 
HETATM    7  C14 UNL     1       0.777   7.627  12.813  1.00  0.00    -0.096 C 
HETATM    8  C15 UNL     1       1.238   7.386  11.427  1.00  0.00     0.110 C 
HETATM    9  C16 UNL     1       0.522   8.331  10.476  1.00  0.00     0.133 C 
HETATM   10  C17 UNL     1       1.078   8.204   9.089  1.00  0.00     0.265 C 
HETATM   11  O3  UNL     1       0.362   8.119   8.095  1.00  0.00    -0.265 OA
HETATM   12  O4  UNL     1       2.460   8.283   8.989  1.00  0.00    -0.278 OA
HETATM   13  C18 UNL     1       3.269   8.059  10.115  1.00  0.00     0.089 A 
HETATM   14  C19 UNL     1       4.633   8.302   9.980  1.00  0.00     0.075 A 
HETATM   15  C20 UNL     1       5.476   8.068  11.063  1.00  0.00     0.074 A 
HETATM   16  C21 UNL     1       4.978   7.572  12.272  1.00  0.00    -0.022 A 
HETATM   17  C22 UNL     1       3.607   7.282  12.355  1.00  0.00     0.021 A 
HETATM   18  C23 UNL     1       2.731   7.577  11.303  1.00  0.00    -0.007 A 
HETATM   19  C24 UNL     1       5.794   7.481  13.546  1.00  0.00     0.077 C 
HETATM   20  C25 UNL     1       5.503   8.698  14.454  1.00  0.00     0.171 C 
HETATM   21  O8  UNL     1       4.287   8.417  15.201  1.00  0.00    -0.309 OA
HETATM   22  C36 UNL     1       3.458   9.477  15.396  1.00  0.00     0.289 C 
HETATM   23  O9  UNL     1       3.602  10.588  14.911  1.00  0.00    -0.260 OA
ENDROOT
BRANCH  20  24
HETATM   24  C26 UNL     1       6.662   9.062  15.454  1.00  0.00     0.089 C 
HETATM   25  C27 UNL     1       6.341  10.385  16.180  1.00  0.00     0.041 C 
HETATM   26  C28 UNL     1       7.333  10.696  17.304  1.00  0.00     0.004 C 
HETATM   27  C29 UNL     1       8.762  10.250  16.991  1.00  0.00     0.005 C 
HETATM   28  C30 UNL     1       9.033  10.156  15.486  1.00  0.00    -0.001 C 
HETATM   29  C31 UNL     1      10.521   9.868  15.237  1.00  0.00     0.083 C 
HETATM   30  C35 UNL     1       8.072   9.142  14.778  1.00  0.00     0.027 C 
HETATM   31  C32 UNL     1      10.713   9.188  13.906  1.00  0.00     0.127 C 
HETATM   32  O7  UNL     1      11.451   9.650  13.037  1.00  0.00    -0.298 OA
HETATM   33  C33 UNL     1       9.997   7.873  13.714  1.00  0.00     0.079 C 
HETATM   34  C34 UNL     1       8.776   7.775  14.626  1.00  0.00     0.015 C 
BRANCH  24  35
HETATM   35  O6  UNL     1       6.721   8.047  16.473  1.00  0.00    -0.387 OA
HETATM   36  H24 UNL     1       5.808   7.835  16.755  1.00  0.00     0.210 HD
ENDBRANCH  24  35
ENDBRANCH  20  24
BRANCH  15  37
HETATM   37  O5  UNL     1       6.794   8.369  10.886  1.00  0.00    -0.360 OA
HETATM   38  H19 UNL     1       7.329   7.690  11.326  1.00  0.00     0.217 HD
ENDBRANCH  15  37
BRANCH   5  39
HETATM   39  C6  UNL     1      -0.617   9.024  15.858  1.00  0.00    -0.039 A 
HETATM   40  C7  UNL     1      -1.702   8.829  16.727  1.00  0.00     0.045 A 
HETATM   41  C8  UNL     1      -2.547   9.889  17.045  1.00  0.00     0.066 A 
HETATM   42  C9  UNL     1      -2.351  11.153  16.500  1.00  0.00     0.045 A 
HETATM   43  C10 UNL     1      -1.290  11.367  15.610  1.00  0.00    -0.032 A 
HETATM   44  C12 UNL     1      -0.419  10.305  15.314  1.00  0.00     0.018 A 
BRANCH  41  45
HETATM   45  O1  UNL     1      -3.571   9.642  17.909  1.00  0.00    -0.361 OA
HETATM   46  H9  UNL     1      -4.086  10.454  18.038  1.00  0.00     0.217 HD
ENDBRANCH  41  45
BRANCH  43  47
HETATM   47  C11 UNL     1      -1.048  12.729  15.017  1.00  0.00     0.203 C 
BRANCH  47  48
HETATM   48  O2  UNL     1      -1.437  12.759  13.653  1.00  0.00    -0.396 OA
HETATM   49  H13 UNL     1      -1.741  11.868  13.402  1.00  0.00     0.209 HD
ENDBRANCH  47  48
ENDBRANCH  43  47
ENDBRANCH   5  39
TORSDOF 7
ENDMDL
MODEL 6
REMARK minimizedAffinity -11.5242262
REMARK CNNscore 0.231761023
REMARK CNNaffinity 6.73314667
REMARK  7 active torsions:
REMARK  status: ('A' for Active; 'I' for Inactive)
REMARK    1  A    between atoms: C5_5  and  C6_6 
REMARK    2  A    between atoms: C8_8  and  O1_9 
REMARK    3  A    between atoms: C10_11  and  C11_12 
REMARK    4  A    between atoms: C11_12  and  O2_13 
REMARK    5  A    between atoms: C20_24  and  O5_25 
REMARK    6  A    between atoms: C25_30  and  C26_31 
REMARK    7  A    between atoms: C26_31  and  O6_32 
ROOT
HETATM    1  C1  UNL     1      -6.371   8.763  14.968  1.00  0.00     0.036 C 
HETATM    2  C2  UNL     1      -5.605   7.519  15.289  1.00  0.00    -0.018 C 
HETATM    3  C3  UNL     1      -4.267   7.329  15.233  1.00  0.00     0.015 C 
HETATM    4  C4  UNL     1      -3.642   6.010  15.635  1.00  0.00     0.066 C 
HETATM    5  C5  UNL     1      -3.471   4.934  14.525  1.00  0.00     0.102 C 
HETATM    6  C13 UNL     1      -2.240   5.151  13.736  1.00  0.00    -0.096 C 
HETATM    7  C14 UNL     1      -1.184   5.337  13.190  1.00  0.00    -0.096 C 
HETATM    8  C15 UNL     1       0.146   5.677  12.636  1.00  0.00     0.110 C 
HETATM    9  C16 UNL     1       0.108   5.597  11.120  1.00  0.00     0.133 C 
HETATM   10  C17 UNL     1       1.403   6.075  10.533  1.00  0.00     0.265 C 
HETATM   11  O3  UNL     1       1.990   5.467   9.643  1.00  0.00    -0.265 OA
HETATM   12  O4  UNL     1       1.851   7.304  10.997  1.00  0.00    -0.278 OA
HETATM   13  C18 UNL     1       1.369   7.826  12.208  1.00  0.00     0.089 A 
HETATM   14  C19 UNL     1       1.744   9.126  12.537  1.00  0.00     0.075 A 
HETATM   15  C20 UNL     1       1.311   9.675  13.742  1.00  0.00     0.074 A 
HETATM   16  C21 UNL     1       0.528   8.933  14.633  1.00  0.00    -0.022 A 
HETATM   17  C22 UNL     1       0.217   7.607  14.296  1.00  0.00     0.021 A 
HETATM   18  C23 UNL     1       0.582   7.059  13.060  1.00  0.00    -0.007 A 
HETATM   19  C24 UNL     1      -0.141   9.523  15.859  1.00  0.00     0.077 C 
HETATM   20  C25 UNL     1      -1.620   9.855  15.552  1.00  0.00     0.171 C 
HETATM   21  O8  UNL     1      -2.392   8.632  15.706  1.00  0.00    -0.309 OA
HETATM   22  C36 UNL     1      -3.402   8.459  14.812  1.00  0.00     0.289 C 
HETATM   23  O9  UNL     1      -3.629   9.176  13.851  1.00  0.00    -0.260 OA
ENDROOT
BRANCH  20  24
HETATM   24  C26 UNL     1      -2.238  10.986  16.455  1.00  0.00     0.089 C 
HETATM   25  C27 UNL     1      -2.775  12.133  15.573  1.00  0.00     0.041 C 
HETATM   26  C28 UNL     1      -3.561  13.174  16.376  1.00  0.00     0.004 C 
HETATM   27  C29 UNL     1      -3.003  13.402  17.782  1.00  0.00     0.005 C 
HETATM   28  C30 UNL     1      -1.517  13.045  17.890  1.00  0.00    -0.001 C 
HETATM   29  C31 UNL     1      -0.979  13.450  19.271  1.00  0.00     0.083 C 
HETATM   30  C35 UNL     1      -1.245  11.545  17.528  1.00  0.00     0.027 C 
HETATM   31  C32 UNL     1       0.219  12.613  19.639  1.00  0.00     0.127 C 
HETATM   32  O7  UNL     1       1.304  13.116  19.924  1.00  0.00    -0.298 OA
HETATM   33  C33 UNL     1       0.003  11.120  19.699  1.00  0.00     0.079 C 
HETATM   34  C34 UNL     1      -1.175  10.701  18.820  1.00  0.00     0.015 C 
BRANCH  24  35
HETATM   35  O6  UNL     1      -3.376  10.444  17.149  1.00  0.00    -0.387 OA
HETATM   36  H24 UNL     1      -3.898   9.906  16.519  1.00  0.00     0.210 HD
ENDBRANCH  24  35
ENDBRANCH  20  24
BRANCH  15  37
HETATM   37  O5  UNL     1       1.671  10.967  13.987  1.00  0.00    -0.360 OA
HETATM   38  H19 UNL     1       1.890  11.054  14.928  1.00  0.00     0.217 HD
ENDBRANCH  15  37
BRANCH   5  39
HETATM   39  C6  UNL     1      -4.724   4.713  13.693  1.00  0.00    -0.039 A 
HETATM   40  C7  UNL     1      -5.948   5.323  14.004  1.00  0.00     0.045 A 
HETATM   41  C8  UNL     1      -7.082   5.049  13.245  1.00  0.00     0.066 A 
HETATM   42  C9  UNL     1      -7.036   4.158  12.179  1.00  0.00     0.045 A 
HETATM   43  C10 UNL     1      -5.831   3.517  11.864  1.00  0.00    -0.032 A 
HETATM   44  C12 UNL     1      -4.680   3.816  12.610  1.00  0.00     0.018 A 
BRANCH  41  45
HETATM   45  O1  UNL     1      -8.238   5.687  13.584  1.00  0.00    -0.361 OA
HETATM   46  H9  UNL     1      -8.949   5.404  12.988  1.00  0.00     0.217 HD
ENDBRANCH  41  45
BRANCH  43  47
HETATM   47  C11 UNL     1      -5.751   2.557  10.707  1.00  0.00     0.203 C 
BRANCH  47  48
HETATM   48  O2  UNL     1      -6.356   1.317  11.039  1.00  0.00    -0.396 OA
HETATM   49  H13 UNL     1      -6.654   1.362  11.965  1.00  0.00     0.209 HD
ENDBRANCH  47  48
ENDBRANCH  43  47
ENDBRANCH   5  39
TORSDOF 7
ENDMDL
MODEL 7
REMARK minimizedAffinity -11.7554798
REMARK CNNscore 0.187288612
REMARK CNNaffinity 6.87880325
REMARK  7 active torsions:
REMARK  status: ('A' for Active; 'I' for Inactive)
REMARK    1  A    between atoms: C5_5  and  C6_6 
REMARK    2  A    between atoms: C8_8  and  O1_9 
REMARK    3  A    between atoms: C10_11  and  C11_12 
REMARK    4  A    between atoms: C11_12  and  O2_13 
REMARK    5  A    between atoms: C20_24  and  O5_25 
REMARK    6  A    between atoms: C25_30  and  C26_31 
REMARK    7  A    between atoms: C26_31  and  O6_32 
ROOT
HETATM    1  C1  UNL     1      -6.110   8.596  15.054  1.00  0.00     0.036 C 
HETATM    2  C2  UNL     1      -5.333   7.337  15.279  1.00  0.00    -0.018 C 
HETATM    3  C3  UNL     1      -3.997   7.156  15.176  1.00  0.00     0.015 C 
HETATM    4  C4  UNL     1      -3.359   5.818  15.481  1.00  0.00     0.066 C 
HETATM    5  C5  UNL     1      -3.215   4.811  14.304  1.00  0.00     0.102 C 
HETATM    6  C13 UNL     1      -2.006   5.079  13.497  1.00  0.00    -0.096 C 
HETATM    7  C14 UNL     1      -0.967   5.302  12.934  1.00  0.00    -0.096 C 
HETATM    8  C15 UNL     1       0.348   5.679  12.367  1.00  0.00     0.110 C 
HETATM    9  C16 UNL     1       0.269   5.689  10.850  1.00  0.00     0.133 C 
HETATM   10  C17 UNL     1       1.547   6.207  10.258  1.00  0.00     0.265 C 
HETATM   11  O3  UNL     1       2.111   5.655   9.318  1.00  0.00    -0.265 OA
HETATM   12  O4  UNL     1       2.005   7.407  10.783  1.00  0.00    -0.278 OA
HETATM   13  C18 UNL     1       1.555   7.854  12.036  1.00  0.00     0.089 A 
HETATM   14  C19 UNL     1       1.936   9.133  12.433  1.00  0.00     0.075 A 
HETATM   15  C20 UNL     1       1.535   9.607  13.679  1.00  0.00     0.074 A 
HETATM   16  C21 UNL     1       0.778   8.811  14.544  1.00  0.00    -0.022 A 
HETATM   17  C22 UNL     1       0.460   7.506  14.138  1.00  0.00     0.021 A 
HETATM   18  C23 UNL     1       0.792   7.034  12.861  1.00  0.00    -0.007 A 
HETATM   19  C24 UNL     1       0.141   9.324  15.821  1.00  0.00     0.077 C 
HETATM   20  C25 UNL     1      -1.347   9.668  15.575  1.00  0.00     0.171 C 
HETATM   21  O8  UNL     1      -2.112   8.435  15.675  1.00  0.00    -0.309 OA
HETATM   22  C36 UNL     1      -3.145   8.312  14.800  1.00  0.00     0.289 C 
HETATM   23  O9  UNL     1      -3.400   9.085  13.890  1.00  0.00    -0.260 OA
ENDROOT
BRANCH  20  24
HETATM   24  C26 UNL     1      -1.942  10.740  16.560  1.00  0.00     0.089 C 
HETATM   25  C27 UNL     1      -2.849  10.055  17.604  1.00  0.00     0.041 C 
HETATM   26  C28 UNL     1      -3.305  11.014  18.708  1.00  0.00     0.004 C 
HETATM   27  C29 UNL     1      -3.548  12.439  18.210  1.00  0.00     0.005 C 
HETATM   28  C30 UNL     1      -3.872  12.492  16.713  1.00  0.00    -0.001 C 
HETATM   29  C31 UNL     1      -4.267  13.921  16.312  1.00  0.00     0.083 C 
HETATM   30  C35 UNL     1      -2.719  11.893  15.840  1.00  0.00     0.027 C 
HETATM   31  C32 UNL     1      -4.002  14.152  14.846  1.00  0.00     0.127 C 
HETATM   32  O7  UNL     1      -4.886  14.517  14.073  1.00  0.00    -0.298 OA
HETATM   33  C33 UNL     1      -2.577  13.969  14.384  1.00  0.00     0.079 C 
HETATM   34  C34 UNL     1      -1.813  13.031  15.318  1.00  0.00     0.015 C 
BRANCH  24  35
HETATM   35  O6  UNL     1      -0.858  11.335  17.297  1.00  0.00    -0.387 OA
HETATM   36  H24 UNL     1      -0.243  10.625  17.574  1.00  0.00     0.210 HD
ENDBRANCH  24  35
ENDBRANCH  20  24
BRANCH  15  37
HETATM   37  O5  UNL     1       1.898  10.884  13.992  1.00  0.00    -0.360 OA
HETATM   38  H19 UNL     1       2.142  10.914  14.930  1.00  0.00     0.217 HD
ENDBRANCH  15  37
BRANCH   5  39
HETATM   39  C6  UNL     1      -4.490   4.635  13.494  1.00  0.00    -0.039 A 
HETATM   40  C7  UNL     1      -5.644   5.395  13.738  1.00  0.00     0.045 A 
HETATM   41  C8  UNL     1      -6.805   5.163  13.006  1.00  0.00     0.066 A 
HETATM   42  C9  UNL     1      -6.857   4.169  12.036  1.00  0.00     0.045 A 
HETATM   43  C10 UNL     1      -5.725   3.380  11.791  1.00  0.00    -0.032 A 
HETATM   44  C12 UNL     1      -4.545   3.635  12.508  1.00  0.00     0.018 A 
BRANCH  41  45
HETATM   45  O1  UNL     1      -7.887   5.947  13.275  1.00  0.00    -0.361 OA
HETATM   46  H9  UNL     1      -8.628   5.678  12.708  1.00  0.00     0.217 HD
ENDBRANCH  41  45
BRANCH  43  47
HETATM   47  C11 UNL     1      -5.751   2.306  10.737  1.00  0.00     0.203 C 
BRANCH  47  48
HETATM   48  O2  UNL     1      -6.456   1.165  11.199  1.00  0.00    -0.396 OA
HETATM   49  H13 UNL     1      -6.732   1.328  12.119  1.00  0.00     0.209 HD
ENDBRANCH  47  48
ENDBRANCH  43  47
ENDBRANCH   5  39
TORSDOF 7
ENDMDL
MODEL 8
REMARK minimizedAffinity -9.25685978
REMARK CNNscore 0.169481754
REMARK CNNaffinity 5.18333817
REMARK  7 active torsions:
REMARK  status: ('A' for Active; 'I' for Inactive)
REMARK    1  A    between atoms: C5_5  and  C6_6 
REMARK    2  A    between atoms: C8_8  and  O1_9 
REMARK    3  A    between atoms: C10_11  and  C11_12 
REMARK    4  A    between atoms: C11_12  and  O2_13 
REMARK    5  A    between atoms: C20_24  and  O5_25 
REMARK    6  A    between atoms: C25_30  and  C26_31 
REMARK    7  A    between atoms: C26_31  and  O6_32 
ROOT
HETATM    1  C1  UNL     1       6.217  10.315  14.741  1.00  0.00     0.036 C 
HETATM    2  C2  UNL     1       4.887  10.824  15.197  1.00  0.00    -0.018 C 
HETATM    3  C3  UNL     1       4.556  11.313  16.413  1.00  0.00     0.015 C 
HETATM    4  C4  UNL     1       3.164  11.831  16.702  1.00  0.00     0.066 C 
HETATM    5  C5  UNL     1       2.119  10.810  17.236  1.00  0.00     0.102 C 
HETATM    6  C13 UNL     1       2.232  10.622  18.697  1.00  0.00    -0.096 C 
HETATM    7  C14 UNL     1       2.325  10.579  19.896  1.00  0.00    -0.096 C 
HETATM    8  C15 UNL     1       2.541  10.656  21.359  1.00  0.00     0.110 C 
HETATM    9  C16 UNL     1       2.523   9.259  21.956  1.00  0.00     0.133 C 
HETATM   10  C17 UNL     1       2.882   9.302  23.411  1.00  0.00     0.265 C 
HETATM   11  O3  UNL     1       2.249   8.690  24.266  1.00  0.00    -0.265 OA
HETATM   12  O4  UNL     1       4.037  10.006  23.721  1.00  0.00    -0.278 OA
HETATM   13  C18 UNL     1       4.561  10.947  22.819  1.00  0.00     0.089 A 
HETATM   14  C19 UNL     1       5.799  11.504  23.126  1.00  0.00     0.075 A 
HETATM   15  C20 UNL     1       6.345  12.460  22.273  1.00  0.00     0.074 A 
HETATM   16  C21 UNL     1       5.658  12.884  21.131  1.00  0.00    -0.022 A 
HETATM   17  C22 UNL     1       4.387  12.345  20.883  1.00  0.00     0.021 A 
HETATM   18  C23 UNL     1       3.851  11.331  21.687  1.00  0.00    -0.007 A 
HETATM   19  C24 UNL     1       6.269  13.766  20.059  1.00  0.00     0.077 C 
HETATM   20  C25 UNL     1       6.769  12.901  18.878  1.00  0.00     0.171 C 
HETATM   21  O8  UNL     1       5.631  12.623  18.016  1.00  0.00    -0.309 OA
HETATM   22  C36 UNL     1       5.602  11.380  17.465  1.00  0.00     0.289 C 
HETATM   23  O9  UNL     1       6.376  10.472  17.722  1.00  0.00    -0.260 OA
ENDROOT
BRANCH  20  24
HETATM   24  C26 UNL     1       7.925  13.554  18.033  1.00  0.00     0.089 C 
HETATM   25  C27 UNL     1       7.566  13.521  16.532  1.00  0.00     0.041 C 
HETATM   26  C28 UNL     1       8.557  14.312  15.673  1.00  0.00     0.004 C 
HETATM   27  C29 UNL     1       9.997  14.233  16.181  1.00  0.00     0.005 C 
HETATM   28  C30 UNL     1      10.258  12.974  17.015  1.00  0.00    -0.001 C 
HETATM   29  C31 UNL     1      11.753  12.870  17.353  1.00  0.00     0.083 C 
HETATM   30  C35 UNL     1       9.325  12.897  18.270  1.00  0.00     0.027 C 
HETATM   31  C32 UNL     1      11.956  12.059  18.607  1.00  0.00     0.127 C 
HETATM   32  O7  UNL     1      12.672  11.059  18.629  1.00  0.00    -0.298 OA
HETATM   33  C33 UNL     1      11.282  12.573  19.856  1.00  0.00     0.079 C 
HETATM   34  C34 UNL     1      10.072  13.439  19.510  1.00  0.00     0.015 C 
BRANCH  24  35
HETATM   35  O6  UNL     1       8.024  14.944  18.393  1.00  0.00    -0.387 OA
HETATM   36  H24 UNL     1       7.121  15.315  18.456  1.00  0.00     0.210 HD
ENDBRANCH  24  35
ENDBRANCH  20  24
BRANCH  15  37
HETATM   37  O5  UNL     1       7.581  12.935  22.600  1.00  0.00    -0.360 OA
HETATM   38  H19 UNL     1       7.607  13.886  22.409  1.00  0.00     0.217 HD
ENDBRANCH  15  37
BRANCH   5  39
HETATM   39  C6  UNL     1       2.066   9.518  16.435  1.00  0.00    -0.039 A 
HETATM   40  C7  UNL     1       3.219   8.909  15.917  1.00  0.00     0.045 A 
HETATM   41  C8  UNL     1       3.116   7.755  15.145  1.00  0.00     0.066 A 
HETATM   42  C9  UNL     1       1.880   7.192  14.854  1.00  0.00     0.045 A 
HETATM   43  C10 UNL     1       0.712   7.796  15.339  1.00  0.00    -0.032 A 
HETATM   44  C12 UNL     1       0.817   8.942  16.144  1.00  0.00     0.018 A 
BRANCH  41  45
HETATM   45  O1  UNL     1       4.273   7.199  14.686  1.00  0.00    -0.361 OA
HETATM   46  H9  UNL     1       4.064   6.413  14.158  1.00  0.00     0.217 HD
ENDBRANCH  41  45
BRANCH  43  47
HETATM   47  C11 UNL     1      -0.639   7.199  15.049  1.00  0.00     0.203 C 
BRANCH  47  48
HETATM   48  O2  UNL     1      -0.621   5.794  15.249  1.00  0.00    -0.396 OA
HETATM   49  H13 UNL     1       0.284   5.533  15.496  1.00  0.00     0.209 HD
ENDBRANCH  47  48
ENDBRANCH  43  47
ENDBRANCH   5  39
TORSDOF 7
ENDMDL
MODEL 9
REMARK minimizedAffinity -10.0136681
REMARK CNNscore 0.154029772
REMARK CNNaffinity 6.65983438
REMARK  7 active torsions:
REMARK  status: ('A' for Active; 'I' for Inactive)
REMARK    1  A    between atoms: C5_5  and  C6_6 
REMARK    2  A    between atoms: C8_8  and  O1_9 
REMARK    3  A    between atoms: C10_11  and  C11_12 
REMARK    4  A    between atoms: C11_12  and  O2_13 
REMARK    5  A    between atoms: C20_24  and  O5_25 
REMARK    6  A    between atoms: C25_30  and  C26_31 
REMARK    7  A    between atoms: C26_31  and  O6_32 
ROOT
HETATM    1  C1  UNL     1       0.377  12.094  14.743  1.00  0.00     0.036 C 
HETATM    2  C2  UNL     1      -0.156  11.187  15.807  1.00  0.00    -0.018 C 
HETATM    3  C3  UNL     1      -0.471   9.877  15.702  1.00  0.00     0.015 C 
HETATM    4  C4  UNL     1      -0.963   9.087  16.895  1.00  0.00     0.066 C 
HETATM    5  C5  UNL     1      -2.497   9.058  17.149  1.00  0.00     0.102 C 
HETATM    6  C13 UNL     1      -3.170   8.028  16.330  1.00  0.00    -0.096 C 
HETATM    7  C14 UNL     1      -3.640   7.119  15.698  1.00  0.00    -0.096 C 
HETATM    8  C15 UNL     1      -4.063   5.954  14.888  1.00  0.00     0.110 C 
HETATM    9  C16 UNL     1      -5.343   6.286  14.139  1.00  0.00     0.133 C 
HETATM   10  C17 UNL     1      -5.711   5.173  13.203  1.00  0.00     0.265 C 
HETATM   11  O3  UNL     1      -6.852   4.730  13.119  1.00  0.00    -0.265 OA
HETATM   12  O4  UNL     1      -4.694   4.736  12.366  1.00  0.00    -0.278 OA
HETATM   13  C18 UNL     1      -3.351   5.006  12.676  1.00  0.00     0.089 A 
HETATM   14  C19 UNL     1      -2.395   4.673  11.720  1.00  0.00     0.075 A 
HETATM   15  C20 UNL     1      -1.049   4.899  11.996  1.00  0.00     0.074 A 
HETATM   16  C21 UNL     1      -0.644   5.431  13.224  1.00  0.00    -0.022 A 
HETATM   17  C22 UNL     1      -1.628   5.701  14.187  1.00  0.00     0.021 A 
HETATM   18  C23 UNL     1      -2.991   5.549  13.905  1.00  0.00    -0.007 A 
HETATM   19  C24 UNL     1       0.772   5.886  13.519  1.00  0.00     0.077 C 
HETATM   20  C25 UNL     1       0.890   7.417  13.337  1.00  0.00     0.171 C 
HETATM   21  O8  UNL     1       0.420   8.049  14.560  1.00  0.00    -0.309 OA
HETATM   22  C36 UNL     1      -0.285   9.200  14.393  1.00  0.00     0.289 C 
HETATM   23  O9  UNL     1      -0.637   9.667  13.322  1.00  0.00    -0.260 OA
ENDROOT
BRANCH  20  24
HETATM   24  C26 UNL     1       2.340   7.927  13.003  1.00  0.00     0.089 C 
HETATM   25  C27 UNL     1       2.606   9.271  13.715  1.00  0.00     0.041 C 
HETATM   26  C28 UNL     1       4.063   9.725  13.588  1.00  0.00     0.004 C 
HETATM   27  C29 UNL     1       4.697   9.361  12.245  1.00  0.00     0.005 C 
HETATM   28  C30 UNL     1       3.658   9.185  11.133  1.00  0.00    -0.001 C 
HETATM   29  C31 UNL     1       4.364   8.985   9.783  1.00  0.00     0.083 C 
HETATM   30  C35 UNL     1       2.622   8.060  11.469  1.00  0.00     0.027 C 
HETATM   31  C32 UNL     1       3.475   8.233   8.827  1.00  0.00     0.127 C 
HETATM   32  O7  UNL     1       3.169   8.685   7.725  1.00  0.00    -0.298 OA
HETATM   33  C33 UNL     1       3.024   6.860   9.267  1.00  0.00     0.079 C 
HETATM   34  C34 UNL     1       3.046   6.739  10.790  1.00  0.00     0.015 C 
BRANCH  24  35
HETATM   35  O6  UNL     1       3.289   6.990  13.544  1.00  0.00    -0.387 OA
HETATM   36  H24 UNL     1       2.997   6.734  14.443  1.00  0.00     0.210 HD
ENDBRANCH  24  35
ENDBRANCH  20  24
BRANCH  15  37
HETATM   37  O5  UNL     1      -0.164   4.596  11.004  1.00  0.00    -0.360 OA
HETATM   38  H19 UNL     1       0.627   4.202  11.404  1.00  0.00     0.217 HD
ENDBRANCH  15  37
BRANCH   5  39
HETATM   39  C6  UNL     1      -3.149  10.431  17.098  1.00  0.00    -0.039 A 
HETATM   40  C7  UNL     1      -3.565  11.019  15.893  1.00  0.00     0.045 A 
HETATM   41  C8  UNL     1      -4.109  12.300  15.889  1.00  0.00     0.066 A 
HETATM   42  C9  UNL     1      -4.235  13.032  17.064  1.00  0.00     0.045 A 
HETATM   43  C10 UNL     1      -3.803  12.477  18.276  1.00  0.00    -0.032 A 
HETATM   44  C12 UNL     1      -3.284  11.172  18.285  1.00  0.00     0.018 A 
BRANCH  41  45
HETATM   45  O1  UNL     1      -4.513  12.810  14.691  1.00  0.00    -0.361 OA
HETATM   46  H9  UNL     1      -4.861  13.706  14.823  1.00  0.00     0.217 HD
ENDBRANCH  41  45
BRANCH  43  47
HETATM   47  C11 UNL     1      -3.941  13.243  19.564  1.00  0.00     0.203 C 
BRANCH  47  48
HETATM   48  O2  UNL     1      -5.091  12.820  20.280  1.00  0.00    -0.396 OA
HETATM   49  H13 UNL     1      -5.552  12.148  19.747  1.00  0.00     0.209 HD
ENDBRANCH  47  48
ENDBRANCH  43  47
ENDBRANCH   5  39
TORSDOF 7
ENDMDL
