MODEL 1
REMARK minimizedAffinity -8.03022766
REMARK CNNscore 0.64551878
REMARK CNNaffinity 7.07137823
REMARK  9 active torsions:
REMARK  status: ('A' for Active; 'I' for Inactive)
REMARK    1  A    between atoms: C3_3  and  O1_4 
REMARK    2  A    between atoms: N1_14  and  O2_16 
REMARK    3  A    between atoms: O2_16  and  C13_17 
REMARK    4  A    between atoms: C13_17  and  C14_18 
REMARK       I    between atoms: C14_18  and  N2_20 
REMARK    5  A    between atoms: N2_20  and  C15_21 
REMARK    6  A    between atoms: C15_21  and  C16_22 
REMARK    7  A    between atoms: C15_21  and  C18_26 
REMARK    8  A    between atoms: C16_22  and  C17_23 
REMARK    9  A    between atoms: C17_23  and  O5_25 
ROOT
HETATM    1  C1  UNL     1     -12.468   3.070  30.414  1.00  0.00     0.015 C 
HETATM    2  C2  UNL     1     -12.815   2.653  29.342  1.00  0.00    -0.078 C 
HETATM    3  C3  UNL     1     -13.253   2.112  28.047  1.00  0.00     0.128 C 
HETATM    4  C4  UNL     1     -12.080   1.721  27.151  1.00  0.00     0.052 C 
HETATM    5  C5  UNL     1     -12.736   1.503  25.793  1.00  0.00     0.010 C 
HETATM    6  C6  UNL     1     -13.885   2.534  25.707  1.00  0.00     0.002 C 
HETATM    7  C7  UNL     1     -13.599   3.599  24.604  1.00  0.00    -0.004 C 
HETATM    8  C8  UNL     1     -13.798   2.970  23.201  1.00  0.00     0.010 C 
HETATM    9  C9  UNL     1     -14.877   3.658  22.365  1.00  0.00     0.035 C 
HETATM   10  C10 UNL     1     -14.556   5.122  22.286  1.00  0.00    -0.069 C 
HETATM   11  C11 UNL     1     -14.250   5.694  21.107  1.00  0.00     0.030 C 
HETATM   12  C12 UNL     1     -13.773   7.102  21.063  1.00  0.00     0.032 C 
HETATM   13  N1  UNL     1     -13.804   7.879  20.024  1.00  0.00    -0.271 N 
ATOM     14  H1  UNL     1     -13.454   8.836  20.016  1.00  0.00     0.194 HD
HETATM   15  C25 UNL     1     -13.207   7.700  22.340  1.00  0.00     0.060 C 
HETATM   16  C26 UNL     1     -13.193   6.739  23.529  1.00  0.00     0.020 C 
HETATM   17  C27 UNL     1     -14.473   5.873  23.618  1.00  0.00    -0.016 C 
HETATM   18  C28 UNL     1     -15.721   6.779  23.777  1.00  0.00     0.020 C 
HETATM   19  C29 UNL     1     -14.467   4.858  24.824  1.00  0.00     0.002 C 
HETATM   20  C30 UNL     1     -14.184   5.502  26.202  1.00  0.00     0.007 C 
HETATM   21  C31 UNL     1     -13.534   4.553  27.214  1.00  0.00     0.014 C 
HETATM   22  C32 UNL     1     -14.074   3.104  27.156  1.00  0.00     0.003 C 
HETATM   23  C33 UNL     1     -15.566   3.106  27.562  1.00  0.00     0.020 C 
ENDROOT
BRANCH   3  24
HETATM   24  O1  UNL     1     -14.011   0.924  28.295  1.00  0.00    -0.377 OA
HETATM   25  H2  UNL     1     -13.504   0.393  28.934  1.00  0.00     0.211 HD
ENDBRANCH   3  24
BRANCH  13  26
HETATM   26  O2  UNL     1     -14.378   7.244  18.910  1.00  0.00    -0.271 OA
BRANCH  26  27
HETATM   27  C13 UNL     1     -15.149   8.203  18.193  1.00  0.00     0.303 C 
BRANCH  27  28
HETATM   28  C14 UNL     1     -15.503   7.661  16.818  1.00  0.00     0.244 C 
HETATM   29  O3  UNL     1     -16.576   7.894  16.269  1.00  0.00    -0.271 OA
HETATM   30  N2  UNL     1     -14.486   6.938  16.224  1.00  0.00    -0.354 N 
HETATM   31  H16 UNL     1     -13.602   6.867  16.729  1.00  0.00     0.162 HD
BRANCH  30  32
HETATM   32  C15 UNL     1     -14.528   6.514  14.827  1.00  0.00     0.098 C 
BRANCH  32  33
HETATM   33  C16 UNL     1     -14.688   4.995  14.712  1.00  0.00     0.135 C 
BRANCH  33  34
HETATM   34  C17 UNL     1     -16.110   4.524  14.644  1.00  0.00     0.141 C 
HETATM   35  O4  UNL     1     -16.940   4.855  13.814  1.00  0.00    -0.650 OA
BRANCH  34  36
HETATM   36  O5  UNL     1     -16.426   3.658  15.629  1.00  0.00    -0.776 OA
HETATM   37  H20 UNL     1     -17.381   3.474  15.488  1.00  0.00     0.167 HD
ENDBRANCH  34  36
ENDBRANCH  33  34
ENDBRANCH  32  33
BRANCH  32  38
HETATM   38  C18 UNL     1     -13.381   7.162  13.999  1.00  0.00     0.014 C 
HETATM   39  C19 UNL     1     -13.836   8.219  12.974  1.00  0.00     0.033 C 
HETATM   40  C20 UNL     1     -12.724   9.202  12.626  1.00  0.00     0.169 C 
HETATM   41  O6  UNL     1     -11.456   8.555  12.656  1.00  0.00    -0.381 OA
HETATM   42  C21 UNL     1     -11.038   8.141  13.966  1.00  0.00     0.054 C 
HETATM   43  C22 UNL     1     -10.098   6.948  13.751  1.00  0.00     0.045 C 
HETATM   44  C23 UNL     1     -10.252   9.286  14.620  1.00  0.00     0.045 C 
HETATM   45  C24 UNL     1     -12.236   7.726  14.854  1.00  0.00     0.044 C 
ENDBRANCH  32  38
ENDBRANCH  30  32
ENDBRANCH  27  28
ENDBRANCH  26  27
ENDBRANCH  13  26
TORSDOF 9
ENDMDL
MODEL 2
REMARK minimizedAffinity -8.27351189
REMARK CNNscore 0.644636333
REMARK CNNaffinity 7.22575426
REMARK  9 active torsions:
REMARK  status: ('A' for Active; 'I' for Inactive)
REMARK    1  A    between atoms: C3_3  and  O1_4 
REMARK    2  A    between atoms: N1_14  and  O2_16 
REMARK    3  A    between atoms: O2_16  and  C13_17 
REMARK    4  A    between atoms: C13_17  and  C14_18 
REMARK       I    between atoms: C14_18  and  N2_20 
REMARK    5  A    between atoms: N2_20  and  C15_21 
REMARK    6  A    between atoms: C15_21  and  C16_22 
REMARK    7  A    between atoms: C15_21  and  C18_26 
REMARK    8  A    between atoms: C16_22  and  C17_23 
REMARK    9  A    between atoms: C17_23  and  O5_25 
ROOT
HETATM    1  C1  UNL     1     -12.752   3.035  30.421  1.00  0.00     0.015 C 
HETATM    2  C2  UNL     1     -12.990   2.634  29.314  1.00  0.00    -0.078 C 
HETATM    3  C3  UNL     1     -13.295   2.110  27.974  1.00  0.00     0.128 C 
HETATM    4  C4  UNL     1     -12.035   1.813  27.163  1.00  0.00     0.052 C 
HETATM    5  C5  UNL     1     -12.570   1.602  25.753  1.00  0.00     0.010 C 
HETATM    6  C6  UNL     1     -13.767   2.570  25.604  1.00  0.00     0.002 C 
HETATM    7  C7  UNL     1     -13.457   3.683  24.556  1.00  0.00    -0.004 C 
HETATM    8  C8  UNL     1     -13.511   3.089  23.125  1.00  0.00     0.010 C 
HETATM    9  C9  UNL     1     -14.559   3.742  22.225  1.00  0.00     0.035 C 
HETATM   10  C10 UNL     1     -14.318   5.223  22.211  1.00  0.00    -0.069 C 
HETATM   11  C11 UNL     1     -13.955   5.848  21.076  1.00  0.00     0.030 C 
HETATM   12  C12 UNL     1     -13.558   7.281  21.108  1.00  0.00     0.032 C 
HETATM   13  N1  UNL     1     -13.553   8.087  20.091  1.00  0.00    -0.271 N 
ATOM     14  H1  UNL     1     -13.259   9.062  20.137  1.00  0.00     0.194 HD
HETATM   15  C25 UNL     1     -13.128   7.868  22.442  1.00  0.00     0.060 C 
HETATM   16  C26 UNL     1     -13.150   6.873  23.602  1.00  0.00     0.020 C 
HETATM   17  C27 UNL     1     -14.381   5.935  23.566  1.00  0.00    -0.016 C 
HETATM   18  C28 UNL     1     -15.688   6.766  23.650  1.00  0.00     0.020 C 
HETATM   19  C29 UNL     1     -14.411   4.884  24.741  1.00  0.00     0.002 C 
HETATM   20  C30 UNL     1     -14.273   5.499  26.153  1.00  0.00     0.007 C 
HETATM   21  C31 UNL     1     -13.650   4.557  27.188  1.00  0.00     0.014 C 
HETATM   22  C32 UNL     1     -14.100   3.083  27.049  1.00  0.00     0.003 C 
HETATM   23  C33 UNL     1     -15.616   2.989  27.335  1.00  0.00     0.020 C 
ENDROOT
BRANCH   3  24
HETATM   24  O1  UNL     1     -14.000   0.874  28.130  1.00  0.00    -0.377 OA
HETATM   25  H2  UNL     1     -13.514   0.353  28.792  1.00  0.00     0.211 HD
ENDBRANCH   3  24
BRANCH  13  26
HETATM   26  O2  UNL     1     -14.000   7.457  18.919  1.00  0.00    -0.271 OA
BRANCH  26  27
HETATM   27  C13 UNL     1     -14.455   8.459  18.015  1.00  0.00     0.303 C 
BRANCH  27  28
HETATM   28  C14 UNL     1     -13.271   9.245  17.474  1.00  0.00     0.244 C 
HETATM   29  O3  UNL     1     -12.657  10.066  18.149  1.00  0.00    -0.271 OA
HETATM   30  N2  UNL     1     -12.918   8.905  16.183  1.00  0.00    -0.354 N 
HETATM   31  H16 UNL     1     -13.442   8.154  15.734  1.00  0.00     0.162 HD
BRANCH  30  32
HETATM   32  C15 UNL     1     -11.689   9.373  15.549  1.00  0.00     0.098 C 
BRANCH  32  33
HETATM   33  C16 UNL     1     -11.990  10.212  14.303  1.00  0.00     0.135 C 
BRANCH  33  34
HETATM   34  C17 UNL     1     -12.910   9.555  13.318  1.00  0.00     0.141 C 
HETATM   35  O4  UNL     1     -12.714   9.433  12.121  1.00  0.00    -0.650 OA
BRANCH  34  36
HETATM   36  O5  UNL     1     -14.040   9.085  13.885  1.00  0.00    -0.776 OA
HETATM   37  H20 UNL     1     -14.557   8.730  13.129  1.00  0.00     0.167 HD
ENDBRANCH  34  36
ENDBRANCH  33  34
ENDBRANCH  32  33
BRANCH  32  38
HETATM   38  C18 UNL     1     -10.656   8.221  15.385  1.00  0.00     0.014 C 
HETATM   39  C19 UNL     1     -10.957   7.237  14.238  1.00  0.00     0.033 C 
HETATM   40  C20 UNL     1      -9.703   6.520  13.748  1.00  0.00     0.169 C 
HETATM   41  O6  UNL     1      -8.799   6.300  14.825  1.00  0.00    -0.381 OA
HETATM   42  C21 UNL     1      -8.221   7.501  15.362  1.00  0.00     0.054 C 
HETATM   43  C22 UNL     1      -7.873   7.185  16.823  1.00  0.00     0.045 C 
HETATM   44  C23 UNL     1      -6.928   7.813  14.596  1.00  0.00     0.045 C 
HETATM   45  C24 UNL     1      -9.199   8.699  15.292  1.00  0.00     0.044 C 
ENDBRANCH  32  38
ENDBRANCH  30  32
ENDBRANCH  27  28
ENDBRANCH  26  27
ENDBRANCH  13  26
TORSDOF 9
ENDMDL
MODEL 3
REMARK minimizedAffinity -8.25719357
REMARK CNNscore 0.454786241
REMARK CNNaffinity 6.65627527
REMARK  9 active torsions:
REMARK  status: ('A' for Active; 'I' for Inactive)
REMARK    1  A    between atoms: C3_3  and  O1_4 
REMARK    2  A    between atoms: N1_14  and  O2_16 
REMARK    3  A    between atoms: O2_16  and  C13_17 
REMARK    4  A    between atoms: C13_17  and  C14_18 
REMARK       I    between atoms: C14_18  and  N2_20 
REMARK    5  A    between atoms: N2_20  and  C15_21 
REMARK    6  A    between atoms: C15_21  and  C16_22 
REMARK    7  A    between atoms: C15_21  and  C18_26 
REMARK    8  A    between atoms: C16_22  and  C17_23 
REMARK    9  A    between atoms: C17_23  and  O5_25 
ROOT
HETATM    1  C1  UNL     1       3.427   4.390   8.604  1.00  0.00     0.015 C 
HETATM    2  C2  UNL     1       3.445   5.421   9.222  1.00  0.00    -0.078 C 
HETATM    3  C3  UNL     1       3.491   6.697   9.950  1.00  0.00     0.128 C 
HETATM    4  C4  UNL     1       4.251   6.588  11.270  1.00  0.00     0.052 C 
HETATM    5  C5  UNL     1       3.902   7.890  11.981  1.00  0.00     0.010 C 
HETATM    6  C6  UNL     1       2.446   8.217  11.578  1.00  0.00     0.002 C 
HETATM    7  C7  UNL     1       1.491   8.119  12.807  1.00  0.00    -0.004 C 
HETATM    8  C8  UNL     1       1.710   9.336  13.743  1.00  0.00     0.010 C 
HETATM    9  C9  UNL     1       0.462  10.196  13.937  1.00  0.00     0.035 C 
HETATM   10  C10 UNL     1      -0.655   9.314  14.413  1.00  0.00    -0.069 C 
HETATM   11  C11 UNL     1      -1.189   9.484  15.636  1.00  0.00     0.030 C 
HETATM   12  C12 UNL     1      -2.176   8.503  16.160  1.00  0.00     0.032 C 
HETATM   13  N1  UNL     1      -3.027   8.724  17.116  1.00  0.00    -0.271 N 
ATOM     14  H1  UNL     1      -3.682   8.027  17.468  1.00  0.00     0.194 HD
HETATM   15  C25 UNL     1      -2.212   7.123  15.526  1.00  0.00     0.060 C 
HETATM   16  C26 UNL     1      -1.187   6.919  14.410  1.00  0.00     0.020 C 
HETATM   17  C27 UNL     1      -1.046   8.156  13.490  1.00  0.00    -0.016 C 
HETATM   18  C28 UNL     1      -2.405   8.474  12.812  1.00  0.00     0.020 C 
HETATM   19  C29 UNL     1       0.024   7.975  12.346  1.00  0.00     0.002 C 
HETATM   20  C30 UNL     1      -0.172   6.709  11.480  1.00  0.00     0.007 C 
HETATM   21  C31 UNL     1       1.121   6.167  10.863  1.00  0.00     0.014 C 
HETATM   22  C32 UNL     1       2.097   7.266  10.380  1.00  0.00     0.003 C 
HETATM   23  C33 UNL     1       1.439   8.051   9.222  1.00  0.00     0.020 C 
ENDROOT
BRANCH   3  24
HETATM   24  O1  UNL     1       4.187   7.648   9.138  1.00  0.00    -0.377 OA
HETATM   25  H2  UNL     1       4.991   7.207   8.813  1.00  0.00     0.211 HD
ENDBRANCH   3  24
BRANCH  13  26
HETATM   26  O2  UNL     1      -2.937  10.036  17.606  1.00  0.00    -0.271 OA
BRANCH  26  27
HETATM   27  C13 UNL     1      -2.218  10.009  18.835  1.00  0.00     0.303 C 
BRANCH  27  28
HETATM   28  C14 UNL     1      -1.232  11.165  18.886  1.00  0.00     0.244 C 
HETATM   29  O3  UNL     1      -1.564  12.330  18.692  1.00  0.00    -0.271 OA
HETATM   30  N2  UNL     1       0.053  10.788  19.230  1.00  0.00    -0.354 N 
HETATM   31  H16 UNL     1       0.212   9.805  19.449  1.00  0.00     0.162 HD
BRANCH  30  32
HETATM   32  C15 UNL     1       1.102  11.753  19.548  1.00  0.00     0.098 C 
BRANCH  32  33
HETATM   33  C16 UNL     1       2.054  11.950  18.364  1.00  0.00     0.135 C 
BRANCH  33  34
HETATM   34  C17 UNL     1       2.464  10.681  17.678  1.00  0.00     0.141 C 
HETATM   35  O4  UNL     1       2.889  10.583  16.539  1.00  0.00    -0.650 OA
BRANCH  34  36
HETATM   36  O5  UNL     1       2.314   9.589  18.456  1.00  0.00    -0.776 OA
HETATM   37  H20 UNL     1       2.572   8.842  17.872  1.00  0.00     0.167 HD
ENDBRANCH  34  36
ENDBRANCH  33  34
ENDBRANCH  32  33
BRANCH  32  38
HETATM   38  C18 UNL     1       1.754  11.453  20.928  1.00  0.00     0.014 C 
HETATM   39  C19 UNL     1       1.795   9.964  21.319  1.00  0.00     0.033 C 
HETATM   40  C20 UNL     1       2.900   9.661  22.326  1.00  0.00     0.169 C 
HETATM   41  O6  UNL     1       3.091  10.763  23.205  1.00  0.00    -0.381 OA
HETATM   42  C21 UNL     1       3.629  11.935  22.572  1.00  0.00     0.054 C 
HETATM   43  C22 UNL     1       3.145  13.126  23.409  1.00  0.00     0.045 C 
HETATM   44  C23 UNL     1       5.161  11.871  22.632  1.00  0.00     0.045 C 
HETATM   45  C24 UNL     1       3.146  12.077  21.108  1.00  0.00     0.044 C 
ENDBRANCH  32  38
ENDBRANCH  30  32
ENDBRANCH  27  28
ENDBRANCH  26  27
ENDBRANCH  13  26
TORSDOF 9
ENDMDL
MODEL 4
REMARK minimizedAffinity -7.23558855
REMARK CNNscore 0.438126236
REMARK CNNaffinity 6.65146303
REMARK  9 active torsions:
REMARK  status: ('A' for Active; 'I' for Inactive)
REMARK    1  A    between atoms: C3_3  and  O1_4 
REMARK    2  A    between atoms: N1_14  and  O2_16 
REMARK    3  A    between atoms: O2_16  and  C13_17 
REMARK    4  A    between atoms: C13_17  and  C14_18 
REMARK       I    between atoms: C14_18  and  N2_20 
REMARK    5  A    between atoms: N2_20  and  C15_21 
REMARK    6  A    between atoms: C15_21  and  C16_22 
REMARK    7  A    between atoms: C15_21  and  C18_26 
REMARK    8  A    between atoms: C16_22  and  C17_23 
REMARK    9  A    between atoms: C17_23  and  O5_25 
ROOT
HETATM    1  C1  UNL     1       3.035   4.910   7.748  1.00  0.00     0.015 C 
HETATM    2  C2  UNL     1       3.070   5.891   8.441  1.00  0.00    -0.078 C 
HETATM    3  C3  UNL     1       3.133   7.110   9.261  1.00  0.00     0.128 C 
HETATM    4  C4  UNL     1       4.056   6.955  10.467  1.00  0.00     0.052 C 
HETATM    5  C5  UNL     1       3.724   8.174  11.319  1.00  0.00     0.010 C 
HETATM    6  C6  UNL     1       2.212   8.431  11.121  1.00  0.00     0.002 C 
HETATM    7  C7  UNL     1       1.425   8.178  12.444  1.00  0.00    -0.004 C 
HETATM    8  C8  UNL     1       1.689   9.334  13.443  1.00  0.00     0.010 C 
HETATM    9  C9  UNL     1       0.427  10.092  13.855  1.00  0.00     0.035 C 
HETATM   10  C10 UNL     1      -0.569   9.103  14.387  1.00  0.00    -0.069 C 
HETATM   11  C11 UNL     1      -0.955   9.145  15.674  1.00  0.00     0.030 C 
HETATM   12  C12 UNL     1      -1.812   8.064  16.231  1.00  0.00     0.032 C 
HETATM   13  N1  UNL     1      -2.548   8.156  17.297  1.00  0.00    -0.271 N 
ATOM     14  H1  UNL     1      -3.113   7.392  17.667  1.00  0.00     0.194 HD
HETATM   15  C25 UNL     1      -1.846   6.735  15.495  1.00  0.00     0.060 C 
HETATM   16  C26 UNL     1      -0.959   6.685  14.251  1.00  0.00     0.020 C 
HETATM   17  C27 UNL     1      -1.005   7.993  13.426  1.00  0.00    -0.016 C 
HETATM   18  C28 UNL     1      -2.453   8.269  12.943  1.00  0.00     0.020 C 
HETATM   19  C29 UNL     1      -0.077   7.970  12.151  1.00  0.00     0.002 C 
HETATM   20  C30 UNL     1      -0.306   6.761  11.214  1.00  0.00     0.007 C 
HETATM   21  C31 UNL     1       0.929   6.355  10.404  1.00  0.00     0.014 C 
HETATM   22  C32 UNL     1       1.772   7.550   9.899  1.00  0.00     0.003 C 
HETATM   23  C33 UNL     1       0.932   8.373   8.897  1.00  0.00     0.020 C 
ENDROOT
BRANCH   3  24
HETATM   24  O1  UNL     1       3.666   8.163   8.452  1.00  0.00    -0.377 OA
HETATM   25  H2  UNL     1       4.447   7.803   7.998  1.00  0.00     0.211 HD
ENDBRANCH   3  24
BRANCH  13  26
HETATM   26  O2  UNL     1      -2.473   9.431  17.879  1.00  0.00    -0.271 OA
BRANCH  26  27
HETATM   27  C13 UNL     1      -3.651  10.153  17.532  1.00  0.00     0.303 C 
BRANCH  27  28
HETATM   28  C14 UNL     1      -3.346  11.641  17.463  1.00  0.00     0.244 C 
HETATM   29  O3  UNL     1      -3.231  12.246  16.402  1.00  0.00    -0.271 OA
HETATM   30  N2  UNL     1      -3.274  12.253  18.700  1.00  0.00    -0.354 N 
HETATM   31  H16 UNL     1      -3.462  11.679  19.522  1.00  0.00     0.162 HD
BRANCH  30  32
HETATM   32  C15 UNL     1      -3.209  13.703  18.863  1.00  0.00     0.098 C 
BRANCH  32  33
HETATM   33  C16 UNL     1      -1.764  14.177  19.051  1.00  0.00     0.135 C 
BRANCH  33  34
HETATM   34  C17 UNL     1      -1.209  14.954  17.895  1.00  0.00     0.141 C 
HETATM   35  O4  UNL     1      -0.233  15.685  17.921  1.00  0.00    -0.650 OA
BRANCH  34  36
HETATM   36  O5  UNL     1      -1.913  14.781  16.758  1.00  0.00    -0.776 OA
HETATM   37  H20 UNL     1      -1.472  15.375  16.110  1.00  0.00     0.167 HD
ENDBRANCH  34  36
ENDBRANCH  33  34
ENDBRANCH  32  33
BRANCH  32  38
HETATM   38  C18 UNL     1      -4.252  14.209  19.899  1.00  0.00     0.014 C 
HETATM   39  C19 UNL     1      -4.633  15.696  19.766  1.00  0.00     0.033 C 
HETATM   40  C20 UNL     1      -6.004  15.997  20.362  1.00  0.00     0.169 C 
HETATM   41  O6  UNL     1      -6.253  15.166  21.490  1.00  0.00    -0.381 OA
HETATM   42  C21 UNL     1      -6.405  13.774  21.174  1.00  0.00     0.054 C 
HETATM   43  C22 UNL     1      -5.988  13.006  22.435  1.00  0.00     0.045 C 
HETATM   44  C23 UNL     1      -7.886  13.491  20.883  1.00  0.00     0.045 C 
HETATM   45  C24 UNL     1      -5.524  13.351  19.973  1.00  0.00     0.044 C 
ENDBRANCH  32  38
ENDBRANCH  30  32
ENDBRANCH  27  28
ENDBRANCH  26  27
ENDBRANCH  13  26
TORSDOF 9
ENDMDL
MODEL 5
REMARK minimizedAffinity -7.36124945
REMARK CNNscore 0.355304152
REMARK CNNaffinity 6.49243307
REMARK  9 active torsions:
REMARK  status: ('A' for Active; 'I' for Inactive)
REMARK    1  A    between atoms: C3_3  and  O1_4 
REMARK    2  A    between atoms: N1_14  and  O2_16 
REMARK    3  A    between atoms: O2_16  and  C13_17 
REMARK    4  A    between atoms: C13_17  and  C14_18 
REMARK       I    between atoms: C14_18  and  N2_20 
REMARK    5  A    between atoms: N2_20  and  C15_21 
REMARK    6  A    between atoms: C15_21  and  C16_22 
REMARK    7  A    between atoms: C15_21  and  C18_26 
REMARK    8  A    between atoms: C16_22  and  C17_23 
REMARK    9  A    between atoms: C17_23  and  O5_25 
ROOT
HETATM    1  C1  UNL     1       3.013   4.880   7.748  1.00  0.00     0.015 C 
HETATM    2  C2  UNL     1       3.008   5.890   8.398  1.00  0.00    -0.078 C 
HETATM    3  C3  UNL     1       3.018   7.145   9.165  1.00  0.00     0.128 C 
HETATM    4  C4  UNL     1       3.969   7.092  10.359  1.00  0.00     0.052 C 
HETATM    5  C5  UNL     1       3.587   8.327  11.164  1.00  0.00     0.010 C 
HETATM    6  C6  UNL     1       2.060   8.495  10.985  1.00  0.00     0.002 C 
HETATM    7  C7  UNL     1       1.310   8.258  12.332  1.00  0.00    -0.004 C 
HETATM    8  C8  UNL     1       1.528   9.468  13.276  1.00  0.00     0.010 C 
HETATM    9  C9  UNL     1       0.235  10.175  13.680  1.00  0.00     0.035 C 
HETATM   10  C10 UNL     1      -0.698   9.159  14.272  1.00  0.00    -0.069 C 
HETATM   11  C11 UNL     1      -1.064   9.236  15.564  1.00  0.00     0.030 C 
HETATM   12  C12 UNL     1      -1.851   8.136  16.183  1.00  0.00     0.032 C 
HETATM   13  N1  UNL     1      -2.573   8.235  17.257  1.00  0.00    -0.271 N 
ATOM     14  H1  UNL     1      -3.090   7.459  17.670  1.00  0.00     0.194 HD
HETATM   15  C25 UNL     1      -1.826   6.777  15.504  1.00  0.00     0.060 C 
HETATM   16  C26 UNL     1      -0.959   6.720  14.247  1.00  0.00     0.020 C 
HETATM   17  C27 UNL     1      -1.089   7.987  13.368  1.00  0.00    -0.016 C 
HETATM   18  C28 UNL     1      -2.559   8.164  12.902  1.00  0.00     0.020 C 
HETATM   19  C29 UNL     1      -0.184   7.958  12.077  1.00  0.00     0.002 C 
HETATM   20  C30 UNL     1      -0.363   6.699  11.197  1.00  0.00     0.007 C 
HETATM   21  C31 UNL     1       0.879   6.324  10.381  1.00  0.00     0.014 C 
HETATM   22  C32 UNL     1       1.648   7.540   9.810  1.00  0.00     0.003 C 
HETATM   23  C33 UNL     1       0.747   8.273   8.790  1.00  0.00     0.020 C 
ENDROOT
BRANCH   3  24
HETATM   24  O1  UNL     1       3.480   8.189   8.302  1.00  0.00    -0.377 OA
HETATM   25  H2  UNL     1       4.272   7.851   7.849  1.00  0.00     0.211 HD
ENDBRANCH   3  24
BRANCH  13  26
HETATM   26  O2  UNL     1      -2.557   9.536  17.783  1.00  0.00    -0.271 OA
BRANCH  26  27
HETATM   27  C13 UNL     1      -1.208   9.989  17.824  1.00  0.00     0.303 C 
BRANCH  27  28
HETATM   28  C14 UNL     1      -1.131  11.331  18.533  1.00  0.00     0.244 C 
HETATM   29  O3  UNL     1      -2.126  12.003  18.791  1.00  0.00    -0.271 OA
HETATM   30  N2  UNL     1       0.148  11.691  18.912  1.00  0.00    -0.354 N 
HETATM   31  H16 UNL     1       0.899  11.027  18.722  1.00  0.00     0.162 HD
BRANCH  30  32
HETATM   32  C15 UNL     1       0.424  12.824  19.790  1.00  0.00     0.098 C 
BRANCH  32  33
HETATM   33  C16 UNL     1       0.299  14.154  19.038  1.00  0.00     0.135 C 
BRANCH  33  34
HETATM   34  C17 UNL     1      -0.753  15.075  19.577  1.00  0.00     0.141 C 
HETATM   35  O4  UNL     1      -1.298  14.989  20.664  1.00  0.00    -0.650 OA
BRANCH  34  36
HETATM   36  O5  UNL     1      -1.077  16.064  18.719  1.00  0.00    -0.776 OA
HETATM   37  H20 UNL     1      -1.797  16.553  19.177  1.00  0.00     0.167 HD
ENDBRANCH  34  36
ENDBRANCH  33  34
ENDBRANCH  32  33
BRANCH  32  38
HETATM   38  C18 UNL     1       1.726  12.606  20.613  1.00  0.00     0.014 C 
HETATM   39  C19 UNL     1       2.031  13.701  21.652  1.00  0.00     0.033 C 
HETATM   40  C20 UNL     1       2.923  13.196  22.781  1.00  0.00     0.169 C 
HETATM   41  O6  UNL     1       3.841  12.223  22.296  1.00  0.00    -0.381 OA
HETATM   42  C21 UNL     1       3.228  10.994  21.876  1.00  0.00     0.054 C 
HETATM   43  C22 UNL     1       4.167  10.394  20.819  1.00  0.00     0.045 C 
HETATM   44  C23 UNL     1       3.154  10.042  23.077  1.00  0.00     0.045 C 
HETATM   45  C24 UNL     1       1.820  11.222  21.273  1.00  0.00     0.044 C 
ENDBRANCH  32  38
ENDBRANCH  30  32
ENDBRANCH  27  28
ENDBRANCH  26  27
ENDBRANCH  13  26
TORSDOF 9
ENDMDL
MODEL 6
REMARK minimizedAffinity -8.02552223
REMARK CNNscore 0.310988456
REMARK CNNaffinity 6.76476049
REMARK  9 active torsions:
REMARK  status: ('A' for Active; 'I' for Inactive)
REMARK    1  A    between atoms: C3_3  and  O1_4 
REMARK    2  A    between atoms: N1_14  and  O2_16 
REMARK    3  A    between atoms: O2_16  and  C13_17 
REMARK    4  A    between atoms: C13_17  and  C14_18 
REMARK       I    between atoms: C14_18  and  N2_20 
REMARK    5  A    between atoms: N2_20  and  C15_21 
REMARK    6  A    between atoms: C15_21  and  C16_22 
REMARK    7  A    between atoms: C15_21  and  C18_26 
REMARK    8  A    between atoms: C16_22  and  C17_23 
REMARK    9  A    between atoms: C17_23  and  O5_25 
ROOT
HETATM    1  C1  UNL     1     -12.419   3.653  30.520  1.00  0.00     0.015 C 
HETATM    2  C2  UNL     1     -12.801   3.152  29.498  1.00  0.00    -0.078 C 
HETATM    3  C3  UNL     1     -13.281   2.508  28.266  1.00  0.00     0.128 C 
HETATM    4  C4  UNL     1     -12.138   2.063  27.356  1.00  0.00     0.052 C 
HETATM    5  C5  UNL     1     -12.843   1.734  26.046  1.00  0.00     0.010 C 
HETATM    6  C6  UNL     1     -14.010   2.743  25.928  1.00  0.00     0.002 C 
HETATM    7  C7  UNL     1     -13.781   3.723  24.736  1.00  0.00    -0.004 C 
HETATM    8  C8  UNL     1     -14.026   2.986  23.394  1.00  0.00     0.010 C 
HETATM    9  C9  UNL     1     -15.146   3.596  22.551  1.00  0.00     0.035 C 
HETATM   10  C10 UNL     1     -14.849   5.053  22.349  1.00  0.00    -0.069 C 
HETATM   11  C11 UNL     1     -14.598   5.537  21.119  1.00  0.00     0.030 C 
HETATM   12  C12 UNL     1     -14.143   6.942  20.949  1.00  0.00     0.032 C 
HETATM   13  N1  UNL     1     -14.225   7.637  19.855  1.00  0.00    -0.271 N 
ATOM     14  H1  UNL     1     -13.890   8.595  19.761  1.00  0.00     0.194 HD
HETATM   15  C25 UNL     1     -13.537   7.642  22.153  1.00  0.00     0.060 C 
HETATM   16  C26 UNL     1     -13.462   6.776  23.411  1.00  0.00     0.020 C 
HETATM   17  C27 UNL     1     -14.725   5.904  23.615  1.00  0.00    -0.016 C 
HETATM   18  C28 UNL     1     -15.979   6.807  23.755  1.00  0.00     0.020 C 
HETATM   19  C29 UNL     1     -14.658   4.985  24.895  1.00  0.00     0.002 C 
HETATM   20  C30 UNL     1     -14.331   5.736  26.207  1.00  0.00     0.007 C 
HETATM   21  C31 UNL     1     -13.629   4.875  27.261  1.00  0.00     0.014 C 
HETATM   22  C32 UNL     1     -14.150   3.420  27.336  1.00  0.00     0.003 C 
HETATM   23  C33 UNL     1     -15.625   3.436  27.799  1.00  0.00     0.020 C 
ENDROOT
BRANCH   3  24
HETATM   24  O1  UNL     1     -14.012   1.334  28.634  1.00  0.00    -0.377 OA
HETATM   25  H2  UNL     1     -13.473   0.860  29.291  1.00  0.00     0.211 HD
ENDBRANCH   3  24
BRANCH  13  26
HETATM   26  O2  UNL     1     -14.832   6.912  18.817  1.00  0.00    -0.271 OA
BRANCH  26  27
HETATM   27  C13 UNL     1     -14.947   7.764  17.681  1.00  0.00     0.303 C 
BRANCH  27  28
HETATM   28  C14 UNL     1     -14.690   6.971  16.410  1.00  0.00     0.244 C 
HETATM   29  O3  UNL     1     -15.468   6.120  15.990  1.00  0.00    -0.271 OA
HETATM   30  N2  UNL     1     -13.536   7.340  15.745  1.00  0.00    -0.354 N 
HETATM   31  H16 UNL     1     -12.996   8.113  16.134  1.00  0.00     0.162 HD
BRANCH  30  32
HETATM   32  C15 UNL     1     -13.210   6.867  14.403  1.00  0.00     0.098 C 
BRANCH  32  33
HETATM   33  C16 UNL     1     -11.710   6.590  14.259  1.00  0.00     0.135 C 
BRANCH  33  34
HETATM   34  C17 UNL     1     -10.824   7.690  14.761  1.00  0.00     0.141 C 
HETATM   35  O4  UNL     1     -10.685   8.791  14.254  1.00  0.00    -0.650 OA
BRANCH  34  36
HETATM   36  O5  UNL     1     -10.146   7.353  15.877  1.00  0.00    -0.776 OA
HETATM   37  H20 UNL     1      -9.583   8.138  16.061  1.00  0.00     0.167 HD
ENDBRANCH  34  36
ENDBRANCH  33  34
ENDBRANCH  32  33
BRANCH  32  38
HETATM   38  C18 UNL     1     -13.865   7.758  13.309  1.00  0.00     0.014 C 
HETATM   39  C19 UNL     1     -14.984   7.076  12.498  1.00  0.00     0.033 C 
HETATM   40  C20 UNL     1     -15.951   8.084  11.887  1.00  0.00     0.169 C 
HETATM   41  O6  UNL     1     -15.268   9.280  11.529  1.00  0.00    -0.381 OA
HETATM   42  C21 UNL     1     -14.777  10.034  12.648  1.00  0.00     0.054 C 
HETATM   43  C22 UNL     1     -13.569  10.825  12.127  1.00  0.00     0.045 C 
HETATM   44  C23 UNL     1     -15.865  11.020  13.096  1.00  0.00     0.045 C 
HETATM   45  C24 UNL     1     -14.352   9.121  13.824  1.00  0.00     0.044 C 
ENDBRANCH  32  38
ENDBRANCH  30  32
ENDBRANCH  27  28
ENDBRANCH  26  27
ENDBRANCH  13  26
TORSDOF 9
ENDMDL
MODEL 7
REMARK minimizedAffinity -8.61031628
REMARK CNNscore 0.271405995
REMARK CNNaffinity 6.07457209
REMARK  9 active torsions:
REMARK  status: ('A' for Active; 'I' for Inactive)
REMARK    1  A    between atoms: C3_3  and  O1_4 
REMARK    2  A    between atoms: N1_14  and  O2_16 
REMARK    3  A    between atoms: O2_16  and  C13_17 
REMARK    4  A    between atoms: C13_17  and  C14_18 
REMARK       I    between atoms: C14_18  and  N2_20 
REMARK    5  A    between atoms: N2_20  and  C15_21 
REMARK    6  A    between atoms: C15_21  and  C16_22 
REMARK    7  A    between atoms: C15_21  and  C18_26 
REMARK    8  A    between atoms: C16_22  and  C17_23 
REMARK    9  A    between atoms: C17_23  and  O5_25 
ROOT
HETATM    1  C1  UNL     1       1.957   6.995   6.586  1.00  0.00     0.015 C 
HETATM    2  C2  UNL     1       1.831   6.976   7.780  1.00  0.00    -0.078 C 
HETATM    3  C3  UNL     1       1.658   6.918   9.240  1.00  0.00     0.128 C 
HETATM    4  C4  UNL     1       0.669   7.963   9.752  1.00  0.00     0.052 C 
HETATM    5  C5  UNL     1       0.887   7.939  11.259  1.00  0.00     0.010 C 
HETATM    6  C6  UNL     1       2.394   7.663  11.466  1.00  0.00     0.002 C 
HETATM    7  C7  UNL     1       3.107   8.898  12.097  1.00  0.00    -0.004 C 
HETATM    8  C8  UNL     1       2.726   9.018  13.595  1.00  0.00     0.010 C 
HETATM    9  C9  UNL     1       3.921   8.933  14.544  1.00  0.00     0.035 C 
HETATM   10  C10 UNL     1       4.928   9.968  14.134  1.00  0.00    -0.069 C 
HETATM   11  C11 UNL     1       5.229  10.992  14.953  1.00  0.00     0.030 C 
HETATM   12  C12 UNL     1       6.099  12.099  14.473  1.00  0.00     0.032 C 
HETATM   13  N1  UNL     1       6.761  12.922  15.227  1.00  0.00    -0.271 N 
ATOM     14  H1  UNL     1       7.338  13.683  14.871  1.00  0.00     0.194 HD
HETATM   15  C25 UNL     1       6.244  12.287  12.972  1.00  0.00     0.060 C 
HETATM   16  C26 UNL     1       5.440  11.293  12.134  1.00  0.00     0.020 C 
HETATM   17  C27 UNL     1       5.476   9.856  12.709  1.00  0.00    -0.016 C 
HETATM   18  C28 UNL     1       6.937   9.337  12.759  1.00  0.00     0.020 C 
HETATM   19  C29 UNL     1       4.633   8.819  11.872  1.00  0.00     0.002 C 
HETATM   20  C30 UNL     1       4.979   8.780  10.365  1.00  0.00     0.007 C 
HETATM   21  C31 UNL     1       3.818   8.337   9.469  1.00  0.00     0.014 C 
HETATM   22  C32 UNL     1       2.952   7.206  10.072  1.00  0.00     0.003 C 
HETATM   23  C33 UNL     1       3.814   5.930  10.212  1.00  0.00     0.020 C 
ENDROOT
BRANCH   3  24
HETATM   24  O1  UNL     1       1.127   5.632   9.574  1.00  0.00    -0.377 OA
HETATM   25  H2  UNL     1       0.394   5.460   8.958  1.00  0.00     0.211 HD
ENDBRANCH   3  24
BRANCH  13  26
HETATM   26  O2  UNL     1       6.589  12.638  16.591  1.00  0.00    -0.271 OA
BRANCH  26  27
HETATM   27  C13 UNL     1       7.760  11.983  17.066  1.00  0.00     0.303 C 
BRANCH  27  28
HETATM   28  C14 UNL     1       8.763  13.010  17.567  1.00  0.00     0.244 C 
HETATM   29  O3  UNL     1       8.881  14.122  17.063  1.00  0.00    -0.271 OA
HETATM   30  N2  UNL     1       9.479  12.597  18.675  1.00  0.00    -0.354 N 
HETATM   31  H16 UNL     1       9.252  11.684  19.068  1.00  0.00     0.162 HD
BRANCH  30  32
HETATM   32  C15 UNL     1      10.331  13.497  19.446  1.00  0.00     0.098 C 
BRANCH  32  33
HETATM   33  C16 UNL     1      11.810  13.118  19.309  1.00  0.00     0.135 C 
BRANCH  33  34
HETATM   34  C17 UNL     1      12.192  11.846  20.005  1.00  0.00     0.141 C 
HETATM   35  O4  UNL     1      11.612  10.777  19.922  1.00  0.00    -0.650 OA
BRANCH  34  36
HETATM   36  O5  UNL     1      13.288  11.979  20.781  1.00  0.00    -0.776 OA
HETATM   37  H20 UNL     1      13.392  11.098  21.202  1.00  0.00     0.167 HD
ENDBRANCH  34  36
ENDBRANCH  33  34
ENDBRANCH  32  33
BRANCH  32  38
HETATM   38  C18 UNL     1       9.791  13.696  20.891  1.00  0.00     0.014 C 
HETATM   39  C19 UNL     1       9.724  15.161  21.365  1.00  0.00     0.033 C 
HETATM   40  C20 UNL     1       8.700  15.362  22.477  1.00  0.00     0.169 C 
HETATM   41  O6  UNL     1       8.632  14.209  23.309  1.00  0.00    -0.381 OA
HETATM   42  C21 UNL     1       8.089  13.048  22.661  1.00  0.00     0.054 C 
HETATM   43  C22 UNL     1       8.692  11.838  23.387  1.00  0.00     0.045 C 
HETATM   44  C23 UNL     1       6.566  13.040  22.855  1.00  0.00     0.045 C 
HETATM   45  C24 UNL     1       8.446  13.002  21.155  1.00  0.00     0.044 C 
ENDBRANCH  32  38
ENDBRANCH  30  32
ENDBRANCH  27  28
ENDBRANCH  26  27
ENDBRANCH  13  26
TORSDOF 9
ENDMDL
MODEL 8
REMARK minimizedAffinity -8.63220215
REMARK CNNscore 0.267699689
REMARK CNNaffinity 6.84079361
REMARK  9 active torsions:
REMARK  status: ('A' for Active; 'I' for Inactive)
REMARK    1  A    between atoms: C3_3  and  O1_4 
REMARK    2  A    between atoms: N1_14  and  O2_16 
REMARK    3  A    between atoms: O2_16  and  C13_17 
REMARK    4  A    between atoms: C13_17  and  C14_18 
REMARK       I    between atoms: C14_18  and  N2_20 
REMARK    5  A    between atoms: N2_20  and  C15_21 
REMARK    6  A    between atoms: C15_21  and  C16_22 
REMARK    7  A    between atoms: C15_21  and  C18_26 
REMARK    8  A    between atoms: C16_22  and  C17_23 
REMARK    9  A    between atoms: C17_23  and  O5_25 
ROOT
HETATM    1  C1  UNL     1      -6.245   2.464   8.756  1.00  0.00     0.015 C 
HETATM    2  C2  UNL     1      -5.963   2.656   9.908  1.00  0.00    -0.078 C 
HETATM    3  C3  UNL     1      -5.638   2.859  11.328  1.00  0.00     0.128 C 
HETATM    4  C4  UNL     1      -6.338   4.081  11.918  1.00  0.00     0.052 C 
HETATM    5  C5  UNL     1      -5.628   4.280  13.251  1.00  0.00     0.010 C 
HETATM    6  C6  UNL     1      -4.157   3.867  13.013  1.00  0.00     0.002 C 
HETATM    7  C7  UNL     1      -3.206   5.098  13.132  1.00  0.00    -0.004 C 
HETATM    8  C8  UNL     1      -3.054   5.505  14.620  1.00  0.00     0.010 C 
HETATM    9  C9  UNL     1      -1.616   5.438  15.134  1.00  0.00     0.035 C 
HETATM   10  C10 UNL     1      -0.749   6.267  14.232  1.00  0.00    -0.069 C 
HETATM   11  C11 UNL     1      -0.134   7.370  14.697  1.00  0.00     0.030 C 
HETATM   12  C12 UNL     1       0.584   8.274  13.759  1.00  0.00     0.032 C 
HETATM   13  N1  UNL     1       1.506   9.126  14.088  1.00  0.00    -0.271 N 
ATOM     14  H1  UNL     1       1.971   9.747  13.427  1.00  0.00     0.194 HD
HETATM   15  C25 UNL     1       0.226   8.196  12.285  1.00  0.00     0.060 C 
HETATM   16  C26 UNL     1      -0.866   7.178  11.957  1.00  0.00     0.020 C 
HETATM   17  C27 UNL     1      -0.719   5.860  12.757  1.00  0.00    -0.016 C 
HETATM   18  C28 UNL     1       0.643   5.190  12.435  1.00  0.00     0.020 C 
HETATM   19  C29 UNL     1      -1.850   4.805  12.451  1.00  0.00     0.002 C 
HETATM   20  C30 UNL     1      -2.034   4.480  10.950  1.00  0.00     0.007 C 
HETATM   21  C31 UNL     1      -3.451   4.035  10.575  1.00  0.00     0.014 C 
HETATM   22  C32 UNL     1      -4.125   3.126  11.631  1.00  0.00     0.003 C 
HETATM   23  C33 UNL     1      -3.339   1.799  11.731  1.00  0.00     0.020 C 
ENDROOT
BRANCH   3  24
HETATM   24  O1  UNL     1      -6.096   1.715  12.056  1.00  0.00    -0.377 OA
HETATM   25  H2  UNL     1      -7.002   1.531  11.753  1.00  0.00     0.211 HD
ENDBRANCH   3  24
BRANCH  13  26
HETATM   26  O2  UNL     1       1.786   9.092  15.464  1.00  0.00    -0.271 OA
BRANCH  26  27
HETATM   27  C13 UNL     1       2.764   8.084  15.698  1.00  0.00     0.303 C 
BRANCH  27  28
HETATM   28  C14 UNL     1       4.029   8.394  14.914  1.00  0.00     0.244 C 
HETATM   29  O3  UNL     1       5.084   8.712  15.455  1.00  0.00    -0.271 OA
HETATM   30  N2  UNL     1       3.894   8.225  13.549  1.00  0.00    -0.354 N 
HETATM   31  H16 UNL     1       2.999   7.882  13.203  1.00  0.00     0.162 HD
BRANCH  30  32
HETATM   32  C15 UNL     1       5.031   8.256  12.632  1.00  0.00     0.098 C 
BRANCH  32  33
HETATM   33  C16 UNL     1       5.708   9.631  12.632  1.00  0.00     0.135 C 
BRANCH  33  34
HETATM   34  C17 UNL     1       6.489   9.938  11.390  1.00  0.00     0.141 C 
HETATM   35  O4  UNL     1       7.695   9.825  11.251  1.00  0.00    -0.650 OA
BRANCH  34  36
HETATM   36  O5  UNL     1       5.715  10.380  10.377  1.00  0.00    -0.776 OA
HETATM   37  H20 UNL     1       6.355  10.582   9.658  1.00  0.00     0.167 HD
ENDBRANCH  34  36
ENDBRANCH  33  34
ENDBRANCH  32  33
BRANCH  32  38
HETATM   38  C18 UNL     1       4.662   7.657  11.245  1.00  0.00     0.014 C 
HETATM   39  C19 UNL     1       4.930   6.147  11.097  1.00  0.00     0.033 C 
HETATM   40  C20 UNL     1       4.063   5.510  10.016  1.00  0.00     0.169 C 
HETATM   41  O6  UNL     1       3.832   6.428   8.954  1.00  0.00    -0.381 OA
HETATM   42  C21 UNL     1       3.015   7.553   9.315  1.00  0.00     0.054 C 
HETATM   43  C22 UNL     1       3.421   8.690   8.367  1.00  0.00     0.045 C 
HETATM   44  C23 UNL     1       1.544   7.195   9.066  1.00  0.00     0.045 C 
HETATM   45  C24 UNL     1       3.232   7.979  10.787  1.00  0.00     0.044 C 
ENDBRANCH  32  38
ENDBRANCH  30  32
ENDBRANCH  27  28
ENDBRANCH  26  27
ENDBRANCH  13  26
TORSDOF 9
ENDMDL
MODEL 9
REMARK minimizedAffinity -7.29884958
REMARK CNNscore 0.25845623
REMARK CNNaffinity 6.75124359
REMARK  9 active torsions:
REMARK  status: ('A' for Active; 'I' for Inactive)
REMARK    1  A    between atoms: C3_3  and  O1_4 
REMARK    2  A    between atoms: N1_14  and  O2_16 
REMARK    3  A    between atoms: O2_16  and  C13_17 
REMARK    4  A    between atoms: C13_17  and  C14_18 
REMARK       I    between atoms: C14_18  and  N2_20 
REMARK    5  A    between atoms: N2_20  and  C15_21 
REMARK    6  A    between atoms: C15_21  and  C16_22 
REMARK    7  A    between atoms: C15_21  and  C18_26 
REMARK    8  A    between atoms: C16_22  and  C17_23 
REMARK    9  A    between atoms: C17_23  and  O5_25 
ROOT
HETATM    1  C1  UNL     1       2.710   5.189   7.102  1.00  0.00     0.015 C 
HETATM    2  C2  UNL     1       2.791   6.100   7.881  1.00  0.00    -0.078 C 
HETATM    3  C3  UNL     1       2.909   7.236   8.807  1.00  0.00     0.128 C 
HETATM    4  C4  UNL     1       3.836   6.935   9.983  1.00  0.00     0.052 C 
HETATM    5  C5  UNL     1       3.561   8.084  10.946  1.00  0.00     0.010 C 
HETATM    6  C6  UNL     1       2.059   8.417  10.791  1.00  0.00     0.002 C 
HETATM    7  C7  UNL     1       1.274   8.075  12.095  1.00  0.00    -0.004 C 
HETATM    8  C8  UNL     1       1.592   9.123  13.191  1.00  0.00     0.010 C 
HETATM    9  C9  UNL     1       0.366   9.889  13.686  1.00  0.00     0.035 C 
HETATM   10  C10 UNL     1      -0.665   8.896  14.138  1.00  0.00    -0.069 C 
HETATM   11  C11 UNL     1      -1.038   8.835  15.429  1.00  0.00     0.030 C 
HETATM   12  C12 UNL     1      -1.932   7.742  15.896  1.00  0.00     0.032 C 
HETATM   13  N1  UNL     1      -2.654   7.765  16.974  1.00  0.00    -0.271 N 
ATOM     14  H1  UNL     1      -3.246   6.993  17.280  1.00  0.00     0.194 HD
HETATM   15  C25 UNL     1      -2.026   6.488  15.042  1.00  0.00     0.060 C 
HETATM   16  C26 UNL     1      -1.152   6.517  13.789  1.00  0.00     0.020 C 
HETATM   17  C27 UNL     1      -1.153   7.896  13.086  1.00  0.00    -0.016 C 
HETATM   18  C28 UNL     1      -2.593   8.271  12.649  1.00  0.00     0.020 C 
HETATM   19  C29 UNL     1      -0.238   7.954  11.803  1.00  0.00     0.002 C 
HETATM   20  C30 UNL     1      -0.523   6.845  10.763  1.00  0.00     0.007 C 
HETATM   21  C31 UNL     1       0.687   6.466   9.905  1.00  0.00     0.014 C 
HETATM   22  C32 UNL     1       1.573   7.669   9.500  1.00  0.00     0.003 C 
HETATM   23  C33 UNL     1       0.757   8.612   8.587  1.00  0.00     0.020 C 
ENDROOT
BRANCH   3  24
HETATM   24  O1  UNL     1       3.477   8.337   8.091  1.00  0.00    -0.377 OA
HETATM   25  H2  UNL     1       4.239   7.989   7.596  1.00  0.00     0.211 HD
ENDBRANCH   3  24
BRANCH  13  26
HETATM   26  O2  UNL     1      -2.524   8.978  17.669  1.00  0.00    -0.271 OA
BRANCH  26  27
HETATM   27  C13 UNL     1      -3.556   9.857  17.236  1.00  0.00     0.303 C 
BRANCH  27  28
HETATM   28  C14 UNL     1      -3.209  11.289  17.611  1.00  0.00     0.244 C 
HETATM   29  O3  UNL     1      -3.834  11.924  18.456  1.00  0.00    -0.271 OA
HETATM   30  N2  UNL     1      -2.094  11.782  16.961  1.00  0.00    -0.354 N 
HETATM   31  H16 UNL     1      -1.596  11.149  16.335  1.00  0.00     0.162 HD
BRANCH  30  32
HETATM   32  C15 UNL     1      -1.458  13.044  17.327  1.00  0.00     0.098 C 
BRANCH  32  33
HETATM   33  C16 UNL     1      -1.591  14.080  16.205  1.00  0.00     0.135 C 
BRANCH  33  34
HETATM   34  C17 UNL     1      -2.148  13.539  14.922  1.00  0.00     0.141 C 
HETATM   35  O4  UNL     1      -3.318  13.558  14.581  1.00  0.00    -0.650 OA
BRANCH  34  36
HETATM   36  O5  UNL     1      -1.205  12.992  14.128  1.00  0.00    -0.776 OA
HETATM   37  H20 UNL     1      -1.711  12.644  13.360  1.00  0.00     0.167 HD
ENDBRANCH  34  36
ENDBRANCH  33  34
ENDBRANCH  32  33
BRANCH  32  38
HETATM   38  C18 UNL     1      -0.033  12.819  17.906  1.00  0.00     0.014 C 
HETATM   39  C19 UNL     1       1.094  13.576  17.177  1.00  0.00     0.033 C 
HETATM   40  C20 UNL     1       2.310  13.802  18.069  1.00  0.00     0.169 C 
HETATM   41  O6  UNL     1       2.480  12.713  18.969  1.00  0.00    -0.381 OA
HETATM   42  C21 UNL     1       1.446  12.603  19.960  1.00  0.00     0.054 C 
HETATM   43  C22 UNL     1       1.392  11.119  20.350  1.00  0.00     0.045 C 
HETATM   44  C23 UNL     1       1.849  13.429  21.189  1.00  0.00     0.045 C 
HETATM   45  C24 UNL     1       0.071  13.065  19.420  1.00  0.00     0.044 C 
ENDBRANCH  32  38
ENDBRANCH  30  32
ENDBRANCH  27  28
ENDBRANCH  26  27
ENDBRANCH  13  26
TORSDOF 9
ENDMDL
