MODEL 1
REMARK minimizedAffinity -8.58158398
REMARK CNNscore 0.454469234
REMARK CNNaffinity 7.14197731
REMARK  14 active torsions:
REMARK  status: ('A' for Active; 'I' for Inactive)
REMARK    1  A    between atoms: O1_2  and  C2_3 
REMARK    2  A    between atoms: C8_9  and  O2_10 
REMARK    3  A    between atoms: O2_10  and  C9_11 
REMARK    4  A    between atoms: C10_13  and  C11_14 
REMARK    5  A    between atoms: C11_14  and  O4_15 
REMARK    6  A    between atoms: C12_16  and  O5_17 
REMARK    7  A    between atoms: C13_18  and  O6_19 
REMARK    8  A    between atoms: C14_20  and  O7_21 
REMARK    9  A    between atoms: C18_25  and  C19_26 
REMARK   10  A    between atoms: C24_32  and  C25_33 
REMARK   11  A    between atoms: C25_33  and  C27_35 
REMARK   12  A    between atoms: C27_35  and  C28_36 
REMARK   13  A    between atoms: C29_37  and  C30_38 
REMARK   14  A    between atoms: C30_38  and  O9_41 
ROOT
HETATM    1  C2  UNL     1      -4.496  51.151 -21.978  1.00  0.00     0.149 C 
HETATM    2  C3  UNL     1      -5.702  50.290 -22.151  1.00  0.00     0.009 C 
HETATM    3  C4  UNL     1      -5.641  49.051 -22.666  1.00  0.00    -0.066 C 
HETATM    4  C5  UNL     1      -4.304  48.487 -23.113  1.00  0.00     0.031 C 
HETATM    5  C6  UNL     1      -4.291  48.592 -24.657  1.00  0.00     0.013 C 
HETATM    6  C7  UNL     1      -5.640  48.209 -25.302  1.00  0.00     0.034 C 
HETATM    7  C8  UNL     1      -6.551  47.396 -24.363  1.00  0.00     0.136 C 
HETATM    8  C15 UNL     1      -6.861  48.189 -23.033  1.00  0.00     0.002 C 
HETATM    9  C16 UNL     1      -7.117  47.173 -21.898  1.00  0.00     0.022 C 
HETATM   10  C17 UNL     1      -8.156  49.022 -23.192  1.00  0.00     0.022 C 
HETATM   11  C18 UNL     1      -3.035  49.002 -22.307  1.00  0.00     0.027 C 
HETATM   12  C20 UNL     1      -2.583  47.814 -21.371  1.00  0.00     0.018 C 
HETATM   13  C21 UNL     1      -1.710  48.099 -20.138  1.00  0.00     0.011 C 
HETATM   14  C22 UNL     1      -1.736  49.545 -19.626  1.00  0.00    -0.032 C 
HETATM   15  C23 UNL     1      -0.508  50.280 -20.259  1.00  0.00     0.016 C 
HETATM   16  C24 UNL     1      -1.679  49.740 -18.071  1.00  0.00    -0.002 C 
HETATM   17  C34 UNL     1      -2.261  51.174 -17.897  1.00  0.00     0.006 C 
HETATM   18  C35 UNL     1      -3.020  51.529 -19.188  1.00  0.00     0.011 C 
HETATM   19  C36 UNL     1      -3.126  50.202 -19.969  1.00  0.00    -0.029 C 
HETATM   20  C37 UNL     1      -4.374  49.471 -19.385  1.00  0.00     0.016 C 
HETATM   21  C38 UNL     1      -3.253  50.363 -21.515  1.00  0.00     0.043 C 
ENDROOT
BRANCH   7  22
HETATM   22  O2  UNL     1      -7.771  47.072 -25.042  1.00  0.00    -0.352 OA
BRANCH  22  23
HETATM   23  C9  UNL     1      -8.869  47.941 -24.757  1.00  0.00     0.292 C 
HETATM   24  O3  UNL     1      -9.868  47.243 -24.028  1.00  0.00    -0.348 OA
HETATM   25  C10 UNL     1     -10.665  46.282 -24.738  1.00  0.00     0.179 C 
HETATM   26  C12 UNL     1     -10.859  46.582 -26.230  1.00  0.00     0.180 C 
HETATM   27  C13 UNL     1     -10.764  48.085 -26.455  1.00  0.00     0.183 C 
HETATM   28  C14 UNL     1      -9.360  48.559 -26.093  1.00  0.00     0.204 C 
BRANCH  25  29
HETATM   29  C11 UNL     1     -10.141  44.855 -24.493  1.00  0.00     0.198 C 
BRANCH  29  30
HETATM   30  O4  UNL     1      -9.123  44.806 -23.501  1.00  0.00    -0.398 OA
HETATM   31  H16 UNL     1      -9.451  45.310 -22.731  1.00  0.00     0.209 HD
ENDBRANCH  29  30
ENDBRANCH  25  29
BRANCH  26  32
HETATM   32  O5  UNL     1     -12.144  46.113 -26.665  1.00  0.00    -0.390 OA
HETATM   33  H18 UNL     1     -12.196  46.377 -27.603  1.00  0.00     0.210 HD
ENDBRANCH  26  32
BRANCH  27  34
HETATM   34  O6  UNL     1     -11.035  48.383 -27.835  1.00  0.00    -0.390 OA
HETATM   35  H20 UNL     1     -10.845  49.340 -27.934  1.00  0.00     0.210 HD
ENDBRANCH  27  34
BRANCH  28  36
HETATM   36  O7  UNL     1      -9.379  49.997 -26.055  1.00  0.00    -0.388 OA
HETATM   37  H22 UNL     1      -8.460  50.303 -25.930  1.00  0.00     0.210 HD
ENDBRANCH  28  36
ENDBRANCH  22  23
ENDBRANCH   7  22
BRANCH  11  38
HETATM   38  C19 UNL     1      -1.917  49.273 -23.324  1.00  0.00     0.241 C 
HETATM   39  O8  UNL     1      -1.361  50.357 -23.480  1.00  0.00    -0.306 OA
ENDBRANCH  11  38
BRANCH   1  40
HETATM   40  O1  UNL     1      -4.168  51.725 -23.254  1.00  0.00    -0.386 OA
HETATM   41  C1  UNL     1      -5.313  52.129 -24.000  1.00  0.00     0.202 C 
ENDBRANCH   1  40
BRANCH  16  42
HETATM   42  C25 UNL     1      -0.340  49.543 -17.294  1.00  0.00    -0.010 C 
HETATM   43  C26 UNL     1      -0.480  48.514 -16.165  1.00  0.00     0.010 C 
BRANCH  42  44
HETATM   44  C27 UNL     1       0.148  50.906 -16.728  1.00  0.00     0.031 C 
BRANCH  44  45
HETATM   45  C28 UNL     1       1.542  50.893 -16.163  1.00  0.00    -0.027 C 
HETATM   46  C29 UNL     1       1.840  51.301 -14.919  1.00  0.00     0.006 C 
BRANCH  46  47
HETATM   47  C30 UNL     1       3.196  51.291 -14.241  1.00  0.00     0.070 C 
HETATM   48  C31 UNL     1       3.742  49.903 -13.865  1.00  0.00     0.050 C 
HETATM   49  C32 UNL     1       4.195  51.949 -15.205  1.00  0.00     0.050 C 
BRANCH  47  50
HETATM   50  O9  UNL     1       3.146  52.160 -13.094  1.00  0.00    -0.382 OA
HETATM   51  C33 UNL     1       2.611  51.599 -11.902  1.00  0.00     0.202 C 
ENDBRANCH  47  50
ENDBRANCH  46  47
ENDBRANCH  44  45
ENDBRANCH  42  44
ENDBRANCH  16  42
TORSDOF 14
ENDMDL
MODEL 2
REMARK minimizedAffinity -8.78865051
REMARK CNNscore 0.341506183
REMARK CNNaffinity 6.80835581
REMARK  14 active torsions:
REMARK  status: ('A' for Active; 'I' for Inactive)
REMARK    1  A    between atoms: O1_2  and  C2_3 
REMARK    2  A    between atoms: C8_9  and  O2_10 
REMARK    3  A    between atoms: O2_10  and  C9_11 
REMARK    4  A    between atoms: C10_13  and  C11_14 
REMARK    5  A    between atoms: C11_14  and  O4_15 
REMARK    6  A    between atoms: C12_16  and  O5_17 
REMARK    7  A    between atoms: C13_18  and  O6_19 
REMARK    8  A    between atoms: C14_20  and  O7_21 
REMARK    9  A    between atoms: C18_25  and  C19_26 
REMARK   10  A    between atoms: C24_32  and  C25_33 
REMARK   11  A    between atoms: C25_33  and  C27_35 
REMARK   12  A    between atoms: C27_35  and  C28_36 
REMARK   13  A    between atoms: C29_37  and  C30_38 
REMARK   14  A    between atoms: C30_38  and  O9_41 
ROOT
HETATM    1  C2  UNL     1      -5.121  49.669 -19.987  1.00  0.00     0.149 C 
HETATM    2  C3  UNL     1      -5.206  48.193 -19.777  1.00  0.00     0.009 C 
HETATM    3  C4  UNL     1      -5.162  47.312 -20.790  1.00  0.00    -0.066 C 
HETATM    4  C5  UNL     1      -5.036  47.813 -22.218  1.00  0.00     0.031 C 
HETATM    5  C6  UNL     1      -6.449  47.699 -22.837  1.00  0.00     0.013 C 
HETATM    6  C7  UNL     1      -7.176  46.393 -22.449  1.00  0.00     0.034 C 
HETATM    7  C8  UNL     1      -6.224  45.304 -21.922  1.00  0.00     0.136 C 
HETATM    8  C15 UNL     1      -5.423  45.802 -20.656  1.00  0.00     0.002 C 
HETATM    9  C16 UNL     1      -4.068  45.062 -20.602  1.00  0.00     0.022 C 
HETATM   10  C17 UNL     1      -6.186  45.441 -19.358  1.00  0.00     0.022 C 
HETATM   11  C18 UNL     1      -4.235  49.174 -22.402  1.00  0.00     0.027 C 
HETATM   12  C20 UNL     1      -2.830  48.792 -23.012  1.00  0.00     0.018 C 
HETATM   13  C21 UNL     1      -1.648  49.767 -22.884  1.00  0.00     0.011 C 
HETATM   14  C22 UNL     1      -1.770  50.815 -21.771  1.00  0.00    -0.032 C 
HETATM   15  C23 UNL     1      -2.347  52.115 -22.424  1.00  0.00     0.016 C 
HETATM   16  C24 UNL     1      -0.450  51.189 -21.012  1.00  0.00    -0.002 C 
HETATM   17  C34 UNL     1      -0.993  51.792 -19.684  1.00  0.00     0.006 C 
HETATM   18  C35 UNL     1      -2.453  51.335 -19.526  1.00  0.00     0.011 C 
HETATM   19  C36 UNL     1      -2.649  50.240 -20.597  1.00  0.00    -0.029 C 
HETATM   20  C37 UNL     1      -2.120  48.923 -19.950  1.00  0.00     0.016 C 
HETATM   21  C38 UNL     1      -4.117  50.064 -21.090  1.00  0.00     0.043 C 
ENDROOT
BRANCH   7  22
HETATM   22  O2  UNL     1      -6.976  44.126 -21.600  1.00  0.00    -0.352 OA
BRANCH  22  23
HETATM   23  C9  UNL     1      -6.549  42.937 -22.268  1.00  0.00     0.292 C 
HETATM   24  O3  UNL     1      -7.191  42.828 -23.531  1.00  0.00    -0.348 OA
HETATM   25  C10 UNL     1      -8.584  42.473 -23.543  1.00  0.00     0.179 C 
HETATM   26  C12 UNL     1      -9.038  41.606 -22.362  1.00  0.00     0.180 C 
HETATM   27  C13 UNL     1      -7.856  40.789 -21.857  1.00  0.00     0.183 C 
HETATM   28  C14 UNL     1      -6.786  41.733 -21.319  1.00  0.00     0.204 C 
BRANCH  25  29
HETATM   29  C11 UNL     1      -9.462  43.725 -23.719  1.00  0.00     0.198 C 
BRANCH  29  30
HETATM   30  O4  UNL     1     -10.264  43.674 -24.893  1.00  0.00    -0.398 OA
HETATM   31  H16 UNL     1     -10.706  42.802 -24.899  1.00  0.00     0.209 HD
ENDBRANCH  29  30
ENDBRANCH  25  29
BRANCH  26  32
HETATM   32  O5  UNL     1     -10.090  40.721 -22.776  1.00  0.00    -0.390 OA
HETATM   33  H18 UNL     1     -10.288  40.188 -21.983  1.00  0.00     0.210 HD
ENDBRANCH  26  32
BRANCH  27  34
HETATM   34  O6  UNL     1      -8.294  39.906 -20.810  1.00  0.00    -0.390 OA
HETATM   35  H20 UNL     1      -7.475  39.500 -20.456  1.00  0.00     0.210 HD
ENDBRANCH  27  34
BRANCH  28  36
HETATM   36  O7  UNL     1      -5.590  40.963 -21.103  1.00  0.00    -0.388 OA
HETATM   37  H22 UNL     1      -4.941  41.542 -20.659  1.00  0.00     0.210 HD
ENDBRANCH  28  36
ENDBRANCH  22  23
ENDBRANCH   7  22
BRANCH  11  38
HETATM   38  C19 UNL     1      -4.996  50.026 -23.430  1.00  0.00     0.241 C 
HETATM   39  O8  UNL     1      -4.617  50.239 -24.578  1.00  0.00    -0.306 OA
ENDBRANCH  11  38
BRANCH   1  40
HETATM   40  O1  UNL     1      -6.410  50.136 -20.417  1.00  0.00    -0.386 OA
HETATM   41  C1  UNL     1      -7.490  49.538 -19.707  1.00  0.00     0.202 C 
ENDBRANCH   1  40
BRANCH  16  42
HETATM   42  C25 UNL     1       0.622  52.103 -21.685  1.00  0.00    -0.010 C 
HETATM   43  C26 UNL     1       1.332  53.001 -20.664  1.00  0.00     0.010 C 
BRANCH  42  44
HETATM   44  C27 UNL     1      -0.039  52.964 -22.797  1.00  0.00     0.031 C 
BRANCH  44  45
HETATM   45  C28 UNL     1       0.598  52.846 -24.154  1.00  0.00    -0.027 C 
HETATM   46  C29 UNL     1      -0.093  52.592 -25.277  1.00  0.00     0.006 C 
BRANCH  46  47
HETATM   47  C30 UNL     1       0.443  52.495 -26.692  1.00  0.00     0.070 C 
HETATM   48  C31 UNL     1       0.039  51.231 -27.471  1.00  0.00     0.050 C 
HETATM   49  C32 UNL     1      -0.081  53.716 -27.464  1.00  0.00     0.050 C 
BRANCH  47  50
HETATM   50  O9  UNL     1       1.873  52.651 -26.657  1.00  0.00    -0.382 OA
HETATM   51  C33 UNL     1       2.639  51.459 -26.768  1.00  0.00     0.202 C 
ENDBRANCH  47  50
ENDBRANCH  46  47
ENDBRANCH  44  45
ENDBRANCH  42  44
ENDBRANCH  16  42
TORSDOF 14
ENDMDL
MODEL 3
REMARK minimizedAffinity -8.97955608
REMARK CNNscore 0.28614676
REMARK CNNaffinity 6.89751577
REMARK  14 active torsions:
REMARK  status: ('A' for Active; 'I' for Inactive)
REMARK    1  A    between atoms: O1_2  and  C2_3 
REMARK    2  A    between atoms: C8_9  and  O2_10 
REMARK    3  A    between atoms: O2_10  and  C9_11 
REMARK    4  A    between atoms: C10_13  and  C11_14 
REMARK    5  A    between atoms: C11_14  and  O4_15 
REMARK    6  A    between atoms: C12_16  and  O5_17 
REMARK    7  A    between atoms: C13_18  and  O6_19 
REMARK    8  A    between atoms: C14_20  and  O7_21 
REMARK    9  A    between atoms: C18_25  and  C19_26 
REMARK   10  A    between atoms: C24_32  and  C25_33 
REMARK   11  A    between atoms: C25_33  and  C27_35 
REMARK   12  A    between atoms: C27_35  and  C28_36 
REMARK   13  A    between atoms: C29_37  and  C30_38 
REMARK   14  A    between atoms: C30_38  and  O9_41 
ROOT
HETATM    1  C2  UNL     1      -4.657  49.557 -19.458  1.00  0.00     0.149 C 
HETATM    2  C3  UNL     1      -4.587  50.517 -20.598  1.00  0.00     0.009 C 
HETATM    3  C4  UNL     1      -4.344  50.128 -21.861  1.00  0.00    -0.066 C 
HETATM    4  C5  UNL     1      -4.112  48.658 -22.163  1.00  0.00     0.031 C 
HETATM    5  C6  UNL     1      -2.584  48.496 -22.346  1.00  0.00     0.013 C 
HETATM    6  C7  UNL     1      -1.946  49.647 -23.153  1.00  0.00     0.034 C 
HETATM    7  C8  UNL     1      -2.970  50.455 -23.970  1.00  0.00     0.136 C 
HETATM    8  C15 UNL     1      -4.084  51.079 -23.041  1.00  0.00     0.002 C 
HETATM    9  C16 UNL     1      -5.386  51.230 -23.860  1.00  0.00     0.022 C 
HETATM   10  C17 UNL     1      -3.672  52.500 -22.584  1.00  0.00     0.022 C 
HETATM   11  C18 UNL     1      -4.876  47.632 -21.220  1.00  0.00     0.027 C 
HETATM   12  C20 UNL     1      -6.065  47.036 -22.070  1.00  0.00     0.018 C 
HETATM   13  C21 UNL     1      -7.266  46.390 -21.361  1.00  0.00     0.011 C 
HETATM   14  C22 UNL     1      -7.466  46.792 -19.895  1.00  0.00    -0.032 C 
HETATM   15  C23 UNL     1      -6.776  45.693 -19.019  1.00  0.00     0.016 C 
HETATM   16  C24 UNL     1      -8.947  46.953 -19.406  1.00  0.00    -0.002 C 
HETATM   17  C34 UNL     1      -8.782  47.852 -18.146  1.00  0.00     0.006 C 
HETATM   18  C35 UNL     1      -7.399  48.521 -18.227  1.00  0.00     0.011 C 
HETATM   19  C36 UNL     1      -6.904  48.245 -19.663  1.00  0.00    -0.029 C 
HETATM   20  C37 UNL     1      -7.544  49.359 -20.549  1.00  0.00     0.016 C 
HETATM   21  C38 UNL     1      -5.354  48.231 -19.827  1.00  0.00     0.043 C 
ENDROOT
BRANCH   7  22
HETATM   22  O2  UNL     1      -2.294  51.490 -24.696  1.00  0.00    -0.352 OA
BRANCH  22  23
HETATM   23  C9  UNL     1      -1.787  51.098 -25.974  1.00  0.00     0.292 C 
HETATM   24  O3  UNL     1      -0.366  51.085 -25.952  1.00  0.00    -0.348 OA
HETATM   25  C10 UNL     1       0.313  52.351 -25.943  1.00  0.00     0.179 C 
HETATM   26  C12 UNL     1      -0.444  53.493 -26.632  1.00  0.00     0.180 C 
HETATM   27  C13 UNL     1      -1.354  52.914 -27.707  1.00  0.00     0.183 C 
HETATM   28  C14 UNL     1      -2.406  52.027 -27.050  1.00  0.00     0.204 C 
BRANCH  25  29
HETATM   29  C11 UNL     1       0.753  52.721 -24.515  1.00  0.00     0.198 C 
BRANCH  29  30
HETATM   30  O4  UNL     1       1.210  54.064 -24.410  1.00  0.00    -0.398 OA
HETATM   31  H16 UNL     1       0.538  54.628 -24.841  1.00  0.00     0.209 HD
ENDBRANCH  29  30
ENDBRANCH  25  29
BRANCH  26  32
HETATM   32  O5  UNL     1       0.485  54.408 -27.233  1.00  0.00    -0.390 OA
HETATM   33  H18 UNL     1      -0.077  55.072 -27.675  1.00  0.00     0.210 HD
ENDBRANCH  26  32
BRANCH  27  34
HETATM   34  O6  UNL     1      -1.999  53.983 -28.420  1.00  0.00    -0.390 OA
HETATM   35  H20 UNL     1      -2.648  53.546 -29.010  1.00  0.00     0.210 HD
ENDBRANCH  27  34
BRANCH  28  36
HETATM   36  O7  UNL     1      -3.071  51.290 -28.091  1.00  0.00    -0.388 OA
HETATM   37  H22 UNL     1      -3.814  50.805 -27.683  1.00  0.00     0.210 HD
ENDBRANCH  28  36
ENDBRANCH  22  23
ENDBRANCH   7  22
BRANCH  11  38
HETATM   38  C19 UNL     1      -3.900  46.494 -20.884  1.00  0.00     0.241 C 
HETATM   39  O8  UNL     1      -3.568  46.170 -19.746  1.00  0.00    -0.306 OA
ENDBRANCH  11  38
BRANCH   1  40
HETATM   40  O1  UNL     1      -3.314  49.224 -19.069  1.00  0.00    -0.386 OA
HETATM   41  C1  UNL     1      -3.166  49.034 -17.665  1.00  0.00     0.202 C 
ENDBRANCH   1  40
BRANCH  16  42
HETATM   42  C25 UNL     1      -9.834  45.699 -19.130  1.00  0.00    -0.010 C 
HETATM   43  C26 UNL     1     -10.406  45.107 -20.425  1.00  0.00     0.010 C 
BRANCH  42  44
HETATM   44  C27 UNL     1     -10.982  46.068 -18.150  1.00  0.00     0.031 C 
BRANCH  44  45
HETATM   45  C28 UNL     1     -12.041  46.968 -18.724  1.00  0.00    -0.027 C 
HETATM   46  C29 UNL     1     -13.239  47.162 -18.149  1.00  0.00     0.006 C 
BRANCH  46  47
HETATM   47  C30 UNL     1     -14.355  48.074 -18.619  1.00  0.00     0.070 C 
HETATM   48  C31 UNL     1     -14.036  48.934 -19.854  1.00  0.00     0.050 C 
HETATM   49  C32 UNL     1     -15.561  47.184 -18.959  1.00  0.00     0.050 C 
BRANCH  47  50
HETATM   50  O9  UNL     1     -14.783  48.889 -17.513  1.00  0.00    -0.382 OA
HETATM   51  C33 UNL     1     -15.924  49.707 -17.739  1.00  0.00     0.202 C 
ENDBRANCH  47  50
ENDBRANCH  46  47
ENDBRANCH  44  45
ENDBRANCH  42  44
ENDBRANCH  16  42
TORSDOF 14
ENDMDL
MODEL 4
REMARK minimizedAffinity -9.55253792
REMARK CNNscore 0.28252086
REMARK CNNaffinity 6.93595171
REMARK  14 active torsions:
REMARK  status: ('A' for Active; 'I' for Inactive)
REMARK    1  A    between atoms: O1_2  and  C2_3 
REMARK    2  A    between atoms: C8_9  and  O2_10 
REMARK    3  A    between atoms: O2_10  and  C9_11 
REMARK    4  A    between atoms: C10_13  and  C11_14 
REMARK    5  A    between atoms: C11_14  and  O4_15 
REMARK    6  A    between atoms: C12_16  and  O5_17 
REMARK    7  A    between atoms: C13_18  and  O6_19 
REMARK    8  A    between atoms: C14_20  and  O7_21 
REMARK    9  A    between atoms: C18_25  and  C19_26 
REMARK   10  A    between atoms: C24_32  and  C25_33 
REMARK   11  A    between atoms: C25_33  and  C27_35 
REMARK   12  A    between atoms: C27_35  and  C28_36 
REMARK   13  A    between atoms: C29_37  and  C30_38 
REMARK   14  A    between atoms: C30_38  and  O9_41 
ROOT
HETATM    1  C2  UNL     1      -4.909  46.991 -20.764  1.00  0.00     0.149 C 
HETATM    2  C3  UNL     1      -5.587  46.593 -22.032  1.00  0.00     0.009 C 
HETATM    3  C4  UNL     1      -6.401  47.420 -22.710  1.00  0.00    -0.066 C 
HETATM    4  C5  UNL     1      -6.669  48.816 -22.176  1.00  0.00     0.031 C 
HETATM    5  C6  UNL     1      -8.076  48.764 -21.533  1.00  0.00     0.013 C 
HETATM    6  C7  UNL     1      -9.093  47.956 -22.368  1.00  0.00     0.034 C 
HETATM    7  C8  UNL     1      -8.654  47.755 -23.830  1.00  0.00     0.136 C 
HETATM    8  C15 UNL     1      -7.264  47.012 -23.917  1.00  0.00     0.002 C 
HETATM    9  C16 UNL     1      -6.548  47.448 -25.215  1.00  0.00     0.022 C 
HETATM   10  C17 UNL     1      -7.475  45.481 -24.011  1.00  0.00     0.022 C 
HETATM   11  C18 UNL     1      -5.483  49.478 -21.352  1.00  0.00     0.027 C 
HETATM   12  C20 UNL     1      -4.839  50.573 -22.289  1.00  0.00     0.018 C 
HETATM   13  C21 UNL     1      -3.410  51.071 -22.017  1.00  0.00     0.011 C 
HETATM   14  C22 UNL     1      -2.534  50.141 -21.168  1.00  0.00    -0.032 C 
HETATM   15  C23 UNL     1      -2.637  50.637 -19.687  1.00  0.00     0.016 C 
HETATM   16  C24 UNL     1      -1.017  50.059 -21.555  1.00  0.00    -0.002 C 
HETATM   17  C34 UNL     1      -0.586  48.706 -20.917  1.00  0.00     0.006 C 
HETATM   18  C35 UNL     1      -1.864  47.895 -20.636  1.00  0.00     0.011 C 
HETATM   19  C36 UNL     1      -2.988  48.647 -21.379  1.00  0.00    -0.029 C 
HETATM   20  C37 UNL     1      -2.934  48.134 -22.851  1.00  0.00     0.016 C 
HETATM   21  C38 UNL     1      -4.413  48.452 -20.777  1.00  0.00     0.043 C 
ENDROOT
BRANCH   7  22
HETATM   22  O2  UNL     1      -9.658  47.010 -24.533  1.00  0.00    -0.352 OA
BRANCH  22  23
HETATM   23  C9  UNL     1     -10.422  47.768 -25.474  1.00  0.00     0.292 C 
HETATM   24  O3  UNL     1     -11.188  46.898 -26.295  1.00  0.00    -0.348 OA
HETATM   25  C10 UNL     1     -10.491  46.140 -27.297  1.00  0.00     0.179 C 
HETATM   26  C12 UNL     1      -9.222  46.807 -27.843  1.00  0.00     0.180 C 
HETATM   27  C13 UNL     1      -9.361  48.319 -27.723  1.00  0.00     0.183 C 
HETATM   28  C14 UNL     1      -9.455  48.700 -26.249  1.00  0.00     0.204 C 
BRANCH  25  29
HETATM   29  C11 UNL     1     -10.232  44.704 -26.809  1.00  0.00     0.198 C 
BRANCH  29  30
HETATM   30  O4  UNL     1     -11.255  43.796 -27.201  1.00  0.00    -0.398 OA
HETATM   31  H16 UNL     1     -11.407  43.933 -28.157  1.00  0.00     0.209 HD
ENDBRANCH  29  30
ENDBRANCH  25  29
BRANCH  26  32
HETATM   32  O5  UNL     1      -9.031  46.451 -29.220  1.00  0.00    -0.390 OA
HETATM   33  H18 UNL     1      -8.234  46.944 -29.492  1.00  0.00     0.210 HD
ENDBRANCH  26  32
BRANCH  27  34
HETATM   34  O6  UNL     1      -8.215  48.955 -28.315  1.00  0.00    -0.390 OA
HETATM   35  H20 UNL     1      -8.311  49.908 -28.104  1.00  0.00     0.210 HD
ENDBRANCH  27  34
BRANCH  28  36
HETATM   36  O7  UNL     1      -9.851  50.081 -26.177  1.00  0.00    -0.388 OA
HETATM   37  H22 UNL     1      -9.807  50.354 -25.241  1.00  0.00     0.210 HD
ENDBRANCH  28  36
ENDBRANCH  22  23
ENDBRANCH   7  22
BRANCH  11  38
HETATM   38  C19 UNL     1      -6.099  50.181 -20.133  1.00  0.00     0.241 C 
HETATM   39  O8  UNL     1      -6.975  49.701 -19.418  1.00  0.00    -0.306 OA
ENDBRANCH  11  38
BRANCH   1  40
HETATM   40  O1  UNL     1      -5.862  46.888 -19.694  1.00  0.00    -0.386 OA
HETATM   41  C1  UNL     1      -5.263  46.915 -18.402  1.00  0.00     0.202 C 
ENDBRANCH   1  40
BRANCH  16  42
HETATM   42  C25 UNL     1      -0.041  51.222 -21.197  1.00  0.00    -0.010 C 
HETATM   43  C26 UNL     1      -0.317  51.790 -19.798  1.00  0.00     0.010 C 
BRANCH  42  44
HETATM   44  C27 UNL     1      -0.140  52.345 -22.267  1.00  0.00     0.031 C 
BRANCH  44  45
HETATM   45  C28 UNL     1      -0.020  51.876 -23.690  1.00  0.00    -0.027 C 
HETATM   46  C29 UNL     1       0.792  52.450 -24.593  1.00  0.00     0.006 C 
BRANCH  46  47
HETATM   47  C30 UNL     1       1.019  52.032 -26.033  1.00  0.00     0.070 C 
HETATM   48  C31 UNL     1       2.364  51.345 -26.322  1.00  0.00     0.050 C 
HETATM   49  C32 UNL     1      -0.105  51.054 -26.407  1.00  0.00     0.050 C 
BRANCH  47  50
HETATM   50  O9  UNL     1       0.825  53.177 -26.883  1.00  0.00    -0.382 OA
HETATM   51  C33 UNL     1      -0.370  53.193 -27.653  1.00  0.00     0.202 C 
ENDBRANCH  47  50
ENDBRANCH  46  47
ENDBRANCH  44  45
ENDBRANCH  42  44
ENDBRANCH  16  42
TORSDOF 14
ENDMDL
MODEL 5
REMARK minimizedAffinity -9.12308216
REMARK CNNscore 0.237594321
REMARK CNNaffinity 7.17300034
REMARK  14 active torsions:
REMARK  status: ('A' for Active; 'I' for Inactive)
REMARK    1  A    between atoms: O1_2  and  C2_3 
REMARK    2  A    between atoms: C8_9  and  O2_10 
REMARK    3  A    between atoms: O2_10  and  C9_11 
REMARK    4  A    between atoms: C10_13  and  C11_14 
REMARK    5  A    between atoms: C11_14  and  O4_15 
REMARK    6  A    between atoms: C12_16  and  O5_17 
REMARK    7  A    between atoms: C13_18  and  O6_19 
REMARK    8  A    between atoms: C14_20  and  O7_21 
REMARK    9  A    between atoms: C18_25  and  C19_26 
REMARK   10  A    between atoms: C24_32  and  C25_33 
REMARK   11  A    between atoms: C25_33  and  C27_35 
REMARK   12  A    between atoms: C27_35  and  C28_36 
REMARK   13  A    between atoms: C29_37  and  C30_38 
REMARK   14  A    between atoms: C30_38  and  O9_41 
ROOT
HETATM    1  C2  UNL     1      -5.051  47.006 -21.236  1.00  0.00     0.149 C 
HETATM    2  C3  UNL     1      -5.634  46.787 -22.592  1.00  0.00     0.009 C 
HETATM    3  C4  UNL     1      -6.334  47.731 -23.243  1.00  0.00    -0.066 C 
HETATM    4  C5  UNL     1      -6.568  49.081 -22.586  1.00  0.00     0.031 C 
HETATM    5  C6  UNL     1      -8.027  49.058 -22.072  1.00  0.00     0.013 C 
HETATM    6  C7  UNL     1      -9.010  48.410 -23.071  1.00  0.00     0.034 C 
HETATM    7  C8  UNL     1      -8.454  48.330 -24.504  1.00  0.00     0.136 C 
HETATM    8  C15 UNL     1      -7.107  47.508 -24.554  1.00  0.00     0.002 C 
HETATM    9  C16 UNL     1      -6.253  48.025 -25.733  1.00  0.00     0.022 C 
HETATM   10  C17 UNL     1      -7.397  46.013 -24.830  1.00  0.00     0.022 C 
HETATM   11  C18 UNL     1      -5.424  49.573 -21.599  1.00  0.00     0.027 C 
HETATM   12  C20 UNL     1      -4.636  50.713 -22.356  1.00  0.00     0.018 C 
HETATM   13  C21 UNL     1      -3.210  51.083 -21.913  1.00  0.00     0.011 C 
HETATM   14  C22 UNL     1      -2.470  50.015 -21.099  1.00  0.00    -0.032 C 
HETATM   15  C23 UNL     1      -2.677  50.363 -19.587  1.00  0.00     0.016 C 
HETATM   16  C24 UNL     1      -0.932  49.870 -21.365  1.00  0.00    -0.002 C 
HETATM   17  C34 UNL     1      -0.640  48.433 -20.842  1.00  0.00     0.006 C 
HETATM   18  C35 UNL     1      -1.983  47.686 -20.757  1.00  0.00     0.011 C 
HETATM   19  C36 UNL     1      -2.989  48.584 -21.507  1.00  0.00    -0.029 C 
HETATM   20  C37 UNL     1      -2.832  48.221 -23.016  1.00  0.00     0.016 C 
HETATM   21  C38 UNL     1      -4.472  48.424 -21.051  1.00  0.00     0.043 C 
ENDROOT
BRANCH   7  22
HETATM   22  O2  UNL     1      -9.431  47.731 -25.365  1.00  0.00    -0.352 OA
BRANCH  22  23
HETATM   23  C9  UNL     1      -9.944  48.590 -26.386  1.00  0.00     0.292 C 
HETATM   24  O3  UNL     1     -11.363  48.634 -26.320  1.00  0.00    -0.348 OA
HETATM   25  C10 UNL     1     -12.087  47.477 -26.770  1.00  0.00     0.179 C 
HETATM   26  C12 UNL     1     -11.383  46.659 -27.860  1.00  0.00     0.180 C 
HETATM   27  C13 UNL     1     -10.470  47.576 -28.663  1.00  0.00     0.183 C 
HETATM   28  C14 UNL     1      -9.376  48.119 -27.749  1.00  0.00     0.204 C 
BRANCH  25  29
HETATM   29  C11 UNL     1     -12.518  46.608 -25.575  1.00  0.00     0.198 C 
BRANCH  29  30
HETATM   30  O4  UNL     1     -13.337  47.312 -24.649  1.00  0.00    -0.398 OA
HETATM   31  H16 UNL     1     -14.037  47.755 -25.167  1.00  0.00     0.209 HD
ENDBRANCH  29  30
ENDBRANCH  25  29
BRANCH  26  32
HETATM   32  O5  UNL     1     -12.354  46.065 -28.735  1.00  0.00    -0.390 OA
HETATM   33  H18 UNL     1     -11.824  45.602 -29.411  1.00  0.00     0.210 HD
ENDBRANCH  26  32
BRANCH  27  34
HETATM   34  O6  UNL     1      -9.876  46.837 -29.744  1.00  0.00    -0.390 OA
HETATM   35  H20 UNL     1      -9.220  47.447 -30.144  1.00  0.00     0.210 HD
ENDBRANCH  27  34
BRANCH  28  36
HETATM   36  O7  UNL     1      -8.701  49.176 -28.455  1.00  0.00    -0.388 OA
HETATM   37  H22 UNL     1      -7.934  49.450 -27.915  1.00  0.00     0.210 HD
ENDBRANCH  28  36
ENDBRANCH  22  23
ENDBRANCH   7  22
BRANCH  11  38
HETATM   38  C19 UNL     1      -6.106  50.189 -20.368  1.00  0.00     0.241 C 
HETATM   39  O8  UNL     1      -6.045  49.727 -19.231  1.00  0.00    -0.306 OA
ENDBRANCH  11  38
BRANCH   1  40
HETATM   40  O1  UNL     1      -6.101  46.860 -20.267  1.00  0.00    -0.386 OA
HETATM   41  C1  UNL     1      -5.938  45.720 -19.428  1.00  0.00     0.202 C 
ENDBRANCH   1  40
BRANCH  16  42
HETATM   42  C25 UNL     1       0.074  50.923 -20.803  1.00  0.00    -0.010 C 
HETATM   43  C26 UNL     1      -0.137  51.173 -19.303  1.00  0.00     0.010 C 
BRANCH  42  44
HETATM   44  C27 UNL     1      -0.052  52.253 -21.597  1.00  0.00     0.031 C 
BRANCH  44  45
HETATM   45  C28 UNL     1       0.545  52.226 -22.976  1.00  0.00    -0.027 C 
HETATM   46  C29 UNL     1      -0.160  51.941 -24.083  1.00  0.00     0.006 C 
BRANCH  46  47
HETATM   47  C30 UNL     1       0.332  51.928 -25.517  1.00  0.00     0.070 C 
HETATM   48  C31 UNL     1      -0.260  50.828 -26.414  1.00  0.00     0.050 C 
HETATM   49  C32 UNL     1      -0.026  53.289 -26.136  1.00  0.00     0.050 C 
BRANCH  47  50
HETATM   50  O9  UNL     1       1.770  51.880 -25.512  1.00  0.00    -0.382 OA
HETATM   51  C33 UNL     1       2.395  51.613 -26.761  1.00  0.00     0.202 C 
ENDBRANCH  47  50
ENDBRANCH  46  47
ENDBRANCH  44  45
ENDBRANCH  42  44
ENDBRANCH  16  42
TORSDOF 14
ENDMDL
MODEL 6
REMARK minimizedAffinity -9.12050247
REMARK CNNscore 0.232880235
REMARK CNNaffinity 6.84676123
REMARK  14 active torsions:
REMARK  status: ('A' for Active; 'I' for Inactive)
REMARK    1  A    between atoms: O1_2  and  C2_3 
REMARK    2  A    between atoms: C8_9  and  O2_10 
REMARK    3  A    between atoms: O2_10  and  C9_11 
REMARK    4  A    between atoms: C10_13  and  C11_14 
REMARK    5  A    between atoms: C11_14  and  O4_15 
REMARK    6  A    between atoms: C12_16  and  O5_17 
REMARK    7  A    between atoms: C13_18  and  O6_19 
REMARK    8  A    between atoms: C14_20  and  O7_21 
REMARK    9  A    between atoms: C18_25  and  C19_26 
REMARK   10  A    between atoms: C24_32  and  C25_33 
REMARK   11  A    between atoms: C25_33  and  C27_35 
REMARK   12  A    between atoms: C27_35  and  C28_36 
REMARK   13  A    between atoms: C29_37  and  C30_38 
REMARK   14  A    between atoms: C30_38  and  O9_41 
ROOT
HETATM    1  C2  UNL     1      -5.053  49.738 -19.961  1.00  0.00     0.149 C 
HETATM    2  C3  UNL     1      -5.151  48.261 -19.772  1.00  0.00     0.009 C 
HETATM    3  C4  UNL     1      -5.200  47.400 -20.802  1.00  0.00    -0.066 C 
HETATM    4  C5  UNL     1      -5.171  47.926 -22.226  1.00  0.00     0.031 C 
HETATM    5  C6  UNL     1      -6.629  47.851 -22.739  1.00  0.00     0.013 C 
HETATM    6  C7  UNL     1      -7.351  46.551 -22.321  1.00  0.00     0.034 C 
HETATM    7  C8  UNL     1      -6.384  45.434 -21.887  1.00  0.00     0.136 C 
HETATM    8  C15 UNL     1      -5.481  45.892 -20.676  1.00  0.00     0.002 C 
HETATM    9  C16 UNL     1      -4.141  45.126 -20.738  1.00  0.00     0.022 C 
HETATM   10  C17 UNL     1      -6.152  45.519 -19.331  1.00  0.00     0.022 C 
HETATM   11  C18 UNL     1      -4.360  49.275 -22.444  1.00  0.00     0.027 C 
HETATM   12  C20 UNL     1      -3.012  48.879 -23.164  1.00  0.00     0.018 C 
HETATM   13  C21 UNL     1      -1.805  49.829 -23.108  1.00  0.00     0.011 C 
HETATM   14  C22 UNL     1      -1.821  50.857 -21.970  1.00  0.00    -0.032 C 
HETATM   15  C23 UNL     1      -2.420  52.180 -22.554  1.00  0.00     0.016 C 
HETATM   16  C24 UNL     1      -0.441  51.192 -21.306  1.00  0.00    -0.002 C 
HETATM   17  C34 UNL     1      -0.871  51.778 -19.930  1.00  0.00     0.006 C 
HETATM   18  C35 UNL     1      -2.325  51.345 -19.671  1.00  0.00     0.011 C 
HETATM   19  C36 UNL     1      -2.621  50.276 -20.744  1.00  0.00    -0.029 C 
HETATM   20  C37 UNL     1      -2.073  48.936 -20.163  1.00  0.00     0.016 C 
HETATM   21  C38 UNL     1      -4.126  50.137 -21.128  1.00  0.00     0.043 C 
ENDROOT
BRANCH   7  22
HETATM   22  O2  UNL     1      -7.133  44.264 -21.531  1.00  0.00    -0.352 OA
BRANCH  22  23
HETATM   23  C9  UNL     1      -8.318  44.049 -22.301  1.00  0.00     0.292 C 
HETATM   24  O3  UNL     1      -8.962  42.853 -21.884  1.00  0.00    -0.348 OA
HETATM   25  C10 UNL     1      -8.356  41.605 -22.255  1.00  0.00     0.179 C 
HETATM   26  C12 UNL     1      -7.554  41.641 -23.562  1.00  0.00     0.180 C 
HETATM   27  C13 UNL     1      -8.122  42.724 -24.469  1.00  0.00     0.183 C 
HETATM   28  C14 UNL     1      -7.935  44.084 -23.804  1.00  0.00     0.204 C 
BRANCH  25  29
HETATM   29  C11 UNL     1      -7.538  41.029 -21.085  1.00  0.00     0.198 C 
BRANCH  29  30
HETATM   30  O4  UNL     1      -6.152  40.917 -21.384  1.00  0.00    -0.398 OA
HETATM   31  H16 UNL     1      -5.871  41.775 -21.758  1.00  0.00     0.209 HD
ENDBRANCH  29  30
ENDBRANCH  25  29
BRANCH  26  32
HETATM   32  O5  UNL     1      -7.634  40.370 -24.226  1.00  0.00    -0.390 OA
HETATM   33  H18 UNL     1      -7.135  40.495 -25.054  1.00  0.00     0.210 HD
ENDBRANCH  26  32
BRANCH  27  34
HETATM   34  O6  UNL     1      -7.435  42.704 -25.732  1.00  0.00    -0.390 OA
HETATM   35  H20 UNL     1      -7.765  43.489 -26.217  1.00  0.00     0.210 HD
ENDBRANCH  27  34
BRANCH  28  36
HETATM   36  O7  UNL     1      -8.711  45.044 -24.543  1.00  0.00    -0.388 OA
HETATM   37  H22 UNL     1      -8.507  45.929 -24.185  1.00  0.00     0.210 HD
ENDBRANCH  28  36
ENDBRANCH  22  23
ENDBRANCH   7  22
BRANCH  11  38
HETATM   38  C19 UNL     1      -5.178  50.161 -23.396  1.00  0.00     0.241 C 
HETATM   39  O8  UNL     1      -5.536  51.309 -23.147  1.00  0.00    -0.306 OA
ENDBRANCH  11  38
BRANCH   1  40
HETATM   40  O1  UNL     1      -6.360  50.238 -20.284  1.00  0.00    -0.386 OA
HETATM   41  C1  UNL     1      -7.402  49.600 -19.551  1.00  0.00     0.202 C 
ENDBRANCH   1  40
BRANCH  16  42
HETATM   42  C25 UNL     1       0.595  52.098 -22.041  1.00  0.00    -0.010 C 
HETATM   43  C26 UNL     1       1.569  52.765 -21.060  1.00  0.00     0.010 C 
BRANCH  42  44
HETATM   44  C27 UNL     1      -0.145  53.172 -22.885  1.00  0.00     0.031 C 
BRANCH  44  45
HETATM   45  C28 UNL     1       0.130  53.117 -24.362  1.00  0.00    -0.027 C 
HETATM   46  C29 UNL     1       0.873  52.161 -24.942  1.00  0.00     0.006 C 
BRANCH  46  47
HETATM   47  C30 UNL     1       1.175  51.990 -26.418  1.00  0.00     0.070 C 
HETATM   48  C31 UNL     1       2.587  51.478 -26.754  1.00  0.00     0.050 C 
HETATM   49  C32 UNL     1       0.159  50.983 -26.979  1.00  0.00     0.050 C 
BRANCH  47  50
HETATM   50  O9  UNL     1       0.895  53.229 -27.094  1.00  0.00    -0.382 OA
HETATM   51  C33 UNL     1      -0.130  53.191 -28.078  1.00  0.00     0.202 C 
ENDBRANCH  47  50
ENDBRANCH  46  47
ENDBRANCH  44  45
ENDBRANCH  42  44
ENDBRANCH  16  42
TORSDOF 14
ENDMDL
MODEL 7
REMARK minimizedAffinity -7.41008043
REMARK CNNscore 0.20093976
REMARK CNNaffinity 5.67252731
REMARK  14 active torsions:
REMARK  status: ('A' for Active; 'I' for Inactive)
REMARK    1  A    between atoms: O1_2  and  C2_3 
REMARK    2  A    between atoms: C8_9  and  O2_10 
REMARK    3  A    between atoms: O2_10  and  C9_11 
REMARK    4  A    between atoms: C10_13  and  C11_14 
REMARK    5  A    between atoms: C11_14  and  O4_15 
REMARK    6  A    between atoms: C12_16  and  O5_17 
REMARK    7  A    between atoms: C13_18  and  O6_19 
REMARK    8  A    between atoms: C14_20  and  O7_21 
REMARK    9  A    between atoms: C18_25  and  C19_26 
REMARK   10  A    between atoms: C24_32  and  C25_33 
REMARK   11  A    between atoms: C25_33  and  C27_35 
REMARK   12  A    between atoms: C27_35  and  C28_36 
REMARK   13  A    between atoms: C29_37  and  C30_38 
REMARK   14  A    between atoms: C30_38  and  O9_41 
ROOT
HETATM    1  C2  UNL     1     -12.461  46.394 -26.468  1.00  0.00     0.149 C 
HETATM    2  C3  UNL     1     -11.898  46.907 -27.751  1.00  0.00     0.009 C 
HETATM    3  C4  UNL     1     -11.228  46.125 -28.614  1.00  0.00    -0.066 C 
HETATM    4  C5  UNL     1     -11.008  44.659 -28.285  1.00  0.00     0.031 C 
HETATM    5  C6  UNL     1      -9.540  44.543 -27.811  1.00  0.00     0.013 C 
HETATM    6  C7  UNL     1      -8.562  45.386 -28.658  1.00  0.00     0.034 C 
HETATM    7  C8  UNL     1      -9.142  45.797 -30.023  1.00  0.00     0.136 C 
HETATM    8  C15 UNL     1     -10.474  46.629 -29.856  1.00  0.00     0.002 C 
HETATM    9  C16 UNL     1     -11.358  46.406 -31.104  1.00  0.00     0.022 C 
HETATM   10  C17 UNL     1     -10.160  48.144 -29.792  1.00  0.00     0.022 C 
HETATM   11  C18 UNL     1     -12.144  43.972 -27.411  1.00  0.00     0.027 C 
HETATM   12  C20 UNL     1     -12.967  43.046 -28.389  1.00  0.00     0.018 C 
HETATM   13  C21 UNL     1     -14.391  42.606 -28.012  1.00  0.00     0.011 C 
HETATM   14  C22 UNL     1     -15.096  43.472 -26.961  1.00  0.00    -0.032 C 
HETATM   15  C23 UNL     1     -14.869  42.787 -25.572  1.00  0.00     0.016 C 
HETATM   16  C24 UNL     1     -16.636  43.696 -27.154  1.00  0.00    -0.002 C 
HETATM   17  C34 UNL     1     -16.891  44.981 -26.313  1.00  0.00     0.006 C 
HETATM   18  C35 UNL     1     -15.533  45.669 -26.089  1.00  0.00     0.011 C 
HETATM   19  C36 UNL     1     -14.557  44.950 -27.045  1.00  0.00    -0.029 C 
HETATM   20  C37 UNL     1     -14.733  45.649 -28.428  1.00  0.00     0.016 C 
HETATM   21  C38 UNL     1     -13.064  44.980 -26.596  1.00  0.00     0.043 C 
ENDROOT
BRANCH   7  22
HETATM   22  O2  UNL     1      -8.168  46.562 -30.747  1.00  0.00    -0.352 OA
BRANCH  22  23
HETATM   23  C9  UNL     1      -7.187  45.788 -31.440  1.00  0.00     0.292 C 
HETATM   24  O3  UNL     1      -5.944  45.847 -30.755  1.00  0.00    -0.348 OA
HETATM   25  C10 UNL     1      -5.198  47.072 -30.832  1.00  0.00     0.179 C 
HETATM   26  C12 UNL     1      -5.417  47.882 -32.116  1.00  0.00     0.180 C 
HETATM   27  C13 UNL     1      -5.802  46.935 -33.245  1.00  0.00     0.183 C 
HETATM   28  C14 UNL     1      -7.136  46.273 -32.912  1.00  0.00     0.204 C 
BRANCH  25  29
HETATM   29  C11 UNL     1      -5.413  47.919 -29.564  1.00  0.00     0.198 C 
BRANCH  29  30
HETATM   30  O4  UNL     1      -4.688  49.143 -29.590  1.00  0.00    -0.398 OA
HETATM   31  H16 UNL     1      -4.867  49.562 -30.455  1.00  0.00     0.209 HD
ENDBRANCH  29  30
ENDBRANCH  25  29
BRANCH  26  32
HETATM   32  O5  UNL     1      -4.216  48.584 -32.468  1.00  0.00    -0.390 OA
HETATM   33  H18 UNL     1      -4.433  49.035 -33.306  1.00  0.00     0.210 HD
ENDBRANCH  26  32
BRANCH  27  34
HETATM   34  O6  UNL     1      -5.921  47.674 -34.473  1.00  0.00    -0.390 OA
HETATM   35  H20 UNL     1      -6.279  47.035 -35.125  1.00  0.00     0.210 HD
ENDBRANCH  27  34
BRANCH  28  36
HETATM   36  O7  UNL     1      -7.339  45.201 -33.849  1.00  0.00    -0.388 OA
HETATM   37  H22 UNL     1      -8.238  44.847 -33.706  1.00  0.00     0.210 HD
ENDBRANCH  28  36
ENDBRANCH  22  23
ENDBRANCH   7  22
BRANCH  11  38
HETATM   38  C19 UNL     1     -11.452  43.083 -26.366  1.00  0.00     0.241 C 
HETATM   39  O8  UNL     1     -10.638  43.483 -25.538  1.00  0.00    -0.306 OA
ENDBRANCH  11  38
BRANCH   1  40
HETATM   40  O1  UNL     1     -11.391  46.302 -25.514  1.00  0.00    -0.386 OA
HETATM   41  C1  UNL     1     -10.552  47.453 -25.495  1.00  0.00     0.202 C 
ENDBRANCH   1  40
BRANCH  16  42
HETATM   42  C25 UNL     1     -17.652  42.558 -26.824  1.00  0.00    -0.010 C 
HETATM   43  C26 UNL     1     -18.012  41.734 -28.067  1.00  0.00     0.010 C 
BRANCH  42  44
HETATM   44  C27 UNL     1     -18.933  43.161 -26.184  1.00  0.00     0.031 C 
BRANCH  44  45
HETATM   45  C28 UNL     1     -19.747  42.197 -25.366  1.00  0.00    -0.027 C 
HETATM   46  C29 UNL     1     -20.368  42.534 -24.224  1.00  0.00     0.006 C 
BRANCH  46  47
HETATM   47  C30 UNL     1     -21.243  41.656 -23.351  1.00  0.00     0.070 C 
HETATM   48  C31 UNL     1     -20.568  40.392 -22.791  1.00  0.00     0.050 C 
HETATM   49  C32 UNL     1     -21.708  42.512 -22.163  1.00  0.00     0.050 C 
BRANCH  47  50
HETATM   50  O9  UNL     1     -22.442  41.330 -24.077  1.00  0.00    -0.382 OA
HETATM   51  C33 UNL     1     -22.681  39.947 -24.307  1.00  0.00     0.202 C 
ENDBRANCH  47  50
ENDBRANCH  46  47
ENDBRANCH  44  45
ENDBRANCH  42  44
ENDBRANCH  16  42
TORSDOF 14
ENDMDL
MODEL 8
REMARK minimizedAffinity -7.74120426
REMARK CNNscore 0.197559536
REMARK CNNaffinity 5.66193581
REMARK  14 active torsions:
REMARK  status: ('A' for Active; 'I' for Inactive)
REMARK    1  A    between atoms: O1_2  and  C2_3 
REMARK    2  A    between atoms: C8_9  and  O2_10 
REMARK    3  A    between atoms: O2_10  and  C9_11 
REMARK    4  A    between atoms: C10_13  and  C11_14 
REMARK    5  A    between atoms: C11_14  and  O4_15 
REMARK    6  A    between atoms: C12_16  and  O5_17 
REMARK    7  A    between atoms: C13_18  and  O6_19 
REMARK    8  A    between atoms: C14_20  and  O7_21 
REMARK    9  A    between atoms: C18_25  and  C19_26 
REMARK   10  A    between atoms: C24_32  and  C25_33 
REMARK   11  A    between atoms: C25_33  and  C27_35 
REMARK   12  A    between atoms: C27_35  and  C28_36 
REMARK   13  A    between atoms: C29_37  and  C30_38 
REMARK   14  A    between atoms: C30_38  and  O9_41 
ROOT
HETATM    1  C2  UNL     1     -11.913  44.862 -26.156  1.00  0.00     0.149 C 
HETATM    2  C3  UNL     1     -11.298  45.819 -27.123  1.00  0.00     0.009 C 
HETATM    3  C4  UNL     1     -11.520  45.757 -28.446  1.00  0.00    -0.066 C 
HETATM    4  C5  UNL     1     -12.418  44.668 -29.008  1.00  0.00     0.031 C 
HETATM    5  C6  UNL     1     -11.472  43.608 -29.620  1.00  0.00     0.013 C 
HETATM    6  C7  UNL     1     -10.289  44.228 -30.396  1.00  0.00     0.034 C 
HETATM    7  C8  UNL     1     -10.521  45.700 -30.779  1.00  0.00     0.136 C 
HETATM    8  C15 UNL     1     -10.780  46.594 -29.503  1.00  0.00     0.002 C 
HETATM    9  C16 UNL     1     -11.670  47.791 -29.907  1.00  0.00     0.022 C 
HETATM   10  C17 UNL     1      -9.448  47.181 -28.976  1.00  0.00     0.022 C 
HETATM   11  C18 UNL     1     -13.588  44.178 -28.051  1.00  0.00     0.027 C 
HETATM   12  C20 UNL     1     -14.925  44.790 -28.623  1.00  0.00     0.018 C 
HETATM   13  C21 UNL     1     -16.159  44.920 -27.715  1.00  0.00     0.011 C 
HETATM   14  C22 UNL     1     -15.879  44.902 -26.208  1.00  0.00    -0.032 C 
HETATM   15  C23 UNL     1     -16.081  43.429 -25.720  1.00  0.00     0.016 C 
HETATM   16  C24 UNL     1     -16.763  45.842 -25.318  1.00  0.00    -0.002 C 
HETATM   17  C34 UNL     1     -15.896  45.993 -24.034  1.00  0.00     0.006 C 
HETATM   18  C35 UNL     1     -14.458  45.577 -24.390  1.00  0.00     0.011 C 
HETATM   19  C36 UNL     1     -14.439  45.479 -25.931  1.00  0.00    -0.029 C 
HETATM   20  C37 UNL     1     -14.193  46.933 -26.440  1.00  0.00     0.016 C 
HETATM   21  C38 UNL     1     -13.372  44.502 -26.509  1.00  0.00     0.043 C 
ENDROOT
BRANCH   7  22
HETATM   22  O2  UNL     1      -9.386  46.191 -31.505  1.00  0.00    -0.352 OA
BRANCH  22  23
HETATM   23  C9  UNL     1      -8.869  45.296 -32.492  1.00  0.00     0.292 C 
HETATM   24  O3  UNL     1      -7.452  45.393 -32.545  1.00  0.00    -0.348 OA
HETATM   25  C10 UNL     1      -6.885  46.568 -33.147  1.00  0.00     0.179 C 
HETATM   26  C12 UNL     1      -7.749  47.215 -34.236  1.00  0.00     0.180 C 
HETATM   27  C13 UNL     1      -8.624  46.149 -34.881  1.00  0.00     0.183 C 
HETATM   28  C14 UNL     1      -9.584  45.588 -33.837  1.00  0.00     0.204 C 
BRANCH  25  29
HETATM   29  C11 UNL     1      -6.454  47.577 -32.067  1.00  0.00     0.198 C 
BRANCH  29  30
HETATM   30  O4  UNL     1      -6.418  47.007 -30.764  1.00  0.00    -0.398 OA
HETATM   31  H16 UNL     1      -5.917  46.170 -30.833  1.00  0.00     0.209 HD
ENDBRANCH  29  30
ENDBRANCH  25  29
BRANCH  26  32
HETATM   32  O5  UNL     1      -6.914  47.818 -35.235  1.00  0.00    -0.390 OA
HETATM   33  H18 UNL     1      -7.539  48.167 -35.898  1.00  0.00     0.210 HD
ENDBRANCH  26  32
BRANCH  27  34
HETATM   34  O6  UNL     1      -9.371  46.729 -35.964  1.00  0.00    -0.390 OA
HETATM   35  H20 UNL     1      -9.990  46.027 -36.256  1.00  0.00     0.210 HD
ENDBRANCH  27  34
BRANCH  28  36
HETATM   36  O7  UNL     1     -10.201  44.414 -34.394  1.00  0.00    -0.388 OA
HETATM   37  H22 UNL     1     -10.893  44.118 -33.771  1.00  0.00     0.210 HD
ENDBRANCH  28  36
ENDBRANCH  22  23
ENDBRANCH   7  22
BRANCH  11  38
HETATM   38  C19 UNL     1     -13.667  42.648 -28.160  1.00  0.00     0.241 C 
HETATM   39  O8  UNL     1     -13.550  41.873 -27.214  1.00  0.00    -0.306 OA
ENDBRANCH  11  38
BRANCH   1  40
HETATM   40  O1  UNL     1     -11.164  43.637 -26.199  1.00  0.00    -0.386 OA
HETATM   41  C1  UNL     1      -9.808  43.793 -25.793  1.00  0.00     0.202 C 
ENDBRANCH   1  40
BRANCH  16  42
HETATM   42  C25 UNL     1     -18.244  45.469 -24.995  1.00  0.00    -0.010 C 
HETATM   43  C26 UNL     1     -19.100  45.375 -26.265  1.00  0.00     0.010 C 
BRANCH  42  44
HETATM   44  C27 UNL     1     -18.849  46.507 -24.010  1.00  0.00     0.031 C 
BRANCH  44  45
HETATM   45  C28 UNL     1     -19.004  46.022 -22.595  1.00  0.00    -0.027 C 
HETATM   46  C29 UNL     1     -18.526  46.683 -21.528  1.00  0.00     0.006 C 
BRANCH  46  47
HETATM   47  C30 UNL     1     -18.663  46.306 -20.066  1.00  0.00     0.070 C 
HETATM   48  C31 UNL     1     -17.363  45.878 -19.364  1.00  0.00     0.050 C 
HETATM   49  C32 UNL     1     -19.221  47.533 -19.328  1.00  0.00     0.050 C 
BRANCH  47  50
HETATM   50  O9  UNL     1     -19.680  45.295 -19.943  1.00  0.00    -0.382 OA
HETATM   51  C33 UNL     1     -19.707  44.576 -18.717  1.00  0.00     0.202 C 
ENDBRANCH  47  50
ENDBRANCH  46  47
ENDBRANCH  44  45
ENDBRANCH  42  44
ENDBRANCH  16  42
TORSDOF 14
ENDMDL
MODEL 9
REMARK minimizedAffinity -7.43656063
REMARK CNNscore 0.195923135
REMARK CNNaffinity 7.02007103
REMARK  14 active torsions:
REMARK  status: ('A' for Active; 'I' for Inactive)
REMARK    1  A    between atoms: O1_2  and  C2_3 
REMARK    2  A    between atoms: C8_9  and  O2_10 
REMARK    3  A    between atoms: O2_10  and  C9_11 
REMARK    4  A    between atoms: C10_13  and  C11_14 
REMARK    5  A    between atoms: C11_14  and  O4_15 
REMARK    6  A    between atoms: C12_16  and  O5_17 
REMARK    7  A    between atoms: C13_18  and  O6_19 
REMARK    8  A    between atoms: C14_20  and  O7_21 
REMARK    9  A    between atoms: C18_25  and  C19_26 
REMARK   10  A    between atoms: C24_32  and  C25_33 
REMARK   11  A    between atoms: C25_33  and  C27_35 
REMARK   12  A    between atoms: C27_35  and  C28_36 
REMARK   13  A    between atoms: C29_37  and  C30_38 
REMARK   14  A    between atoms: C30_38  and  O9_41 
ROOT
HETATM    1  C2  UNL     1      -0.054  49.792 -11.821  1.00  0.00     0.149 C 
HETATM    2  C3  UNL     1      -0.048  51.049 -11.015  1.00  0.00     0.009 C 
HETATM    3  C4  UNL     1       0.912  51.981 -11.131  1.00  0.00    -0.066 C 
HETATM    4  C5  UNL     1       2.058  51.763 -12.103  1.00  0.00     0.031 C 
HETATM    5  C6  UNL     1       3.271  51.333 -11.245  1.00  0.00     0.013 C 
HETATM    6  C7  UNL     1       3.402  52.140  -9.935  1.00  0.00     0.034 C 
HETATM    7  C8  UNL     1       2.608  53.458  -9.953  1.00  0.00     0.136 C 
HETATM    8  C15 UNL     1       1.071  53.201 -10.208  1.00  0.00     0.002 C 
HETATM    9  C16 UNL     1       0.469  54.440 -10.909  1.00  0.00     0.022 C 
HETATM   10  C17 UNL     1       0.321  53.036  -8.864  1.00  0.00     0.022 C 
HETATM   11  C18 UNL     1       1.708  50.914 -13.401  1.00  0.00     0.027 C 
HETATM   12  C20 UNL     1       1.630  51.937 -14.601  1.00  0.00     0.018 C 
HETATM   13  C21 UNL     1       0.868  51.558 -15.882  1.00  0.00     0.011 C 
HETATM   14  C22 UNL     1      -0.162  50.432 -15.733  1.00  0.00    -0.032 C 
HETATM   15  C23 UNL     1       0.548  49.102 -16.154  1.00  0.00     0.016 C 
HETATM   16  C24 UNL     1      -1.481  50.572 -16.569  1.00  0.00    -0.002 C 
HETATM   17  C34 UNL     1      -2.459  49.635 -15.801  1.00  0.00     0.006 C 
HETATM   18  C35 UNL     1      -1.871  49.395 -14.399  1.00  0.00     0.011 C 
HETATM   19  C36 UNL     1      -0.727  50.422 -14.263  1.00  0.00    -0.029 C 
HETATM   20  C37 UNL     1      -1.406  51.748 -13.799  1.00  0.00     0.016 C 
HETATM   21  C38 UNL     1       0.408  50.008 -13.277  1.00  0.00     0.043 C 
ENDROOT
BRANCH   7  22
HETATM   22  O2  UNL     1       2.795  54.148  -8.710  1.00  0.00    -0.352 OA
BRANCH  22  23
HETATM   23  C9  UNL     1       2.880  55.571  -8.816  1.00  0.00     0.292 C 
HETATM   24  O3  UNL     1       4.036  55.937  -9.557  1.00  0.00    -0.348 OA
HETATM   25  C10 UNL     1       5.313  55.793  -8.914  1.00  0.00     0.179 C 
HETATM   26  C12 UNL     1       5.287  55.943  -7.388  1.00  0.00     0.180 C 
HETATM   27  C13 UNL     1       4.124  56.843  -6.993  1.00  0.00     0.183 C 
HETATM   28  C14 UNL     1       2.813  56.170  -7.388  1.00  0.00     0.204 C 
BRANCH  25  29
HETATM   29  C11 UNL     1       6.003  54.491  -9.361  1.00  0.00     0.198 C 
BRANCH  29  30
HETATM   30  O4  UNL     1       7.418  54.543  -9.225  1.00  0.00    -0.398 OA
HETATM   31  H16 UNL     1       7.606  54.873  -8.325  1.00  0.00     0.209 HD
ENDBRANCH  29  30
ENDBRANCH  25  29
BRANCH  26  32
HETATM   32  O5  UNL     1       6.518  56.522  -6.928  1.00  0.00    -0.390 OA
HETATM   33  H18 UNL     1       6.399  56.615  -5.964  1.00  0.00     0.210 HD
ENDBRANCH  26  32
BRANCH  27  34
HETATM   34  O6  UNL     1       4.146  57.062  -5.572  1.00  0.00    -0.390 OA
HETATM   35  H20 UNL     1       3.317  57.546  -5.372  1.00  0.00     0.210 HD
ENDBRANCH  27  34
BRANCH  28  36
HETATM   36  O7  UNL     1       1.763  57.144  -7.253  1.00  0.00    -0.388 OA
HETATM   37  H22 UNL     1       0.913  56.687  -7.401  1.00  0.00     0.210 HD
ENDBRANCH  28  36
ENDBRANCH  22  23
ENDBRANCH   7  22
BRANCH  11  38
HETATM   38  C19 UNL     1       2.878  49.952 -13.656  1.00  0.00     0.241 C 
HETATM   39  O8  UNL     1       3.911  50.250 -14.250  1.00  0.00    -0.306 OA
ENDBRANCH  11  38
BRANCH   1  40
HETATM   40  O1  UNL     1       0.874  48.873 -11.225  1.00  0.00    -0.386 OA
HETATM   41  C1  UNL     1       0.753  47.546 -11.728  1.00  0.00     0.202 C 
ENDBRANCH   1  40
BRANCH  16  42
HETATM   42  C25 UNL     1      -1.481  50.300 -18.105  1.00  0.00    -0.010 C 
HETATM   43  C26 UNL     1      -1.554  48.801 -18.422  1.00  0.00     0.010 C 
BRANCH  42  44
HETATM   44  C27 UNL     1      -0.217  50.930 -18.755  1.00  0.00     0.031 C 
BRANCH  44  45
HETATM   45  C28 UNL     1      -0.425  51.488 -20.135  1.00  0.00    -0.027 C 
HETATM   46  C29 UNL     1      -1.142  50.867 -21.085  1.00  0.00     0.006 C 
BRANCH  46  47
HETATM   47  C30 UNL     1      -1.447  51.359 -22.486  1.00  0.00     0.070 C 
HETATM   48  C31 UNL     1      -2.809  52.051 -22.667  1.00  0.00     0.050 C 
HETATM   49  C32 UNL     1      -0.349  52.364 -22.867  1.00  0.00     0.050 C 
BRANCH  47  50
HETATM   50  O9  UNL     1      -1.294  50.262 -23.406  1.00  0.00    -0.382 OA
HETATM   51  C33 UNL     1      -2.459  49.873 -24.121  1.00  0.00     0.202 C 
ENDBRANCH  47  50
ENDBRANCH  46  47
ENDBRANCH  44  45
ENDBRANCH  42  44
ENDBRANCH  16  42
TORSDOF 14
ENDMDL
