MODEL 1
REMARK minimizedAffinity -7.01038551
REMARK CNNscore 0.838936031
REMARK CNNaffinity 7.33732939
REMARK  9 active torsions:
REMARK  status: ('A' for Active; 'I' for Inactive)
REMARK    1  A    between atoms: C2_2  and  C3_3 
REMARK    2  A    between atoms: C2_2  and  C9_11 
REMARK    3  A    between atoms: C3_3  and  C4_4 
REMARK    4  A    between atoms: C4_4  and  C5_5 
REMARK    5  A    between atoms: C5_5  and  O1_6 
REMARK    6  A    between atoms: C5_5  and  C6_7 
REMARK    7  A    between atoms: C6_7  and  O2_10 
REMARK    8  A    between atoms: C17_19  and  C18_20 
REMARK    9  A    between atoms: C18_20  and  O3_23 
ROOT
HETATM    1  C9  UNL     1      -2.267  52.031 -10.191  1.00  0.00    -0.002 C 
HETATM    2  C10 UNL     1      -2.404  51.672  -8.682  1.00  0.00     0.006 C 
HETATM    3  C11 UNL     1      -1.089  52.131  -7.995  1.00  0.00     0.011 C 
HETATM    4  C12 UNL     1      -0.136  52.469  -9.161  1.00  0.00    -0.032 C 
HETATM    5  C13 UNL     1       0.451  51.092  -9.624  1.00  0.00     0.016 C 
HETATM    6  C14 UNL     1       0.990  53.496  -8.852  1.00  0.00     0.003 C 
HETATM    7  C15 UNL     1       1.895  53.119  -7.672  1.00  0.00     0.009 C 
HETATM    8  C16 UNL     1       3.194  53.918  -7.574  1.00  0.00     0.042 C 
HETATM    9  C17 UNL     1       3.257  55.300  -8.281  1.00  0.00     0.095 C 
HETATM   10  O4  UNL     1       4.683  55.600  -8.435  1.00  0.00    -0.377 OA
HETATM   11  C21 UNL     1       5.311  55.023  -9.567  1.00  0.00     0.169 C 
HETATM   12  C22 UNL     1       4.804  55.670 -10.837  1.00  0.00     0.027 C 
HETATM   13  C23 UNL     1       3.330  56.050 -10.768  1.00  0.00     0.010 C 
HETATM   14  C24 UNL     1       2.504  55.347  -9.667  1.00  0.00     0.032 C 
HETATM   15  C25 UNL     1       1.778  53.999 -10.117  1.00  0.00    -0.033 C 
HETATM   16  C26 UNL     1       2.781  52.958 -10.659  1.00  0.00     0.016 C 
HETATM   17  C27 UNL     1       0.794  54.324 -11.310  1.00  0.00     0.011 C 
HETATM   18  C28 UNL     1      -0.416  53.379 -11.504  1.00  0.00     0.011 C 
HETATM   19  C29 UNL     1      -1.151  53.118 -10.180  1.00  0.00    -0.032 C 
HETATM   20  C30 UNL     1      -1.761  54.479  -9.718  1.00  0.00     0.016 C 
ENDROOT
BRANCH   1  21
HETATM   21  C2  UNL     1      -3.586  52.309 -10.970  1.00  0.00    -0.014 C 
HETATM   22  C1  UNL     1      -4.173  53.650 -10.489  1.00  0.00     0.010 C 
BRANCH  21  23
HETATM   23  C3  UNL     1      -3.467  52.325 -12.513  1.00  0.00     0.007 C 
BRANCH  23  24
HETATM   24  C4  UNL     1      -2.928  50.999 -13.083  1.00  0.00     0.035 C 
BRANCH  24  25
HETATM   25  C5  UNL     1      -2.480  51.139 -14.551  1.00  0.00     0.151 C 
BRANCH  25  26
HETATM   26  O1  UNL     1      -3.476  50.597 -15.423  1.00  0.00    -0.393 OA
HETATM   27  H10 UNL     1      -3.779  49.751 -15.047  1.00  0.00     0.210 HD
ENDBRANCH  25  26
BRANCH  25  28
HETATM   28  C6  UNL     1      -1.084  50.507 -14.843  1.00  0.00     0.076 C 
HETATM   29  C7  UNL     1       0.067  51.501 -14.655  1.00  0.00     0.048 C 
HETATM   30  C8  UNL     1      -0.857  49.290 -13.935  1.00  0.00     0.048 C 
BRANCH  28  31
HETATM   31  O2  UNL     1      -1.054  50.052 -16.202  1.00  0.00    -0.388 OA
HETATM   32  H17 UNL     1      -0.205  49.602 -16.352  1.00  0.00     0.210 HD
ENDBRANCH  28  31
ENDBRANCH  25  28
ENDBRANCH  24  25
ENDBRANCH  23  24
ENDBRANCH  21  23
ENDBRANCH   1  21
BRANCH   9  33
HETATM   33  C18 UNL     1       2.793  56.466  -7.288  1.00  0.00     0.082 C 
HETATM   34  C19 UNL     1       1.297  56.787  -7.297  1.00  0.00     0.049 C 
HETATM   35  C20 UNL     1       3.573  57.779  -7.484  1.00  0.00     0.049 C 
BRANCH  33  36
HETATM   36  O3  UNL     1       3.102  56.045  -5.940  1.00  0.00    -0.388 OA
HETATM   37  H37 UNL     1       3.997  55.654  -6.008  1.00  0.00     0.210 HD
ENDBRANCH  33  36
ENDBRANCH   9  33
TORSDOF 9
ENDMDL
MODEL 2
REMARK minimizedAffinity -6.43820524
REMARK CNNscore 0.827594221
REMARK CNNaffinity 7.15301561
REMARK  9 active torsions:
REMARK  status: ('A' for Active; 'I' for Inactive)
REMARK    1  A    between atoms: C2_2  and  C3_3 
REMARK    2  A    between atoms: C2_2  and  C9_11 
REMARK    3  A    between atoms: C3_3  and  C4_4 
REMARK    4  A    between atoms: C4_4  and  C5_5 
REMARK    5  A    between atoms: C5_5  and  O1_6 
REMARK    6  A    between atoms: C5_5  and  C6_7 
REMARK    7  A    between atoms: C6_7  and  O2_10 
REMARK    8  A    between atoms: C17_19  and  C18_20 
REMARK    9  A    between atoms: C18_20  and  O3_23 
ROOT
HETATM    1  C9  UNL     1      -2.127  52.302 -10.801  1.00  0.00    -0.002 C 
HETATM    2  C10 UNL     1      -1.465  50.897 -10.898  1.00  0.00     0.006 C 
HETATM    3  C11 UNL     1       0.022  51.077 -10.489  1.00  0.00     0.011 C 
HETATM    4  C12 UNL     1       0.235  52.605 -10.452  1.00  0.00    -0.032 C 
HETATM    5  C13 UNL     1       0.475  53.023 -11.943  1.00  0.00     0.016 C 
HETATM    6  C14 UNL     1       1.374  53.117  -9.524  1.00  0.00     0.003 C 
HETATM    7  C15 UNL     1       2.754  52.513  -9.810  1.00  0.00     0.009 C 
HETATM    8  C16 UNL     1       3.927  53.246  -9.160  1.00  0.00     0.042 C 
HETATM    9  C17 UNL     1       3.634  54.141  -7.924  1.00  0.00     0.095 C 
HETATM   10  O4  UNL     1       4.776  55.052  -7.817  1.00  0.00    -0.377 OA
HETATM   11  C21 UNL     1       4.715  56.209  -8.634  1.00  0.00     0.169 C 
HETATM   12  C22 UNL     1       3.632  57.143  -8.143  1.00  0.00     0.027 C 
HETATM   13  C23 UNL     1       2.414  56.411  -7.591  1.00  0.00     0.010 C 
HETATM   14  C24 UNL     1       2.271  54.931  -8.012  1.00  0.00     0.032 C 
HETATM   15  C25 UNL     1       1.396  54.678  -9.322  1.00  0.00    -0.033 C 
HETATM   16  C26 UNL     1       1.955  55.438 -10.544  1.00  0.00     0.016 C 
HETATM   17  C27 UNL     1      -0.060  55.243  -9.080  1.00  0.00     0.011 C 
HETATM   18  C28 UNL     1      -1.208  54.607  -9.899  1.00  0.00     0.011 C 
HETATM   19  C29 UNL     1      -1.152  53.072  -9.861  1.00  0.00    -0.032 C 
HETATM   20  C30 UNL     1      -1.411  52.639  -8.383  1.00  0.00     0.016 C 
ENDROOT
BRANCH   1  21
HETATM   21  C2  UNL     1      -3.655  52.341 -10.502  1.00  0.00    -0.014 C 
HETATM   22  C1  UNL     1      -4.193  53.742 -10.852  1.00  0.00     0.010 C 
BRANCH  21  23
HETATM   23  C3  UNL     1      -4.509  51.269 -11.219  1.00  0.00     0.007 C 
BRANCH  23  24
HETATM   24  C4  UNL     1      -5.081  50.216 -10.251  1.00  0.00     0.035 C 
BRANCH  24  25
HETATM   25  C5  UNL     1      -5.256  48.841 -10.926  1.00  0.00     0.151 C 
BRANCH  25  26
HETATM   26  O1  UNL     1      -4.700  48.867 -12.244  1.00  0.00    -0.393 OA
HETATM   27  H10 UNL     1      -4.974  49.698 -12.671  1.00  0.00     0.210 HD
ENDBRANCH  25  26
BRANCH  25  28
HETATM   28  C6  UNL     1      -6.732  48.341 -10.956  1.00  0.00     0.076 C 
HETATM   29  C7  UNL     1      -6.971  47.147 -10.025  1.00  0.00     0.048 C 
HETATM   30  C8  UNL     1      -7.684  49.483 -10.571  1.00  0.00     0.048 C 
BRANCH  28  31
HETATM   31  O2  UNL     1      -7.057  47.929 -12.290  1.00  0.00    -0.388 OA
HETATM   32  H17 UNL     1      -7.998  47.682 -12.310  1.00  0.00     0.210 HD
ENDBRANCH  28  31
ENDBRANCH  25  28
ENDBRANCH  24  25
ENDBRANCH  23  24
ENDBRANCH  21  23
ENDBRANCH   1  21
BRANCH   9  33
HETATM   33  C18 UNL     1       3.772  53.299  -6.569  1.00  0.00     0.082 C 
HETATM   34  C19 UNL     1       4.307  54.071  -5.362  1.00  0.00     0.049 C 
HETATM   35  C20 UNL     1       4.605  52.014  -6.734  1.00  0.00     0.049 C 
BRANCH  33  36
HETATM   36  O3  UNL     1       2.452  52.843  -6.199  1.00  0.00    -0.388 OA
HETATM   37  H37 UNL     1       2.055  52.539  -7.041  1.00  0.00     0.210 HD
ENDBRANCH  33  36
ENDBRANCH   9  33
TORSDOF 9
ENDMDL
MODEL 3
REMARK minimizedAffinity -6.91172791
REMARK CNNscore 0.80957216
REMARK CNNaffinity 7.24997187
REMARK  9 active torsions:
REMARK  status: ('A' for Active; 'I' for Inactive)
REMARK    1  A    between atoms: C2_2  and  C3_3 
REMARK    2  A    between atoms: C2_2  and  C9_11 
REMARK    3  A    between atoms: C3_3  and  C4_4 
REMARK    4  A    between atoms: C4_4  and  C5_5 
REMARK    5  A    between atoms: C5_5  and  O1_6 
REMARK    6  A    between atoms: C5_5  and  C6_7 
REMARK    7  A    between atoms: C6_7  and  O2_10 
REMARK    8  A    between atoms: C17_19  and  C18_20 
REMARK    9  A    between atoms: C18_20  and  O3_23 
ROOT
HETATM    1  C9  UNL     1      -2.047  51.302 -10.038  1.00  0.00    -0.002 C 
HETATM    2  C10 UNL     1      -2.025  50.910  -8.532  1.00  0.00     0.006 C 
HETATM    3  C11 UNL     1      -0.734  51.527  -7.929  1.00  0.00     0.011 C 
HETATM    4  C12 UNL     1       0.079  52.002  -9.152  1.00  0.00    -0.032 C 
HETATM    5  C13 UNL     1       0.804  50.719  -9.686  1.00  0.00     0.016 C 
HETATM    6  C14 UNL     1       1.083  53.163  -8.902  1.00  0.00     0.003 C 
HETATM    7  C15 UNL     1       2.113  52.893  -7.798  1.00  0.00     0.009 C 
HETATM    8  C16 UNL     1       3.301  53.854  -7.775  1.00  0.00     0.042 C 
HETATM    9  C17 UNL     1       3.132  55.241  -8.454  1.00  0.00     0.095 C 
HETATM   10  O4  UNL     1       4.492  55.727  -8.702  1.00  0.00    -0.377 OA
HETATM   11  C21 UNL     1       5.105  55.251  -9.888  1.00  0.00     0.169 C 
HETATM   12  C22 UNL     1       4.427  55.842 -11.104  1.00  0.00     0.027 C 
HETATM   13  C23 UNL     1       2.925  56.025 -10.923  1.00  0.00     0.010 C 
HETATM   14  C24 UNL     1       2.280  55.206  -9.782  1.00  0.00     0.032 C 
HETATM   15  C25 UNL     1       1.704  53.781 -10.209  1.00  0.00    -0.033 C 
HETATM   16  C26 UNL     1       2.790  52.887 -10.843  1.00  0.00     0.016 C 
HETATM   17  C27 UNL     1       0.601  53.989 -11.321  1.00  0.00     0.011 C 
HETATM   18  C28 UNL     1      -0.487  52.897 -11.449  1.00  0.00     0.011 C 
HETATM   19  C29 UNL     1      -1.084  52.525 -10.083  1.00  0.00    -0.032 C 
HETATM   20  C30 UNL     1      -1.829  53.789  -9.548  1.00  0.00     0.016 C 
ENDROOT
BRANCH   1  21
HETATM   21  C2  UNL     1      -3.445  51.415 -10.716  1.00  0.00    -0.014 C 
HETATM   22  C1  UNL     1      -3.343  50.869 -12.153  1.00  0.00     0.010 C 
BRANCH  21  23
HETATM   23  C3  UNL     1      -4.609  50.710  -9.980  1.00  0.00     0.007 C 
BRANCH  23  24
HETATM   24  C4  UNL     1      -5.365  49.712 -10.877  1.00  0.00     0.035 C 
BRANCH  24  25
HETATM   25  C5  UNL     1      -6.846  49.574 -10.473  1.00  0.00     0.151 C 
BRANCH  25  26
HETATM   26  O1  UNL     1      -6.974  49.631  -9.050  1.00  0.00    -0.393 OA
HETATM   27  H10 UNL     1      -6.272  49.079  -8.661  1.00  0.00     0.210 HD
ENDBRANCH  25  26
BRANCH  25  28
HETATM   28  C6  UNL     1      -7.534  48.295 -11.041  1.00  0.00     0.076 C 
HETATM   29  C7  UNL     1      -7.423  47.094 -10.095  1.00  0.00     0.048 C 
HETATM   30  C8  UNL     1      -9.015  48.577 -11.330  1.00  0.00     0.048 C 
BRANCH  28  31
HETATM   31  O2  UNL     1      -6.905  47.938 -12.279  1.00  0.00    -0.388 OA
HETATM   32  H17 UNL     1      -7.385  47.181 -12.655  1.00  0.00     0.210 HD
ENDBRANCH  28  31
ENDBRANCH  25  28
ENDBRANCH  24  25
ENDBRANCH  23  24
ENDBRANCH  21  23
ENDBRANCH   1  21
BRANCH   9  33
HETATM   33  C18 UNL     1       2.595  56.324  -7.404  1.00  0.00     0.082 C 
HETATM   34  C19 UNL     1       1.078  56.526  -7.380  1.00  0.00     0.049 C 
HETATM   35  C20 UNL     1       3.267  57.701  -7.553  1.00  0.00     0.049 C 
BRANCH  33  36
HETATM   36  O3  UNL     1       2.958  55.871  -6.081  1.00  0.00    -0.388 OA
HETATM   37  H37 UNL     1       3.879  55.555  -6.177  1.00  0.00     0.210 HD
ENDBRANCH  33  36
ENDBRANCH   9  33
TORSDOF 9
ENDMDL
MODEL 4
REMARK minimizedAffinity -7.47979164
REMARK CNNscore 0.781250477
REMARK CNNaffinity 7.2602787
REMARK  9 active torsions:
REMARK  status: ('A' for Active; 'I' for Inactive)
REMARK    1  A    between atoms: C2_2  and  C3_3 
REMARK    2  A    between atoms: C2_2  and  C9_11 
REMARK    3  A    between atoms: C3_3  and  C4_4 
REMARK    4  A    between atoms: C4_4  and  C5_5 
REMARK    5  A    between atoms: C5_5  and  O1_6 
REMARK    6  A    between atoms: C5_5  and  C6_7 
REMARK    7  A    between atoms: C6_7  and  O2_10 
REMARK    8  A    between atoms: C17_19  and  C18_20 
REMARK    9  A    between atoms: C18_20  and  O3_23 
ROOT
HETATM    1  C9  UNL     1       1.304  54.331 -10.642  1.00  0.00    -0.002 C 
HETATM    2  C10 UNL     1       2.387  53.428 -11.300  1.00  0.00     0.006 C 
HETATM    3  C11 UNL     1       3.724  53.733 -10.571  1.00  0.00     0.011 C 
HETATM    4  C12 UNL     1       3.430  54.991  -9.727  1.00  0.00    -0.032 C 
HETATM    5  C13 UNL     1       3.565  56.194 -10.723  1.00  0.00     0.016 C 
HETATM    6  C14 UNL     1       4.313  55.193  -8.463  1.00  0.00     0.003 C 
HETATM    7  C15 UNL     1       5.823  55.218  -8.734  1.00  0.00     0.009 C 
HETATM    8  C16 UNL     1       6.675  55.755  -7.585  1.00  0.00     0.042 C 
HETATM    9  C17 UNL     1       6.072  55.728  -6.153  1.00  0.00     0.095 C 
HETATM   10  O4  UNL     1       6.855  56.694  -5.377  1.00  0.00    -0.377 OA
HETATM   11  C21 UNL     1       6.448  58.047  -5.494  1.00  0.00     0.169 C 
HETATM   12  C22 UNL     1       5.106  58.251  -4.825  1.00  0.00     0.027 C 
HETATM   13  C23 UNL     1       4.175  57.054  -4.972  1.00  0.00     0.010 C 
HETATM   14  C24 UNL     1       4.530  56.059  -6.100  1.00  0.00     0.032 C 
HETATM   15  C25 UNL     1       3.824  56.339  -7.502  1.00  0.00    -0.033 C 
HETATM   16  C26 UNL     1       4.142  57.753  -8.036  1.00  0.00     0.016 C 
HETATM   17  C27 UNL     1       2.257  56.287  -7.304  1.00  0.00     0.011 C 
HETATM   18  C28 UNL     1       1.401  55.925  -8.541  1.00  0.00     0.011 C 
HETATM   19  C29 UNL     1       1.949  54.690  -9.271  1.00  0.00    -0.032 C 
HETATM   20  C30 UNL     1       1.800  53.478  -8.298  1.00  0.00     0.016 C 
ENDROOT
BRANCH   1  21
HETATM   21  C2  UNL     1      -0.163  53.808 -10.675  1.00  0.00    -0.014 C 
HETATM   22  C1  UNL     1      -1.118  55.001 -10.484  1.00  0.00     0.010 C 
BRANCH  21  23
HETATM   23  C3  UNL     1      -0.570  53.023 -11.944  1.00  0.00     0.007 C 
BRANCH  23  24
HETATM   24  C4  UNL     1      -1.345  51.730 -11.623  1.00  0.00     0.035 C 
BRANCH  24  25
HETATM   25  C5  UNL     1      -2.848  51.860 -11.941  1.00  0.00     0.151 C 
BRANCH  25  26
HETATM   26  O1  UNL     1      -3.055  52.873 -12.930  1.00  0.00    -0.393 OA
HETATM   27  H10 UNL     1      -2.501  53.639 -12.698  1.00  0.00     0.210 HD
ENDBRANCH  25  26
BRANCH  25  28
HETATM   28  C6  UNL     1      -3.733  52.123 -10.685  1.00  0.00     0.076 C 
HETATM   29  C7  UNL     1      -3.035  51.733  -9.377  1.00  0.00     0.048 C 
HETATM   30  C8  UNL     1      -4.135  53.603 -10.623  1.00  0.00     0.048 C 
BRANCH  28  31
HETATM   31  O2  UNL     1      -4.934  51.346 -10.791  1.00  0.00    -0.388 OA
HETATM   32  H17 UNL     1      -5.505  51.569 -10.036  1.00  0.00     0.210 HD
ENDBRANCH  28  31
ENDBRANCH  25  28
ENDBRANCH  24  25
ENDBRANCH  23  24
ENDBRANCH  21  23
ENDBRANCH   1  21
BRANCH   9  33
HETATM   33  C18 UNL     1       6.435  54.357  -5.411  1.00  0.00     0.082 C 
HETATM   34  C19 UNL     1       5.257  53.417  -5.145  1.00  0.00     0.049 C 
HETATM   35  C20 UNL     1       7.201  54.563  -4.091  1.00  0.00     0.049 C 
BRANCH  33  36
HETATM   36  O3  UNL     1       7.346  53.624  -6.261  1.00  0.00    -0.388 OA
HETATM   37  H37 UNL     1       7.975  54.302  -6.582  1.00  0.00     0.210 HD
ENDBRANCH  33  36
ENDBRANCH   9  33
TORSDOF 9
ENDMDL
MODEL 5
REMARK minimizedAffinity -6.25977659
REMARK CNNscore 0.776157498
REMARK CNNaffinity 7.41079903
REMARK  9 active torsions:
REMARK  status: ('A' for Active; 'I' for Inactive)
REMARK    1  A    between atoms: C2_2  and  C3_3 
REMARK    2  A    between atoms: C2_2  and  C9_11 
REMARK    3  A    between atoms: C3_3  and  C4_4 
REMARK    4  A    between atoms: C4_4  and  C5_5 
REMARK    5  A    between atoms: C5_5  and  O1_6 
REMARK    6  A    between atoms: C5_5  and  C6_7 
REMARK    7  A    between atoms: C6_7  and  O2_10 
REMARK    8  A    between atoms: C17_19  and  C18_20 
REMARK    9  A    between atoms: C18_20  and  O3_23 
ROOT
HETATM    1  C9  UNL     1      -1.055  53.088  -9.980  1.00  0.00    -0.002 C 
HETATM    2  C10 UNL     1      -0.348  51.767 -10.400  1.00  0.00     0.006 C 
HETATM    3  C11 UNL     1       1.145  51.914 -10.001  1.00  0.00     0.011 C 
HETATM    4  C12 UNL     1       1.307  53.404  -9.636  1.00  0.00    -0.032 C 
HETATM    5  C13 UNL     1       1.480  54.147 -11.005  1.00  0.00     0.016 C 
HETATM    6  C14 UNL     1       2.458  53.749  -8.649  1.00  0.00     0.003 C 
HETATM    7  C15 UNL     1       3.848  53.279  -9.096  1.00  0.00     0.009 C 
HETATM    8  C16 UNL     1       5.016  53.901  -8.332  1.00  0.00     0.042 C 
HETATM    9  C17 UNL     1       4.736  54.492  -6.923  1.00  0.00     0.095 C 
HETATM   10  O4  UNL     1       5.849  55.404  -6.649  1.00  0.00    -0.377 OA
HETATM   11  C21 UNL     1       5.720  56.708  -7.191  1.00  0.00     0.169 C 
HETATM   12  C22 UNL     1       4.623  57.467  -6.480  1.00  0.00     0.027 C 
HETATM   13  C23 UNL     1       3.451  56.583  -6.069  1.00  0.00     0.010 C 
HETATM   14  C24 UNL     1       3.344  55.226  -6.800  1.00  0.00     0.032 C 
HETATM   15  C25 UNL     1       2.434  55.228  -8.110  1.00  0.00    -0.033 C 
HETATM   16  C26 UNL     1       2.923  56.259  -9.150  1.00  0.00     0.016 C 
HETATM   17  C27 UNL     1       0.968  55.666  -7.713  1.00  0.00     0.011 C 
HETATM   18  C28 UNL     1      -0.185  55.177  -8.620  1.00  0.00     0.011 C 
HETATM   19  C29 UNL     1      -0.075  53.674  -8.921  1.00  0.00    -0.032 C 
HETATM   20  C30 UNL     1      -0.267  52.920  -7.567  1.00  0.00     0.016 C 
ENDROOT
BRANCH   1  21
HETATM   21  C2  UNL     1      -2.572  52.998  -9.640  1.00  0.00    -0.014 C 
HETATM   22  C1  UNL     1      -3.256  54.307 -10.079  1.00  0.00     0.010 C 
BRANCH  21  23
HETATM   23  C3  UNL     1      -3.328  51.794 -10.249  1.00  0.00     0.007 C 
BRANCH  23  24
HETATM   24  C4  UNL     1      -4.243  52.195 -11.421  1.00  0.00     0.035 C 
BRANCH  24  25
HETATM   25  C5  UNL     1      -3.439  52.670 -12.648  1.00  0.00     0.151 C 
BRANCH  25  26
HETATM   26  O1  UNL     1      -4.194  53.635 -13.386  1.00  0.00    -0.393 OA
HETATM   27  H10 UNL     1      -5.111  53.314 -13.454  1.00  0.00     0.210 HD
ENDBRANCH  25  26
BRANCH  25  28
HETATM   28  C6  UNL     1      -2.967  51.509 -13.576  1.00  0.00     0.076 C 
HETATM   29  C7  UNL     1      -1.457  51.541 -13.841  1.00  0.00     0.048 C 
HETATM   30  C8  UNL     1      -3.345  50.155 -12.959  1.00  0.00     0.048 C 
BRANCH  28  31
HETATM   31  O2  UNL     1      -3.637  51.619 -14.838  1.00  0.00    -0.388 OA
HETATM   32  H17 UNL     1      -3.384  50.853 -15.383  1.00  0.00     0.210 HD
ENDBRANCH  28  31
ENDBRANCH  25  28
ENDBRANCH  24  25
ENDBRANCH  23  24
ENDBRANCH  21  23
ENDBRANCH   1  21
BRANCH   9  33
HETATM   33  C18 UNL     1       4.950  53.381  -5.790  1.00  0.00     0.082 C 
HETATM   34  C19 UNL     1       5.466  53.898  -4.446  1.00  0.00     0.049 C 
HETATM   35  C20 UNL     1       5.849  52.216  -6.242  1.00  0.00     0.049 C 
BRANCH  33  36
HETATM   36  O3  UNL     1       3.665  52.778  -5.518  1.00  0.00    -0.388 OA
HETATM   37  H37 UNL     1       3.268  52.645  -6.402  1.00  0.00     0.210 HD
ENDBRANCH  33  36
ENDBRANCH   9  33
TORSDOF 9
ENDMDL
MODEL 6
REMARK minimizedAffinity -6.54876661
REMARK CNNscore 0.764630914
REMARK CNNaffinity 7.31617689
REMARK  9 active torsions:
REMARK  status: ('A' for Active; 'I' for Inactive)
REMARK    1  A    between atoms: C2_2  and  C3_3 
REMARK    2  A    between atoms: C2_2  and  C9_11 
REMARK    3  A    between atoms: C3_3  and  C4_4 
REMARK    4  A    between atoms: C4_4  and  C5_5 
REMARK    5  A    between atoms: C5_5  and  O1_6 
REMARK    6  A    between atoms: C5_5  and  C6_7 
REMARK    7  A    between atoms: C6_7  and  O2_10 
REMARK    8  A    between atoms: C17_19  and  C18_20 
REMARK    9  A    between atoms: C18_20  and  O3_23 
ROOT
HETATM    1  C9  UNL     1       3.552  54.161  -8.583  1.00  0.00    -0.002 C 
HETATM    2  C10 UNL     1       4.207  52.824  -9.037  1.00  0.00     0.006 C 
HETATM    3  C11 UNL     1       3.062  51.932  -9.588  1.00  0.00     0.011 C 
HETATM    4  C12 UNL     1       1.766  52.658  -9.172  1.00  0.00    -0.032 C 
HETATM    5  C13 UNL     1       1.525  52.246  -7.679  1.00  0.00     0.016 C 
HETATM    6  C14 UNL     1       0.512  52.384 -10.051  1.00  0.00     0.003 C 
HETATM    7  C15 UNL     1       0.134  50.904 -10.184  1.00  0.00     0.009 C 
HETATM    8  C16 UNL     1      -1.266  50.643 -10.739  1.00  0.00     0.042 C 
HETATM    9  C17 UNL     1      -1.944  51.767 -11.569  1.00  0.00     0.095 C 
HETATM   10  O4  UNL     1      -3.377  51.460 -11.554  1.00  0.00    -0.377 OA
HETATM   11  C21 UNL     1      -4.088  51.911 -10.413  1.00  0.00     0.169 C 
HETATM   12  C22 UNL     1      -4.179  53.421 -10.413  1.00  0.00     0.027 C 
HETATM   13  C23 UNL     1      -2.935  54.096 -10.977  1.00  0.00     0.010 C 
HETATM   14  C24 UNL     1      -1.661  53.223 -11.030  1.00  0.00     0.032 C 
HETATM   15  C25 UNL     1      -0.713  53.326  -9.750  1.00  0.00    -0.033 C 
HETATM   16  C26 UNL     1      -1.457  52.953  -8.450  1.00  0.00     0.016 C 
HETATM   17  C27 UNL     1      -0.249  54.827  -9.577  1.00  0.00     0.011 C 
HETATM   18  C28 UNL     1       1.087  55.072  -8.838  1.00  0.00     0.011 C 
HETATM   19  C29 UNL     1       2.206  54.162  -9.367  1.00  0.00    -0.032 C 
HETATM   20  C30 UNL     1       2.473  54.577 -10.849  1.00  0.00     0.016 C 
ENDROOT
BRANCH   1  21
HETATM   21  C2  UNL     1       4.449  55.433  -8.619  1.00  0.00    -0.014 C 
HETATM   22  C1  UNL     1       5.652  55.164  -9.543  1.00  0.00     0.010 C 
BRANCH  21  23
HETATM   23  C3  UNL     1       3.748  56.740  -9.058  1.00  0.00     0.007 C 
BRANCH  23  24
HETATM   24  C4  UNL     1       3.800  57.837  -7.978  1.00  0.00     0.035 C 
BRANCH  24  25
HETATM   25  C5  UNL     1       3.505  57.281  -6.571  1.00  0.00     0.151 C 
BRANCH  25  26
HETATM   26  O1  UNL     1       2.346  57.917  -6.025  1.00  0.00    -0.393 OA
HETATM   27  H10 UNL     1       2.410  58.871  -6.207  1.00  0.00     0.210 HD
ENDBRANCH  25  26
BRANCH  25  28
HETATM   28  C6  UNL     1       4.711  57.389  -5.589  1.00  0.00     0.076 C 
HETATM   29  C7  UNL     1       4.513  58.477  -4.526  1.00  0.00     0.048 C 
HETATM   30  C8  UNL     1       4.949  56.040  -4.895  1.00  0.00     0.048 C 
BRANCH  28  31
HETATM   31  O2  UNL     1       5.892  57.714  -6.335  1.00  0.00    -0.388 OA
HETATM   32  H17 UNL     1       6.647  57.713  -5.722  1.00  0.00     0.210 HD
ENDBRANCH  28  31
ENDBRANCH  25  28
ENDBRANCH  24  25
ENDBRANCH  23  24
ENDBRANCH  21  23
ENDBRANCH   1  21
BRANCH   9  33
HETATM   33  C18 UNL     1      -1.602  51.609 -13.124  1.00  0.00     0.082 C 
HETATM   34  C19 UNL     1      -2.789  51.738 -14.080  1.00  0.00     0.049 C 
HETATM   35  C20 UNL     1      -0.853  50.303 -13.452  1.00  0.00     0.049 C 
BRANCH  33  36
HETATM   36  O3  UNL     1      -0.684  52.666 -13.483  1.00  0.00    -0.388 OA
HETATM   37  H37 UNL     1      -0.045  52.694 -12.741  1.00  0.00     0.210 HD
ENDBRANCH  33  36
ENDBRANCH   9  33
TORSDOF 9
ENDMDL
MODEL 7
REMARK minimizedAffinity -6.51347446
REMARK CNNscore 0.728686213
REMARK CNNaffinity 6.49635649
REMARK  9 active torsions:
REMARK  status: ('A' for Active; 'I' for Inactive)
REMARK    1  A    between atoms: C2_2  and  C3_3 
REMARK    2  A    between atoms: C2_2  and  C9_11 
REMARK    3  A    between atoms: C3_3  and  C4_4 
REMARK    4  A    between atoms: C4_4  and  C5_5 
REMARK    5  A    between atoms: C5_5  and  O1_6 
REMARK    6  A    between atoms: C5_5  and  C6_7 
REMARK    7  A    between atoms: C6_7  and  O2_10 
REMARK    8  A    between atoms: C17_19  and  C18_20 
REMARK    9  A    between atoms: C18_20  and  O3_23 
ROOT
HETATM    1  C9  UNL     1       5.100  56.139  -7.916  1.00  0.00    -0.002 C 
HETATM    2  C10 UNL     1       4.155  57.373  -7.998  1.00  0.00     0.006 C 
HETATM    3  C11 UNL     1       2.869  56.902  -8.728  1.00  0.00     0.011 C 
HETATM    4  C12 UNL     1       3.228  55.511  -9.293  1.00  0.00    -0.032 C 
HETATM    5  C13 UNL     1       4.015  55.796 -10.618  1.00  0.00     0.016 C 
HETATM    6  C14 UNL     1       2.039  54.538  -9.532  1.00  0.00     0.003 C 
HETATM    7  C15 UNL     1       0.937  55.085 -10.448  1.00  0.00     0.009 C 
HETATM    8  C16 UNL     1      -0.048  54.040 -10.969  1.00  0.00     0.042 C 
HETATM    9  C17 UNL     1      -0.189  52.711 -10.178  1.00  0.00     0.095 C 
HETATM   10  O4  UNL     1      -0.789  51.756 -11.113  1.00  0.00    -0.377 OA
HETATM   11  C21 UNL     1       0.116  51.106 -11.989  1.00  0.00     0.169 C 
HETATM   12  C22 UNL     1       0.996  50.147 -11.219  1.00  0.00     0.027 C 
HETATM   13  C23 UNL     1       1.355  50.650  -9.826  1.00  0.00     0.010 C 
HETATM   14  C24 UNL     1       1.170  52.166  -9.590  1.00  0.00     0.032 C 
HETATM   15  C25 UNL     1       2.463  53.060  -9.867  1.00  0.00    -0.033 C 
HETATM   16  C26 UNL     1       2.981  52.892 -11.311  1.00  0.00     0.016 C 
HETATM   17  C27 UNL     1       3.632  52.574  -8.920  1.00  0.00     0.011 C 
HETATM   18  C28 UNL     1       4.725  53.607  -8.562  1.00  0.00     0.011 C 
HETATM   19  C29 UNL     1       4.118  54.947  -8.117  1.00  0.00    -0.032 C 
HETATM   20  C30 UNL     1       3.349  54.683  -6.784  1.00  0.00     0.016 C 
ENDROOT
BRANCH   1  21
HETATM   21  C2  UNL     1       6.105  56.100  -6.727  1.00  0.00    -0.014 C 
HETATM   22  C1  UNL     1       7.404  55.419  -7.199  1.00  0.00     0.010 C 
BRANCH  21  23
HETATM   23  C3  UNL     1       6.446  57.466  -6.088  1.00  0.00     0.007 C 
BRANCH  23  24
HETATM   24  C4  UNL     1       7.306  57.333  -4.817  1.00  0.00     0.035 C 
BRANCH  24  25
HETATM   25  C5  UNL     1       8.795  57.630  -5.089  1.00  0.00     0.151 C 
BRANCH  25  26
HETATM   26  O1  UNL     1       9.610  56.584  -4.553  1.00  0.00    -0.393 OA
HETATM   27  H10 UNL     1       9.275  56.364  -3.666  1.00  0.00     0.210 HD
ENDBRANCH  25  26
BRANCH  25  28
HETATM   28  C6  UNL     1       9.261  59.022  -4.563  1.00  0.00     0.076 C 
HETATM   29  C7  UNL     1       8.107  60.022  -4.431  1.00  0.00     0.048 C 
HETATM   30  C8  UNL     1       9.956  58.866  -3.203  1.00  0.00     0.048 C 
BRANCH  28  31
HETATM   31  O2  UNL     1      10.214  59.572  -5.482  1.00  0.00    -0.388 OA
HETATM   32  H17 UNL     1      10.546  60.407  -5.111  1.00  0.00     0.210 HD
ENDBRANCH  28  31
ENDBRANCH  25  28
ENDBRANCH  24  25
ENDBRANCH  23  24
ENDBRANCH  21  23
ENDBRANCH   1  21
BRANCH   9  33
HETATM   33  C18 UNL     1      -1.336  52.832  -9.068  1.00  0.00     0.082 C 
HETATM   34  C19 UNL     1      -1.445  51.654  -8.097  1.00  0.00     0.049 C 
HETATM   35  C20 UNL     1      -2.731  53.103  -9.662  1.00  0.00     0.049 C 
BRANCH  33  36
HETATM   36  O3  UNL     1      -1.043  53.991  -8.257  1.00  0.00    -0.388 OA
HETATM   37  H37 UNL     1      -0.776  54.677  -8.902  1.00  0.00     0.210 HD
ENDBRANCH  33  36
ENDBRANCH   9  33
TORSDOF 9
ENDMDL
MODEL 8
REMARK minimizedAffinity -6.73130369
REMARK CNNscore 0.638316631
REMARK CNNaffinity 7.19055319
REMARK  9 active torsions:
REMARK  status: ('A' for Active; 'I' for Inactive)
REMARK    1  A    between atoms: C2_2  and  C3_3 
REMARK    2  A    between atoms: C2_2  and  C9_11 
REMARK    3  A    between atoms: C3_3  and  C4_4 
REMARK    4  A    between atoms: C4_4  and  C5_5 
REMARK    5  A    between atoms: C5_5  and  O1_6 
REMARK    6  A    between atoms: C5_5  and  C6_7 
REMARK    7  A    between atoms: C6_7  and  O2_10 
REMARK    8  A    between atoms: C17_19  and  C18_20 
REMARK    9  A    between atoms: C18_20  and  O3_23 
ROOT
HETATM    1  C9  UNL     1       2.516  55.285  -8.172  1.00  0.00    -0.002 C 
HETATM    2  C10 UNL     1       3.560  54.158  -8.417  1.00  0.00     0.006 C 
HETATM    3  C11 UNL     1       2.786  52.959  -9.029  1.00  0.00     0.011 C 
HETATM    4  C12 UNL     1       1.297  53.323  -8.849  1.00  0.00    -0.032 C 
HETATM    5  C13 UNL     1       0.956  52.937  -7.369  1.00  0.00     0.016 C 
HETATM    6  C14 UNL     1       0.304  52.671  -9.854  1.00  0.00     0.003 C 
HETATM    7  C15 UNL     1       0.354  51.139  -9.901  1.00  0.00     0.009 C 
HETATM    8  C16 UNL     1      -0.830  50.477 -10.606  1.00  0.00     0.042 C 
HETATM    9  C17 UNL     1      -1.651  51.328 -11.613  1.00  0.00     0.095 C 
HETATM   10  O4  UNL     1      -2.937  50.642 -11.754  1.00  0.00    -0.377 OA
HETATM   11  C21 UNL     1      -3.902  50.938 -10.759  1.00  0.00     0.169 C 
HETATM   12  C22 UNL     1      -4.388  52.363 -10.905  1.00  0.00     0.027 C 
HETATM   13  C23 UNL     1      -3.297  53.324 -11.363  1.00  0.00     0.010 C 
HETATM   14  C24 UNL     1      -1.844  52.832 -11.174  1.00  0.00     0.032 C 
HETATM   15  C25 UNL     1      -1.156  53.255  -9.798  1.00  0.00    -0.033 C 
HETATM   16  C26 UNL     1      -1.959  52.760  -8.576  1.00  0.00     0.016 C 
HETATM   17  C27 UNL     1      -1.136  54.833  -9.701  1.00  0.00     0.011 C 
HETATM   18  C28 UNL     1      -0.036  55.472  -8.821  1.00  0.00     0.011 C 
HETATM   19  C29 UNL     1       1.348  54.877  -9.120  1.00  0.00    -0.032 C 
HETATM   20  C30 UNL     1       1.712  55.273 -10.586  1.00  0.00     0.016 C 
ENDROOT
BRANCH   1  21
HETATM   21  C2  UNL     1       3.041  56.751  -8.207  1.00  0.00    -0.014 C 
HETATM   22  C1  UNL     1       2.587  57.469  -6.922  1.00  0.00     0.010 C 
BRANCH  21  23
HETATM   23  C3  UNL     1       4.570  56.915  -8.374  1.00  0.00     0.007 C 
BRANCH  23  24
HETATM   24  C4  UNL     1       5.282  57.255  -7.051  1.00  0.00     0.035 C 
BRANCH  24  25
HETATM   25  C5  UNL     1       5.652  55.991  -6.249  1.00  0.00     0.151 C 
BRANCH  25  26
HETATM   26  O1  UNL     1       5.539  56.249  -4.846  1.00  0.00    -0.393 OA
HETATM   27  H10 UNL     1       5.938  57.118  -4.666  1.00  0.00     0.210 HD
ENDBRANCH  25  26
BRANCH  25  28
HETATM   28  C6  UNL     1       7.061  55.420  -6.596  1.00  0.00     0.076 C 
HETATM   29  C7  UNL     1       8.190  56.131  -5.842  1.00  0.00     0.048 C 
HETATM   30  C8  UNL     1       7.112  53.917  -6.285  1.00  0.00     0.048 C 
BRANCH  28  31
HETATM   31  O2  UNL     1       7.298  55.586  -8.000  1.00  0.00    -0.388 OA
HETATM   32  H17 UNL     1       8.149  55.167  -8.215  1.00  0.00     0.210 HD
ENDBRANCH  28  31
ENDBRANCH  25  28
ENDBRANCH  24  25
ENDBRANCH  23  24
ENDBRANCH  21  23
ENDBRANCH   1  21
BRANCH   9  33
HETATM   33  C18 UNL     1      -1.053  51.190 -13.091  1.00  0.00     0.082 C 
HETATM   34  C19 UNL     1      -0.380  49.854 -13.410  1.00  0.00     0.049 C 
HETATM   35  C20 UNL     1      -0.081  52.326 -13.463  1.00  0.00     0.049 C 
BRANCH  33  36
HETATM   36  O3  UNL     1      -2.150  51.317 -14.023  1.00  0.00    -0.388 OA
HETATM   37  H37 UNL     1      -2.681  52.060 -13.672  1.00  0.00     0.210 HD
ENDBRANCH  33  36
ENDBRANCH   9  33
TORSDOF 9
ENDMDL
MODEL 9
REMARK minimizedAffinity -9.18270016
REMARK CNNscore 0.571794271
REMARK CNNaffinity 7.17829847
REMARK  9 active torsions:
REMARK  status: ('A' for Active; 'I' for Inactive)
REMARK    1  A    between atoms: C2_2  and  C3_3 
REMARK    2  A    between atoms: C2_2  and  C9_11 
REMARK    3  A    between atoms: C3_3  and  C4_4 
REMARK    4  A    between atoms: C4_4  and  C5_5 
REMARK    5  A    between atoms: C5_5  and  O1_6 
REMARK    6  A    between atoms: C5_5  and  C6_7 
REMARK    7  A    between atoms: C6_7  and  O2_10 
REMARK    8  A    between atoms: C17_19  and  C18_20 
REMARK    9  A    between atoms: C18_20  and  O3_23 
ROOT
HETATM    1  C9  UNL     1      -3.794  50.270 -25.503  1.00  0.00    -0.002 C 
HETATM    2  C10 UNL     1      -3.894  51.810 -25.302  1.00  0.00     0.006 C 
HETATM    3  C11 UNL     1      -3.805  52.067 -23.774  1.00  0.00     0.011 C 
HETATM    4  C12 UNL     1      -3.948  50.670 -23.134  1.00  0.00    -0.032 C 
HETATM    5  C13 UNL     1      -5.488  50.383 -23.113  1.00  0.00     0.016 C 
HETATM    6  C14 UNL     1      -3.314  50.492 -21.725  1.00  0.00     0.003 C 
HETATM    7  C15 UNL     1      -3.811  51.485 -20.667  1.00  0.00     0.009 C 
HETATM    8  C16 UNL     1      -3.474  51.113 -19.224  1.00  0.00     0.042 C 
HETATM    9  C17 UNL     1      -2.290  50.138 -18.978  1.00  0.00     0.095 C 
HETATM   10  O4  UNL     1      -2.493  49.603 -17.629  1.00  0.00    -0.377 OA
HETATM   11  C21 UNL     1      -3.383  48.503 -17.535  1.00  0.00     0.169 C 
HETATM   12  C22 UNL     1      -2.773  47.277 -18.177  1.00  0.00     0.027 C 
HETATM   13  C23 UNL     1      -1.928  47.600 -19.403  1.00  0.00     0.010 C 
HETATM   14  C24 UNL     1      -2.178  48.983 -20.047  1.00  0.00     0.032 C 
HETATM   15  C25 UNL     1      -3.260  49.003 -21.218  1.00  0.00    -0.033 C 
HETATM   16  C26 UNL     1      -4.632  48.475 -20.744  1.00  0.00     0.016 C 
HETATM   17  C27 UNL     1      -2.788  48.026 -22.367  1.00  0.00     0.011 C 
HETATM   18  C28 UNL     1      -3.302  48.316 -23.797  1.00  0.00     0.011 C 
HETATM   19  C29 UNL     1      -3.139  49.798 -24.171  1.00  0.00    -0.032 C 
HETATM   20  C30 UNL     1      -1.606  50.093 -24.217  1.00  0.00     0.016 C 
ENDROOT
BRANCH   1  21
HETATM   21  C2  UNL     1      -3.203  49.773 -26.855  1.00  0.00    -0.014 C 
HETATM   22  C1  UNL     1      -4.179  48.756 -27.477  1.00  0.00     0.010 C 
BRANCH  21  23
HETATM   23  C3  UNL     1      -2.877  50.873 -27.893  1.00  0.00     0.007 C 
BRANCH  23  24
HETATM   24  C4  UNL     1      -1.462  51.455 -27.719  1.00  0.00     0.035 C 
BRANCH  24  25
HETATM   25  C5  UNL     1      -1.490  52.904 -27.193  1.00  0.00     0.151 C 
BRANCH  25  26
HETATM   26  O1  UNL     1      -1.858  53.801 -28.245  1.00  0.00    -0.393 OA
HETATM   27  H10 UNL     1      -1.367  53.545 -29.046  1.00  0.00     0.210 HD
ENDBRANCH  25  26
BRANCH  25  28
HETATM   28  C6  UNL     1      -0.157  53.353 -26.522  1.00  0.00     0.076 C 
HETATM   29  C7  UNL     1      -0.230  53.336 -24.991  1.00  0.00     0.048 C 
HETATM   30  C8  UNL     1       0.997  52.452 -26.984  1.00  0.00     0.048 C 
BRANCH  28  31
HETATM   31  O2  UNL     1       0.143  54.694 -26.932  1.00  0.00    -0.388 OA
HETATM   32  H17 UNL     1       1.008  54.938 -26.560  1.00  0.00     0.210 HD
ENDBRANCH  28  31
ENDBRANCH  25  28
ENDBRANCH  24  25
ENDBRANCH  23  24
ENDBRANCH  21  23
ENDBRANCH   1  21
BRANCH   9  33
HETATM   33  C18 UNL     1      -0.920  50.945 -18.796  1.00  0.00     0.082 C 
HETATM   34  C19 UNL     1      -0.032  51.031 -20.039  1.00  0.00     0.049 C 
HETATM   35  C20 UNL     1      -0.065  50.434 -17.621  1.00  0.00     0.049 C 
BRANCH  33  36
HETATM   36  O3  UNL     1      -1.254  52.308 -18.450  1.00  0.00    -0.388 OA
HETATM   37  H37 UNL     1      -1.976  52.221 -17.794  1.00  0.00     0.210 HD
ENDBRANCH  33  36
ENDBRANCH   9  33
TORSDOF 9
ENDMDL
