MODEL 1
REMARK minimizedAffinity -6.24504042
REMARK CNNscore 0.502607524
REMARK CNNaffinity 7.17431116
REMARK  21 active torsions:
REMARK  status: ('A' for Active; 'I' for Inactive)
REMARK    1  A    between atoms: C2_2  and  C3_3 
REMARK    2  A    between atoms: C2_2  and  C27_33 
REMARK    3  A    between atoms: C4_4  and  C5_5 
REMARK    4  A    between atoms: C6_6  and  C7_7 
REMARK    5  A    between atoms: C6_6  and  C10_12 
REMARK    6  A    between atoms: C7_7  and  O1_8 
REMARK    7  A    between atoms: O1_8  and  C8_9 
REMARK    8  A    between atoms: C8_9  and  C9_10 
REMARK    9  A    between atoms: C9_10  and  O2_11 
REMARK   10  A    between atoms: C14_16  and  O3_17 
REMARK   11  A    between atoms: C15_18  and  C16_19 
REMARK   12  A    between atoms: C16_19  and  C17_20 
REMARK   13  A    between atoms: C17_20  and  C18_21 
REMARK   14  A    between atoms: C18_21  and  O4_22 
REMARK   15  A    between atoms: C20_24  and  C22_26 
REMARK   16  A    between atoms: C25_30  and  O6_32 
REMARK   17  A    between atoms: C27_33  and  C28_34 
REMARK   18  A    between atoms: C28_34  and  C29_35 
REMARK   19  A    between atoms: C30_36  and  C32_38 
REMARK   20  A    between atoms: C32_38  and  N1_39 
REMARK   21  A    between atoms: N1_39  and  C33_40 
ROOT
HETATM    1  C10 UNL     1      -4.495   5.886  13.485  1.00  0.00     0.046 C 
HETATM    2  C11 UNL     1      -4.126   7.356  13.306  1.00  0.00     0.013 C 
HETATM    3  C12 UNL     1      -5.480   8.057  13.254  1.00  0.00     0.017 C 
HETATM    4  C13 UNL     1      -6.458   7.271  14.199  1.00  0.00     0.024 C 
HETATM    5  C14 UNL     1      -5.613   5.973  14.558  1.00  0.00     0.138 C 
HETATM    6  C15 UNL     1      -7.827   6.971  13.440  1.00  0.00     0.029 C 
HETATM    7  C19 UNL     1      -9.008   6.684  14.399  1.00  0.00    -0.066 C 
HETATM    8  C20 UNL     1     -10.324   6.823  14.090  1.00  0.00    -0.021 C 
HETATM    9  C21 UNL     1     -11.460   6.539  15.040  1.00  0.00     0.052 C 
HETATM   10  C23 UNL     1      -8.564   6.269  15.788  1.00  0.00     0.038 C 
HETATM   11  C24 UNL     1      -7.712   7.349  16.458  1.00  0.00     0.042 C 
HETATM   12  C25 UNL     1      -6.821   8.148  15.473  1.00  0.00     0.065 C 
HETATM   13  C26 UNL     1      -7.523   9.488  15.151  1.00  0.00     0.047 C 
ENDROOT
BRANCH   1  14
HETATM   14  C6  UNL     1      -3.299   4.952  13.688  1.00  0.00    -0.050 C 
HETATM   15  C5  UNL     1      -2.121   5.315  14.246  1.00  0.00     0.005 C 
BRANCH  15  16
HETATM   16  C4  UNL     1      -1.678   6.621  14.692  1.00  0.00     0.001 C 
HETATM   17  C3  UNL     1      -0.443   7.073  14.413  1.00  0.00     0.006 C 
BRANCH  17  18
HETATM   18  C2  UNL     1       0.126   8.375  14.765  1.00  0.00    -0.067 C 
HETATM   19  C1  UNL     1       0.014   9.375  13.875  1.00  0.00     0.019 C 
BRANCH  18  20
HETATM   20  C27 UNL     1       0.785   8.522  16.129  1.00  0.00     0.041 C 
BRANCH  20  21
HETATM   21  C28 UNL     1       2.281   8.887  16.220  1.00  0.00     0.032 C 
BRANCH  21  22
HETATM   22  C29 UNL     1       3.130   8.214  15.171  1.00  0.00    -0.022 C 
HETATM   23  C30 UNL     1       3.790   8.782  14.138  1.00  0.00    -0.060 C 
HETATM   24  C31 UNL     1       3.754  10.254  13.825  1.00  0.00     0.045 C 
BRANCH  23  25
HETATM   25  C32 UNL     1       4.567   7.911  13.169  1.00  0.00     0.303 C 
BRANCH  25  26
HETATM   26  N1  UNL     1       3.741   7.024  12.358  1.00  0.00     0.086 N 
HETATM   27  H50 UNL     1       3.472   6.220  12.923  1.00  0.00     0.316 HD
BRANCH  26  28
HETATM   28  C33 UNL     1       4.309   6.572  11.093  1.00  0.00     0.265 C 
HETATM   29  C34 UNL     1       3.269   6.230  10.034  1.00  0.00     0.037 C 
ENDBRANCH  26  28
ENDBRANCH  25  26
ENDBRANCH  23  25
ENDBRANCH  21  22
ENDBRANCH  20  21
ENDBRANCH  18  20
ENDBRANCH  17  18
ENDBRANCH  15  16
BRANCH  14  30
HETATM   30  C7  UNL     1      -3.448   3.491  13.304  1.00  0.00     0.202 C 
BRANCH  30  31
HETATM   31  O1  UNL     1      -4.125   3.410  12.045  1.00  0.00    -0.385 OA
BRANCH  31  32
HETATM   32  C8  UNL     1      -3.710   2.308  11.224  1.00  0.00     0.194 C 
BRANCH  32  33
HETATM   33  C9  UNL     1      -2.189   2.166  11.247  1.00  0.00     0.190 C 
BRANCH  33  34
HETATM   34  O2  UNL     1      -1.667   2.297   9.925  1.00  0.00    -0.399 OA
HETATM   35  H12 UNL     1      -2.256   1.768   9.352  1.00  0.00     0.209 HD
ENDBRANCH  33  34
ENDBRANCH  32  33
ENDBRANCH  31  32
ENDBRANCH  30  31
ENDBRANCH  14  30
ENDBRANCH   1  14
BRANCH   5  36
HETATM   36  O3  UNL     1      -5.057   6.115  15.867  1.00  0.00    -0.394 OA
HETATM   37  H19 UNL     1      -4.506   5.321  16.042  1.00  0.00     0.210 HD
ENDBRANCH   5  36
BRANCH   6  38
HETATM   38  C16 UNL     1      -7.780   5.998  12.229  1.00  0.00     0.012 C 
BRANCH  38  39
HETATM   39  C17 UNL     1      -8.496   4.648  12.361  1.00  0.00     0.027 C 
BRANCH  39  40
HETATM   40  C18 UNL     1      -7.552   3.545  12.842  1.00  0.00     0.164 C 
BRANCH  40  41
HETATM   41  O4  UNL     1      -8.158   2.267  12.699  1.00  0.00    -0.401 OA
HETATM   42  H27 UNL     1      -8.664   2.090  13.515  1.00  0.00     0.209 HD
ENDBRANCH  40  41
ENDBRANCH  39  40
ENDBRANCH  38  39
ENDBRANCH   6  38
BRANCH  12  43
HETATM   43  O6  UNL     1      -5.628   8.547  16.165  1.00  0.00    -0.389 OA
HETATM   44  H39 UNL     1      -5.151   7.709  16.357  1.00  0.00     0.210 HD
ENDBRANCH  12  43
BRANCH   8  45
HETATM   45  C22 UNL     1     -10.776   7.304  12.749  1.00  0.00     0.265 C 
HETATM   46  O5  UNL     1     -11.844   7.879  12.573  1.00  0.00    -0.302 OA
ENDBRANCH   8  45
TORSDOF 21
ENDMDL
MODEL 2
REMARK minimizedAffinity -6.49102116
REMARK CNNscore 0.502149105
REMARK CNNaffinity 6.61481333
REMARK  21 active torsions:
REMARK  status: ('A' for Active; 'I' for Inactive)
REMARK    1  A    between atoms: C2_2  and  C3_3 
REMARK    2  A    between atoms: C2_2  and  C27_33 
REMARK    3  A    between atoms: C4_4  and  C5_5 
REMARK    4  A    between atoms: C6_6  and  C7_7 
REMARK    5  A    between atoms: C6_6  and  C10_12 
REMARK    6  A    between atoms: C7_7  and  O1_8 
REMARK    7  A    between atoms: O1_8  and  C8_9 
REMARK    8  A    between atoms: C8_9  and  C9_10 
REMARK    9  A    between atoms: C9_10  and  O2_11 
REMARK   10  A    between atoms: C14_16  and  O3_17 
REMARK   11  A    between atoms: C15_18  and  C16_19 
REMARK   12  A    between atoms: C16_19  and  C17_20 
REMARK   13  A    between atoms: C17_20  and  C18_21 
REMARK   14  A    between atoms: C18_21  and  O4_22 
REMARK   15  A    between atoms: C20_24  and  C22_26 
REMARK   16  A    between atoms: C25_30  and  O6_32 
REMARK   17  A    between atoms: C27_33  and  C28_34 
REMARK   18  A    between atoms: C28_34  and  C29_35 
REMARK   19  A    between atoms: C30_36  and  C32_38 
REMARK   20  A    between atoms: C32_38  and  N1_39 
REMARK   21  A    between atoms: N1_39  and  C33_40 
ROOT
HETATM    1  C10 UNL     1      -4.227   9.581  14.692  1.00  0.00     0.046 C 
HETATM    2  C11 UNL     1      -2.907   9.510  13.930  1.00  0.00     0.013 C 
HETATM    3  C12 UNL     1      -2.115  10.692  14.483  1.00  0.00     0.017 C 
HETATM    4  C13 UNL     1      -2.510  10.862  15.994  1.00  0.00     0.024 C 
HETATM    5  C14 UNL     1      -3.737   9.862  16.138  1.00  0.00     0.138 C 
HETATM    6  C15 UNL     1      -2.867  12.385  16.296  1.00  0.00     0.029 C 
HETATM    7  C19 UNL     1      -2.760  12.752  17.796  1.00  0.00    -0.066 C 
HETATM    8  C20 UNL     1      -2.580  14.006  18.288  1.00  0.00    -0.021 C 
HETATM    9  C21 UNL     1      -2.476  14.342  19.755  1.00  0.00     0.052 C 
HETATM   10  C23 UNL     1      -2.821  11.546  18.713  1.00  0.00     0.038 C 
HETATM   11  C24 UNL     1      -1.690  10.556  18.426  1.00  0.00     0.042 C 
HETATM   12  C25 UNL     1      -1.284  10.482  16.932  1.00  0.00     0.065 C 
HETATM   13  C26 UNL     1      -0.021  11.348  16.720  1.00  0.00     0.047 C 
ENDROOT
BRANCH   1  14
HETATM   14  C6  UNL     1      -5.185   8.421  14.412  1.00  0.00    -0.050 C 
HETATM   15  C5  UNL     1      -4.835   7.258  13.815  1.00  0.00     0.005 C 
BRANCH  15  16
HETATM   16  C4  UNL     1      -3.563   6.862  13.245  1.00  0.00     0.001 C 
HETATM   17  C3  UNL     1      -2.766   5.971  13.862  1.00  0.00     0.006 C 
BRANCH  17  18
HETATM   18  C2  UNL     1      -1.481   5.454  13.390  1.00  0.00    -0.067 C 
HETATM   19  C1  UNL     1      -0.454   5.431  14.255  1.00  0.00     0.019 C 
BRANCH  18  20
HETATM   20  C27 UNL     1      -1.397   4.950  11.956  1.00  0.00     0.041 C 
BRANCH  20  21
HETATM   21  C28 UNL     1      -0.178   4.115  11.510  1.00  0.00     0.032 C 
BRANCH  21  22
HETATM   22  C29 UNL     1       1.112   4.896  11.488  1.00  0.00    -0.022 C 
HETATM   23  C30 UNL     1       1.335   6.127  10.977  1.00  0.00    -0.060 C 
HETATM   24  C31 UNL     1       0.287   6.950  10.277  1.00  0.00     0.045 C 
BRANCH  23  25
HETATM   25  C32 UNL     1       2.730   6.723  11.029  1.00  0.00     0.303 C 
BRANCH  25  26
HETATM   26  N1  UNL     1       2.876   7.980  10.305  1.00  0.00     0.086 N 
HETATM   27  H50 UNL     1       1.957   8.410  10.205  1.00  0.00     0.316 HD
BRANCH  26  28
HETATM   28  C33 UNL     1       3.537   7.918   9.007  1.00  0.00     0.265 C 
HETATM   29  C34 UNL     1       2.698   8.462   7.857  1.00  0.00     0.037 C 
ENDBRANCH  26  28
ENDBRANCH  25  26
ENDBRANCH  23  25
ENDBRANCH  21  22
ENDBRANCH  20  21
ENDBRANCH  18  20
ENDBRANCH  17  18
ENDBRANCH  15  16
BRANCH  14  30
HETATM   30  C7  UNL     1      -6.620   8.535  14.889  1.00  0.00     0.202 C 
BRANCH  30  31
HETATM   31  O1  UNL     1      -7.379   7.452  14.340  1.00  0.00    -0.385 OA
BRANCH  31  32
HETATM   32  C8  UNL     1      -7.914   6.552  15.322  1.00  0.00     0.194 C 
BRANCH  32  33
HETATM   33  C9  UNL     1      -7.560   5.107  14.974  1.00  0.00     0.190 C 
BRANCH  33  34
HETATM   34  O2  UNL     1      -7.952   4.240  16.037  1.00  0.00    -0.399 OA
HETATM   35  H12 UNL     1      -7.677   4.685  16.862  1.00  0.00     0.209 HD
ENDBRANCH  33  34
ENDBRANCH  32  33
ENDBRANCH  31  32
ENDBRANCH  30  31
ENDBRANCH  14  30
ENDBRANCH   1  14
BRANCH   5  36
HETATM   36  O3  UNL     1      -3.298   8.660  16.773  1.00  0.00    -0.394 OA
HETATM   37  H19 UNL     1      -4.066   8.047  16.808  1.00  0.00     0.210 HD
ENDBRANCH   5  36
BRANCH   6  38
HETATM   38  C16 UNL     1      -4.134  12.976  15.617  1.00  0.00     0.012 C 
BRANCH  38  39
HETATM   39  C17 UNL     1      -3.940  13.883  14.395  1.00  0.00     0.027 C 
BRANCH  39  40
HETATM   40  C18 UNL     1      -2.463  14.175  14.129  1.00  0.00     0.164 C 
BRANCH  40  41
HETATM   41  O4  UNL     1      -2.272  14.632  12.796  1.00  0.00    -0.401 OA
HETATM   42  H27 UNL     1      -2.145  13.846  12.233  1.00  0.00     0.209 HD
ENDBRANCH  40  41
ENDBRANCH  39  40
ENDBRANCH  38  39
ENDBRANCH   6  38
BRANCH  12  43
HETATM   43  O6  UNL     1      -0.833   9.147  16.652  1.00  0.00    -0.389 OA
HETATM   44  H39 UNL     1      -1.630   8.580  16.756  1.00  0.00     0.210 HD
ENDBRANCH  12  43
BRANCH   8  45
HETATM   45  C22 UNL     1      -2.441  15.195  17.394  1.00  0.00     0.265 C 
HETATM   46  O5  UNL     1      -1.355  15.662  17.070  1.00  0.00    -0.302 OA
ENDBRANCH   8  45
TORSDOF 21
ENDMDL
MODEL 3
REMARK minimizedAffinity -7.67442942
REMARK CNNscore 0.445261925
REMARK CNNaffinity 7.40673685
REMARK  21 active torsions:
REMARK  status: ('A' for Active; 'I' for Inactive)
REMARK    1  A    between atoms: C2_2  and  C3_3 
REMARK    2  A    between atoms: C2_2  and  C27_33 
REMARK    3  A    between atoms: C4_4  and  C5_5 
REMARK    4  A    between atoms: C6_6  and  C7_7 
REMARK    5  A    between atoms: C6_6  and  C10_12 
REMARK    6  A    between atoms: C7_7  and  O1_8 
REMARK    7  A    between atoms: O1_8  and  C8_9 
REMARK    8  A    between atoms: C8_9  and  C9_10 
REMARK    9  A    between atoms: C9_10  and  O2_11 
REMARK   10  A    between atoms: C14_16  and  O3_17 
REMARK   11  A    between atoms: C15_18  and  C16_19 
REMARK   12  A    between atoms: C16_19  and  C17_20 
REMARK   13  A    between atoms: C17_20  and  C18_21 
REMARK   14  A    between atoms: C18_21  and  O4_22 
REMARK   15  A    between atoms: C20_24  and  C22_26 
REMARK   16  A    between atoms: C25_30  and  O6_32 
REMARK   17  A    between atoms: C27_33  and  C28_34 
REMARK   18  A    between atoms: C28_34  and  C29_35 
REMARK   19  A    between atoms: C30_36  and  C32_38 
REMARK   20  A    between atoms: C32_38  and  N1_39 
REMARK   21  A    between atoms: N1_39  and  C33_40 
ROOT
HETATM    1  C10 UNL     1      -1.971   6.597  12.678  1.00  0.00     0.046 C 
HETATM    2  C11 UNL     1      -0.992   7.451  11.878  1.00  0.00     0.013 C 
HETATM    3  C12 UNL     1      -1.103   8.825  12.533  1.00  0.00     0.017 C 
HETATM    4  C13 UNL     1      -1.378   8.600  14.064  1.00  0.00     0.024 C 
HETATM    5  C14 UNL     1      -1.652   7.035  14.132  1.00  0.00     0.138 C 
HETATM    6  C15 UNL     1      -2.604   9.500  14.536  1.00  0.00     0.029 C 
HETATM    7  C19 UNL     1      -2.626   9.752  16.063  1.00  0.00    -0.066 C 
HETATM    8  C20 UNL     1      -3.255  10.786  16.682  1.00  0.00    -0.021 C 
HETATM    9  C21 UNL     1      -3.262  11.014  18.172  1.00  0.00     0.052 C 
HETATM   10  C23 UNL     1      -1.813   8.740  16.848  1.00  0.00     0.038 C 
HETATM   11  C24 UNL     1      -0.342   8.746  16.427  1.00  0.00     0.042 C 
HETATM   12  C25 UNL     1      -0.119   9.049  14.924  1.00  0.00     0.065 C 
HETATM   13  C26 UNL     1       0.262  10.540  14.773  1.00  0.00     0.047 C 
ENDROOT
BRANCH   1  14
HETATM   14  C6  UNL     1      -1.975   5.114  12.300  1.00  0.00    -0.050 C 
HETATM   15  C5  UNL     1      -3.077   4.329  12.264  1.00  0.00     0.005 C 
BRANCH  15  16
HETATM   16  C4  UNL     1      -4.443   4.643  12.630  1.00  0.00     0.001 C 
HETATM   17  C3  UNL     1      -5.441   3.764  12.430  1.00  0.00     0.006 C 
BRANCH  17  18
HETATM   18  C2  UNL     1      -6.852   3.928  12.780  1.00  0.00    -0.067 C 
HETATM   19  C1  UNL     1      -7.587   2.820  12.975  1.00  0.00     0.019 C 
BRANCH  18  20
HETATM   20  C27 UNL     1      -7.392   5.343  12.929  1.00  0.00     0.041 C 
BRANCH  20  21
HETATM   21  C28 UNL     1      -8.915   5.588  12.894  1.00  0.00     0.032 C 
BRANCH  21  22
HETATM   22  C29 UNL     1      -9.398   6.530  13.967  1.00  0.00    -0.022 C 
HETATM   23  C30 UNL     1     -10.511   7.298  13.967  1.00  0.00    -0.060 C 
HETATM   24  C31 UNL     1     -11.483   7.369  12.820  1.00  0.00     0.045 C 
BRANCH  23  25
HETATM   25  C32 UNL     1     -10.798   8.210  15.145  1.00  0.00     0.303 C 
BRANCH  25  26
HETATM   26  N1  UNL     1     -12.182   8.189  15.602  1.00  0.00     0.086 N 
HETATM   27  H50 UNL     1     -12.779   7.905  14.826  1.00  0.00     0.316 HD
BRANCH  26  28
HETATM   28  C33 UNL     1     -12.696   9.415  16.200  1.00  0.00     0.265 C 
HETATM   29  C34 UNL     1     -14.077   9.817  15.700  1.00  0.00     0.037 C 
ENDBRANCH  26  28
ENDBRANCH  25  26
ENDBRANCH  23  25
ENDBRANCH  21  22
ENDBRANCH  20  21
ENDBRANCH  18  20
ENDBRANCH  17  18
ENDBRANCH  15  16
BRANCH  14  30
HETATM   30  C7  UNL     1      -0.669   4.474  11.868  1.00  0.00     0.202 C 
BRANCH  30  31
HETATM   31  O1  UNL     1      -0.954   3.422  10.939  1.00  0.00    -0.385 OA
BRANCH  31  32
HETATM   32  C8  UNL     1      -0.285   2.185  11.228  1.00  0.00     0.194 C 
BRANCH  32  33
HETATM   33  C9  UNL     1      -1.071   1.005  10.659  1.00  0.00     0.190 C 
BRANCH  33  34
HETATM   34  O2  UNL     1      -0.614   0.706   9.340  1.00  0.00    -0.399 OA
HETATM   35  H12 UNL     1      -0.518   1.566   8.888  1.00  0.00     0.209 HD
ENDBRANCH  33  34
ENDBRANCH  32  33
ENDBRANCH  31  32
ENDBRANCH  30  31
ENDBRANCH  14  30
ENDBRANCH   1  14
BRANCH   5  36
HETATM   36  O3  UNL     1      -0.487   6.370  14.624  1.00  0.00    -0.394 OA
HETATM   37  H19 UNL     1      -0.671   5.405  14.613  1.00  0.00     0.210 HD
ENDBRANCH   5  36
BRANCH   6  38
HETATM   38  C16 UNL     1      -4.008   9.167  13.957  1.00  0.00     0.012 C 
BRANCH  38  39
HETATM   39  C17 UNL     1      -5.086   8.665  14.926  1.00  0.00     0.027 C 
BRANCH  39  40
HETATM   40  C18 UNL     1      -5.164   7.139  14.955  1.00  0.00     0.164 C 
BRANCH  40  41
HETATM   41  O4  UNL     1      -4.532   6.625  16.120  1.00  0.00    -0.401 OA
HETATM   42  H27 UNL     1      -3.588   6.501  15.910  1.00  0.00     0.209 HD
ENDBRANCH  40  41
ENDBRANCH  39  40
ENDBRANCH  38  39
ENDBRANCH   6  38
BRANCH  12  43
HETATM   43  O6  UNL     1       1.059   8.351  14.492  1.00  0.00    -0.389 OA
HETATM   44  H39 UNL     1       0.829   7.397  14.555  1.00  0.00     0.210 HD
ENDBRANCH  12  43
BRANCH   8  45
HETATM   45  C22 UNL     1      -3.996  11.834  15.916  1.00  0.00     0.265 C 
HETATM   46  O5  UNL     1      -5.021  12.361  16.332  1.00  0.00    -0.302 OA
ENDBRANCH   8  45
TORSDOF 21
ENDMDL
MODEL 4
REMARK minimizedAffinity -7.59576654
REMARK CNNscore 0.356890291
REMARK CNNaffinity 7.21223307
REMARK  21 active torsions:
REMARK  status: ('A' for Active; 'I' for Inactive)
REMARK    1  A    between atoms: C2_2  and  C3_3 
REMARK    2  A    between atoms: C2_2  and  C27_33 
REMARK    3  A    between atoms: C4_4  and  C5_5 
REMARK    4  A    between atoms: C6_6  and  C7_7 
REMARK    5  A    between atoms: C6_6  and  C10_12 
REMARK    6  A    between atoms: C7_7  and  O1_8 
REMARK    7  A    between atoms: O1_8  and  C8_9 
REMARK    8  A    between atoms: C8_9  and  C9_10 
REMARK    9  A    between atoms: C9_10  and  O2_11 
REMARK   10  A    between atoms: C14_16  and  O3_17 
REMARK   11  A    between atoms: C15_18  and  C16_19 
REMARK   12  A    between atoms: C16_19  and  C17_20 
REMARK   13  A    between atoms: C17_20  and  C18_21 
REMARK   14  A    between atoms: C18_21  and  O4_22 
REMARK   15  A    between atoms: C20_24  and  C22_26 
REMARK   16  A    between atoms: C25_30  and  O6_32 
REMARK   17  A    between atoms: C27_33  and  C28_34 
REMARK   18  A    between atoms: C28_34  and  C29_35 
REMARK   19  A    between atoms: C30_36  and  C32_38 
REMARK   20  A    between atoms: C32_38  and  N1_39 
REMARK   21  A    between atoms: N1_39  and  C33_40 
ROOT
HETATM    1  C10 UNL     1      -1.018   6.789  12.411  1.00  0.00     0.046 C 
HETATM    2  C11 UNL     1      -0.388   7.938  11.630  1.00  0.00     0.013 C 
HETATM    3  C12 UNL     1      -0.878   9.180  12.369  1.00  0.00     0.017 C 
HETATM    4  C13 UNL     1      -0.992   8.811  13.892  1.00  0.00     0.024 C 
HETATM    5  C14 UNL     1      -0.773   7.236  13.877  1.00  0.00     0.138 C 
HETATM    6  C15 UNL     1      -2.409   9.269  14.460  1.00  0.00     0.029 C 
HETATM    7  C19 UNL     1      -2.428   9.430  15.999  1.00  0.00    -0.066 C 
HETATM    8  C20 UNL     1      -3.308  10.192  16.700  1.00  0.00    -0.021 C 
HETATM    9  C21 UNL     1      -3.308  10.337  18.201  1.00  0.00     0.052 C 
HETATM   10  C23 UNL     1      -1.306   8.682  16.693  1.00  0.00     0.038 C 
HETATM   11  C24 UNL     1       0.070   9.158  16.223  1.00  0.00     0.042 C 
HETATM   12  C25 UNL     1       0.112   9.584  14.733  1.00  0.00     0.065 C 
HETATM   13  C26 UNL     1       0.014  11.126  14.659  1.00  0.00     0.047 C 
ENDROOT
BRANCH   1  14
HETATM   14  C6  UNL     1      -0.589   5.395  11.945  1.00  0.00    -0.050 C 
HETATM   15  C5  UNL     1      -1.439   4.380  11.664  1.00  0.00     0.005 C 
BRANCH  15  16
HETATM   16  C4  UNL     1      -2.880   4.321  11.802  1.00  0.00     0.001 C 
HETATM   17  C3  UNL     1      -3.549   3.163  11.659  1.00  0.00     0.006 C 
BRANCH  17  18
HETATM   18  C2  UNL     1      -4.989   2.947  11.804  1.00  0.00    -0.067 C 
HETATM   19  C1  UNL     1      -5.543   1.916  11.143  1.00  0.00     0.019 C 
BRANCH  18  20
HETATM   20  C27 UNL     1      -5.765   3.886  12.717  1.00  0.00     0.041 C 
BRANCH  20  21
HETATM   21  C28 UNL     1      -7.169   3.483  13.213  1.00  0.00     0.032 C 
BRANCH  21  22
HETATM   22  C29 UNL     1      -8.210   4.555  13.011  1.00  0.00    -0.022 C 
HETATM   23  C30 UNL     1      -8.537   5.569  13.842  1.00  0.00    -0.060 C 
HETATM   24  C31 UNL     1      -7.909   5.786  15.193  1.00  0.00     0.045 C 
BRANCH  23  25
HETATM   25  C32 UNL     1      -9.649   6.528  13.460  1.00  0.00     0.303 C 
BRANCH  25  26
HETATM   26  N1  UNL     1     -10.906   6.309  14.167  1.00  0.00     0.086 N 
HETATM   27  H50 UNL     1     -11.095   5.308  14.196  1.00  0.00     0.316 HD
BRANCH  26  28
HETATM   28  C33 UNL     1     -12.075   7.020  13.664  1.00  0.00     0.265 C 
HETATM   29  C34 UNL     1     -13.399   6.497  14.206  1.00  0.00     0.037 C 
ENDBRANCH  26  28
ENDBRANCH  25  26
ENDBRANCH  23  25
ENDBRANCH  21  22
ENDBRANCH  20  21
ENDBRANCH  18  20
ENDBRANCH  17  18
ENDBRANCH  15  16
BRANCH  14  30
HETATM   30  C7  UNL     1       0.886   5.132  11.711  1.00  0.00     0.202 C 
BRANCH  30  31
HETATM   31  O1  UNL     1       1.132   5.094  10.302  1.00  0.00    -0.385 OA
BRANCH  31  32
HETATM   32  C8  UNL     1       2.217   5.930   9.871  1.00  0.00     0.194 C 
BRANCH  32  33
HETATM   33  C9  UNL     1       3.439   5.083   9.519  1.00  0.00     0.190 C 
BRANCH  33  34
HETATM   34  O2  UNL     1       3.435   4.777   8.125  1.00  0.00    -0.399 OA
HETATM   35  H12 UNL     1       2.517   4.526   7.908  1.00  0.00     0.209 HD
ENDBRANCH  33  34
ENDBRANCH  32  33
ENDBRANCH  31  32
ENDBRANCH  30  31
ENDBRANCH  14  30
ENDBRANCH   1  14
BRANCH   5  36
HETATM   36  O3  UNL     1       0.563   6.939  14.286  1.00  0.00    -0.394 OA
HETATM   37  H19 UNL     1       0.681   5.965  14.224  1.00  0.00     0.210 HD
ENDBRANCH   5  36
BRANCH   6  38
HETATM   38  C16 UNL     1      -3.672   8.548  13.911  1.00  0.00     0.012 C 
BRANCH  38  39
HETATM   39  C17 UNL     1      -3.789   7.034  14.129  1.00  0.00     0.027 C 
BRANCH  39  40
HETATM   40  C18 UNL     1      -4.372   6.697  15.502  1.00  0.00     0.164 C 
BRANCH  40  41
HETATM   41  O4  UNL     1      -5.367   7.642  15.872  1.00  0.00    -0.401 OA
HETATM   42  H27 UNL     1      -4.916   8.380  16.324  1.00  0.00     0.209 HD
ENDBRANCH  40  41
ENDBRANCH  39  40
ENDBRANCH  38  39
ENDBRANCH   6  38
BRANCH  12  43
HETATM   43  O6  UNL     1       1.423   9.302  14.220  1.00  0.00    -0.389 OA
HETATM   44  H39 UNL     1       1.498   8.321  14.233  1.00  0.00     0.210 HD
ENDBRANCH  12  43
BRANCH   8  45
HETATM   45  C22 UNL     1      -4.372  10.996  16.025  1.00  0.00     0.265 C 
HETATM   46  O5  UNL     1      -4.211  12.163  15.689  1.00  0.00    -0.302 OA
ENDBRANCH   8  45
TORSDOF 21
ENDMDL
MODEL 5
REMARK minimizedAffinity -6.07628584
REMARK CNNscore 0.348963618
REMARK CNNaffinity 6.26341629
REMARK  21 active torsions:
REMARK  status: ('A' for Active; 'I' for Inactive)
REMARK    1  A    between atoms: C2_2  and  C3_3 
REMARK    2  A    between atoms: C2_2  and  C27_33 
REMARK    3  A    between atoms: C4_4  and  C5_5 
REMARK    4  A    between atoms: C6_6  and  C7_7 
REMARK    5  A    between atoms: C6_6  and  C10_12 
REMARK    6  A    between atoms: C7_7  and  O1_8 
REMARK    7  A    between atoms: O1_8  and  C8_9 
REMARK    8  A    between atoms: C8_9  and  C9_10 
REMARK    9  A    between atoms: C9_10  and  O2_11 
REMARK   10  A    between atoms: C14_16  and  O3_17 
REMARK   11  A    between atoms: C15_18  and  C16_19 
REMARK   12  A    between atoms: C16_19  and  C17_20 
REMARK   13  A    between atoms: C17_20  and  C18_21 
REMARK   14  A    between atoms: C18_21  and  O4_22 
REMARK   15  A    between atoms: C20_24  and  C22_26 
REMARK   16  A    between atoms: C25_30  and  O6_32 
REMARK   17  A    between atoms: C27_33  and  C28_34 
REMARK   18  A    between atoms: C28_34  and  C29_35 
REMARK   19  A    between atoms: C30_36  and  C32_38 
REMARK   20  A    between atoms: C32_38  and  N1_39 
REMARK   21  A    between atoms: N1_39  and  C33_40 
ROOT
HETATM    1  C10 UNL     1      -3.548   9.607  14.518  1.00  0.00     0.046 C 
HETATM    2  C11 UNL     1      -2.134   9.723  13.959  1.00  0.00     0.013 C 
HETATM    3  C12 UNL     1      -1.579  10.964  14.652  1.00  0.00     0.017 C 
HETATM    4  C13 UNL     1      -2.206  11.023  16.092  1.00  0.00     0.024 C 
HETATM    5  C14 UNL     1      -3.311   9.882  16.027  1.00  0.00     0.138 C 
HETATM    6  C15 UNL     1      -2.786  12.480  16.375  1.00  0.00     0.029 C 
HETATM    7  C19 UNL     1      -2.942  12.794  17.883  1.00  0.00    -0.066 C 
HETATM    8  C20 UNL     1      -2.988  14.038  18.427  1.00  0.00    -0.021 C 
HETATM    9  C21 UNL     1      -3.140  14.321  19.900  1.00  0.00     0.052 C 
HETATM   10  C23 UNL     1      -2.988  11.551  18.751  1.00  0.00     0.038 C 
HETATM   11  C24 UNL     1      -1.716  10.712  18.611  1.00  0.00     0.042 C 
HETATM   12  C25 UNL     1      -1.092  10.749  17.192  1.00  0.00     0.065 C 
HETATM   13  C26 UNL     1       0.074  11.764  17.192  1.00  0.00     0.047 C 
ENDROOT
BRANCH   1  14
HETATM   14  C6  UNL     1      -4.308   8.356  14.070  1.00  0.00    -0.050 C 
HETATM   15  C5  UNL     1      -3.768   7.339  13.359  1.00  0.00     0.005 C 
BRANCH  15  16
HETATM   16  C4  UNL     1      -2.439   7.212  12.797  1.00  0.00     0.001 C 
HETATM   17  C3  UNL     1      -1.596   6.247  13.205  1.00  0.00     0.006 C 
BRANCH  17  18
HETATM   18  C2  UNL     1      -0.247   5.977  12.705  1.00  0.00    -0.067 C 
HETATM   19  C1  UNL     1       0.759   5.936  13.595  1.00  0.00     0.019 C 
BRANCH  18  20
HETATM   20  C27 UNL     1      -0.073   5.733  11.213  1.00  0.00     0.041 C 
BRANCH  20  21
HETATM   21  C28 UNL     1       0.257   6.915  10.278  1.00  0.00     0.032 C 
BRANCH  21  22
HETATM   22  C29 UNL     1       1.668   7.425  10.427  1.00  0.00    -0.022 C 
HETATM   23  C30 UNL     1       2.626   7.524   9.479  1.00  0.00    -0.060 C 
HETATM   24  C31 UNL     1       2.444   7.084   8.051  1.00  0.00     0.045 C 
BRANCH  23  25
HETATM   25  C32 UNL     1       4.004   8.038   9.850  1.00  0.00     0.303 C 
BRANCH  25  26
HETATM   26  N1  UNL     1       4.965   6.997  10.194  1.00  0.00     0.086 N 
HETATM   27  H50 UNL     1       4.691   6.132   9.729  1.00  0.00     0.316 HD
BRANCH  26  28
HETATM   28  C33 UNL     1       5.183   6.747  11.614  1.00  0.00     0.265 C 
HETATM   29  C34 UNL     1       4.811   7.918  12.514  1.00  0.00     0.037 C 
ENDBRANCH  26  28
ENDBRANCH  25  26
ENDBRANCH  23  25
ENDBRANCH  21  22
ENDBRANCH  20  21
ENDBRANCH  18  20
ENDBRANCH  17  18
ENDBRANCH  15  16
BRANCH  14  30
HETATM   30  C7  UNL     1      -5.753   8.193  14.501  1.00  0.00     0.202 C 
BRANCH  30  31
HETATM   31  O1  UNL     1      -6.381   7.221  13.658  1.00  0.00    -0.385 OA
BRANCH  31  32
HETATM   32  C8  UNL     1      -7.394   6.442  14.312  1.00  0.00     0.194 C 
BRANCH  32  33
HETATM   33  C9  UNL     1      -7.222   4.959  13.989  1.00  0.00     0.190 C 
BRANCH  33  34
HETATM   34  O2  UNL     1      -6.263   4.795  12.944  1.00  0.00    -0.399 OA
HETATM   35  H12 UNL     1      -6.474   5.478  12.278  1.00  0.00     0.209 HD
ENDBRANCH  33  34
ENDBRANCH  32  33
ENDBRANCH  31  32
ENDBRANCH  30  31
ENDBRANCH  14  30
ENDBRANCH   1  14
BRANCH   5  36
HETATM   36  O3  UNL     1      -2.826   8.713  16.690  1.00  0.00    -0.394 OA
HETATM   37  H19 UNL     1      -3.510   8.014  16.596  1.00  0.00     0.210 HD
ENDBRANCH   5  36
BRANCH   6  38
HETATM   38  C16 UNL     1      -4.003  12.947  15.530  1.00  0.00     0.012 C 
BRANCH  38  39
HETATM   39  C17 UNL     1      -5.392  12.900  16.180  1.00  0.00     0.027 C 
BRANCH  39  40
HETATM   40  C18 UNL     1      -6.162  14.206  15.978  1.00  0.00     0.164 C 
BRANCH  40  41
HETATM   41  O4  UNL     1      -6.366  14.462  14.595  1.00  0.00    -0.401 OA
HETATM   42  H27 UNL     1      -5.588  14.954  14.271  1.00  0.00     0.209 HD
ENDBRANCH  40  41
ENDBRANCH  39  40
ENDBRANCH  38  39
ENDBRANCH   6  38
BRANCH  12  43
HETATM   43  O6  UNL     1      -0.447   9.489  16.950  1.00  0.00    -0.389 OA
HETATM   44  H39 UNL     1      -1.176   8.829  16.920  1.00  0.00     0.210 HD
ENDBRANCH  12  43
BRANCH   8  45
HETATM   45  C22 UNL     1      -2.867  15.272  17.592  1.00  0.00     0.265 C 
HETATM   46  O5  UNL     1      -1.787  15.758  17.277  1.00  0.00    -0.302 OA
ENDBRANCH   8  45
TORSDOF 21
ENDMDL
MODEL 6
REMARK minimizedAffinity -6.3850522
REMARK CNNscore 0.280865103
REMARK CNNaffinity 6.7309556
REMARK  21 active torsions:
REMARK  status: ('A' for Active; 'I' for Inactive)
REMARK    1  A    between atoms: C2_2  and  C3_3 
REMARK    2  A    between atoms: C2_2  and  C27_33 
REMARK    3  A    between atoms: C4_4  and  C5_5 
REMARK    4  A    between atoms: C6_6  and  C7_7 
REMARK    5  A    between atoms: C6_6  and  C10_12 
REMARK    6  A    between atoms: C7_7  and  O1_8 
REMARK    7  A    between atoms: O1_8  and  C8_9 
REMARK    8  A    between atoms: C8_9  and  C9_10 
REMARK    9  A    between atoms: C9_10  and  O2_11 
REMARK   10  A    between atoms: C14_16  and  O3_17 
REMARK   11  A    between atoms: C15_18  and  C16_19 
REMARK   12  A    between atoms: C16_19  and  C17_20 
REMARK   13  A    between atoms: C17_20  and  C18_21 
REMARK   14  A    between atoms: C18_21  and  O4_22 
REMARK   15  A    between atoms: C20_24  and  C22_26 
REMARK   16  A    between atoms: C25_30  and  O6_32 
REMARK   17  A    between atoms: C27_33  and  C28_34 
REMARK   18  A    between atoms: C28_34  and  C29_35 
REMARK   19  A    between atoms: C30_36  and  C32_38 
REMARK   20  A    between atoms: C32_38  and  N1_39 
REMARK   21  A    between atoms: N1_39  and  C33_40 
ROOT
HETATM    1  C10 UNL     1      -5.587   5.634  13.977  1.00  0.00     0.046 C 
HETATM    2  C11 UNL     1      -5.605   5.978  15.463  1.00  0.00     0.013 C 
HETATM    3  C12 UNL     1      -4.178   6.445  15.736  1.00  0.00     0.017 C 
HETATM    4  C13 UNL     1      -3.661   7.169  14.441  1.00  0.00     0.024 C 
HETATM    5  C14 UNL     1      -4.805   6.838  13.388  1.00  0.00     0.138 C 
HETATM    6  C15 UNL     1      -2.222   6.612  14.042  1.00  0.00     0.029 C 
HETATM    7  C19 UNL     1      -1.421   7.578  13.136  1.00  0.00    -0.066 C 
HETATM    8  C20 UNL     1      -0.069   7.588  12.998  1.00  0.00    -0.021 C 
HETATM    9  C21 UNL     1       0.692   8.540  12.110  1.00  0.00     0.052 C 
HETATM   10  C23 UNL     1      -2.295   8.593  12.424  1.00  0.00     0.038 C 
HETATM   11  C24 UNL     1      -3.072   9.466  13.411  1.00  0.00     0.042 C 
HETATM   12  C25 UNL     1      -3.493   8.727  14.707  1.00  0.00     0.065 C 
HETATM   13  C26 UNL     1      -2.487   9.082  15.826  1.00  0.00     0.047 C 
ENDROOT
BRANCH   1  14
HETATM   14  C6  UNL     1      -6.950   5.241  13.400  1.00  0.00    -0.050 C 
HETATM   15  C5  UNL     1      -8.118   5.858  13.690  1.00  0.00     0.005 C 
BRANCH  15  16
HETATM   16  C4  UNL     1      -8.385   6.931  14.627  1.00  0.00     0.001 C 
HETATM   17  C3  UNL     1      -9.518   7.653  14.560  1.00  0.00     0.006 C 
BRANCH  17  18
HETATM   18  C2  UNL     1      -9.935   8.734  15.454  1.00  0.00    -0.067 C 
HETATM   19  C1  UNL     1      -9.892   8.510  16.778  1.00  0.00     0.019 C 
BRANCH  18  20
HETATM   20  C27 UNL     1     -10.367  10.052  14.828  1.00  0.00     0.041 C 
BRANCH  20  21
HETATM   21  C28 UNL     1     -10.340  11.344  15.671  1.00  0.00     0.032 C 
BRANCH  21  22
HETATM   22  C29 UNL     1      -9.876  12.555  14.903  1.00  0.00    -0.022 C 
HETATM   23  C30 UNL     1      -9.045  13.539  15.314  1.00  0.00    -0.060 C 
HETATM   24  C31 UNL     1      -8.442  13.609  16.691  1.00  0.00     0.045 C 
BRANCH  23  25
HETATM   25  C32 UNL     1      -8.732  14.697  14.386  1.00  0.00     0.303 C 
BRANCH  25  26
HETATM   26  N1  UNL     1      -9.641  15.831  14.506  1.00  0.00     0.086 N 
HETATM   27  H50 UNL     1     -10.597  15.480  14.558  1.00  0.00     0.316 HD
BRANCH  26  28
HETATM   28  C33 UNL     1      -9.548  16.861  13.478  1.00  0.00     0.265 C 
HETATM   29  C34 UNL     1      -8.193  17.553  13.416  1.00  0.00     0.037 C 
ENDBRANCH  26  28
ENDBRANCH  25  26
ENDBRANCH  23  25
ENDBRANCH  21  22
ENDBRANCH  20  21
ENDBRANCH  18  20
ENDBRANCH  17  18
ENDBRANCH  15  16
BRANCH  14  30
HETATM   30  C7  UNL     1      -7.007   4.123  12.376  1.00  0.00     0.202 C 
BRANCH  30  31
HETATM   31  O1  UNL     1      -5.752   3.434  12.371  1.00  0.00    -0.385 OA
BRANCH  31  32
HETATM   32  C8  UNL     1      -5.556   2.576  11.237  1.00  0.00     0.194 C 
BRANCH  32  33
HETATM   33  C9  UNL     1      -4.899   3.344  10.092  1.00  0.00     0.190 C 
BRANCH  33  34
HETATM   34  O2  UNL     1      -5.547   3.030   8.859  1.00  0.00    -0.399 OA
HETATM   35  H12 UNL     1      -5.676   2.062   8.863  1.00  0.00     0.209 HD
ENDBRANCH  33  34
ENDBRANCH  32  33
ENDBRANCH  31  32
ENDBRANCH  30  31
ENDBRANCH  14  30
ENDBRANCH   1  14
BRANCH   5  36
HETATM   36  O3  UNL     1      -5.654   7.977  13.235  1.00  0.00    -0.394 OA
HETATM   37  H19 UNL     1      -6.374   7.728  12.615  1.00  0.00     0.210 HD
ENDBRANCH   5  36
BRANCH   6  38
HETATM   38  C16 UNL     1      -2.127   5.130  13.581  1.00  0.00     0.012 C 
BRANCH  38  39
HETATM   39  C17 UNL     1      -2.086   4.846  12.074  1.00  0.00     0.027 C 
BRANCH  39  40
HETATM   40  C18 UNL     1      -1.595   3.430  11.772  1.00  0.00     0.164 C 
BRANCH  40  41
HETATM   41  O4  UNL     1      -1.432   3.241  10.373  1.00  0.00    -0.401 OA
HETATM   42  H27 UNL     1      -2.290   2.943  10.016  1.00  0.00     0.209 HD
ENDBRANCH  40  41
ENDBRANCH  39  40
ENDBRANCH  38  39
ENDBRANCH   6  38
BRANCH  12  43
HETATM   43  O6  UNL     1      -4.729   9.293  15.169  1.00  0.00    -0.389 OA
HETATM   44  H39 UNL     1      -5.392   9.056  14.482  1.00  0.00     0.210 HD
ENDBRANCH  12  43
BRANCH   8  45
HETATM   45  C22 UNL     1       0.810   6.644  13.752  1.00  0.00     0.265 C 
HETATM   46  O5  UNL     1       1.241   5.604  13.266  1.00  0.00    -0.302 OA
ENDBRANCH   8  45
TORSDOF 21
ENDMDL
MODEL 7
REMARK minimizedAffinity -7.50896168
REMARK CNNscore 0.275625527
REMARK CNNaffinity 7.08152199
REMARK  21 active torsions:
REMARK  status: ('A' for Active; 'I' for Inactive)
REMARK    1  A    between atoms: C2_2  and  C3_3 
REMARK    2  A    between atoms: C2_2  and  C27_33 
REMARK    3  A    between atoms: C4_4  and  C5_5 
REMARK    4  A    between atoms: C6_6  and  C7_7 
REMARK    5  A    between atoms: C6_6  and  C10_12 
REMARK    6  A    between atoms: C7_7  and  O1_8 
REMARK    7  A    between atoms: O1_8  and  C8_9 
REMARK    8  A    between atoms: C8_9  and  C9_10 
REMARK    9  A    between atoms: C9_10  and  O2_11 
REMARK   10  A    between atoms: C14_16  and  O3_17 
REMARK   11  A    between atoms: C15_18  and  C16_19 
REMARK   12  A    between atoms: C16_19  and  C17_20 
REMARK   13  A    between atoms: C17_20  and  C18_21 
REMARK   14  A    between atoms: C18_21  and  O4_22 
REMARK   15  A    between atoms: C20_24  and  C22_26 
REMARK   16  A    between atoms: C25_30  and  O6_32 
REMARK   17  A    between atoms: C27_33  and  C28_34 
REMARK   18  A    between atoms: C28_34  and  C29_35 
REMARK   19  A    between atoms: C30_36  and  C32_38 
REMARK   20  A    between atoms: C32_38  and  N1_39 
REMARK   21  A    between atoms: N1_39  and  C33_40 
ROOT
HETATM    1  C10 UNL     1      -0.700   6.343  12.552  1.00  0.00     0.046 C 
HETATM    2  C11 UNL     1       0.032   6.988  11.379  1.00  0.00     0.013 C 
HETATM    3  C12 UNL     1       0.588   8.278  11.974  1.00  0.00     0.017 C 
HETATM    4  C13 UNL     1       0.947   7.991  13.477  1.00  0.00     0.024 C 
HETATM    5  C14 UNL     1       0.318   6.549  13.706  1.00  0.00     0.138 C 
HETATM    6  C15 UNL     1       0.335   9.128  14.411  1.00  0.00     0.029 C 
HETATM    7  C19 UNL     1       1.039   9.235  15.785  1.00  0.00    -0.066 C 
HETATM    8  C20 UNL     1       1.042  10.334  16.584  1.00  0.00    -0.021 C 
HETATM    9  C21 UNL     1       1.736  10.418  17.920  1.00  0.00     0.052 C 
HETATM   10  C23 UNL     1       1.804   7.981  16.165  1.00  0.00     0.038 C 
HETATM   11  C24 UNL     1       2.893   7.649  15.143  1.00  0.00     0.042 C 
HETATM   12  C25 UNL     1       2.522   8.022  13.685  1.00  0.00     0.065 C 
HETATM   13  C26 UNL     1       3.189   9.374  13.337  1.00  0.00     0.047 C 
ENDROOT
BRANCH   1  14
HETATM   14  C6  UNL     1      -1.265   4.951  12.259  1.00  0.00    -0.050 C 
HETATM   15  C5  UNL     1      -2.476   4.507  12.670  1.00  0.00     0.005 C 
BRANCH  15  16
HETATM   16  C4  UNL     1      -3.458   5.159  13.513  1.00  0.00     0.001 C 
HETATM   17  C3  UNL     1      -4.000   6.341  13.170  1.00  0.00     0.006 C 
BRANCH  17  18
HETATM   18  C2  UNL     1      -5.021   7.094  13.899  1.00  0.00    -0.067 C 
HETATM   19  C1  UNL     1      -5.229   8.375  13.553  1.00  0.00     0.019 C 
BRANCH  18  20
HETATM   20  C27 UNL     1      -5.803   6.370  14.986  1.00  0.00     0.041 C 
BRANCH  20  21
HETATM   21  C28 UNL     1      -6.944   5.408  14.595  1.00  0.00     0.032 C 
BRANCH  21  22
HETATM   22  C29 UNL     1      -8.277   6.092  14.423  1.00  0.00    -0.022 C 
HETATM   23  C30 UNL     1      -8.902   6.932  15.277  1.00  0.00    -0.060 C 
HETATM   24  C31 UNL     1      -8.360   7.315  16.628  1.00  0.00     0.045 C 
BRANCH  23  25
HETATM   25  C32 UNL     1     -10.268   7.490  14.922  1.00  0.00     0.303 C 
BRANCH  25  26
HETATM   26  N1  UNL     1     -11.313   6.482  14.779  1.00  0.00     0.086 N 
HETATM   27  H50 UNL     1     -10.941   5.699  14.242  1.00  0.00     0.316 HD
BRANCH  26  28
HETATM   28  C33 UNL     1     -12.576   6.924  14.200  1.00  0.00     0.265 C 
HETATM   29  C34 UNL     1     -12.427   7.656  12.872  1.00  0.00     0.037 C 
ENDBRANCH  26  28
ENDBRANCH  25  26
ENDBRANCH  23  25
ENDBRANCH  21  22
ENDBRANCH  20  21
ENDBRANCH  18  20
ENDBRANCH  17  18
ENDBRANCH  15  16
BRANCH  14  30
HETATM   30  C7  UNL     1      -0.454   4.008  11.390  1.00  0.00     0.202 C 
BRANCH  30  31
HETATM   31  O1  UNL     1      -0.658   2.666  11.847  1.00  0.00    -0.385 OA
BRANCH  31  32
HETATM   32  C8  UNL     1      -1.445   1.856  10.960  1.00  0.00     0.194 C 
BRANCH  32  33
HETATM   33  C9  UNL     1      -0.650   0.633  10.506  1.00  0.00     0.190 C 
BRANCH  33  34
HETATM   34  O2  UNL     1      -0.605   0.584   9.080  1.00  0.00    -0.399 OA
HETATM   35  H12 UNL     1      -1.509   0.791   8.775  1.00  0.00     0.209 HD
ENDBRANCH  33  34
ENDBRANCH  32  33
ENDBRANCH  31  32
ENDBRANCH  30  31
ENDBRANCH  14  30
ENDBRANCH   1  14
BRANCH   5  36
HETATM   36  O3  UNL     1       1.353   5.566  13.657  1.00  0.00    -0.394 OA
HETATM   37  H19 UNL     1       0.930   4.685  13.758  1.00  0.00     0.210 HD
ENDBRANCH   5  36
BRANCH   6  38
HETATM   38  C16 UNL     1      -1.213   9.218  14.514  1.00  0.00     0.012 C 
BRANCH  38  39
HETATM   39  C17 UNL     1      -1.913   8.381  15.593  1.00  0.00     0.027 C 
BRANCH  39  40
HETATM   40  C18 UNL     1      -2.518   9.255  16.692  1.00  0.00     0.164 C 
BRANCH  40  41
HETATM   41  O4  UNL     1      -3.938   9.232  16.629  1.00  0.00    -0.401 OA
HETATM   42  H27 UNL     1      -4.215   9.937  16.014  1.00  0.00     0.209 HD
ENDBRANCH  40  41
ENDBRANCH  39  40
ENDBRANCH  38  39
ENDBRANCH   6  38
BRANCH  12  43
HETATM   43  O6  UNL     1       3.164   7.089  12.802  1.00  0.00    -0.389 OA
HETATM   44  H39 UNL     1       2.735   6.224  12.989  1.00  0.00     0.210 HD
ENDBRANCH  12  43
BRANCH   8  45
HETATM   45  C22 UNL     1       0.357  11.602  16.189  1.00  0.00     0.265 C 
HETATM   46  O5  UNL     1      -0.465  12.165  16.903  1.00  0.00    -0.302 OA
ENDBRANCH   8  45
TORSDOF 21
ENDMDL
MODEL 8
REMARK minimizedAffinity -8.05218601
REMARK CNNscore 0.272604585
REMARK CNNaffinity 6.84111834
REMARK  21 active torsions:
REMARK  status: ('A' for Active; 'I' for Inactive)
REMARK    1  A    between atoms: C2_2  and  C3_3 
REMARK    2  A    between atoms: C2_2  and  C27_33 
REMARK    3  A    between atoms: C4_4  and  C5_5 
REMARK    4  A    between atoms: C6_6  and  C7_7 
REMARK    5  A    between atoms: C6_6  and  C10_12 
REMARK    6  A    between atoms: C7_7  and  O1_8 
REMARK    7  A    between atoms: O1_8  and  C8_9 
REMARK    8  A    between atoms: C8_9  and  C9_10 
REMARK    9  A    between atoms: C9_10  and  O2_11 
REMARK   10  A    between atoms: C14_16  and  O3_17 
REMARK   11  A    between atoms: C15_18  and  C16_19 
REMARK   12  A    between atoms: C16_19  and  C17_20 
REMARK   13  A    between atoms: C17_20  and  C18_21 
REMARK   14  A    between atoms: C18_21  and  O4_22 
REMARK   15  A    between atoms: C20_24  and  C22_26 
REMARK   16  A    between atoms: C25_30  and  O6_32 
REMARK   17  A    between atoms: C27_33  and  C28_34 
REMARK   18  A    between atoms: C28_34  and  C29_35 
REMARK   19  A    between atoms: C30_36  and  C32_38 
REMARK   20  A    between atoms: C32_38  and  N1_39 
REMARK   21  A    between atoms: N1_39  and  C33_40 
ROOT
HETATM    1  C10 UNL     1       0.022   6.252  11.865  1.00  0.00     0.046 C 
HETATM    2  C11 UNL     1      -0.439   6.896  10.561  1.00  0.00     0.013 C 
HETATM    3  C12 UNL     1       0.664   7.907  10.256  1.00  0.00     0.017 C 
HETATM    4  C13 UNL     1       2.019   7.299  10.770  1.00  0.00     0.024 C 
HETATM    5  C14 UNL     1       1.531   6.024  11.585  1.00  0.00     0.138 C 
HETATM    6  C15 UNL     1       2.801   8.375  11.647  1.00  0.00     0.029 C 
HETATM    7  C19 UNL     1       4.318   8.088  11.758  1.00  0.00    -0.066 C 
HETATM    8  C20 UNL     1       5.274   9.009  12.049  1.00  0.00    -0.021 C 
HETATM    9  C21 UNL     1       6.748   8.707  12.150  1.00  0.00     0.052 C 
HETATM   10  C23 UNL     1       4.678   6.647  11.452  1.00  0.00     0.038 C 
HETATM   11  C24 UNL     1       4.262   6.247  10.034  1.00  0.00     0.042 C 
HETATM   12  C25 UNL     1       2.961   6.932   9.544  1.00  0.00     0.065 C 
HETATM   13  C26 UNL     1       3.343   8.131   8.646  1.00  0.00     0.047 C 
ENDROOT
BRANCH   1  14
HETATM   14  C6  UNL     1      -0.859   5.096  12.347  1.00  0.00    -0.050 C 
HETATM   15  C5  UNL     1      -2.094   5.237  12.879  1.00  0.00     0.005 C 
BRANCH  15  16
HETATM   16  C4  UNL     1      -2.830   6.446  13.191  1.00  0.00     0.001 C 
HETATM   17  C3  UNL     1      -2.400   7.303  14.134  1.00  0.00     0.006 C 
BRANCH  17  18
HETATM   18  C2  UNL     1      -3.015   8.572  14.528  1.00  0.00    -0.067 C 
HETATM   19  C1  UNL     1      -2.454   9.710  14.086  1.00  0.00     0.019 C 
BRANCH  18  20
HETATM   20  C27 UNL     1      -4.268   8.521  15.390  1.00  0.00     0.041 C 
BRANCH  20  21
HETATM   21  C28 UNL     1      -5.657   8.643  14.729  1.00  0.00     0.032 C 
BRANCH  21  22
HETATM   22  C29 UNL     1      -6.252   7.317  14.328  1.00  0.00    -0.022 C 
HETATM   23  C30 UNL     1      -7.020   6.487  15.067  1.00  0.00    -0.060 C 
HETATM   24  C31 UNL     1      -7.400   6.746  16.500  1.00  0.00     0.045 C 
BRANCH  23  25
HETATM   25  C32 UNL     1      -7.492   5.171  14.477  1.00  0.00     0.303 C 
BRANCH  25  26
HETATM   26  N1  UNL     1      -7.511   5.135  13.019  1.00  0.00     0.086 N 
HETATM   27  H50 UNL     1      -8.468   5.287  12.701  1.00  0.00     0.316 HD
BRANCH  26  28
HETATM   28  C33 UNL     1      -6.962   3.943  12.384  1.00  0.00     0.265 C 
HETATM   29  C34 UNL     1      -7.497   2.635  12.952  1.00  0.00     0.037 C 
ENDBRANCH  26  28
ENDBRANCH  25  26
ENDBRANCH  23  25
ENDBRANCH  21  22
ENDBRANCH  20  21
ENDBRANCH  18  20
ENDBRANCH  17  18
ENDBRANCH  15  16
BRANCH  14  30
HETATM   30  C7  UNL     1      -0.355   3.677  12.163  1.00  0.00     0.202 C 
BRANCH  30  31
HETATM   31  O1  UNL     1      -0.807   3.186  10.897  1.00  0.00    -0.385 OA
BRANCH  31  32
HETATM   32  C8  UNL     1      -1.599   1.991  10.978  1.00  0.00     0.194 C 
BRANCH  32  33
HETATM   33  C9  UNL     1      -0.780   0.775  10.547  1.00  0.00     0.190 C 
BRANCH  33  34
HETATM   34  O2  UNL     1      -0.713   0.713   9.123  1.00  0.00    -0.399 OA
HETATM   35  H12 UNL     1      -1.616   0.903   8.803  1.00  0.00     0.209 HD
ENDBRANCH  33  34
ENDBRANCH  32  33
ENDBRANCH  31  32
ENDBRANCH  30  31
ENDBRANCH  14  30
ENDBRANCH   1  14
BRANCH   5  36
HETATM   36  O3  UNL     1       1.734   4.850  10.795  1.00  0.00    -0.394 OA
HETATM   37  H19 UNL     1       1.384   4.087  11.305  1.00  0.00     0.210 HD
ENDBRANCH   5  36
BRANCH   6  38
HETATM   38  C16 UNL     1       2.165   8.802  12.999  1.00  0.00     0.012 C 
BRANCH  38  39
HETATM   39  C17 UNL     1       2.654   8.107  14.277  1.00  0.00     0.027 C 
BRANCH  39  40
HETATM   40  C18 UNL     1       1.506   7.818  15.245  1.00  0.00     0.164 C 
BRANCH  40  41
HETATM   41  O4  UNL     1       1.975   7.106  16.383  1.00  0.00    -0.401 OA
HETATM   42  H27 UNL     1       1.938   6.155  16.168  1.00  0.00     0.209 HD
ENDBRANCH  40  41
ENDBRANCH  39  40
ENDBRANCH  38  39
ENDBRANCH   6  38
BRANCH  12  43
HETATM   43  O6  UNL     1       2.289   6.035   8.646  1.00  0.00    -0.389 OA
HETATM   44  H39 UNL     1       2.012   5.274   9.204  1.00  0.00     0.210 HD
ENDBRANCH  12  43
BRANCH   8  45
HETATM   45  C22 UNL     1       4.943  10.448  12.278  1.00  0.00     0.265 C 
HETATM   46  O5  UNL     1       5.433  11.357  11.617  1.00  0.00    -0.302 OA
ENDBRANCH   8  45
TORSDOF 21
ENDMDL
MODEL 9
REMARK minimizedAffinity -8.1061182
REMARK CNNscore 0.247989327
REMARK CNNaffinity 6.68383265
REMARK  21 active torsions:
REMARK  status: ('A' for Active; 'I' for Inactive)
REMARK    1  A    between atoms: C2_2  and  C3_3 
REMARK    2  A    between atoms: C2_2  and  C27_33 
REMARK    3  A    between atoms: C4_4  and  C5_5 
REMARK    4  A    between atoms: C6_6  and  C7_7 
REMARK    5  A    between atoms: C6_6  and  C10_12 
REMARK    6  A    between atoms: C7_7  and  O1_8 
REMARK    7  A    between atoms: O1_8  and  C8_9 
REMARK    8  A    between atoms: C8_9  and  C9_10 
REMARK    9  A    between atoms: C9_10  and  O2_11 
REMARK   10  A    between atoms: C14_16  and  O3_17 
REMARK   11  A    between atoms: C15_18  and  C16_19 
REMARK   12  A    between atoms: C16_19  and  C17_20 
REMARK   13  A    between atoms: C17_20  and  C18_21 
REMARK   14  A    between atoms: C18_21  and  O4_22 
REMARK   15  A    between atoms: C20_24  and  C22_26 
REMARK   16  A    between atoms: C25_30  and  O6_32 
REMARK   17  A    between atoms: C27_33  and  C28_34 
REMARK   18  A    between atoms: C28_34  and  C29_35 
REMARK   19  A    between atoms: C30_36  and  C32_38 
REMARK   20  A    between atoms: C32_38  and  N1_39 
REMARK   21  A    between atoms: N1_39  and  C33_40 
ROOT
HETATM    1  C10 UNL     1       0.095   6.092  11.827  1.00  0.00     0.046 C 
HETATM    2  C11 UNL     1      -0.396   6.774  10.553  1.00  0.00     0.013 C 
HETATM    3  C12 UNL     1       0.685   7.813  10.268  1.00  0.00     0.017 C 
HETATM    4  C13 UNL     1       2.057   7.210  10.740  1.00  0.00     0.024 C 
HETATM    5  C14 UNL     1       1.603   5.899  11.516  1.00  0.00     0.138 C 
HETATM    6  C15 UNL     1       2.836   8.268  11.642  1.00  0.00     0.029 C 
HETATM    7  C19 UNL     1       4.359   8.003  11.719  1.00  0.00    -0.066 C 
HETATM    8  C20 UNL     1       5.304   8.928  12.028  1.00  0.00    -0.021 C 
HETATM    9  C21 UNL     1       6.784   8.648  12.097  1.00  0.00     0.052 C 
HETATM   10  C23 UNL     1       4.737   6.579  11.357  1.00  0.00     0.038 C 
HETATM   11  C24 UNL     1       4.305   6.222   9.933  1.00  0.00     0.042 C 
HETATM   12  C25 UNL     1       2.986   6.902   9.487  1.00  0.00     0.065 C 
HETATM   13  C26 UNL     1       3.334   8.138   8.627  1.00  0.00     0.047 C 
ENDROOT
BRANCH   1  14
HETATM   14  C6  UNL     1      -0.759   4.906  12.281  1.00  0.00    -0.050 C 
HETATM   15  C5  UNL     1      -1.992   5.007  12.829  1.00  0.00     0.005 C 
BRANCH  15  16
HETATM   16  C4  UNL     1      -2.746   6.191  13.186  1.00  0.00     0.001 C 
HETATM   17  C3  UNL     1      -4.005   6.105  13.651  1.00  0.00     0.006 C 
BRANCH  17  18
HETATM   18  C2  UNL     1      -4.870   7.205  14.082  1.00  0.00    -0.067 C 
HETATM   19  C1  UNL     1      -5.075   8.219  13.225  1.00  0.00     0.019 C 
BRANCH  18  20
HETATM   20  C27 UNL     1      -5.503   7.117  15.463  1.00  0.00     0.041 C 
BRANCH  20  21
HETATM   21  C28 UNL     1      -6.635   6.101  15.722  1.00  0.00     0.032 C 
BRANCH  21  22
HETATM   22  C29 UNL     1      -7.860   6.336  14.876  1.00  0.00    -0.022 C 
HETATM   23  C30 UNL     1      -8.225   5.703  13.739  1.00  0.00    -0.060 C 
HETATM   24  C31 UNL     1      -7.406   4.628  13.075  1.00  0.00     0.045 C 
BRANCH  23  25
HETATM   25  C32 UNL     1      -9.493   6.120  13.017  1.00  0.00     0.303 C 
BRANCH  25  26
HETATM   26  N1  UNL     1     -10.592   6.498  13.898  1.00  0.00     0.086 N 
HETATM   27  H50 UNL     1     -11.388   5.890  13.709  1.00  0.00     0.316 HD
BRANCH  26  28
HETATM   28  C33 UNL     1     -11.015   7.893  13.859  1.00  0.00     0.265 C 
HETATM   29  C34 UNL     1     -11.933   8.295  15.006  1.00  0.00     0.037 C 
ENDBRANCH  26  28
ENDBRANCH  25  26
ENDBRANCH  23  25
ENDBRANCH  21  22
ENDBRANCH  20  21
ENDBRANCH  18  20
ENDBRANCH  17  18
ENDBRANCH  15  16
BRANCH  14  30
HETATM   30  C7  UNL     1      -0.231   3.502  12.048  1.00  0.00     0.202 C 
BRANCH  30  31
HETATM   31  O1  UNL     1      -0.742   3.016  10.802  1.00  0.00    -0.385 OA
BRANCH  31  32
HETATM   32  C8  UNL     1      -1.544   1.831  10.917  1.00  0.00     0.194 C 
BRANCH  32  33
HETATM   33  C9  UNL     1      -0.737   0.597  10.517  1.00  0.00     0.190 C 
BRANCH  33  34
HETATM   34  O2  UNL     1      -0.586   0.553   9.098  1.00  0.00    -0.399 OA
HETATM   35  H12 UNL     1      -1.462   0.775   8.728  1.00  0.00     0.209 HD
ENDBRANCH  33  34
ENDBRANCH  32  33
ENDBRANCH  31  32
ENDBRANCH  30  31
ENDBRANCH  14  30
ENDBRANCH   1  14
BRANCH   5  36
HETATM   36  O3  UNL     1       1.813   4.758  10.682  1.00  0.00    -0.394 OA
HETATM   37  H19 UNL     1       1.483   3.971  11.170  1.00  0.00     0.210 HD
ENDBRANCH   5  36
BRANCH   6  38
HETATM   38  C16 UNL     1       2.214   8.637  13.018  1.00  0.00     0.012 C 
BRANCH  38  39
HETATM   39  C17 UNL     1       2.636   7.814  14.242  1.00  0.00     0.027 C 
BRANCH  39  40
HETATM   40  C18 UNL     1       1.434   7.391  15.088  1.00  0.00     0.164 C 
BRANCH  40  41
HETATM   41  O4  UNL     1       1.805   7.249  16.453  1.00  0.00    -0.401 OA
HETATM   42  H27 UNL     1       2.123   6.335  16.576  1.00  0.00     0.209 HD
ENDBRANCH  40  41
ENDBRANCH  39  40
ENDBRANCH  38  39
ENDBRANCH   6  38
BRANCH  12  43
HETATM   43  O6  UNL     1       2.314   6.026   8.568  1.00  0.00    -0.389 OA
HETATM   44  H39 UNL     1       2.059   5.241   9.103  1.00  0.00     0.210 HD
ENDBRANCH  12  43
BRANCH   8  45
HETATM   45  C22 UNL     1       4.954  10.353  12.313  1.00  0.00     0.265 C 
HETATM   46  O5  UNL     1       5.775  11.175  12.704  1.00  0.00    -0.302 OA
ENDBRANCH   8  45
TORSDOF 21
ENDMDL
