MODEL 1
REMARK minimizedAffinity -10.2178764
REMARK CNNscore 0.446222812
REMARK CNNaffinity 7.02759743
REMARK  11 active torsions:
REMARK  status: ('A' for Active; 'I' for Inactive)
REMARK    1  A    between atoms: C5_5  and  C7_7 
REMARK    2  A    between atoms: C7_7  and  C9_9 
REMARK    3  A    between atoms: C18_18  and  C20_20 
REMARK    4  A    between atoms: C20_20  and  O2_22 
REMARK    5  A    between atoms: C21_23  and  O3_24 
REMARK    6  A    between atoms: O3_24  and  C22_25 
REMARK    7  A    between atoms: C23_27  and  C24_28 
REMARK    8  A    between atoms: C24_28  and  O5_29 
REMARK    9  A    between atoms: C25_30  and  O6_31 
REMARK   10  A    between atoms: C26_32  and  O7_33 
REMARK   11  A    between atoms: C27_34  and  O8_35 
ROOT
HETATM    1  C9  UNL     1      -9.905  47.088 -19.311  1.00  0.00     0.001 C 
HETATM    2  C10 UNL     1      -9.274  46.691 -17.945  1.00  0.00     0.007 C 
HETATM    3  C11 UNL     1      -7.807  47.143 -17.934  1.00  0.00     0.011 C 
HETATM    4  C12 UNL     1      -7.656  48.048 -19.164  1.00  0.00    -0.032 C 
HETATM    5  C13 UNL     1      -8.118  49.479 -18.746  1.00  0.00     0.016 C 
HETATM    6  C14 UNL     1      -6.212  48.092 -19.730  1.00  0.00     0.004 C 
HETATM    7  C15 UNL     1      -5.212  48.815 -18.817  1.00  0.00     0.007 C 
HETATM    8  C16 UNL     1      -3.817  48.854 -19.439  1.00  0.00     0.007 C 
HETATM    9  C17 UNL     1      -3.843  49.769 -20.675  1.00  0.00     0.016 C 
HETATM   10  C18 UNL     1      -2.459  50.029 -21.347  1.00  0.00     0.072 C 
HETATM   11  C19 UNL     1      -1.884  48.750 -21.995  1.00  0.00     0.030 C 
HETATM   12  C21 UNL     1      -2.604  51.197 -22.387  1.00  0.00     0.143 C 
HETATM   13  C28 UNL     1      -4.054  51.467 -22.822  1.00  0.00     0.034 C 
HETATM   14  C29 UNL     1      -4.873  50.194 -22.982  1.00  0.00     0.013 C 
HETATM   15  C30 UNL     1      -4.880  49.324 -21.721  1.00  0.00    -0.027 A 
HETATM   16  C31 UNL     1      -5.135  47.868 -22.033  1.00  0.00     0.021 A 
HETATM   17  C32 UNL     1      -6.161  48.600 -21.194  1.00  0.00    -0.027 A 
HETATM   18  C33 UNL     1      -7.485  48.982 -21.853  1.00  0.00     0.011 C 
HETATM   19  C34 UNL     1      -8.767  48.259 -21.399  1.00  0.00     0.011 C 
HETATM   20  C35 UNL     1      -8.612  47.331 -20.188  1.00  0.00    -0.032 C 
HETATM   21  C36 UNL     1      -8.062  45.959 -20.687  1.00  0.00     0.016 C 
ENDROOT
BRANCH  12  22
HETATM   22  O3  UNL     1      -1.822  50.930 -23.563  1.00  0.00    -0.352 OA
BRANCH  22  23
HETATM   23  C22 UNL     1      -2.563  51.103 -24.777  1.00  0.00     0.292 C 
HETATM   24  O4  UNL     1      -2.821  49.814 -25.340  1.00  0.00    -0.348 OA
HETATM   25  C23 UNL     1      -3.574  49.882 -26.555  1.00  0.00     0.179 C 
HETATM   26  C25 UNL     1      -2.748  50.605 -27.629  1.00  0.00     0.180 C 
HETATM   27  C26 UNL     1      -2.386  52.005 -27.128  1.00  0.00     0.183 C 
HETATM   28  C27 UNL     1      -1.724  51.965 -25.747  1.00  0.00     0.204 C 
BRANCH  25  29
HETATM   29  C24 UNL     1      -3.936  48.457 -26.995  1.00  0.00     0.198 C 
BRANCH  29  30
HETATM   30  O5  UNL     1      -3.525  48.191 -28.331  1.00  0.00    -0.398 OA
HETATM   31  H37 UNL     1      -2.618  48.555 -28.432  1.00  0.00     0.209 HD
ENDBRANCH  29  30
ENDBRANCH  25  29
BRANCH  26  32
HETATM   32  O6  UNL     1      -3.471  50.703 -28.862  1.00  0.00    -0.390 OA
HETATM   33  H39 UNL     1      -3.060  51.439 -29.365  1.00  0.00     0.210 HD
ENDBRANCH  26  32
BRANCH  27  34
HETATM   34  O7  UNL     1      -1.522  52.654 -28.081  1.00  0.00    -0.390 OA
HETATM   35  H41 UNL     1      -0.686  52.153 -28.131  1.00  0.00     0.210 HD
ENDBRANCH  27  34
BRANCH  28  36
HETATM   36  O8  UNL     1      -1.592  53.314 -25.270  1.00  0.00    -0.388 OA
HETATM   37  H43 UNL     1      -1.233  53.841 -26.010  1.00  0.00     0.210 HD
ENDBRANCH  28  36
ENDBRANCH  22  23
ENDBRANCH  12  22
BRANCH  10  38
HETATM   38  C20 UNL     1      -1.509  50.547 -20.265  1.00  0.00     0.151 C 
HETATM   39  O1  UNL     1      -1.668  51.556 -19.593  1.00  0.00    -0.649 OA
BRANCH  38  40
HETATM   40  O2  UNL     1      -0.441  49.764 -20.030  1.00  0.00    -0.776 OA
HETATM   41  H31 UNL     1       0.054  50.217 -19.315  1.00  0.00     0.167 HD
ENDBRANCH  38  40
ENDBRANCH  10  38
BRANCH   1  42
HETATM   42  C7  UNL     1     -11.032  46.105 -19.824  1.00  0.00     0.021 C 
HETATM   43  C8  UNL     1     -10.828  45.855 -21.339  1.00  0.00     0.013 C 
BRANCH  42  44
HETATM   44  C5  UNL     1     -12.538  46.578 -19.589  1.00  0.00     0.074 C 
HETATM   45  C4  UNL     1     -12.823  47.900 -20.350  1.00  0.00     0.066 C 
HETATM   46  C3  UNL     1     -14.015  48.613 -19.795  1.00  0.00    -0.011 C 
HETATM   47  C2  UNL     1     -14.455  48.397 -18.545  1.00  0.00     0.010 C 
HETATM   48  C1  UNL     1     -15.649  49.091 -17.966  1.00  0.00     0.054 C 
HETATM   49  C37 UNL     1     -13.727  47.479 -17.631  1.00  0.00     0.289 C 
HETATM   50  O9  UNL     1     -12.695  46.773 -18.157  1.00  0.00    -0.306 OA
HETATM   51  O10 UNL     1     -14.029  47.386 -16.448  1.00  0.00    -0.260 OA
HETATM   52  C6  UNL     1     -13.600  45.550 -20.022  1.00  0.00     0.047 C 
ENDBRANCH  42  44
ENDBRANCH   1  42
TORSDOF 11
ENDMDL
MODEL 2
REMARK minimizedAffinity -8.85905266
REMARK CNNscore 0.431397319
REMARK CNNaffinity 7.50812292
REMARK  11 active torsions:
REMARK  status: ('A' for Active; 'I' for Inactive)
REMARK    1  A    between atoms: C5_5  and  C7_7 
REMARK    2  A    between atoms: C7_7  and  C9_9 
REMARK    3  A    between atoms: C18_18  and  C20_20 
REMARK    4  A    between atoms: C20_20  and  O2_22 
REMARK    5  A    between atoms: C21_23  and  O3_24 
REMARK    6  A    between atoms: O3_24  and  C22_25 
REMARK    7  A    between atoms: C23_27  and  C24_28 
REMARK    8  A    between atoms: C24_28  and  O5_29 
REMARK    9  A    between atoms: C25_30  and  O6_31 
REMARK   10  A    between atoms: C26_32  and  O7_33 
REMARK   11  A    between atoms: C27_34  and  O8_35 
ROOT
HETATM    1  C9  UNL     1      -0.927  49.687 -19.225  1.00  0.00     0.001 C 
HETATM    2  C10 UNL     1       0.106  50.851 -19.223  1.00  0.00     0.007 C 
HETATM    3  C11 UNL     1       0.192  51.427 -17.802  1.00  0.00     0.011 C 
HETATM    4  C12 UNL     1      -0.568  50.429 -16.918  1.00  0.00    -0.032 C 
HETATM    5  C13 UNL     1       0.432  49.294 -16.536  1.00  0.00     0.016 C 
HETATM    6  C14 UNL     1      -1.172  51.067 -15.639  1.00  0.00     0.004 C 
HETATM    7  C15 UNL     1      -0.121  51.499 -14.607  1.00  0.00     0.007 C 
HETATM    8  C16 UNL     1      -0.775  52.090 -13.360  1.00  0.00     0.007 C 
HETATM    9  C17 UNL     1      -1.523  50.976 -12.608  1.00  0.00     0.016 C 
HETATM   10  C18 UNL     1      -2.130  51.387 -11.231  1.00  0.00     0.072 C 
HETATM   11  C19 UNL     1      -3.286  52.399 -11.391  1.00  0.00     0.030 C 
HETATM   12  C21 UNL     1      -2.588  50.093 -10.465  1.00  0.00     0.143 C 
HETATM   13  C28 UNL     1      -2.765  48.863 -11.371  1.00  0.00     0.034 C 
HETATM   14  C29 UNL     1      -3.370  49.205 -12.726  1.00  0.00     0.013 C 
HETATM   15  C30 UNL     1      -2.578  50.277 -13.482  1.00  0.00    -0.027 A 
HETATM   16  C31 UNL     1      -3.439  51.034 -14.466  1.00  0.00     0.021 A 
HETATM   17  C32 UNL     1      -2.300  50.202 -15.017  1.00  0.00    -0.027 A 
HETATM   18  C33 UNL     1      -2.644  48.888 -15.715  1.00  0.00     0.011 C 
HETATM   19  C34 UNL     1      -2.432  48.786 -17.237  1.00  0.00     0.011 C 
HETATM   20  C35 UNL     1      -1.721  49.979 -17.889  1.00  0.00    -0.032 C 
HETATM   21  C36 UNL     1      -2.778  51.097 -18.151  1.00  0.00     0.016 C 
ENDROOT
BRANCH  12  22
HETATM   22  O3  UNL     1      -3.825  50.325  -9.771  1.00  0.00    -0.352 OA
BRANCH  22  23
HETATM   23  C22 UNL     1      -4.760  49.250  -9.923  1.00  0.00     0.292 C 
HETATM   24  O4  UNL     1      -6.036  49.801 -10.259  1.00  0.00    -0.348 OA
HETATM   25  C23 UNL     1      -7.039  48.799 -10.447  1.00  0.00     0.179 C 
HETATM   26  C25 UNL     1      -7.282  48.062  -9.122  1.00  0.00     0.180 C 
HETATM   27  C26 UNL     1      -5.968  47.441  -8.642  1.00  0.00     0.183 C 
HETATM   28  C27 UNL     1      -4.834  48.470  -8.591  1.00  0.00     0.204 C 
BRANCH  25  29
HETATM   29  C24 UNL     1      -8.323  49.469 -10.955  1.00  0.00     0.198 C 
BRANCH  29  30
HETATM   30  O5  UNL     1      -9.087  48.601 -11.784  1.00  0.00    -0.398 OA
HETATM   31  H37 UNL     1      -9.093  47.720 -11.349  1.00  0.00     0.209 HD
ENDBRANCH  29  30
ENDBRANCH  25  29
BRANCH  26  32
HETATM   32  O6  UNL     1      -8.276  47.040  -9.268  1.00  0.00    -0.390 OA
HETATM   33  H39 UNL     1      -8.137  46.412  -8.528  1.00  0.00     0.210 HD
ENDBRANCH  26  32
BRANCH  27  34
HETATM   34  O7  UNL     1      -6.159  46.839  -7.347  1.00  0.00    -0.390 OA
HETATM   35  H41 UNL     1      -6.382  47.542  -6.709  1.00  0.00     0.210 HD
ENDBRANCH  27  34
BRANCH  28  36
HETATM   36  O8  UNL     1      -3.606  47.777  -8.320  1.00  0.00    -0.388 OA
HETATM   37  H43 UNL     1      -3.787  47.157  -7.587  1.00  0.00     0.210 HD
ENDBRANCH  28  36
ENDBRANCH  22  23
ENDBRANCH  12  22
BRANCH  10  38
HETATM   38  C20 UNL     1      -1.006  51.995 -10.391  1.00  0.00     0.151 C 
HETATM   39  O1  UNL     1       0.010  51.420 -10.028  1.00  0.00    -0.649 OA
BRANCH  38  40
HETATM   40  O2  UNL     1      -1.167  53.296 -10.090  1.00  0.00    -0.776 OA
HETATM   41  H31 UNL     1      -0.371  53.537  -9.569  1.00  0.00     0.167 HD
ENDBRANCH  38  40
ENDBRANCH  10  38
BRANCH   1  42
HETATM   42  C7  UNL     1      -1.711  49.508 -20.586  1.00  0.00     0.021 C 
HETATM   43  C8  UNL     1      -1.242  48.196 -21.266  1.00  0.00     0.013 C 
BRANCH  42  44
HETATM   44  C5  UNL     1      -1.573  50.699 -21.639  1.00  0.00     0.074 C 
HETATM   45  C4  UNL     1      -1.557  50.150 -23.090  1.00  0.00     0.066 C 
HETATM   46  C3  UNL     1      -0.965  51.134 -24.049  1.00  0.00    -0.011 C 
HETATM   47  C2  UNL     1      -0.139  52.112 -23.644  1.00  0.00     0.010 C 
HETATM   48  C1  UNL     1       0.463  53.115 -24.580  1.00  0.00     0.054 C 
HETATM   49  C37 UNL     1       0.275  52.217 -22.221  1.00  0.00     0.289 C 
HETATM   50  O9  UNL     1      -0.322  51.377 -21.340  1.00  0.00    -0.306 OA
HETATM   51  O10 UNL     1       1.138  53.010 -21.866  1.00  0.00    -0.260 OA
HETATM   52  C6  UNL     1      -2.690  51.755 -21.550  1.00  0.00     0.047 C 
ENDBRANCH  42  44
ENDBRANCH   1  42
TORSDOF 11
ENDMDL
MODEL 3
REMARK minimizedAffinity -8.13455677
REMARK CNNscore 0.420177937
REMARK CNNaffinity 6.73275185
REMARK  11 active torsions:
REMARK  status: ('A' for Active; 'I' for Inactive)
REMARK    1  A    between atoms: C5_5  and  C7_7 
REMARK    2  A    between atoms: C7_7  and  C9_9 
REMARK    3  A    between atoms: C18_18  and  C20_20 
REMARK    4  A    between atoms: C20_20  and  O2_22 
REMARK    5  A    between atoms: C21_23  and  O3_24 
REMARK    6  A    between atoms: O3_24  and  C22_25 
REMARK    7  A    between atoms: C23_27  and  C24_28 
REMARK    8  A    between atoms: C24_28  and  O5_29 
REMARK    9  A    between atoms: C25_30  and  O6_31 
REMARK   10  A    between atoms: C26_32  and  O7_33 
REMARK   11  A    between atoms: C27_34  and  O8_35 
ROOT
HETATM    1  C9  UNL     1      -1.004  50.042 -21.959  1.00  0.00     0.001 C 
HETATM    2  C10 UNL     1      -0.419  49.509 -20.619  1.00  0.00     0.007 C 
HETATM    3  C11 UNL     1      -1.394  48.474 -20.037  1.00  0.00     0.011 C 
HETATM    4  C12 UNL     1      -2.399  48.192 -21.161  1.00  0.00    -0.032 C 
HETATM    5  C13 UNL     1      -1.769  47.104 -22.084  1.00  0.00     0.016 C 
HETATM    6  C14 UNL     1      -3.788  47.725 -20.650  1.00  0.00     0.004 C 
HETATM    7  C15 UNL     1      -3.778  46.324 -20.024  1.00  0.00     0.007 C 
HETATM    8  C16 UNL     1      -5.175  45.907 -19.569  1.00  0.00     0.007 C 
HETATM    9  C17 UNL     1      -6.066  45.701 -20.804  1.00  0.00     0.016 C 
HETATM   10  C18 UNL     1      -7.492  45.134 -20.517  1.00  0.00     0.072 C 
HETATM   11  C19 UNL     1      -8.367  46.145 -19.744  1.00  0.00     0.030 C 
HETATM   12  C21 UNL     1      -8.156  44.702 -21.874  1.00  0.00     0.143 C 
HETATM   13  C28 UNL     1      -7.503  45.332 -23.116  1.00  0.00     0.034 C 
HETATM   14  C29 UNL     1      -7.080  46.778 -22.897  1.00  0.00     0.013 C 
HETATM   15  C30 UNL     1      -6.148  46.954 -21.694  1.00  0.00    -0.027 A 
HETATM   16  C31 UNL     1      -6.219  48.348 -21.115  1.00  0.00     0.021 A 
HETATM   17  C32 UNL     1      -4.903  47.898 -21.714  1.00  0.00    -0.027 A 
HETATM   18  C33 UNL     1      -4.499  48.472 -23.070  1.00  0.00     0.011 C 
HETATM   19  C34 UNL     1      -3.307  49.446 -23.131  1.00  0.00     0.011 C 
HETATM   20  C35 UNL     1      -2.521  49.614 -21.824  1.00  0.00    -0.032 C 
HETATM   21  C36 UNL     1      -3.271  50.649 -20.929  1.00  0.00     0.016 C 
ENDROOT
BRANCH  12  22
HETATM   22  O3  UNL     1      -9.554  45.034 -21.883  1.00  0.00    -0.352 OA
BRANCH  22  23
HETATM   23  C22 UNL     1     -10.391  43.912 -22.191  1.00  0.00     0.292 C 
HETATM   24  O4  UNL     1      -9.852  42.753 -21.550  1.00  0.00    -0.348 OA
HETATM   25  C23 UNL     1     -10.631  41.577 -21.787  1.00  0.00     0.179 C 
HETATM   26  C25 UNL     1     -10.597  41.233 -23.284  1.00  0.00     0.180 C 
HETATM   27  C26 UNL     1     -11.136  42.420 -24.086  1.00  0.00     0.183 C 
HETATM   28  C27 UNL     1     -10.421  43.726 -23.724  1.00  0.00     0.204 C 
BRANCH  25  29
HETATM   29  C24 UNL     1     -10.069  40.428 -20.939  1.00  0.00     0.198 C 
BRANCH  29  30
HETATM   30  O5  UNL     1      -9.283  39.529 -21.711  1.00  0.00    -0.398 OA
HETATM   31  H37 UNL     1      -8.713  40.074 -22.296  1.00  0.00     0.209 HD
ENDBRANCH  29  30
ENDBRANCH  25  29
BRANCH  26  32
HETATM   32  O6  UNL     1     -11.375  40.063 -23.567  1.00  0.00    -0.390 OA
HETATM   33  H39 UNL     1     -11.591  40.101 -24.523  1.00  0.00     0.210 HD
ENDBRANCH  26  32
BRANCH  27  34
HETATM   34  O7  UNL     1     -11.009  42.152 -25.496  1.00  0.00    -0.390 OA
HETATM   35  H41 UNL     1     -10.060  42.078 -25.712  1.00  0.00     0.210 HD
ENDBRANCH  27  34
BRANCH  28  36
HETATM   36  O8  UNL     1     -11.105  44.811 -24.371  1.00  0.00    -0.388 OA
HETATM   37  H43 UNL     1     -11.261  44.535 -25.295  1.00  0.00     0.210 HD
ENDBRANCH  28  36
ENDBRANCH  22  23
ENDBRANCH  12  22
BRANCH  10  38
HETATM   38  C20 UNL     1      -7.324  43.849 -19.705  1.00  0.00     0.151 C 
HETATM   39  O1  UNL     1      -6.723  42.846 -20.063  1.00  0.00    -0.649 OA
BRANCH  38  40
HETATM   40  O2  UNL     1      -7.860  43.887 -18.472  1.00  0.00    -0.776 OA
HETATM   41  H31 UNL     1      -7.661  43.009 -18.081  1.00  0.00     0.167 HD
ENDBRANCH  38  40
ENDBRANCH  10  38
BRANCH   1  42
HETATM   42  C7  UNL     1      -0.635  51.544 -22.285  1.00  0.00     0.021 C 
HETATM   43  C8  UNL     1      -1.329  52.466 -21.251  1.00  0.00     0.013 C 
BRANCH  42  44
HETATM   44  C5  UNL     1      -1.008  52.057 -23.749  1.00  0.00     0.074 C 
HETATM   45  C4  UNL     1      -0.812  50.926 -24.795  1.00  0.00     0.066 C 
HETATM   46  C3  UNL     1      -0.683  51.471 -26.182  1.00  0.00    -0.011 C 
HETATM   47  C2  UNL     1      -0.304  52.737 -26.417  1.00  0.00     0.010 C 
HETATM   48  C1  UNL     1      -0.173  53.310 -27.795  1.00  0.00     0.054 C 
HETATM   49  C37 UNL     1       0.069  53.639 -25.297  1.00  0.00     0.289 C 
HETATM   50  O9  UNL     1      -0.122  53.173 -24.038  1.00  0.00    -0.306 OA
HETATM   51  O10 UNL     1       0.556  54.743 -25.504  1.00  0.00    -0.260 OA
HETATM   52  C6  UNL     1      -2.450  52.579 -23.890  1.00  0.00     0.047 C 
ENDBRANCH  42  44
ENDBRANCH   1  42
TORSDOF 11
ENDMDL
MODEL 4
REMARK minimizedAffinity -9.92677116
REMARK CNNscore 0.41694662
REMARK CNNaffinity 7.08124495
REMARK  11 active torsions:
REMARK  status: ('A' for Active; 'I' for Inactive)
REMARK    1  A    between atoms: C5_5  and  C7_7 
REMARK    2  A    between atoms: C7_7  and  C9_9 
REMARK    3  A    between atoms: C18_18  and  C20_20 
REMARK    4  A    between atoms: C20_20  and  O2_22 
REMARK    5  A    between atoms: C21_23  and  O3_24 
REMARK    6  A    between atoms: O3_24  and  C22_25 
REMARK    7  A    between atoms: C23_27  and  C24_28 
REMARK    8  A    between atoms: C24_28  and  O5_29 
REMARK    9  A    between atoms: C25_30  and  O6_31 
REMARK   10  A    between atoms: C26_32  and  O7_33 
REMARK   11  A    between atoms: C27_34  and  O8_35 
ROOT
HETATM    1  C9  UNL     1      -2.297  47.919 -19.753  1.00  0.00     0.001 C 
HETATM    2  C10 UNL     1      -3.347  47.426 -18.716  1.00  0.00     0.007 C 
HETATM    3  C11 UNL     1      -4.690  47.228 -19.434  1.00  0.00     0.011 C 
HETATM    4  C12 UNL     1      -4.363  47.328 -20.930  1.00  0.00    -0.032 C 
HETATM    5  C13 UNL     1      -3.887  45.917 -21.396  1.00  0.00     0.016 C 
HETATM    6  C14 UNL     1      -5.559  47.806 -21.796  1.00  0.00     0.004 C 
HETATM    7  C15 UNL     1      -6.696  46.780 -21.901  1.00  0.00     0.007 C 
HETATM    8  C16 UNL     1      -7.828  47.292 -22.789  1.00  0.00     0.007 C 
HETATM    9  C17 UNL     1      -7.332  47.370 -24.242  1.00  0.00     0.016 C 
HETATM   10  C18 UNL     1      -8.415  47.742 -25.302  1.00  0.00     0.072 C 
HETATM   11  C19 UNL     1      -8.913  49.194 -25.130  1.00  0.00     0.030 C 
HETATM   12  C21 UNL     1      -7.835  47.489 -26.740  1.00  0.00     0.143 C 
HETATM   13  C28 UNL     1      -6.300  47.403 -26.786  1.00  0.00     0.034 C 
HETATM   14  C29 UNL     1      -5.621  48.394 -25.850  1.00  0.00     0.013 C 
HETATM   15  C30 UNL     1      -6.089  48.262 -24.398  1.00  0.00    -0.027 A 
HETATM   16  C31 UNL     1      -5.920  49.550 -23.625  1.00  0.00     0.021 A 
HETATM   17  C32 UNL     1      -5.114  48.348 -23.180  1.00  0.00    -0.027 A 
HETATM   18  C33 UNL     1      -3.619  48.332 -23.494  1.00  0.00     0.011 C 
HETATM   19  C34 UNL     1      -2.621  48.463 -22.328  1.00  0.00     0.011 C 
HETATM   20  C35 UNL     1      -3.235  48.425 -20.922  1.00  0.00    -0.032 C 
HETATM   21  C36 UNL     1      -3.764  49.851 -20.578  1.00  0.00     0.016 C 
ENDROOT
BRANCH  12  22
HETATM   22  O3  UNL     1      -8.257  48.521 -27.647  1.00  0.00    -0.352 OA
BRANCH  22  23
HETATM   23  C22 UNL     1      -9.106  48.031 -28.692  1.00  0.00     0.292 C 
HETATM   24  O4  UNL     1      -9.111  46.602 -28.642  1.00  0.00    -0.348 OA
HETATM   25  C23 UNL     1      -9.948  46.016 -29.644  1.00  0.00     0.179 C 
HETATM   26  C25 UNL     1      -9.387  46.344 -31.035  1.00  0.00     0.180 C 
HETATM   27  C26 UNL     1      -9.310  47.863 -31.203  1.00  0.00     0.183 C 
HETATM   28  C27 UNL     1      -8.555  48.529 -30.047  1.00  0.00     0.204 C 
BRANCH  25  29
HETATM   29  C24 UNL     1     -10.014  44.501 -29.413  1.00  0.00     0.198 C 
BRANCH  29  30
HETATM   30  O5  UNL     1     -11.172  43.921 -30.001  1.00  0.00    -0.398 OA
HETATM   31  H37 UNL     1     -11.272  44.318 -30.893  1.00  0.00     0.209 HD
ENDBRANCH  29  30
ENDBRANCH  25  29
BRANCH  26  32
HETATM   32  O6  UNL     1     -10.202  45.783 -32.071  1.00  0.00    -0.390 OA
HETATM   33  H39 UNL     1     -10.005  46.293 -32.885  1.00  0.00     0.210 HD
ENDBRANCH  26  32
BRANCH  27  34
HETATM   34  O7  UNL     1      -8.685  48.183 -32.461  1.00  0.00    -0.390 OA
HETATM   35  H41 UNL     1      -7.765  47.860 -32.440  1.00  0.00     0.210 HD
ENDBRANCH  27  34
BRANCH  28  36
HETATM   36  O8  UNL     1      -8.692  49.953 -30.178  1.00  0.00    -0.388 OA
HETATM   37  H43 UNL     1      -8.517  50.168 -31.115  1.00  0.00     0.210 HD
ENDBRANCH  28  36
ENDBRANCH  22  23
ENDBRANCH  12  22
BRANCH  10  38
HETATM   38  C20 UNL     1      -9.577  46.762 -25.141  1.00  0.00     0.151 C 
HETATM   39  O1  UNL     1      -9.521  45.549 -25.290  1.00  0.00    -0.649 OA
BRANCH  38  40
HETATM   40  O2  UNL     1     -10.738  47.320 -24.750  1.00  0.00    -0.776 OA
HETATM   41  H31 UNL     1     -11.369  46.573 -24.681  1.00  0.00     0.167 HD
ENDBRANCH  38  40
ENDBRANCH  10  38
BRANCH   1  42
HETATM   42  C7  UNL     1      -1.189  48.878 -19.161  1.00  0.00     0.021 C 
HETATM   43  C8  UNL     1      -1.459  49.081 -17.649  1.00  0.00     0.013 C 
BRANCH  42  44
HETATM   44  C5  UNL     1      -1.060  50.312 -19.848  1.00  0.00     0.074 C 
HETATM   45  C4  UNL     1      -0.568  50.176 -21.315  1.00  0.00     0.066 C 
HETATM   46  C3  UNL     1       0.013  51.457 -21.825  1.00  0.00    -0.011 C 
HETATM   47  C2  UNL     1       0.479  52.406 -20.998  1.00  0.00     0.010 C 
HETATM   48  C1  UNL     1       1.059  53.699 -21.482  1.00  0.00     0.054 C 
HETATM   49  C37 UNL     1       0.497  52.191 -19.528  1.00  0.00     0.289 C 
HETATM   50  O9  UNL     1      -0.099  51.067 -19.060  1.00  0.00    -0.306 OA
HETATM   51  O10 UNL     1       1.053  52.982 -18.776  1.00  0.00    -0.260 OA
HETATM   52  C6  UNL     1      -2.367  51.126 -19.867  1.00  0.00     0.047 C 
ENDBRANCH  42  44
ENDBRANCH   1  42
TORSDOF 11
ENDMDL
MODEL 5
REMARK minimizedAffinity -9.15539074
REMARK CNNscore 0.363250613
REMARK CNNaffinity 6.20620871
REMARK  11 active torsions:
REMARK  status: ('A' for Active; 'I' for Inactive)
REMARK    1  A    between atoms: C5_5  and  C7_7 
REMARK    2  A    between atoms: C7_7  and  C9_9 
REMARK    3  A    between atoms: C18_18  and  C20_20 
REMARK    4  A    between atoms: C20_20  and  O2_22 
REMARK    5  A    between atoms: C21_23  and  O3_24 
REMARK    6  A    between atoms: O3_24  and  C22_25 
REMARK    7  A    between atoms: C23_27  and  C24_28 
REMARK    8  A    between atoms: C24_28  and  O5_29 
REMARK    9  A    between atoms: C25_30  and  O6_31 
REMARK   10  A    between atoms: C26_32  and  O7_33 
REMARK   11  A    between atoms: C27_34  and  O8_35 
ROOT
HETATM    1  C9  UNL     1     -15.931  44.092 -26.187  1.00  0.00     0.001 C 
HETATM    2  C10 UNL     1     -15.475  44.175 -24.702  1.00  0.00     0.007 C 
HETATM    3  C11 UNL     1     -14.012  44.641 -24.665  1.00  0.00     0.011 C 
HETATM    4  C12 UNL     1     -13.701  45.101 -26.096  1.00  0.00    -0.032 C 
HETATM    5  C13 UNL     1     -14.186  46.578 -26.223  1.00  0.00     0.016 C 
HETATM    6  C14 UNL     1     -12.199  44.993 -26.470  1.00  0.00     0.004 C 
HETATM    7  C15 UNL     1     -11.303  45.997 -25.730  1.00  0.00     0.007 C 
HETATM    8  C16 UNL     1      -9.844  45.865 -26.161  1.00  0.00     0.007 C 
HETATM    9  C17 UNL     1      -9.707  46.327 -27.621  1.00  0.00     0.016 C 
HETATM   10  C18 UNL     1      -8.248  46.388 -28.172  1.00  0.00     0.072 C 
HETATM   11  C19 UNL     1      -7.621  44.982 -28.296  1.00  0.00     0.030 C 
HETATM   12  C21 UNL     1      -8.249  47.152 -29.545  1.00  0.00     0.143 C 
HETATM   13  C28 UNL     1      -9.632  47.231 -30.213  1.00  0.00     0.034 C 
HETATM   14  C29 UNL     1     -10.447  45.956 -30.046  1.00  0.00     0.013 C 
HETATM   15  C30 UNL     1     -10.618  45.543 -28.581  1.00  0.00    -0.027 A 
HETATM   16  C31 UNL     1     -10.858  44.058 -28.430  1.00  0.00     0.021 A 
HETATM   17  C32 UNL     1     -11.964  44.999 -28.003  1.00  0.00    -0.027 A 
HETATM   18  C33 UNL     1     -13.194  45.115 -28.902  1.00  0.00     0.011 C 
HETATM   19  C34 UNL     1     -14.533  44.548 -28.393  1.00  0.00     0.011 C 
HETATM   20  C35 UNL     1     -14.538  44.067 -26.936  1.00  0.00    -0.032 C 
HETATM   21  C36 UNL     1     -13.955  42.621 -26.894  1.00  0.00     0.016 C 
ENDROOT
BRANCH  12  22
HETATM   22  O3  UNL     1      -7.336  46.536 -30.469  1.00  0.00    -0.352 OA
BRANCH  22  23
HETATM   23  C22 UNL     1      -6.943  47.412 -31.532  1.00  0.00     0.292 C 
HETATM   24  O4  UNL     1      -7.490  46.915 -32.757  1.00  0.00    -0.348 OA
HETATM   25  C23 UNL     1      -7.163  47.736 -33.882  1.00  0.00     0.179 C 
HETATM   26  C25 UNL     1      -5.644  47.713 -34.109  1.00  0.00     0.180 C 
HETATM   27  C26 UNL     1      -4.938  48.208 -32.845  1.00  0.00     0.183 C 
HETATM   28  C27 UNL     1      -5.400  47.447 -31.597  1.00  0.00     0.204 C 
BRANCH  25  29
HETATM   29  C24 UNL     1      -7.918  47.216 -35.113  1.00  0.00     0.198 C 
BRANCH  29  30
HETATM   30  O5  UNL     1      -8.323  45.861 -34.958  1.00  0.00    -0.398 OA
HETATM   31  H37 UNL     1      -8.680  45.769 -34.048  1.00  0.00     0.209 HD
ENDBRANCH  29  30
ENDBRANCH  25  29
BRANCH  26  32
HETATM   32  O6  UNL     1      -5.272  48.532 -35.224  1.00  0.00    -0.390 OA
HETATM   33  H39 UNL     1      -4.322  48.745 -35.105  1.00  0.00     0.210 HD
ENDBRANCH  26  32
BRANCH  27  34
HETATM   34  O7  UNL     1      -3.512  48.089 -33.006  1.00  0.00    -0.390 OA
HETATM   35  H41 UNL     1      -3.288  47.144 -33.096  1.00  0.00     0.210 HD
ENDBRANCH  27  34
BRANCH  28  36
HETATM   36  O8  UNL     1      -4.841  48.092 -30.441  1.00  0.00    -0.388 OA
HETATM   37  H43 UNL     1      -3.898  48.257 -30.639  1.00  0.00     0.210 HD
ENDBRANCH  28  36
ENDBRANCH  22  23
ENDBRANCH  12  22
BRANCH  10  38
HETATM   38  C20 UNL     1      -7.427  47.251 -27.214  1.00  0.00     0.151 C 
HETATM   39  O1  UNL     1      -7.484  47.222 -25.992  1.00  0.00    -0.649 OA
BRANCH  38  40
HETATM   40  O2  UNL     1      -6.537  48.067 -27.809  1.00  0.00    -0.776 OA
HETATM   41  H31 UNL     1      -6.089  48.535 -27.073  1.00  0.00     0.167 HD
ENDBRANCH  38  40
ENDBRANCH  10  38
BRANCH   1  42
HETATM   42  C7  UNL     1     -17.004  42.969 -26.482  1.00  0.00     0.021 C 
HETATM   43  C8  UNL     1     -16.312  41.796 -27.221  1.00  0.00     0.013 C 
BRANCH  42  44
HETATM   44  C5  UNL     1     -18.278  43.419 -27.332  1.00  0.00     0.074 C 
HETATM   45  C4  UNL     1     -19.471  42.458 -27.084  1.00  0.00     0.066 C 
HETATM   46  C3  UNL     1     -20.488  42.544 -28.178  1.00  0.00    -0.011 C 
HETATM   47  C2  UNL     1     -20.180  43.002 -29.401  1.00  0.00     0.010 C 
HETATM   48  C1  UNL     1     -21.179  43.105 -30.513  1.00  0.00     0.054 C 
HETATM   49  C37 UNL     1     -18.785  43.386 -29.740  1.00  0.00     0.289 C 
HETATM   50  O9  UNL     1     -17.880  43.384 -28.730  1.00  0.00    -0.306 OA
HETATM   51  O10 UNL     1     -18.462  43.664 -30.888  1.00  0.00    -0.260 OA
HETATM   52  C6  UNL     1     -18.762  44.851 -27.037  1.00  0.00     0.047 C 
ENDBRANCH  42  44
ENDBRANCH   1  42
TORSDOF 11
ENDMDL
MODEL 6
REMARK minimizedAffinity -8.54133034
REMARK CNNscore 0.341364205
REMARK CNNaffinity 6.54002333
REMARK  11 active torsions:
REMARK  status: ('A' for Active; 'I' for Inactive)
REMARK    1  A    between atoms: C5_5  and  C7_7 
REMARK    2  A    between atoms: C7_7  and  C9_9 
REMARK    3  A    between atoms: C18_18  and  C20_20 
REMARK    4  A    between atoms: C20_20  and  O2_22 
REMARK    5  A    between atoms: C21_23  and  O3_24 
REMARK    6  A    between atoms: O3_24  and  C22_25 
REMARK    7  A    between atoms: C23_27  and  C24_28 
REMARK    8  A    between atoms: C24_28  and  O5_29 
REMARK    9  A    between atoms: C25_30  and  O6_31 
REMARK   10  A    between atoms: C26_32  and  O7_33 
REMARK   11  A    between atoms: C27_34  and  O8_35 
ROOT
HETATM    1  C9  UNL     1      -2.022  50.438 -21.756  1.00  0.00     0.001 C 
HETATM    2  C10 UNL     1      -1.838  50.627 -23.290  1.00  0.00     0.007 C 
HETATM    3  C11 UNL     1      -3.040  49.995 -24.008  1.00  0.00     0.011 C 
HETATM    4  C12 UNL     1      -4.056  49.692 -22.899  1.00  0.00    -0.032 C 
HETATM    5  C13 UNL     1      -4.871  50.999 -22.649  1.00  0.00     0.016 C 
HETATM    6  C14 UNL     1      -5.013  48.518 -23.237  1.00  0.00     0.004 C 
HETATM    7  C15 UNL     1      -6.014  48.838 -24.355  1.00  0.00     0.007 C 
HETATM    8  C16 UNL     1      -6.947  47.658 -24.621  1.00  0.00     0.007 C 
HETATM    9  C17 UNL     1      -7.872  47.464 -23.409  1.00  0.00     0.016 C 
HETATM   10  C18 UNL     1      -8.985  46.384 -23.578  1.00  0.00     0.072 C 
HETATM   11  C19 UNL     1      -8.395  44.959 -23.672  1.00  0.00     0.030 C 
HETATM   12  C21 UNL     1     -10.012  46.514 -22.397  1.00  0.00     0.143 C 
HETATM   13  C28 UNL     1      -9.471  47.287 -21.183  1.00  0.00     0.034 C 
HETATM   14  C29 UNL     1      -8.006  46.990 -20.894  1.00  0.00     0.013 C 
HETATM   15  C30 UNL     1      -7.095  47.243 -22.099  1.00  0.00    -0.027 A 
HETATM   16  C31 UNL     1      -5.831  46.416 -22.043  1.00  0.00     0.021 A 
HETATM   17  C32 UNL     1      -5.693  47.922 -21.977  1.00  0.00    -0.027 A 
HETATM   18  C33 UNL     1      -5.350  48.552 -20.628  1.00  0.00     0.011 C 
HETATM   19  C34 UNL     1      -3.961  49.191 -20.447  1.00  0.00     0.011 C 
HETATM   20  C35 UNL     1      -3.103  49.285 -21.716  1.00  0.00    -0.032 C 
HETATM   21  C36 UNL     1      -2.400  47.910 -21.936  1.00  0.00     0.016 C 
ENDROOT
BRANCH  12  22
HETATM   22  O3  UNL     1     -10.441  45.217 -21.952  1.00  0.00    -0.352 OA
BRANCH  22  23
HETATM   23  C22 UNL     1     -11.790  44.915 -22.328  1.00  0.00     0.292 C 
HETATM   24  O4  UNL     1     -12.600  46.067 -22.076  1.00  0.00    -0.348 OA
HETATM   25  C23 UNL     1     -13.971  45.869 -22.436  1.00  0.00     0.179 C 
HETATM   26  C25 UNL     1     -14.581  44.775 -21.547  1.00  0.00     0.180 C 
HETATM   27  C26 UNL     1     -13.777  43.483 -21.714  1.00  0.00     0.183 C 
HETATM   28  C27 UNL     1     -12.278  43.711 -21.492  1.00  0.00     0.204 C 
BRANCH  25  29
HETATM   29  C24 UNL     1     -14.723  47.197 -22.281  1.00  0.00     0.198 C 
BRANCH  29  30
HETATM   30  O5  UNL     1     -15.379  47.295 -21.022  1.00  0.00    -0.398 OA
HETATM   31  H37 UNL     1     -14.750  46.968 -20.343  1.00  0.00     0.209 HD
ENDBRANCH  29  30
ENDBRANCH  25  29
BRANCH  26  32
HETATM   32  O6  UNL     1     -15.954  44.537 -21.882  1.00  0.00    -0.390 OA
HETATM   33  H39 UNL     1     -16.169  43.642 -21.544  1.00  0.00     0.210 HD
ENDBRANCH  26  32
BRANCH  27  34
HETATM   34  O7  UNL     1     -14.272  42.481 -20.805  1.00  0.00    -0.390 OA
HETATM   35  H41 UNL     1     -14.118  42.788 -19.892  1.00  0.00     0.210 HD
ENDBRANCH  27  34
BRANCH  28  36
HETATM   36  O8  UNL     1     -11.580  42.507 -21.851  1.00  0.00    -0.388 OA
HETATM   37  H43 UNL     1     -12.066  41.766 -21.440  1.00  0.00     0.210 HD
ENDBRANCH  28  36
ENDBRANCH  22  23
ENDBRANCH  12  22
BRANCH  10  38
HETATM   38  C20 UNL     1      -9.765  46.718 -24.851  1.00  0.00     0.151 C 
HETATM   39  O1  UNL     1     -10.382  47.753 -25.064  1.00  0.00    -0.649 OA
BRANCH  38  40
HETATM   40  O2  UNL     1      -9.699  45.783 -25.816  1.00  0.00    -0.776 OA
HETATM   41  H31 UNL     1     -10.229  46.146 -26.558  1.00  0.00     0.167 HD
ENDBRANCH  38  40
ENDBRANCH  10  38
BRANCH   1  42
HETATM   42  C7  UNL     1      -0.672  50.283 -20.948  1.00  0.00     0.021 C 
HETATM   43  C8  UNL     1      -0.437  48.780 -20.651  1.00  0.00     0.013 C 
BRANCH  42  44
HETATM   44  C5  UNL     1      -0.579  51.089 -19.574  1.00  0.00     0.074 C 
HETATM   45  C4  UNL     1       0.459  52.239 -19.682  1.00  0.00     0.066 C 
HETATM   46  C3  UNL     1       0.921  52.696 -18.335  1.00  0.00    -0.011 C 
HETATM   47  C2  UNL     1       0.829  51.914 -17.248  1.00  0.00     0.010 C 
HETATM   48  C1  UNL     1       1.277  52.348 -15.886  1.00  0.00     0.054 C 
HETATM   49  C37 UNL     1       0.319  50.522 -17.354  1.00  0.00     0.289 C 
HETATM   50  O9  UNL     1      -0.173  50.134 -18.556  1.00  0.00    -0.306 OA
HETATM   51  O10 UNL     1       0.367  49.752 -16.403  1.00  0.00    -0.260 OA
HETATM   52  C6  UNL     1      -1.912  51.705 -19.109  1.00  0.00     0.047 C 
ENDBRANCH  42  44
ENDBRANCH   1  42
TORSDOF 11
ENDMDL
MODEL 7
REMARK minimizedAffinity -9.12610435
REMARK CNNscore 0.335524857
REMARK CNNaffinity 6.22938299
REMARK  11 active torsions:
REMARK  status: ('A' for Active; 'I' for Inactive)
REMARK    1  A    between atoms: C5_5  and  C7_7 
REMARK    2  A    between atoms: C7_7  and  C9_9 
REMARK    3  A    between atoms: C18_18  and  C20_20 
REMARK    4  A    between atoms: C20_20  and  O2_22 
REMARK    5  A    between atoms: C21_23  and  O3_24 
REMARK    6  A    between atoms: O3_24  and  C22_25 
REMARK    7  A    between atoms: C23_27  and  C24_28 
REMARK    8  A    between atoms: C24_28  and  O5_29 
REMARK    9  A    between atoms: C25_30  and  O6_31 
REMARK   10  A    between atoms: C26_32  and  O7_33 
REMARK   11  A    between atoms: C27_34  and  O8_35 
ROOT
HETATM    1  C9  UNL     1     -15.010  44.760 -23.421  1.00  0.00     0.001 C 
HETATM    2  C10 UNL     1     -15.408  43.447 -24.155  1.00  0.00     0.007 C 
HETATM    3  C11 UNL     1     -14.650  43.383 -25.489  1.00  0.00     0.011 C 
HETATM    4  C12 UNL     1     -13.603  44.503 -25.410  1.00  0.00    -0.032 C 
HETATM    5  C13 UNL     1     -12.364  43.926 -24.658  1.00  0.00     0.016 C 
HETATM    6  C14 UNL     1     -13.182  45.057 -26.796  1.00  0.00     0.004 C 
HETATM    7  C15 UNL     1     -12.363  44.068 -27.636  1.00  0.00     0.007 C 
HETATM    8  C16 UNL     1     -11.951  44.680 -28.973  1.00  0.00     0.007 C 
HETATM    9  C17 UNL     1     -10.933  45.804 -28.720  1.00  0.00     0.016 C 
HETATM   10  C18 UNL     1     -10.303  46.440 -29.998  1.00  0.00     0.072 C 
HETATM   11  C19 UNL     1     -11.345  47.228 -30.822  1.00  0.00     0.030 C 
HETATM   12  C21 UNL     1      -9.087  47.341 -29.578  1.00  0.00     0.143 C 
HETATM   13  C28 UNL     1      -9.095  47.745 -28.094  1.00  0.00     0.034 C 
HETATM   14  C29 UNL     1     -10.491  48.049 -27.568  1.00  0.00     0.013 C 
HETATM   15  C30 UNL     1     -11.475  46.895 -27.781  1.00  0.00    -0.027 A 
HETATM   16  C31 UNL     1     -12.908  47.370 -27.841  1.00  0.00     0.021 A 
HETATM   17  C32 UNL     1     -12.515  46.455 -26.701  1.00  0.00    -0.027 A 
HETATM   18  C33 UNL     1     -12.362  47.068 -25.310  1.00  0.00     0.011 C 
HETATM   19  C34 UNL     1     -13.394  46.701 -24.227  1.00  0.00     0.011 C 
HETATM   20  C35 UNL     1     -14.394  45.602 -24.609  1.00  0.00    -0.032 C 
HETATM   21  C36 UNL     1     -15.548  46.253 -25.433  1.00  0.00     0.016 C 
ENDROOT
BRANCH  12  22
HETATM   22  O3  UNL     1      -9.044  48.539 -30.371  1.00  0.00    -0.352 OA
BRANCH  22  23
HETATM   23  C22 UNL     1      -7.980  48.534 -31.331  1.00  0.00     0.292 C 
HETATM   24  O4  UNL     1      -8.396  47.776 -32.469  1.00  0.00    -0.348 OA
HETATM   25  C23 UNL     1      -7.400  47.725 -33.495  1.00  0.00     0.179 C 
HETATM   26  C25 UNL     1      -6.165  46.977 -32.973  1.00  0.00     0.180 C 
HETATM   27  C26 UNL     1      -5.634  47.689 -31.727  1.00  0.00     0.183 C 
HETATM   28  C27 UNL     1      -6.731  47.900 -30.678  1.00  0.00     0.204 C 
BRANCH  25  29
HETATM   29  C24 UNL     1      -7.992  47.031 -34.729  1.00  0.00     0.198 C 
BRANCH  29  30
HETATM   30  O5  UNL     1      -8.369  47.963 -35.736  1.00  0.00    -0.398 OA
HETATM   31  H37 UNL     1      -7.645  48.622 -35.804  1.00  0.00     0.209 HD
ENDBRANCH  29  30
ENDBRANCH  25  29
BRANCH  26  32
HETATM   32  O6  UNL     1      -5.137  46.911 -33.969  1.00  0.00    -0.390 OA
HETATM   33  H39 UNL     1      -4.298  46.746 -33.488  1.00  0.00     0.210 HD
ENDBRANCH  26  32
BRANCH  27  34
HETATM   34  O7  UNL     1      -4.542  46.936 -31.165  1.00  0.00    -0.390 OA
HETATM   35  H41 UNL     1      -4.882  46.071 -30.867  1.00  0.00     0.210 HD
ENDBRANCH  27  34
BRANCH  28  36
HETATM   36  O8  UNL     1      -6.204  48.734 -29.634  1.00  0.00    -0.388 OA
HETATM   37  H43 UNL     1      -5.322  48.380 -29.408  1.00  0.00     0.210 HD
ENDBRANCH  28  36
ENDBRANCH  22  23
ENDBRANCH  12  22
BRANCH  10  38
HETATM   38  C20 UNL     1      -9.713  45.306 -30.838  1.00  0.00     0.151 C 
HETATM   39  O1  UNL     1      -8.999  44.403 -30.425  1.00  0.00    -0.649 OA
BRANCH  38  40
HETATM   40  O2  UNL     1     -10.079  45.312 -32.133  1.00  0.00    -0.776 OA
HETATM   41  H31 UNL     1      -9.637  44.529 -32.525  1.00  0.00     0.167 HD
ENDBRANCH  38  40
ENDBRANCH  10  38
BRANCH   1  42
HETATM   42  C7  UNL     1     -16.153  45.382 -22.523  1.00  0.00     0.021 C 
HETATM   43  C8  UNL     1     -16.814  46.553 -23.294  1.00  0.00     0.013 C 
BRANCH  42  44
HETATM   44  C5  UNL     1     -15.708  45.912 -21.085  1.00  0.00     0.074 C 
HETATM   45  C4  UNL     1     -16.949  46.240 -20.213  1.00  0.00     0.066 C 
HETATM   46  C3  UNL     1     -16.605  47.160 -19.084  1.00  0.00    -0.011 C 
HETATM   47  C2  UNL     1     -15.523  47.954 -19.118  1.00  0.00     0.010 C 
HETATM   48  C1  UNL     1     -15.151  48.879 -18.000  1.00  0.00     0.054 C 
HETATM   49  C37 UNL     1     -14.650  47.998 -20.320  1.00  0.00     0.289 C 
HETATM   50  O9  UNL     1     -14.915  47.109 -21.309  1.00  0.00    -0.306 OA
HETATM   51  O10 UNL     1     -13.749  48.821 -20.422  1.00  0.00    -0.260 OA
HETATM   52  C6  UNL     1     -14.827  44.928 -20.293  1.00  0.00     0.047 C 
ENDBRANCH  42  44
ENDBRANCH   1  42
TORSDOF 11
ENDMDL
MODEL 8
REMARK minimizedAffinity -9.50697327
REMARK CNNscore 0.322567582
REMARK CNNaffinity 6.17446709
REMARK  11 active torsions:
REMARK  status: ('A' for Active; 'I' for Inactive)
REMARK    1  A    between atoms: C5_5  and  C7_7 
REMARK    2  A    between atoms: C7_7  and  C9_9 
REMARK    3  A    between atoms: C18_18  and  C20_20 
REMARK    4  A    between atoms: C20_20  and  O2_22 
REMARK    5  A    between atoms: C21_23  and  O3_24 
REMARK    6  A    between atoms: O3_24  and  C22_25 
REMARK    7  A    between atoms: C23_27  and  C24_28 
REMARK    8  A    between atoms: C24_28  and  O5_29 
REMARK    9  A    between atoms: C25_30  and  O6_31 
REMARK   10  A    between atoms: C26_32  and  O7_33 
REMARK   11  A    between atoms: C27_34  and  O8_35 
ROOT
HETATM    1  C9  UNL     1      -9.437  46.584 -30.000  1.00  0.00     0.001 C 
HETATM    2  C10 UNL     1     -10.249  46.071 -31.225  1.00  0.00     0.007 C 
HETATM    3  C11 UNL     1     -11.676  45.741 -30.761  1.00  0.00     0.011 C 
HETATM    4  C12 UNL     1     -11.783  46.322 -29.345  1.00  0.00    -0.032 C 
HETATM    5  C13 UNL     1     -12.161  47.829 -29.490  1.00  0.00     0.016 C 
HETATM    6  C14 UNL     1     -12.819  45.591 -28.451  1.00  0.00     0.004 C 
HETATM    7  C15 UNL     1     -14.276  45.817 -28.879  1.00  0.00     0.007 C 
HETATM    8  C16 UNL     1     -15.249  45.101 -27.945  1.00  0.00     0.007 C 
HETATM    9  C17 UNL     1     -15.211  45.776 -26.564  1.00  0.00     0.016 C 
HETATM   10  C18 UNL     1     -16.256  45.250 -25.531  1.00  0.00     0.072 C 
HETATM   11  C19 UNL     1     -15.961  43.795 -25.105  1.00  0.00     0.030 C 
HETATM   12  C21 UNL     1     -16.294  46.224 -24.299  1.00  0.00     0.143 C 
HETATM   13  C28 UNL     1     -15.055  47.126 -24.179  1.00  0.00     0.034 C 
HETATM   14  C29 UNL     1     -13.762  46.413 -24.550  1.00  0.00     0.013 C 
HETATM   15  C30 UNL     1     -13.801  45.795 -25.951  1.00  0.00    -0.027 A 
HETATM   16  C31 UNL     1     -12.848  44.629 -26.087  1.00  0.00     0.021 A 
HETATM   17  C32 UNL     1     -12.592  45.854 -26.939  1.00  0.00    -0.027 A 
HETATM   18  C33 UNL     1     -11.431  46.768 -26.551  1.00  0.00     0.011 C 
HETATM   19  C34 UNL     1     -10.198  46.821 -27.471  1.00  0.00     0.011 C 
HETATM   20  C35 UNL     1     -10.329  46.067 -28.801  1.00  0.00    -0.032 C 
HETATM   21  C36 UNL     1     -10.023  44.559 -28.543  1.00  0.00     0.016 C 
ENDROOT
BRANCH  12  22
HETATM   22  O3  UNL     1     -16.437  45.487 -23.073  1.00  0.00    -0.352 OA
BRANCH  22  23
HETATM   23  C22 UNL     1     -17.566  45.908 -22.298  1.00  0.00     0.292 C 
HETATM   24  O4  UNL     1     -17.091  46.479 -21.076  1.00  0.00    -0.348 OA
HETATM   25  C23 UNL     1     -18.150  46.946 -20.235  1.00  0.00     0.179 C 
HETATM   26  C25 UNL     1     -19.011  45.755 -19.787  1.00  0.00     0.180 C 
HETATM   27  C26 UNL     1     -19.564  45.040 -21.022  1.00  0.00     0.183 C 
HETATM   28  C27 UNL     1     -18.456  44.677 -22.016  1.00  0.00     0.204 C 
BRANCH  25  29
HETATM   29  C24 UNL     1     -17.543  47.679 -19.031  1.00  0.00     0.198 C 
BRANCH  29  30
HETATM   30  O5  UNL     1     -16.213  47.252 -18.761  1.00  0.00    -0.398 OA
HETATM   31  H37 UNL     1     -15.749  47.191 -19.625  1.00  0.00     0.209 HD
ENDBRANCH  29  30
ENDBRANCH  25  29
BRANCH  26  32
HETATM   32  O6  UNL     1     -20.091  46.180 -18.948  1.00  0.00    -0.390 OA
HETATM   33  H39 UNL     1     -20.766  45.468 -18.984  1.00  0.00     0.210 HD
ENDBRANCH  26  32
BRANCH  27  34
HETATM   34  O7  UNL     1     -20.283  43.859 -20.618  1.00  0.00    -0.390 OA
HETATM   35  H41 UNL     1     -19.655  43.242 -20.199  1.00  0.00     0.210 HD
ENDBRANCH  27  34
BRANCH  28  36
HETATM   36  O8  UNL     1     -19.071  44.188 -23.219  1.00  0.00    -0.388 OA
HETATM   37  H43 UNL     1     -19.761  43.553 -22.945  1.00  0.00     0.210 HD
ENDBRANCH  28  36
ENDBRANCH  22  23
ENDBRANCH  12  22
BRANCH  10  38
HETATM   38  C20 UNL     1     -17.637  45.342 -26.181  1.00  0.00     0.151 C 
HETATM   39  O1  UNL     1     -18.032  44.674 -27.127  1.00  0.00    -0.649 OA
BRANCH  38  40
HETATM   40  O2  UNL     1     -18.480  46.213 -25.596  1.00  0.00    -0.776 OA
HETATM   41  H31 UNL     1     -19.312  46.147 -26.112  1.00  0.00     0.167 HD
ENDBRANCH  38  40
ENDBRANCH  10  38
BRANCH   1  42
HETATM   42  C7  UNL     1      -7.896  46.236 -30.043  1.00  0.00     0.021 C 
HETATM   43  C8  UNL     1      -7.213  46.831 -28.786  1.00  0.00     0.013 C 
BRANCH  42  44
HETATM   44  C5  UNL     1      -7.098  46.733 -31.333  1.00  0.00     0.074 C 
HETATM   45  C4  UNL     1      -6.355  45.550 -32.009  1.00  0.00     0.066 C 
HETATM   46  C3  UNL     1      -5.248  46.025 -32.896  1.00  0.00    -0.011 C 
HETATM   47  C2  UNL     1      -4.682  47.233 -32.742  1.00  0.00     0.010 C 
HETATM   48  C1  UNL     1      -3.577  47.736 -33.620  1.00  0.00     0.054 C 
HETATM   49  C37 UNL     1      -5.093  48.129 -31.631  1.00  0.00     0.289 C 
HETATM   50  O9  UNL     1      -6.148  47.734 -30.876  1.00  0.00    -0.306 OA
HETATM   51  O10 UNL     1      -4.486  49.165 -31.391  1.00  0.00    -0.260 OA
HETATM   52  C6  UNL     1      -7.979  47.405 -32.403  1.00  0.00     0.047 C 
ENDBRANCH  42  44
ENDBRANCH   1  42
TORSDOF 11
ENDMDL
MODEL 9
REMARK minimizedAffinity -10.1073265
REMARK CNNscore 0.29259485
REMARK CNNaffinity 7.05015373
REMARK  11 active torsions:
REMARK  status: ('A' for Active; 'I' for Inactive)
REMARK    1  A    between atoms: C5_5  and  C7_7 
REMARK    2  A    between atoms: C7_7  and  C9_9 
REMARK    3  A    between atoms: C18_18  and  C20_20 
REMARK    4  A    between atoms: C20_20  and  O2_22 
REMARK    5  A    between atoms: C21_23  and  O3_24 
REMARK    6  A    between atoms: O3_24  and  C22_25 
REMARK    7  A    between atoms: C23_27  and  C24_28 
REMARK    8  A    between atoms: C24_28  and  O5_29 
REMARK    9  A    between atoms: C25_30  and  O6_31 
REMARK   10  A    between atoms: C26_32  and  O7_33 
REMARK   11  A    between atoms: C27_34  and  O8_35 
ROOT
HETATM    1  C9  UNL     1      -4.097  50.488 -24.254  1.00  0.00     0.001 C 
HETATM    2  C10 UNL     1      -5.505  50.025 -23.781  1.00  0.00     0.007 C 
HETATM    3  C11 UNL     1      -5.468  49.824 -22.259  1.00  0.00     0.011 C 
HETATM    4  C12 UNL     1      -4.136  50.435 -21.805  1.00  0.00    -0.032 C 
HETATM    5  C13 UNL     1      -4.370  51.966 -21.613  1.00  0.00     0.016 C 
HETATM    6  C14 UNL     1      -3.578  49.809 -20.500  1.00  0.00     0.004 C 
HETATM    7  C15 UNL     1      -4.399  50.150 -19.249  1.00  0.00     0.007 C 
HETATM    8  C16 UNL     1      -3.786  49.533 -17.994  1.00  0.00     0.007 C 
HETATM    9  C17 UNL     1      -2.446  50.226 -17.696  1.00  0.00     0.016 C 
HETATM   10  C18 UNL     1      -1.755  49.807 -16.361  1.00  0.00     0.072 C 
HETATM   11  C19 UNL     1      -1.274  48.339 -16.398  1.00  0.00     0.030 C 
HETATM   12  C21 UNL     1      -0.577  50.801 -16.058  1.00  0.00     0.143 C 
HETATM   13  C28 UNL     1      -0.103  51.597 -17.285  1.00  0.00     0.034 C 
HETATM   14  C29 UNL     1      -0.098  50.772 -18.564  1.00  0.00     0.013 C 
HETATM   15  C30 UNL     1      -1.457  50.136 -18.871  1.00  0.00    -0.027 A 
HETATM   16  C31 UNL     1      -1.327  48.892 -19.720  1.00  0.00     0.021 A 
HETATM   17  C32 UNL     1      -2.062  50.077 -20.311  1.00  0.00    -0.027 A 
HETATM   18  C33 UNL     1      -1.353  50.896 -21.388  1.00  0.00     0.011 C 
HETATM   19  C34 UNL     1      -1.885  50.830 -22.831  1.00  0.00     0.011 C 
HETATM   20  C35 UNL     1      -3.204  50.068 -23.018  1.00  0.00    -0.032 C 
HETATM   21  C36 UNL     1      -2.882  48.544 -23.109  1.00  0.00     0.016 C 
ENDROOT
BRANCH  12  22
HETATM   22  O3  UNL     1       0.552  50.099 -15.512  1.00  0.00    -0.352 OA
BRANCH  22  23
HETATM   23  C22 UNL     1       1.263  50.864 -14.531  1.00  0.00     0.292 C 
HETATM   24  O4  UNL     1       2.338  50.068 -14.025  1.00  0.00    -0.348 OA
HETATM   25  C23 UNL     1       3.121  50.755 -13.044  1.00  0.00     0.179 C 
HETATM   26  C25 UNL     1       2.254  51.048 -11.811  1.00  0.00     0.180 C 
HETATM   27  C26 UNL     1       1.045  51.885 -12.232  1.00  0.00     0.183 C 
HETATM   28  C27 UNL     1       0.284  51.244 -13.398  1.00  0.00     0.204 C 
BRANCH  25  29
HETATM   29  C24 UNL     1       4.334  49.888 -12.680  1.00  0.00     0.198 C 
BRANCH  29  30
HETATM   30  O5  UNL     1       5.088  49.515 -13.827  1.00  0.00    -0.398 OA
HETATM   31  H37 UNL     1       5.167  50.314 -14.393  1.00  0.00     0.209 HD
ENDBRANCH  29  30
ENDBRANCH  25  29
BRANCH  26  32
HETATM   32  O6  UNL     1       2.999  51.745 -10.805  1.00  0.00    -0.390 OA
HETATM   33  H39 UNL     1       2.339  52.188 -10.230  1.00  0.00     0.210 HD
ENDBRANCH  26  32
BRANCH  27  34
HETATM   34  O7  UNL     1       0.168  52.075 -11.105  1.00  0.00    -0.390 OA
HETATM   35  H41 UNL     1      -0.178  51.205 -10.832  1.00  0.00     0.210 HD
ENDBRANCH  27  34
BRANCH  28  36
HETATM   36  O8  UNL     1      -0.711  52.174 -13.854  1.00  0.00    -0.388 OA
HETATM   37  H43 UNL     1      -1.161  52.519 -13.059  1.00  0.00     0.210 HD
ENDBRANCH  28  36
ENDBRANCH  22  23
ENDBRANCH  12  22
BRANCH  10  38
HETATM   38  C20 UNL     1      -2.769  50.003 -15.233  1.00  0.00     0.151 C 
HETATM   39  O1  UNL     1      -3.194  51.076 -14.828  1.00  0.00    -0.649 OA
BRANCH  38  40
HETATM   40  O2  UNL     1      -3.249  48.865 -14.700  1.00  0.00    -0.776 OA
HETATM   41  H31 UNL     1      -3.886  49.155 -14.012  1.00  0.00     0.167 HD
ENDBRANCH  38  40
ENDBRANCH  10  38
BRANCH   1  42
HETATM   42  C7  UNL     1      -3.703  50.011 -25.709  1.00  0.00     0.021 C 
HETATM   43  C8  UNL     1      -3.463  48.481 -25.686  1.00  0.00     0.013 C 
BRANCH  42  44
HETATM   44  C5  UNL     1      -2.425  50.713 -26.357  1.00  0.00     0.074 C 
HETATM   45  C4  UNL     1      -1.181  49.791 -26.256  1.00  0.00     0.066 C 
HETATM   46  C3  UNL     1       0.093  50.561 -26.400  1.00  0.00    -0.011 C 
HETATM   47  C2  UNL     1       0.158  51.880 -26.160  1.00  0.00     0.010 C 
HETATM   48  C1  UNL     1       1.419  52.677 -26.303  1.00  0.00     0.054 C 
HETATM   49  C37 UNL     1      -1.032  52.623 -25.672  1.00  0.00     0.289 C 
HETATM   50  O9  UNL     1      -2.205  51.944 -25.616  1.00  0.00    -0.306 OA
HETATM   51  O10 UNL     1      -0.950  53.790 -25.309  1.00  0.00    -0.260 OA
HETATM   52  C6  UNL     1      -2.599  51.103 -27.837  1.00  0.00     0.047 C 
ENDBRANCH  42  44
ENDBRANCH   1  42
TORSDOF 11
ENDMDL
