MODEL 1
REMARK minimizedAffinity -9.20328236
REMARK CNNscore 0.594024241
REMARK CNNaffinity 7.03901529
REMARK  14 active torsions:
REMARK  status: ('A' for Active; 'I' for Inactive)
REMARK    1  A    between atoms: C19_20  and  O2_21 
REMARK    2  A    between atoms: C19_20  and  C20_22 
REMARK    3  A    between atoms: C20_22  and  C21_24 
REMARK    4  A    between atoms: C21_24  and  O4_25 
REMARK    5  A    between atoms: O4_25  and  C22_26 
REMARK    6  A    between atoms: C22_26  and  C23_28 
REMARK    7  A    between atoms: C23_28  and  C24_29 
REMARK    8  A    between atoms: C24_29  and  C25_30 
REMARK       I    between atoms: C25_30  and  N1_32 
REMARK    9  A    between atoms: N1_32  and  C26_33 
REMARK   10  A    between atoms: C26_33  and  C27_34 
REMARK   11  A    between atoms: C27_34  and  C28_35 
REMARK   12  A    between atoms: C27_34  and  C30_39 
REMARK   13  A    between atoms: C28_35  and  C29_36 
REMARK   14  A    between atoms: C29_36  and  O8_38 
ROOT
HETATM    1  C20 UNL     1      -5.793  47.764 -30.639  1.00  0.00     0.185 C 
HETATM    2  O3  UNL     1      -5.287  46.906 -31.374  1.00  0.00    -0.292 OA
ENDROOT
BRANCH   1   3
HETATM    3  C19 UNL     1      -7.339  47.877 -30.582  1.00  0.00     0.128 C 
HETATM    4  C14 UNL     1      -8.127  46.992 -29.565  1.00  0.00    -0.002 C 
HETATM    5  C13 UNL     1      -8.007  47.390 -28.084  1.00  0.00     0.013 C 
HETATM    6  C15 UNL     1      -7.796  45.487 -29.716  1.00  0.00     0.019 C 
HETATM    7  C16 UNL     1      -9.578  47.323 -30.016  1.00  0.00     0.002 C 
HETATM    8  C12 UNL     1      -9.064  46.685 -27.215  1.00  0.00     0.007 C 
HETATM    9  C11 UNL     1     -10.517  46.899 -27.722  1.00  0.00     0.002 C 
HETATM   10  C2  UNL     1     -11.617  46.205 -26.830  1.00  0.00    -0.016 C 
HETATM   11  C10 UNL     1     -10.656  46.556 -29.239  1.00  0.00    -0.004 C 
HETATM   12  C1  UNL     1     -11.391  44.681 -26.716  1.00  0.00     0.020 C 
HETATM   13  C3  UNL     1     -11.556  46.830 -25.404  1.00  0.00     0.022 C 
HETATM   14  C7  UNL     1     -13.000  46.443 -27.452  1.00  0.00    -0.068 C 
HETATM   15  C4  UNL     1     -12.794  46.558 -24.560  1.00  0.00     0.084 C 
HETATM   16  C5  UNL     1     -14.027  47.029 -25.285  1.00  0.00     0.149 C 
HETATM   17  O1  UNL     1     -14.997  47.498 -24.700  1.00  0.00    -0.293 OA
HETATM   18  C6  UNL     1     -14.077  46.849 -26.752  1.00  0.00     0.053 C 
HETATM   19  C8  UNL     1     -13.132  46.179 -28.933  1.00  0.00     0.035 C 
HETATM   20  C9  UNL     1     -12.063  46.913 -29.735  1.00  0.00     0.010 C 
HETATM   21  C17 UNL     1      -9.512  47.173 -31.534  1.00  0.00     0.009 C 
HETATM   22  C18 UNL     1      -8.093  47.656 -31.914  1.00  0.00     0.047 C 
BRANCH   3  23
HETATM   23  O2  UNL     1      -7.593  49.265 -30.228  1.00  0.00    -0.381 OA
HETATM   24  H27 UNL     1      -6.757  49.757 -30.379  1.00  0.00     0.211 HD
ENDBRANCH   3  23
ENDBRANCH   1   3
BRANCH   1  25
HETATM   25  C21 UNL     1      -4.881  48.683 -29.833  1.00  0.00     0.260 C 
BRANCH  25  26
HETATM   26  O4  UNL     1      -4.553  48.267 -28.514  1.00  0.00    -0.314 OA
BRANCH  26  27
HETATM   27  C22 UNL     1      -3.627  49.050 -27.888  1.00  0.00     0.259 C 
HETATM   28  O5  UNL     1      -3.283  50.155 -28.272  1.00  0.00    -0.265 OA
BRANCH  27  29
HETATM   29  C23 UNL     1      -3.126  48.379 -26.635  1.00  0.00     0.120 C 
BRANCH  29  30
HETATM   30  C24 UNL     1      -3.832  48.972 -25.425  1.00  0.00     0.112 C 
BRANCH  30  31
HETATM   31  C25 UNL     1      -2.961  49.986 -24.707  1.00  0.00     0.218 C 
HETATM   32  O6  UNL     1      -2.354  49.734 -23.674  1.00  0.00    -0.274 OA
HETATM   33  N1  UNL     1      -2.980  51.230 -25.301  1.00  0.00    -0.360 N 
HETATM   34  H34 UNL     1      -3.344  51.301 -26.243  1.00  0.00     0.162 HD
BRANCH  33  35
HETATM   35  C26 UNL     1      -2.061  52.279 -24.884  1.00  0.00     0.132 C 
BRANCH  35  36
HETATM   36  C27 UNL     1      -0.641  51.741 -24.571  1.00  0.00     0.046 C 
BRANCH  36  37
HETATM   37  C28 UNL     1       0.050  52.562 -23.470  1.00  0.00     0.120 C 
BRANCH  37  38
HETATM   38  C29 UNL     1      -0.150  51.984 -22.095  1.00  0.00     0.140 C 
HETATM   39  O7  UNL     1       0.697  51.742 -21.254  1.00  0.00    -0.650 OA
BRANCH  38  40
HETATM   40  O8  UNL     1      -1.451  51.740 -21.841  1.00  0.00    -0.776 OA
HETATM   41  H40 UNL     1      -1.450  51.390 -20.926  1.00  0.00     0.167 HD
ENDBRANCH  38  40
ENDBRANCH  37  38
ENDBRANCH  36  37
BRANCH  36  42
HETATM   42  C30 UNL     1       0.232  51.711 -25.825  1.00  0.00    -0.052 A 
HETATM   43  C31 UNL     1       1.635  51.691 -25.756  1.00  0.00     0.007 A 
HETATM   44  C32 UNL     1       2.403  51.693 -26.922  1.00  0.00     0.001 A 
HETATM   45  C33 UNL     1       1.782  51.709 -28.171  1.00  0.00     0.000 A 
HETATM   46  C34 UNL     1       0.393  51.719 -28.253  1.00  0.00     0.001 A 
HETATM   47  C35 UNL     1      -0.379  51.722 -27.089  1.00  0.00     0.007 A 
ENDBRANCH  36  42
ENDBRANCH  35  36
ENDBRANCH  33  35
ENDBRANCH  30  31
ENDBRANCH  29  30
ENDBRANCH  27  29
ENDBRANCH  26  27
ENDBRANCH  25  26
ENDBRANCH   1  25
TORSDOF 14
ENDMDL
MODEL 2
REMARK minimizedAffinity -8.66003609
REMARK CNNscore 0.533779442
REMARK CNNaffinity 6.67189026
REMARK  14 active torsions:
REMARK  status: ('A' for Active; 'I' for Inactive)
REMARK    1  A    between atoms: C19_20  and  O2_21 
REMARK    2  A    between atoms: C19_20  and  C20_22 
REMARK    3  A    between atoms: C20_22  and  C21_24 
REMARK    4  A    between atoms: C21_24  and  O4_25 
REMARK    5  A    between atoms: O4_25  and  C22_26 
REMARK    6  A    between atoms: C22_26  and  C23_28 
REMARK    7  A    between atoms: C23_28  and  C24_29 
REMARK    8  A    between atoms: C24_29  and  C25_30 
REMARK       I    between atoms: C25_30  and  N1_32 
REMARK    9  A    between atoms: N1_32  and  C26_33 
REMARK   10  A    between atoms: C26_33  and  C27_34 
REMARK   11  A    between atoms: C27_34  and  C28_35 
REMARK   12  A    between atoms: C27_34  and  C30_39 
REMARK   13  A    between atoms: C28_35  and  C29_36 
REMARK   14  A    between atoms: C29_36  and  O8_38 
ROOT
HETATM    1  C20 UNL     1       0.317  50.606 -14.558  1.00  0.00     0.185 C 
HETATM    2  O3  UNL     1      -0.356  49.597 -14.310  1.00  0.00    -0.292 OA
ENDROOT
BRANCH   1   3
HETATM    3  C19 UNL     1       0.204  51.828 -13.611  1.00  0.00     0.128 C 
HETATM    4  C14 UNL     1       1.059  51.858 -12.305  1.00  0.00    -0.002 C 
HETATM    5  C13 UNL     1       2.568  52.092 -12.487  1.00  0.00     0.013 C 
HETATM    6  C15 UNL     1       0.842  50.598 -11.432  1.00  0.00     0.019 C 
HETATM    7  C16 UNL     1       0.469  53.137 -11.647  1.00  0.00     0.002 C 
HETATM    8  C12 UNL     1       3.258  52.437 -11.154  1.00  0.00     0.007 C 
HETATM    9  C11 UNL     1       2.604  53.636 -10.417  1.00  0.00     0.002 C 
HETATM   10  C2  UNL     1       3.313  54.020  -9.061  1.00  0.00    -0.016 C 
HETATM   11  C10 UNL     1       1.061  53.451 -10.267  1.00  0.00    -0.004 C 
HETATM   12  C1  UNL     1       3.345  52.836  -8.070  1.00  0.00     0.020 C 
HETATM   13  C3  UNL     1       4.777  54.450  -9.379  1.00  0.00     0.022 C 
HETATM   14  C7  UNL     1       2.554  55.180  -8.401  1.00  0.00    -0.068 C 
HETATM   15  C4  UNL     1       5.452  55.217  -8.249  1.00  0.00     0.084 C 
HETATM   16  C5  UNL     1       4.624  56.418  -7.875  1.00  0.00     0.149 C 
HETATM   17  O1  UNL     1       5.125  57.474  -7.503  1.00  0.00    -0.293 OA
HETATM   18  C6  UNL     1       3.152  56.278  -7.898  1.00  0.00     0.053 C 
HETATM   19  C8  UNL     1       1.053  55.044  -8.310  1.00  0.00     0.035 C 
HETATM   20  C9  UNL     1       0.432  54.713  -9.663  1.00  0.00     0.010 C 
HETATM   21  C17 UNL     1      -1.038  52.929 -11.776  1.00  0.00     0.009 C 
HETATM   22  C18 UNL     1      -1.218  52.187 -13.121  1.00  0.00     0.047 C 
BRANCH   3  23
HETATM   23  O2  UNL     1       0.623  52.961 -14.422  1.00  0.00    -0.381 OA
HETATM   24  H27 UNL     1       0.604  52.666 -15.358  1.00  0.00     0.211 HD
ENDBRANCH   3  23
ENDBRANCH   1   3
BRANCH   1  25
HETATM   25  C21 UNL     1       1.218  50.612 -15.790  1.00  0.00     0.260 C 
BRANCH  25  26
HETATM   26  O4  UNL     1       0.871  51.509 -16.836  1.00  0.00    -0.314 OA
BRANCH  26  27
HETATM   27  C22 UNL     1       0.092  50.963 -17.814  1.00  0.00     0.259 C 
HETATM   28  O5  UNL     1      -0.269  49.798 -17.840  1.00  0.00    -0.265 OA
BRANCH  27  29
HETATM   29  C23 UNL     1      -0.297  52.008 -18.827  1.00  0.00     0.120 C 
BRANCH  29  30
HETATM   30  C24 UNL     1       0.840  53.006 -18.989  1.00  0.00     0.112 C 
BRANCH  30  31
HETATM   31  C25 UNL     1       0.969  53.484 -20.422  1.00  0.00     0.218 C 
HETATM   32  O6  UNL     1       1.524  54.531 -20.731  1.00  0.00    -0.274 OA
HETATM   33  N1  UNL     1       0.342  52.654 -21.327  1.00  0.00    -0.360 N 
HETATM   34  H34 UNL     1       0.080  51.726 -21.017  1.00  0.00     0.162 HD
BRANCH  33  35
HETATM   35  C26 UNL     1       0.518  52.829 -22.761  1.00  0.00     0.132 C 
BRANCH  35  36
HETATM   36  C27 UNL     1      -0.580  52.115 -23.590  1.00  0.00     0.046 C 
BRANCH  36  37
HETATM   37  C28 UNL     1      -0.991  50.775 -22.959  1.00  0.00     0.120 C 
BRANCH  37  38
HETATM   38  C29 UNL     1      -2.450  50.459 -23.151  1.00  0.00     0.140 C 
HETATM   39  O7  UNL     1      -3.409  51.166 -22.900  1.00  0.00    -0.650 OA
BRANCH  38  40
HETATM   40  O8  UNL     1      -2.629  49.229 -23.674  1.00  0.00    -0.776 OA
HETATM   41  H40 UNL     1      -3.601  49.153 -23.766  1.00  0.00     0.167 HD
ENDBRANCH  38  40
ENDBRANCH  37  38
ENDBRANCH  36  37
BRANCH  36  42
HETATM   42  C30 UNL     1      -0.133  51.896 -25.035  1.00  0.00    -0.052 A 
HETATM   43  C31 UNL     1       1.215  51.697 -25.375  1.00  0.00     0.007 A 
HETATM   44  C32 UNL     1       1.592  51.528 -26.709  1.00  0.00     0.001 A 
HETATM   45  C33 UNL     1       0.631  51.549 -27.718  1.00  0.00     0.000 A 
HETATM   46  C34 UNL     1      -0.710  51.734 -27.393  1.00  0.00     0.001 A 
HETATM   47  C35 UNL     1      -1.092  51.909 -26.061  1.00  0.00     0.007 A 
ENDBRANCH  36  42
ENDBRANCH  35  36
ENDBRANCH  33  35
ENDBRANCH  30  31
ENDBRANCH  29  30
ENDBRANCH  27  29
ENDBRANCH  26  27
ENDBRANCH  25  26
ENDBRANCH   1  25
TORSDOF 14
ENDMDL
MODEL 3
REMARK minimizedAffinity -9.08620358
REMARK CNNscore 0.481608152
REMARK CNNaffinity 6.16108561
REMARK  14 active torsions:
REMARK  status: ('A' for Active; 'I' for Inactive)
REMARK    1  A    between atoms: C19_20  and  O2_21 
REMARK    2  A    between atoms: C19_20  and  C20_22 
REMARK    3  A    between atoms: C20_22  and  C21_24 
REMARK    4  A    between atoms: C21_24  and  O4_25 
REMARK    5  A    between atoms: O4_25  and  C22_26 
REMARK    6  A    between atoms: C22_26  and  C23_28 
REMARK    7  A    between atoms: C23_28  and  C24_29 
REMARK    8  A    between atoms: C24_29  and  C25_30 
REMARK       I    between atoms: C25_30  and  N1_32 
REMARK    9  A    between atoms: N1_32  and  C26_33 
REMARK   10  A    between atoms: C26_33  and  C27_34 
REMARK   11  A    between atoms: C27_34  and  C28_35 
REMARK   12  A    between atoms: C27_34  and  C30_39 
REMARK   13  A    between atoms: C28_35  and  C29_36 
REMARK   14  A    between atoms: C29_36  and  O8_38 
ROOT
HETATM    1  C20 UNL     1      -7.309  48.601 -23.253  1.00  0.00     0.185 C 
HETATM    2  O3  UNL     1      -7.380  48.930 -24.445  1.00  0.00    -0.292 OA
ENDROOT
BRANCH   1   3
HETATM    3  C19 UNL     1      -6.573  49.542 -22.265  1.00  0.00     0.128 C 
HETATM    4  C14 UNL     1      -5.022  49.426 -22.119  1.00  0.00    -0.002 C 
HETATM    5  C13 UNL     1      -4.189  49.954 -23.299  1.00  0.00     0.013 C 
HETATM    6  C15 UNL     1      -4.570  47.984 -21.782  1.00  0.00     0.019 C 
HETATM    7  C16 UNL     1      -4.808  50.402 -20.928  1.00  0.00     0.002 C 
HETATM    8  C12 UNL     1      -2.702  50.105 -22.926  1.00  0.00     0.007 C 
HETATM    9  C11 UNL     1      -2.472  50.977 -21.662  1.00  0.00     0.002 C 
HETATM   10  C2  UNL     1      -0.954  51.164 -21.279  1.00  0.00    -0.016 C 
HETATM   11  C10 UNL     1      -3.349  50.498 -20.462  1.00  0.00    -0.004 C 
HETATM   12  C1  UNL     1      -0.248  49.811 -21.038  1.00  0.00     0.020 C 
HETATM   13  C3  UNL     1      -0.241  51.901 -22.452  1.00  0.00     0.022 C 
HETATM   14  C7  UNL     1      -0.853  51.997 -19.994  1.00  0.00    -0.068 C 
HETATM   15  C4  UNL     1       1.107  52.500 -22.073  1.00  0.00     0.084 C 
HETATM   16  C5  UNL     1       0.947  53.425 -20.895  1.00  0.00     0.149 C 
HETATM   17  O1  UNL     1       1.620  54.441 -20.759  1.00  0.00    -0.293 OA
HETATM   18  C6  UNL     1      -0.014  53.040 -19.839  1.00  0.00     0.053 C 
HETATM   19  C8  UNL     1      -1.745  51.585 -18.847  1.00  0.00     0.035 C 
HETATM   20  C9  UNL     1      -3.202  51.464 -19.280  1.00  0.00     0.010 C 
HETATM   21  C17 UNL     1      -5.878  49.970 -19.928  1.00  0.00     0.009 C 
HETATM   22  C18 UNL     1      -7.075  49.530 -20.802  1.00  0.00     0.047 C 
BRANCH   3  23
HETATM   23  O2  UNL     1      -6.857  50.883 -22.752  1.00  0.00    -0.381 OA
HETATM   24  H27 UNL     1      -7.609  50.806 -23.378  1.00  0.00     0.211 HD
ENDBRANCH   3  23
ENDBRANCH   1   3
BRANCH   1  25
HETATM   25  C21 UNL     1      -7.934  47.283 -22.808  1.00  0.00     0.260 C 
BRANCH  25  26
HETATM   26  O4  UNL     1      -9.138  47.363 -22.057  1.00  0.00    -0.314 OA
BRANCH  26  27
HETATM   27  C22 UNL     1      -9.155  46.589 -20.933  1.00  0.00     0.259 C 
HETATM   28  O5  UNL     1      -8.177  46.034 -20.461  1.00  0.00    -0.265 OA
BRANCH  27  29
HETATM   29  C23 UNL     1     -10.537  46.557 -20.333  1.00  0.00     0.120 C 
BRANCH  29  30
HETATM   30  C24 UNL     1     -11.542  46.133 -21.395  1.00  0.00     0.112 C 
BRANCH  30  31
HETATM   31  C25 UNL     1     -12.759  47.037 -21.411  1.00  0.00     0.218 C 
HETATM   32  O6  UNL     1     -13.229  47.507 -22.440  1.00  0.00    -0.274 OA
HETATM   33  N1  UNL     1     -13.235  47.325 -20.150  1.00  0.00    -0.360 N 
HETATM   34  H34 UNL     1     -12.915  46.750 -19.379  1.00  0.00     0.162 HD
BRANCH  33  35
HETATM   35  C26 UNL     1     -14.506  48.009 -19.960  1.00  0.00     0.132 C 
BRANCH  35  36
HETATM   36  C27 UNL     1     -15.273  47.508 -18.709  1.00  0.00     0.046 C 
BRANCH  36  37
HETATM   37  C28 UNL     1     -14.517  46.377 -17.992  1.00  0.00     0.120 C 
BRANCH  37  38
HETATM   38  C29 UNL     1     -13.927  46.809 -16.677  1.00  0.00     0.140 C 
HETATM   39  O7  UNL     1     -14.269  46.477 -15.557  1.00  0.00    -0.650 OA
BRANCH  38  40
HETATM   40  O8  UNL     1     -12.895  47.661 -16.849  1.00  0.00    -0.776 OA
HETATM   41  H40 UNL     1     -12.592  47.849 -15.937  1.00  0.00     0.167 HD
ENDBRANCH  38  40
ENDBRANCH  37  38
ENDBRANCH  36  37
BRANCH  36  42
HETATM   42  C30 UNL     1     -16.684  47.044 -19.071  1.00  0.00    -0.052 A 
HETATM   43  C31 UNL     1     -17.758  47.942 -19.178  1.00  0.00     0.007 A 
HETATM   44  C32 UNL     1     -19.041  47.480 -19.482  1.00  0.00     0.001 A 
HETATM   45  C33 UNL     1     -19.266  46.120 -19.689  1.00  0.00     0.000 A 
HETATM   46  C34 UNL     1     -18.207  45.222 -19.596  1.00  0.00     0.001 A 
HETATM   47  C35 UNL     1     -16.925  45.677 -19.287  1.00  0.00     0.007 A 
ENDBRANCH  36  42
ENDBRANCH  35  36
ENDBRANCH  33  35
ENDBRANCH  30  31
ENDBRANCH  29  30
ENDBRANCH  27  29
ENDBRANCH  26  27
ENDBRANCH  25  26
ENDBRANCH   1  25
TORSDOF 14
ENDMDL
MODEL 4
REMARK minimizedAffinity -9.76254368
REMARK CNNscore 0.3992275
REMARK CNNaffinity 7.39772558
REMARK  14 active torsions:
REMARK  status: ('A' for Active; 'I' for Inactive)
REMARK    1  A    between atoms: C19_20  and  O2_21 
REMARK    2  A    between atoms: C19_20  and  C20_22 
REMARK    3  A    between atoms: C20_22  and  C21_24 
REMARK    4  A    between atoms: C21_24  and  O4_25 
REMARK    5  A    between atoms: O4_25  and  C22_26 
REMARK    6  A    between atoms: C22_26  and  C23_28 
REMARK    7  A    between atoms: C23_28  and  C24_29 
REMARK    8  A    between atoms: C24_29  and  C25_30 
REMARK       I    between atoms: C25_30  and  N1_32 
REMARK    9  A    between atoms: N1_32  and  C26_33 
REMARK   10  A    between atoms: C26_33  and  C27_34 
REMARK   11  A    between atoms: C27_34  and  C28_35 
REMARK   12  A    between atoms: C27_34  and  C30_39 
REMARK   13  A    between atoms: C28_35  and  C29_36 
REMARK   14  A    between atoms: C29_36  and  O8_38 
ROOT
HETATM    1  C20 UNL     1      -6.747  47.150 -22.042  1.00  0.00     0.185 C 
HETATM    2  O3  UNL     1      -7.421  46.304 -21.438  1.00  0.00    -0.292 OA
ENDROOT
BRANCH   1   3
HETATM    3  C19 UNL     1      -6.132  48.324 -21.237  1.00  0.00     0.128 C 
HETATM    4  C14 UNL     1      -4.579  48.437 -21.125  1.00  0.00    -0.002 C 
HETATM    5  C13 UNL     1      -3.837  48.874 -22.400  1.00  0.00     0.013 C 
HETATM    6  C15 UNL     1      -3.933  47.140 -20.581  1.00  0.00     0.019 C 
HETATM    7  C16 UNL     1      -4.485  49.611 -20.110  1.00  0.00     0.002 C 
HETATM    8  C12 UNL     1      -2.381  49.276 -22.104  1.00  0.00     0.007 C 
HETATM    9  C11 UNL     1      -2.256  50.361 -21.000  1.00  0.00     0.002 C 
HETATM   10  C2  UNL     1      -0.772  50.805 -20.701  1.00  0.00    -0.016 C 
HETATM   11  C10 UNL     1      -3.046  49.969 -19.712  1.00  0.00    -0.004 C 
HETATM   12  C1  UNL     1       0.112  49.612 -20.274  1.00  0.00     0.020 C 
HETATM   13  C3  UNL     1      -0.178  51.432 -21.998  1.00  0.00     0.022 C 
HETATM   14  C7  UNL     1      -0.769  51.838 -19.566  1.00  0.00    -0.068 C 
HETATM   15  C4  UNL     1       1.081  52.256 -21.761  1.00  0.00     0.084 C 
HETATM   16  C5  UNL     1       0.812  53.327 -20.738  1.00  0.00     0.149 C 
HETATM   17  O1  UNL     1       1.343  54.432 -20.784  1.00  0.00    -0.293 OA
HETATM   18  C6  UNL     1      -0.077  52.993 -19.604  1.00  0.00     0.053 C 
HETATM   19  C8  UNL     1      -1.585  51.501 -18.340  1.00  0.00     0.035 C 
HETATM   20  C9  UNL     1      -3.017  51.122 -18.701  1.00  0.00     0.010 C 
HETATM   21  C17 UNL     1      -5.475  49.207 -19.020  1.00  0.00     0.009 C 
HETATM   22  C18 UNL     1      -6.612  48.480 -19.775  1.00  0.00     0.047 C 
BRANCH   3  23
HETATM   23  O2  UNL     1      -6.600  49.521 -21.918  1.00  0.00    -0.381 OA
HETATM   24  H27 UNL     1      -7.342  49.248 -22.500  1.00  0.00     0.211 HD
ENDBRANCH   3  23
ENDBRANCH   1   3
BRANCH   1  25
HETATM   25  C21 UNL     1      -6.560  47.012 -23.549  1.00  0.00     0.260 C 
BRANCH  25  26
HETATM   26  O4  UNL     1      -6.576  48.211 -24.312  1.00  0.00    -0.314 OA
BRANCH  26  27
HETATM   27  C22 UNL     1      -6.055  48.091 -25.567  1.00  0.00     0.259 C 
HETATM   28  O5  UNL     1      -6.702  47.796 -26.558  1.00  0.00    -0.265 OA
BRANCH  27  29
HETATM   29  C23 UNL     1      -4.585  48.419 -25.564  1.00  0.00     0.120 C 
BRANCH  29  30
HETATM   30  C24 UNL     1      -4.072  48.463 -26.996  1.00  0.00     0.112 C 
BRANCH  30  31
HETATM   31  C25 UNL     1      -3.411  49.790 -27.316  1.00  0.00     0.218 C 
HETATM   32  O6  UNL     1      -3.353  50.252 -28.448  1.00  0.00    -0.274 OA
HETATM   33  N1  UNL     1      -2.830  50.383 -26.216  1.00  0.00    -0.360 N 
HETATM   34  H34 UNL     1      -3.088  50.038 -25.299  1.00  0.00     0.162 HD
BRANCH  33  35
HETATM   35  C26 UNL     1      -2.323  51.746 -26.272  1.00  0.00     0.132 C 
BRANCH  35  36
HETATM   36  C27 UNL     1      -1.042  51.943 -25.420  1.00  0.00     0.046 C 
BRANCH  36  37
HETATM   37  C28 UNL     1      -1.029  53.311 -24.718  1.00  0.00     0.120 C 
BRANCH  37  38
HETATM   38  C29 UNL     1       0.011  54.246 -25.274  1.00  0.00     0.140 C 
HETATM   39  O7  UNL     1      -0.007  54.839 -26.337  1.00  0.00    -0.650 OA
BRANCH  38  40
HETATM   40  O8  UNL     1       1.051  54.395 -24.429  1.00  0.00    -0.776 OA
HETATM   41  H40 UNL     1       1.638  55.029 -24.889  1.00  0.00     0.167 HD
ENDBRANCH  38  40
ENDBRANCH  37  38
ENDBRANCH  36  37
BRANCH  36  42
HETATM   42  C30 UNL     1       0.220  51.780 -26.267  1.00  0.00    -0.052 A 
HETATM   43  C31 UNL     1       1.472  51.509 -25.692  1.00  0.00     0.007 A 
HETATM   44  C32 UNL     1       2.611  51.394 -26.493  1.00  0.00     0.001 A 
HETATM   45  C33 UNL     1       2.513  51.542 -27.876  1.00  0.00     0.000 A 
HETATM   46  C34 UNL     1       1.276  51.801 -28.458  1.00  0.00     0.001 A 
HETATM   47  C35 UNL     1       0.136  51.922 -27.662  1.00  0.00     0.007 A 
ENDBRANCH  36  42
ENDBRANCH  35  36
ENDBRANCH  33  35
ENDBRANCH  30  31
ENDBRANCH  29  30
ENDBRANCH  27  29
ENDBRANCH  26  27
ENDBRANCH  25  26
ENDBRANCH   1  25
TORSDOF 14
ENDMDL
MODEL 5
REMARK minimizedAffinity -9.13494396
REMARK CNNscore 0.351526558
REMARK CNNaffinity 6.81389999
REMARK  14 active torsions:
REMARK  status: ('A' for Active; 'I' for Inactive)
REMARK    1  A    between atoms: C19_20  and  O2_21 
REMARK    2  A    between atoms: C19_20  and  C20_22 
REMARK    3  A    between atoms: C20_22  and  C21_24 
REMARK    4  A    between atoms: C21_24  and  O4_25 
REMARK    5  A    between atoms: O4_25  and  C22_26 
REMARK    6  A    between atoms: C22_26  and  C23_28 
REMARK    7  A    between atoms: C23_28  and  C24_29 
REMARK    8  A    between atoms: C24_29  and  C25_30 
REMARK       I    between atoms: C25_30  and  N1_32 
REMARK    9  A    between atoms: N1_32  and  C26_33 
REMARK   10  A    between atoms: C26_33  and  C27_34 
REMARK   11  A    between atoms: C27_34  and  C28_35 
REMARK   12  A    between atoms: C27_34  and  C30_39 
REMARK   13  A    between atoms: C28_35  and  C29_36 
REMARK   14  A    between atoms: C29_36  and  O8_38 
ROOT
HETATM    1  C20 UNL     1      -1.923  48.814 -18.231  1.00  0.00     0.185 C 
HETATM    2  O3  UNL     1      -2.907  48.569 -17.520  1.00  0.00    -0.292 OA
ENDROOT
BRANCH   1   3
HETATM    3  C19 UNL     1      -2.017  48.534 -19.754  1.00  0.00     0.128 C 
HETATM    4  C14 UNL     1      -2.004  49.737 -20.749  1.00  0.00    -0.002 C 
HETATM    5  C13 UNL     1      -0.656  50.456 -20.927  1.00  0.00     0.013 C 
HETATM    6  C15 UNL     1      -3.098  50.782 -20.421  1.00  0.00     0.019 C 
HETATM    7  C16 UNL     1      -2.299  48.973 -22.071  1.00  0.00     0.002 C 
HETATM    8  C12 UNL     1      -0.663  51.388 -22.153  1.00  0.00     0.007 C 
HETATM    9  C11 UNL     1      -1.077  50.671 -23.466  1.00  0.00     0.002 C 
HETATM   10  C2  UNL     1      -1.066  51.604 -24.738  1.00  0.00    -0.016 C 
HETATM   11  C10 UNL     1      -2.416  49.886 -23.299  1.00  0.00    -0.004 C 
HETATM   12  C1  UNL     1      -1.998  52.824 -24.568  1.00  0.00     0.020 C 
HETATM   13  C3  UNL     1       0.391  52.111 -24.959  1.00  0.00     0.022 C 
HETATM   14  C7  UNL     1      -1.537  50.803 -25.960  1.00  0.00    -0.068 C 
HETATM   15  C4  UNL     1       0.638  52.684 -26.349  1.00  0.00     0.084 C 
HETATM   16  C5  UNL     1       0.273  51.667 -27.398  1.00  0.00     0.149 C 
HETATM   17  O1  UNL     1       0.880  51.568 -28.459  1.00  0.00    -0.293 OA
HETATM   18  C6  UNL     1      -0.906  50.811 -27.151  1.00  0.00     0.053 C 
HETATM   19  C8  UNL     1      -2.795  49.985 -25.791  1.00  0.00     0.035 C 
HETATM   20  C9  UNL     1      -2.720  49.079 -24.568  1.00  0.00     0.010 C 
HETATM   21  C17 UNL     1      -3.478  48.078 -21.698  1.00  0.00     0.009 C 
HETATM   22  C18 UNL     1      -3.224  47.689 -20.223  1.00  0.00     0.047 C 
BRANCH   3  23
HETATM   23  O2  UNL     1      -0.848  47.721 -20.051  1.00  0.00    -0.381 OA
HETATM   24  H27 UNL     1      -0.504  47.390 -19.193  1.00  0.00     0.211 HD
ENDBRANCH   3  23
ENDBRANCH   1   3
BRANCH   1  25
HETATM   25  C21 UNL     1      -0.658  49.366 -17.583  1.00  0.00     0.260 C 
BRANCH  25  26
HETATM   26  O4  UNL     1      -0.736  50.674 -17.032  1.00  0.00    -0.314 OA
BRANCH  26  27
HETATM   27  C22 UNL     1       0.406  51.409 -17.156  1.00  0.00     0.259 C 
HETATM   28  O5  UNL     1       0.675  52.112 -18.117  1.00  0.00    -0.265 OA
BRANCH  27  29
HETATM   29  C23 UNL     1       1.264  51.269 -15.925  1.00  0.00     0.120 C 
BRANCH  29  30
HETATM   30  C24 UNL     1       0.532  51.857 -14.727  1.00  0.00     0.112 C 
BRANCH  30  31
HETATM   31  C25 UNL     1       1.368  51.782 -13.465  1.00  0.00     0.218 C 
HETATM   32  O6  UNL     1       2.310  51.010 -13.331  1.00  0.00    -0.274 OA
HETATM   33  N1  UNL     1       0.918  52.621 -12.468  1.00  0.00    -0.360 N 
HETATM   34  H34 UNL     1       0.266  53.354 -12.723  1.00  0.00     0.162 HD
BRANCH  33  35
HETATM   35  C26 UNL     1       1.697  52.843 -11.258  1.00  0.00     0.132 C 
BRANCH  35  36
HETATM   36  C27 UNL     1       1.002  53.815 -10.270  1.00  0.00     0.046 C 
BRANCH  36  37
HETATM   37  C28 UNL     1      -0.242  54.469 -10.893  1.00  0.00     0.120 C 
BRANCH  37  38
HETATM   38  C29 UNL     1      -1.530  53.953 -10.311  1.00  0.00     0.140 C 
HETATM   39  O7  UNL     1      -1.761  53.652  -9.154  1.00  0.00    -0.650 OA
BRANCH  38  40
HETATM   40  O8  UNL     1      -2.494  53.849 -11.247  1.00  0.00    -0.776 OA
HETATM   41  H40 UNL     1      -3.273  53.527 -10.747  1.00  0.00     0.167 HD
ENDBRANCH  38  40
ENDBRANCH  37  38
ENDBRANCH  36  37
BRANCH  36  42
HETATM   42  C30 UNL     1       1.968  54.893  -9.779  1.00  0.00    -0.052 A 
HETATM   43  C31 UNL     1       2.695  55.702 -10.667  1.00  0.00     0.007 A 
HETATM   44  C32 UNL     1       3.591  56.659 -10.184  1.00  0.00     0.001 A 
HETATM   45  C33 UNL     1       3.767  56.824  -8.811  1.00  0.00     0.000 A 
HETATM   46  C34 UNL     1       3.044  56.036  -7.920  1.00  0.00     0.001 A 
HETATM   47  C35 UNL     1       2.151  55.075  -8.398  1.00  0.00     0.007 A 
ENDBRANCH  36  42
ENDBRANCH  35  36
ENDBRANCH  33  35
ENDBRANCH  30  31
ENDBRANCH  29  30
ENDBRANCH  27  29
ENDBRANCH  26  27
ENDBRANCH  25  26
ENDBRANCH   1  25
TORSDOF 14
ENDMDL
MODEL 6
REMARK minimizedAffinity -9.10707951
REMARK CNNscore 0.313878357
REMARK CNNaffinity 6.00828743
REMARK  14 active torsions:
REMARK  status: ('A' for Active; 'I' for Inactive)
REMARK    1  A    between atoms: C19_20  and  O2_21 
REMARK    2  A    between atoms: C19_20  and  C20_22 
REMARK    3  A    between atoms: C20_22  and  C21_24 
REMARK    4  A    between atoms: C21_24  and  O4_25 
REMARK    5  A    between atoms: O4_25  and  C22_26 
REMARK    6  A    between atoms: C22_26  and  C23_28 
REMARK    7  A    between atoms: C23_28  and  C24_29 
REMARK    8  A    between atoms: C24_29  and  C25_30 
REMARK       I    between atoms: C25_30  and  N1_32 
REMARK    9  A    between atoms: N1_32  and  C26_33 
REMARK   10  A    between atoms: C26_33  and  C27_34 
REMARK   11  A    between atoms: C27_34  and  C28_35 
REMARK   12  A    between atoms: C27_34  and  C30_39 
REMARK   13  A    between atoms: C28_35  and  C29_36 
REMARK   14  A    between atoms: C29_36  and  O8_38 
ROOT
HETATM    1  C20 UNL     1      -7.119  48.617 -23.874  1.00  0.00     0.185 C 
HETATM    2  O3  UNL     1      -6.372  47.975 -24.624  1.00  0.00    -0.292 OA
ENDROOT
BRANCH   1   3
HETATM    3  C19 UNL     1      -6.484  49.553 -22.813  1.00  0.00     0.128 C 
HETATM    4  C14 UNL     1      -4.967  49.399 -22.475  1.00  0.00    -0.002 C 
HETATM    5  C13 UNL     1      -3.980  49.887 -23.550  1.00  0.00     0.013 C 
HETATM    6  C15 UNL     1      -4.600  47.951 -22.068  1.00  0.00     0.019 C 
HETATM    7  C16 UNL     1      -4.874  50.387 -21.279  1.00  0.00     0.002 C 
HETATM    8  C12 UNL     1      -2.548  50.005 -22.999  1.00  0.00     0.007 C 
HETATM    9  C11 UNL     1      -2.451  50.890 -21.726  1.00  0.00     0.002 C 
HETATM   10  C2  UNL     1      -0.986  51.043 -21.160  1.00  0.00    -0.016 C 
HETATM   11  C10 UNL     1      -3.481  50.452 -20.637  1.00  0.00    -0.004 C 
HETATM   12  C1  UNL     1      -0.353  49.677 -20.818  1.00  0.00     0.020 C 
HETATM   13  C3  UNL     1      -0.115  51.744 -22.245  1.00  0.00     0.022 C 
HETATM   14  C7  UNL     1      -1.021  51.892 -19.882  1.00  0.00    -0.068 C 
HETATM   15  C4  UNL     1       1.193  52.314 -21.710  1.00  0.00     0.084 C 
HETATM   16  C5  UNL     1       0.915  53.260 -20.571  1.00  0.00     0.149 C 
HETATM   17  O1  UNL     1       1.593  54.260 -20.365  1.00  0.00    -0.293 OA
HETATM   18  C6  UNL     1      -0.180  52.916 -19.638  1.00  0.00     0.053 C 
HETATM   19  C8  UNL     1      -2.059  51.521 -18.849  1.00  0.00     0.035 C 
HETATM   20  C9  UNL     1      -3.454  51.431 -19.457  1.00  0.00     0.010 C 
HETATM   21  C17 UNL     1      -6.070  49.998 -20.414  1.00  0.00     0.009 C 
HETATM   22  C18 UNL     1      -7.163  49.576 -21.423  1.00  0.00     0.047 C 
BRANCH   3  23
HETATM   23  O2  UNL     1      -6.669  50.894 -23.346  1.00  0.00    -0.381 OA
HETATM   24  H27 UNL     1      -7.340  50.827 -24.060  1.00  0.00     0.211 HD
ENDBRANCH   3  23
ENDBRANCH   1   3
BRANCH   1  25
HETATM   25  C21 UNL     1      -8.629  48.453 -24.013  1.00  0.00     0.260 C 
BRANCH  25  26
HETATM   26  O4  UNL     1      -9.242  49.072 -25.136  1.00  0.00    -0.314 OA
BRANCH  26  27
HETATM   27  C22 UNL     1      -9.400  48.255 -26.216  1.00  0.00     0.259 C 
HETATM   28  O5  UNL     1      -8.937  48.475 -27.323  1.00  0.00    -0.265 OA
BRANCH  27  29
HETATM   29  C23 UNL     1     -10.183  47.024 -25.841  1.00  0.00     0.120 C 
BRANCH  29  30
HETATM   30  C24 UNL     1     -11.175  46.696 -26.947  1.00  0.00     0.112 C 
BRANCH  30  31
HETATM   31  C25 UNL     1     -12.547  47.275 -26.662  1.00  0.00     0.218 C 
HETATM   32  O6  UNL     1     -12.861  48.423 -26.949  1.00  0.00    -0.274 OA
HETATM   33  N1  UNL     1     -13.375  46.399 -25.992  1.00  0.00    -0.360 N 
HETATM   34  H34 UNL     1     -13.111  45.422 -25.967  1.00  0.00     0.162 HD
BRANCH  33  35
HETATM   35  C26 UNL     1     -14.789  46.690 -25.804  1.00  0.00     0.132 C 
BRANCH  35  36
HETATM   36  C27 UNL     1     -15.700  45.493 -26.179  1.00  0.00     0.046 C 
BRANCH  36  37
HETATM   37  C28 UNL     1     -15.683  45.216 -27.692  1.00  0.00     0.120 C 
BRANCH  37  38
HETATM   38  C29 UNL     1     -15.074  43.884 -28.036  1.00  0.00     0.140 C 
HETATM   39  O7  UNL     1     -15.637  42.887 -28.448  1.00  0.00    -0.650 OA
BRANCH  38  40
HETATM   40  O8  UNL     1     -13.739  43.882 -27.845  1.00  0.00    -0.776 OA
HETATM   41  H40 UNL     1     -13.464  42.983 -28.118  1.00  0.00     0.167 HD
ENDBRANCH  38  40
ENDBRANCH  37  38
ENDBRANCH  36  37
BRANCH  36  42
HETATM   42  C30 UNL     1     -17.136  45.718 -25.707  1.00  0.00    -0.052 A 
HETATM   43  C31 UNL     1     -18.222  45.025 -26.267  1.00  0.00     0.007 A 
HETATM   44  C32 UNL     1     -19.525  45.276 -25.831  1.00  0.00     0.001 A 
HETATM   45  C33 UNL     1     -19.760  46.215 -24.827  1.00  0.00     0.000 A 
HETATM   46  C34 UNL     1     -18.691  46.900 -24.257  1.00  0.00     0.001 A 
HETATM   47  C35 UNL     1     -17.388  46.657 -24.693  1.00  0.00     0.007 A 
ENDBRANCH  36  42
ENDBRANCH  35  36
ENDBRANCH  33  35
ENDBRANCH  30  31
ENDBRANCH  29  30
ENDBRANCH  27  29
ENDBRANCH  26  27
ENDBRANCH  25  26
ENDBRANCH   1  25
TORSDOF 14
ENDMDL
MODEL 7
REMARK minimizedAffinity -8.7761879
REMARK CNNscore 0.279090494
REMARK CNNaffinity 6.45649147
REMARK  14 active torsions:
REMARK  status: ('A' for Active; 'I' for Inactive)
REMARK    1  A    between atoms: C19_20  and  O2_21 
REMARK    2  A    between atoms: C19_20  and  C20_22 
REMARK    3  A    between atoms: C20_22  and  C21_24 
REMARK    4  A    between atoms: C21_24  and  O4_25 
REMARK    5  A    between atoms: O4_25  and  C22_26 
REMARK    6  A    between atoms: C22_26  and  C23_28 
REMARK    7  A    between atoms: C23_28  and  C24_29 
REMARK    8  A    between atoms: C24_29  and  C25_30 
REMARK       I    between atoms: C25_30  and  N1_32 
REMARK    9  A    between atoms: N1_32  and  C26_33 
REMARK   10  A    between atoms: C26_33  and  C27_34 
REMARK   11  A    between atoms: C27_34  and  C28_35 
REMARK   12  A    between atoms: C27_34  and  C30_39 
REMARK   13  A    between atoms: C28_35  and  C29_36 
REMARK   14  A    between atoms: C29_36  and  O8_38 
ROOT
HETATM    1  C20 UNL     1      -1.979  49.764 -17.180  1.00  0.00     0.185 C 
HETATM    2  O3  UNL     1      -3.037  49.997 -16.581  1.00  0.00    -0.292 OA
ENDROOT
BRANCH   1   3
HETATM    3  C19 UNL     1      -2.049  49.264 -18.646  1.00  0.00     0.128 C 
HETATM    4  C14 UNL     1      -2.079  50.310 -19.805  1.00  0.00    -0.002 C 
HETATM    5  C13 UNL     1      -0.762  51.054 -20.082  1.00  0.00     0.013 C 
HETATM    6  C15 UNL     1      -3.219  51.343 -19.633  1.00  0.00     0.019 C 
HETATM    7  C16 UNL     1      -2.330  49.352 -21.002  1.00  0.00     0.002 C 
HETATM    8  C12 UNL     1      -0.798  51.798 -21.429  1.00  0.00     0.007 C 
HETATM    9  C11 UNL     1      -1.171  50.882 -22.626  1.00  0.00     0.002 C 
HETATM   10  C2  UNL     1      -1.189  51.621 -24.020  1.00  0.00    -0.016 C 
HETATM   11  C10 UNL     1      -2.477  50.071 -22.350  1.00  0.00    -0.004 C 
HETATM   12  C1  UNL     1      -2.174  52.812 -24.029  1.00  0.00     0.020 C 
HETATM   13  C3  UNL     1       0.246  52.154 -24.309  1.00  0.00     0.022 C 
HETATM   14  C7  UNL     1      -1.616  50.633 -25.114  1.00  0.00    -0.068 C 
HETATM   15  C4  UNL     1       0.480  52.531 -25.766  1.00  0.00     0.084 C 
HETATM   16  C5  UNL     1       0.168  51.359 -26.658  1.00  0.00     0.149 C 
HETATM   17  O1  UNL     1       0.787  51.135 -27.693  1.00  0.00    -0.293 OA
HETATM   18  C6  UNL     1      -0.976  50.496 -26.292  1.00  0.00     0.053 C 
HETATM   19  C8  UNL     1      -2.839  49.794 -24.831  1.00  0.00     0.035 C 
HETATM   20  C9  UNL     1      -2.735  49.078 -23.489  1.00  0.00     0.010 C 
HETATM   21  C17 UNL     1      -3.473  48.469 -20.507  1.00  0.00     0.009 C 
HETATM   22  C18 UNL     1      -3.214  48.308 -18.990  1.00  0.00     0.047 C 
BRANCH   3  23
HETATM   23  O2  UNL     1      -0.843  48.468 -18.820  1.00  0.00    -0.381 OA
HETATM   24  H27 UNL     1      -0.493  48.280 -17.923  1.00  0.00     0.211 HD
ENDBRANCH   3  23
ENDBRANCH   1   3
BRANCH   1  25
HETATM   25  C21 UNL     1      -0.654  49.964 -16.450  1.00  0.00     0.260 C 
BRANCH  25  26
HETATM   26  O4  UNL     1      -0.584  51.044 -15.530  1.00  0.00    -0.314 OA
BRANCH  26  27
HETATM   27  C22 UNL     1       0.683  51.457 -15.238  1.00  0.00     0.259 C 
HETATM   28  O5  UNL     1       1.679  51.123 -15.858  1.00  0.00    -0.265 OA
BRANCH  27  29
HETATM   29  C23 UNL     1       0.674  52.416 -14.076  1.00  0.00     0.120 C 
BRANCH  29  30
HETATM   30  C24 UNL     1      -0.382  51.984 -13.069  1.00  0.00     0.112 C 
BRANCH  30  31
HETATM   31  C25 UNL     1      -0.454  52.932 -11.888  1.00  0.00     0.218 C 
HETATM   32  O6  UNL     1      -1.419  52.992 -11.136  1.00  0.00    -0.274 OA
HETATM   33  N1  UNL     1       0.644  53.759 -11.791  1.00  0.00    -0.360 N 
HETATM   34  H34 UNL     1       1.470  53.516 -12.326  1.00  0.00     0.162 HD
BRANCH  33  35
HETATM   35  C26 UNL     1       0.859  54.597 -10.621  1.00  0.00     0.132 C 
BRANCH  35  36
HETATM   36  C27 UNL     1       2.282  55.211 -10.577  1.00  0.00     0.046 C 
BRANCH  36  37
HETATM   37  C28 UNL     1       3.371  54.135 -10.717  1.00  0.00     0.120 C 
BRANCH  37  38
HETATM   38  C29 UNL     1       3.187  52.987  -9.762  1.00  0.00     0.140 C 
HETATM   39  O7  UNL     1       2.529  51.975  -9.925  1.00  0.00    -0.650 OA
BRANCH  38  40
HETATM   40  O8  UNL     1       3.871  53.177  -8.615  1.00  0.00    -0.776 OA
HETATM   41  H40 UNL     1       3.688  52.367  -8.096  1.00  0.00     0.167 HD
ENDBRANCH  38  40
ENDBRANCH  37  38
ENDBRANCH  36  37
BRANCH  36  42
HETATM   42  C30 UNL     1       2.503  56.013  -9.294  1.00  0.00    -0.052 A 
HETATM   43  C31 UNL     1       1.552  56.042  -8.261  1.00  0.00     0.007 A 
HETATM   44  C32 UNL     1       1.774  56.809  -7.115  1.00  0.00     0.001 A 
HETATM   45  C33 UNL     1       2.948  57.549  -6.982  1.00  0.00     0.000 A 
HETATM   46  C34 UNL     1       3.902  57.520  -7.995  1.00  0.00     0.001 A 
HETATM   47  C35 UNL     1       3.683  56.759  -9.145  1.00  0.00     0.007 A 
ENDBRANCH  36  42
ENDBRANCH  35  36
ENDBRANCH  33  35
ENDBRANCH  30  31
ENDBRANCH  29  30
ENDBRANCH  27  29
ENDBRANCH  26  27
ENDBRANCH  25  26
ENDBRANCH   1  25
TORSDOF 14
ENDMDL
MODEL 8
REMARK minimizedAffinity -10.1949596
REMARK CNNscore 0.269989133
REMARK CNNaffinity 7.13247442
REMARK  14 active torsions:
REMARK  status: ('A' for Active; 'I' for Inactive)
REMARK    1  A    between atoms: C19_20  and  O2_21 
REMARK    2  A    between atoms: C19_20  and  C20_22 
REMARK    3  A    between atoms: C20_22  and  C21_24 
REMARK    4  A    between atoms: C21_24  and  O4_25 
REMARK    5  A    between atoms: O4_25  and  C22_26 
REMARK    6  A    between atoms: C22_26  and  C23_28 
REMARK    7  A    between atoms: C23_28  and  C24_29 
REMARK    8  A    between atoms: C24_29  and  C25_30 
REMARK       I    between atoms: C25_30  and  N1_32 
REMARK    9  A    between atoms: N1_32  and  C26_33 
REMARK   10  A    between atoms: C26_33  and  C27_34 
REMARK   11  A    between atoms: C27_34  and  C28_35 
REMARK   12  A    between atoms: C27_34  and  C30_39 
REMARK   13  A    between atoms: C28_35  and  C29_36 
REMARK   14  A    between atoms: C29_36  and  O8_38 
ROOT
HETATM    1  C20 UNL     1      -2.794  49.519 -20.906  1.00  0.00     0.185 C 
HETATM    2  O3  UNL     1      -2.741  48.900 -21.976  1.00  0.00    -0.292 OA
ENDROOT
BRANCH   1   3
HETATM    3  C19 UNL     1      -1.493  50.149 -20.345  1.00  0.00     0.128 C 
HETATM    4  C14 UNL     1      -1.312  50.266 -18.798  1.00  0.00    -0.002 C 
HETATM    5  C13 UNL     1      -1.044  48.952 -18.045  1.00  0.00     0.013 C 
HETATM    6  C15 UNL     1      -2.491  51.008 -18.124  1.00  0.00     0.019 C 
HETATM    7  C16 UNL     1       0.003  51.096 -18.762  1.00  0.00     0.002 C 
HETATM    8  C12 UNL     1      -0.553  49.207 -16.608  1.00  0.00     0.007 C 
HETATM    9  C11 UNL     1       0.687  50.138 -16.540  1.00  0.00     0.002 C 
HETATM   10  C2  UNL     1       1.221  50.391 -15.077  1.00  0.00    -0.016 C 
HETATM   11  C10 UNL     1       0.465  51.458 -17.344  1.00  0.00    -0.004 C 
HETATM   12  C1  UNL     1       0.136  51.006 -14.164  1.00  0.00     0.020 C 
HETATM   13  C3  UNL     1       1.668  49.024 -14.476  1.00  0.00     0.022 C 
HETATM   14  C7  UNL     1       2.411  51.359 -15.130  1.00  0.00    -0.068 C 
HETATM   15  C4  UNL     1       2.560  49.155 -13.248  1.00  0.00     0.084 C 
HETATM   16  C5  UNL     1       3.762  50.002 -13.572  1.00  0.00     0.149 C 
HETATM   17  O1  UNL     1       4.864  49.799 -13.075  1.00  0.00    -0.293 OA
HETATM   18  C6  UNL     1       3.571  51.159 -14.473  1.00  0.00     0.053 C 
HETATM   19  C8  UNL     1       2.234  52.608 -15.960  1.00  0.00     0.035 C 
HETATM   20  C9  UNL     1       1.757  52.286 -17.371  1.00  0.00     0.010 C 
HETATM   21  C17 UNL     1      -0.267  52.218 -19.761  1.00  0.00     0.009 C 
HETATM   22  C18 UNL     1      -1.137  51.563 -20.859  1.00  0.00     0.047 C 
BRANCH   3  23
HETATM   23  O2  UNL     1      -0.427  49.288 -20.836  1.00  0.00    -0.381 OA
HETATM   24  H27 UNL     1      -0.810  48.742 -21.556  1.00  0.00     0.211 HD
ENDBRANCH   3  23
ENDBRANCH   1   3
BRANCH   1  25
HETATM   25  C21 UNL     1      -4.130  49.627 -20.176  1.00  0.00     0.260 C 
BRANCH  25  26
HETATM   26  O4  UNL     1      -4.941  50.752 -20.483  1.00  0.00    -0.314 OA
BRANCH  26  27
HETATM   27  C22 UNL     1      -5.279  50.862 -21.800  1.00  0.00     0.259 C 
HETATM   28  O5  UNL     1      -6.159  50.216 -22.345  1.00  0.00    -0.265 OA
BRANCH  27  29
HETATM   29  C23 UNL     1      -4.450  51.925 -22.473  1.00  0.00     0.120 C 
BRANCH  29  30
HETATM   30  C24 UNL     1      -4.590  51.798 -23.983  1.00  0.00     0.112 C 
BRANCH  30  31
HETATM   31  C25 UNL     1      -3.385  52.363 -24.710  1.00  0.00     0.218 C 
HETATM   32  O6  UNL     1      -2.467  52.937 -24.138  1.00  0.00    -0.274 OA
HETATM   33  N1  UNL     1      -3.464  52.220 -26.079  1.00  0.00    -0.360 N 
HETATM   34  H34 UNL     1      -4.149  51.572 -26.450  1.00  0.00     0.162 HD
BRANCH  33  35
HETATM   35  C26 UNL     1      -2.325  52.514 -26.936  1.00  0.00     0.132 C 
BRANCH  35  36
HETATM   36  C27 UNL     1      -1.614  51.235 -27.446  1.00  0.00     0.046 C 
BRANCH  36  37
HETATM   37  C28 UNL     1      -2.146  49.971 -26.751  1.00  0.00     0.120 C 
BRANCH  37  38
HETATM   38  C29 UNL     1      -3.250  49.299 -27.521  1.00  0.00     0.140 C 
HETATM   39  O7  UNL     1      -3.766  48.218 -27.302  1.00  0.00    -0.650 OA
BRANCH  38  40
HETATM   40  O8  UNL     1      -3.664  50.053 -28.559  1.00  0.00    -0.776 OA
HETATM   41  H40 UNL     1      -4.384  49.524 -28.961  1.00  0.00     0.167 HD
ENDBRANCH  38  40
ENDBRANCH  37  38
ENDBRANCH  36  37
BRANCH  36  42
HETATM   42  C30 UNL     1      -0.099  51.330 -27.265  1.00  0.00    -0.052 A 
HETATM   43  C31 UNL     1       0.523  51.057 -26.036  1.00  0.00     0.007 A 
HETATM   44  C32 UNL     1       1.908  51.183 -25.898  1.00  0.00     0.001 A 
HETATM   45  C33 UNL     1       2.688  51.575 -26.985  1.00  0.00     0.000 A 
HETATM   46  C34 UNL     1       2.084  51.839 -28.211  1.00  0.00     0.001 A 
HETATM   47  C35 UNL     1       0.700  51.720 -28.353  1.00  0.00     0.007 A 
ENDBRANCH  36  42
ENDBRANCH  35  36
ENDBRANCH  33  35
ENDBRANCH  30  31
ENDBRANCH  29  30
ENDBRANCH  27  29
ENDBRANCH  26  27
ENDBRANCH  25  26
ENDBRANCH   1  25
TORSDOF 14
ENDMDL
MODEL 9
REMARK minimizedAffinity -9.96301079
REMARK CNNscore 0.266601443
REMARK CNNaffinity 7.45266914
REMARK  14 active torsions:
REMARK  status: ('A' for Active; 'I' for Inactive)
REMARK    1  A    between atoms: C19_20  and  O2_21 
REMARK    2  A    between atoms: C19_20  and  C20_22 
REMARK    3  A    between atoms: C20_22  and  C21_24 
REMARK    4  A    between atoms: C21_24  and  O4_25 
REMARK    5  A    between atoms: O4_25  and  C22_26 
REMARK    6  A    between atoms: C22_26  and  C23_28 
REMARK    7  A    between atoms: C23_28  and  C24_29 
REMARK    8  A    between atoms: C24_29  and  C25_30 
REMARK       I    between atoms: C25_30  and  N1_32 
REMARK    9  A    between atoms: N1_32  and  C26_33 
REMARK   10  A    between atoms: C26_33  and  C27_34 
REMARK   11  A    between atoms: C27_34  and  C28_35 
REMARK   12  A    between atoms: C27_34  and  C30_39 
REMARK   13  A    between atoms: C28_35  and  C29_36 
REMARK   14  A    between atoms: C29_36  and  O8_38 
ROOT
HETATM    1  C20 UNL     1      -3.068  49.214 -20.937  1.00  0.00     0.185 C 
HETATM    2  O3  UNL     1      -3.960  48.949 -20.120  1.00  0.00    -0.292 OA
ENDROOT
BRANCH   1   3
HETATM    3  C19 UNL     1      -1.769  49.890 -20.427  1.00  0.00     0.128 C 
HETATM    4  C14 UNL     1      -1.559  50.069 -18.890  1.00  0.00    -0.002 C 
HETATM    5  C13 UNL     1      -1.250  48.790 -18.094  1.00  0.00     0.013 C 
HETATM    6  C15 UNL     1      -2.739  50.813 -18.219  1.00  0.00     0.019 C 
HETATM    7  C16 UNL     1      -0.261  50.925 -18.912  1.00  0.00     0.002 C 
HETATM    8  C12 UNL     1      -0.735  49.108 -16.678  1.00  0.00     0.007 C 
HETATM    9  C11 UNL     1       0.487  50.066 -16.671  1.00  0.00     0.002 C 
HETATM   10  C2  UNL     1       1.045  50.384 -15.230  1.00  0.00    -0.016 C 
HETATM   11  C10 UNL     1       0.222  51.349 -17.518  1.00  0.00    -0.004 C 
HETATM   12  C1  UNL     1      -0.033  51.010 -14.318  1.00  0.00     0.020 C 
HETATM   13  C3  UNL     1       1.531  49.049 -14.588  1.00  0.00     0.022 C 
HETATM   14  C7  UNL     1       2.214  51.372 -15.344  1.00  0.00    -0.068 C 
HETATM   15  C4  UNL     1       2.445  49.243 -13.385  1.00  0.00     0.084 C 
HETATM   16  C5  UNL     1       3.624  50.101 -13.765  1.00  0.00     0.149 C 
HETATM   17  O1  UNL     1       4.740  49.938 -13.284  1.00  0.00    -0.293 OA
HETATM   18  C6  UNL     1       3.390  51.219 -14.705  1.00  0.00     0.053 C 
HETATM   19  C8  UNL     1       1.994  52.585 -16.216  1.00  0.00     0.035 C 
HETATM   20  C9  UNL     1       1.496  52.200 -17.604  1.00  0.00     0.010 C 
HETATM   21  C17 UNL     1      -0.574  52.003 -19.947  1.00  0.00     0.009 C 
HETATM   22  C18 UNL     1      -1.453  51.290 -21.001  1.00  0.00     0.047 C 
BRANCH   3  23
HETATM   23  O2  UNL     1      -0.696  49.033 -20.908  1.00  0.00    -0.381 OA
HETATM   24  H27 UNL     1      -1.082  48.452 -21.599  1.00  0.00     0.211 HD
ENDBRANCH   3  23
ENDBRANCH   1   3
BRANCH   1  25
HETATM   25  C21 UNL     1      -3.288  48.881 -22.409  1.00  0.00     0.260 C 
BRANCH  25  26
HETATM   26  O4  UNL     1      -4.401  49.491 -23.048  1.00  0.00    -0.314 OA
BRANCH  26  27
HETATM   27  C22 UNL     1      -4.860  48.824 -24.145  1.00  0.00     0.259 C 
HETATM   28  O5  UNL     1      -6.037  48.610 -24.382  1.00  0.00    -0.265 OA
BRANCH  27  29
HETATM   29  C23 UNL     1      -3.716  48.431 -25.044  1.00  0.00     0.120 C 
BRANCH  29  30
HETATM   30  C24 UNL     1      -3.868  49.122 -26.391  1.00  0.00     0.112 C 
BRANCH  30  31
HETATM   31  C25 UNL     1      -3.140  50.451 -26.428  1.00  0.00     0.218 C 
HETATM   32  O6  UNL     1      -3.119  51.176 -27.415  1.00  0.00    -0.274 OA
HETATM   33  N1  UNL     1      -2.455  50.724 -25.263  1.00  0.00    -0.360 N 
HETATM   34  H34 UNL     1      -2.679  50.176 -24.441  1.00  0.00     0.162 HD
BRANCH  33  35
HETATM   35  C26 UNL     1      -1.861  52.031 -25.024  1.00  0.00     0.132 C 
BRANCH  35  36
HETATM   36  C27 UNL     1      -0.357  51.946 -24.657  1.00  0.00     0.046 C 
BRANCH  36  37
HETATM   37  C28 UNL     1       0.077  53.112 -23.753  1.00  0.00     0.120 C 
BRANCH  37  38
HETATM   38  C29 UNL     1       0.409  54.360 -24.526  1.00  0.00     0.140 C 
HETATM   39  O7  UNL     1      -0.244  54.893 -25.405  1.00  0.00    -0.650 OA
BRANCH  38  40
HETATM   40  O8  UNL     1       1.583  54.893 -24.131  1.00  0.00    -0.776 OA
HETATM   41  H40 UNL     1       1.674  55.695 -24.685  1.00  0.00     0.167 HD
ENDBRANCH  38  40
ENDBRANCH  37  38
ENDBRANCH  36  37
BRANCH  36  42
HETATM   42  C30 UNL     1       0.520  51.903 -25.909  1.00  0.00    -0.052 A 
HETATM   43  C31 UNL     1       0.011  52.195 -27.185  1.00  0.00     0.007 A 
HETATM   44  C32 UNL     1       0.834  52.118 -28.311  1.00  0.00     0.001 A 
HETATM   45  C33 UNL     1       2.173  51.756 -28.178  1.00  0.00     0.000 A 
HETATM   46  C34 UNL     1       2.692  51.475 -26.917  1.00  0.00     0.001 A 
HETATM   47  C35 UNL     1       1.873  51.545 -25.789  1.00  0.00     0.007 A 
ENDBRANCH  36  42
ENDBRANCH  35  36
ENDBRANCH  33  35
ENDBRANCH  30  31
ENDBRANCH  29  30
ENDBRANCH  27  29
ENDBRANCH  26  27
ENDBRANCH  25  26
ENDBRANCH   1  25
TORSDOF 14
ENDMDL
