MODEL 1
REMARK minimizedAffinity -7.95312834
REMARK CNNscore 0.414829195
REMARK CNNaffinity 6.83601141
REMARK  19 active torsions:
REMARK  status: ('A' for Active; 'I' for Inactive)
REMARK    1  A    between atoms: C19_20  and  O2_21 
REMARK    2  A    between atoms: C19_20  and  C20_22 
REMARK    3  A    between atoms: C20_22  and  C21_24 
REMARK    4  A    between atoms: C21_24  and  O4_25 
REMARK    5  A    between atoms: O4_25  and  C22_26 
REMARK    6  A    between atoms: C22_26  and  C23_28 
REMARK    7  A    between atoms: C23_28  and  C24_29 
REMARK    8  A    between atoms: C24_29  and  C25_30 
REMARK       I    between atoms: C25_30  and  N1_32 
REMARK    9  A    between atoms: N1_32  and  C26_33 
REMARK   10  A    between atoms: C26_33  and  C27_34 
REMARK   11  A    between atoms: C27_34  and  C28_35 
REMARK   12  A    between atoms: C28_35  and  C29_36 
REMARK   13  A    between atoms: C29_36  and  C30_37 
REMARK   14  A    between atoms: C30_37  and  C31_38 
REMARK       I    between atoms: C31_38  and  N2_40 
REMARK   15  A    between atoms: N2_40  and  C32_41 
REMARK   16  A    between atoms: C32_41  and  C33_42 
REMARK   17  A    between atoms: C33_42  and  C34_43 
REMARK   18  A    between atoms: C37_46  and  O8_47 
REMARK   19  A    between atoms: C38_48  and  O9_49 
ROOT
HETATM    1  C22 UNL     1     -11.919  11.094  17.643  1.00  0.00     0.259 C 
HETATM    2  O5  UNL     1     -10.817  11.513  17.319  1.00  0.00    -0.265 OA
ENDROOT
BRANCH   1   3
HETATM    3  O4  UNL     1     -12.915  10.789  16.771  1.00  0.00    -0.314 OA
BRANCH   3   4
HETATM    4  C21 UNL     1     -12.941   9.457  16.282  1.00  0.00     0.260 C 
BRANCH   4   5
HETATM    5  C20 UNL     1     -13.327   9.027  14.850  1.00  0.00     0.185 C 
HETATM    6  O3  UNL     1     -14.526   8.980  14.545  1.00  0.00    -0.292 OA
BRANCH   5   7
HETATM    7  C19 UNL     1     -12.214   8.801  13.780  1.00  0.00     0.128 C 
HETATM    8  C14 UNL     1     -11.369   7.501  13.994  1.00  0.00    -0.002 C 
HETATM    9  C13 UNL     1     -10.567   7.134  12.712  1.00  0.00     0.013 C 
HETATM   10  C15 UNL     1     -12.227   6.290  14.400  1.00  0.00     0.019 C 
HETATM   11  C16 UNL     1     -10.406   7.917  15.130  1.00  0.00     0.002 C 
HETATM   12  C12 UNL     1      -9.423   6.147  12.954  1.00  0.00     0.007 C 
HETATM   13  C11 UNL     1      -8.442   6.642  14.035  1.00  0.00     0.002 C 
HETATM   14  C2  UNL     1      -7.209   5.677  14.255  1.00  0.00    -0.016 C 
HETATM   15  C10 UNL     1      -9.213   6.956  15.341  1.00  0.00    -0.004 C 
HETATM   16  C1  UNL     1      -7.651   4.220  14.527  1.00  0.00     0.020 C 
HETATM   17  C3  UNL     1      -6.336   5.708  12.964  1.00  0.00     0.022 C 
HETATM   18  C7  UNL     1      -6.378   6.150  15.454  1.00  0.00    -0.068 C 
HETATM   19  C4  UNL     1      -4.946   5.113  13.146  1.00  0.00     0.084 C 
HETATM   20  C5  UNL     1      -4.231   5.783  14.289  1.00  0.00     0.149 C 
HETATM   21  O1  UNL     1      -3.008   5.896  14.323  1.00  0.00    -0.293 OA
HETATM   22  C6  UNL     1      -5.035   6.234  15.447  1.00  0.00     0.053 C 
HETATM   23  C8  UNL     1      -7.141   6.501  16.709  1.00  0.00     0.035 C 
HETATM   24  C9  UNL     1      -8.262   7.489  16.423  1.00  0.00     0.010 C 
HETATM   25  C17 UNL     1     -10.033   9.371  14.798  1.00  0.00     0.009 C 
HETATM   26  C18 UNL     1     -11.160   9.925  13.919  1.00  0.00     0.047 C 
BRANCH   7  27
HETATM   27  O2  UNL     1     -12.735   8.845  12.459  1.00  0.00    -0.381 OA
HETATM   28  H27 UNL     1     -12.972   9.780  12.290  1.00  0.00     0.211 HD
ENDBRANCH   7  27
ENDBRANCH   5   7
ENDBRANCH   4   5
ENDBRANCH   3   4
ENDBRANCH   1   3
BRANCH   1  29
HETATM   29  C23 UNL     1     -12.386  10.895  19.061  1.00  0.00     0.120 C 
BRANCH  29  30
HETATM   30  C24 UNL     1     -11.211  10.644  19.995  1.00  0.00     0.112 C 
BRANCH  30  31
HETATM   31  C25 UNL     1     -11.537   9.627  21.072  1.00  0.00     0.217 C 
HETATM   32  O6  UNL     1     -12.292   8.678  20.901  1.00  0.00    -0.274 OA
HETATM   33  N1  UNL     1     -10.873   9.868  22.257  1.00  0.00    -0.361 N 
HETATM   34  H34 UNL     1     -10.451  10.778  22.391  1.00  0.00     0.162 HD
BRANCH  33  35
HETATM   35  C26 UNL     1     -11.140   9.068  23.436  1.00  0.00     0.122 C 
BRANCH  35  36
HETATM   36  C27 UNL     1     -11.889   9.853  24.509  1.00  0.00     0.020 C 
BRANCH  36  37
HETATM   37  C28 UNL     1     -12.787   9.002  25.415  1.00  0.00     0.002 C 
BRANCH  37  38
HETATM   38  C29 UNL     1     -14.273   8.951  25.034  1.00  0.00     0.009 C 
BRANCH  38  39
HETATM   39  C30 UNL     1     -15.216   8.550  26.170  1.00  0.00     0.103 C 
BRANCH  39  40
HETATM   40  C31 UNL     1     -15.270   7.053  26.415  1.00  0.00     0.217 C 
HETATM   41  O7  UNL     1     -15.384   6.219  25.523  1.00  0.00    -0.274 OA
HETATM   42  N2  UNL     1     -15.202   6.727  27.752  1.00  0.00    -0.361 N 
HETATM   43  H45 UNL     1     -14.910   7.438  28.409  1.00  0.00     0.162 HD
BRANCH  42  44
HETATM   44  C32 UNL     1     -15.142   5.344  28.194  1.00  0.00     0.127 C 
BRANCH  44  45
HETATM   45  C33 UNL     1     -13.711   4.811  28.328  1.00  0.00     0.058 C 
BRANCH  45  46
HETATM   46  C34 UNL     1     -13.462   4.109  29.643  1.00  0.00    -0.054 A 
HETATM   47  C35 UNL     1     -12.444   3.145  29.750  1.00  0.00     0.010 A 
HETATM   48  C36 UNL     1     -12.188   2.513  30.969  1.00  0.00     0.040 A 
HETATM   49  C37 UNL     1     -12.951   2.845  32.078  1.00  0.00     0.098 A 
HETATM   50  C38 UNL     1     -13.983   3.772  31.975  1.00  0.00     0.099 A 
HETATM   51  C39 UNL     1     -14.235   4.419  30.773  1.00  0.00     0.046 A 
BRANCH  49  52
HETATM   52  O8  UNL     1     -12.652   2.267  33.279  1.00  0.00    -0.358 OA
HETATM   53  H52 UNL     1     -12.849   2.938  33.958  1.00  0.00     0.217 HD
ENDBRANCH  49  52
BRANCH  50  54
HETATM   54  O9  UNL     1     -14.785   4.037  33.047  1.00  0.00    -0.358 OA
HETATM   55  H53 UNL     1     -14.962   3.175  33.466  1.00  0.00     0.217 HD
ENDBRANCH  50  54
ENDBRANCH  45  46
ENDBRANCH  44  45
ENDBRANCH  42  44
ENDBRANCH  39  40
ENDBRANCH  38  39
ENDBRANCH  37  38
ENDBRANCH  36  37
ENDBRANCH  35  36
ENDBRANCH  33  35
ENDBRANCH  30  31
ENDBRANCH  29  30
ENDBRANCH   1  29
TORSDOF 19
ENDMDL
MODEL 2
REMARK minimizedAffinity -8.54291248
REMARK CNNscore 0.412848502
REMARK CNNaffinity 6.2530036
REMARK  19 active torsions:
REMARK  status: ('A' for Active; 'I' for Inactive)
REMARK    1  A    between atoms: C19_20  and  O2_21 
REMARK    2  A    between atoms: C19_20  and  C20_22 
REMARK    3  A    between atoms: C20_22  and  C21_24 
REMARK    4  A    between atoms: C21_24  and  O4_25 
REMARK    5  A    between atoms: O4_25  and  C22_26 
REMARK    6  A    between atoms: C22_26  and  C23_28 
REMARK    7  A    between atoms: C23_28  and  C24_29 
REMARK    8  A    between atoms: C24_29  and  C25_30 
REMARK       I    between atoms: C25_30  and  N1_32 
REMARK    9  A    between atoms: N1_32  and  C26_33 
REMARK   10  A    between atoms: C26_33  and  C27_34 
REMARK   11  A    between atoms: C27_34  and  C28_35 
REMARK   12  A    between atoms: C28_35  and  C29_36 
REMARK   13  A    between atoms: C29_36  and  C30_37 
REMARK   14  A    between atoms: C30_37  and  C31_38 
REMARK       I    between atoms: C31_38  and  N2_40 
REMARK   15  A    between atoms: N2_40  and  C32_41 
REMARK   16  A    between atoms: C32_41  and  C33_42 
REMARK   17  A    between atoms: C33_42  and  C34_43 
REMARK   18  A    between atoms: C37_46  and  O8_47 
REMARK   19  A    between atoms: C38_48  and  O9_49 
ROOT
HETATM    1  C22 UNL     1       8.118   8.299  13.511  1.00  0.00     0.259 C 
HETATM    2  O5  UNL     1       9.210   8.517  13.007  1.00  0.00    -0.265 OA
ENDROOT
BRANCH   1   3
HETATM    3  O4  UNL     1       6.927   8.506  12.891  1.00  0.00    -0.314 OA
BRANCH   3   4
HETATM    4  C21 UNL     1       6.796   7.980  11.580  1.00  0.00     0.260 C 
BRANCH   4   5
HETATM    5  C20 UNL     1       5.497   7.430  10.951  1.00  0.00     0.185 C 
HETATM    6  O3  UNL     1       5.495   6.276  10.501  1.00  0.00    -0.292 OA
BRANCH   5   7
HETATM    7  C19 UNL     1       4.185   8.270  11.021  1.00  0.00     0.128 C 
HETATM    8  C14 UNL     1       3.238   7.888  12.207  1.00  0.00    -0.002 C 
HETATM    9  C13 UNL     1       2.171   8.993  12.454  1.00  0.00     0.013 C 
HETATM   10  C15 UNL     1       3.997   7.636  13.522  1.00  0.00     0.019 C 
HETATM   11  C16 UNL     1       2.564   6.597  11.689  1.00  0.00     0.002 C 
HETATM   12  C12 UNL     1       0.977   8.531  13.292  1.00  0.00     0.007 C 
HETATM   13  C11 UNL     1       0.286   7.291  12.692  1.00  0.00     0.002 C 
HETATM   14  C2  UNL     1      -0.996   6.834  13.498  1.00  0.00    -0.016 C 
HETATM   15  C10 UNL     1       1.321   6.156  12.494  1.00  0.00    -0.004 C 
HETATM   16  C1  UNL     1      -0.698   6.633  15.001  1.00  0.00     0.020 C 
HETATM   17  C3  UNL     1      -2.084   7.939  13.340  1.00  0.00     0.022 C 
HETATM   18  C7  UNL     1      -1.522   5.506  12.939  1.00  0.00    -0.068 C 
HETATM   19  C4  UNL     1      -3.478   7.494  13.758  1.00  0.00     0.084 C 
HETATM   20  C5  UNL     1      -3.878   6.245  13.018  1.00  0.00     0.149 C 
HETATM   21  O1  UNL     1      -5.049   5.985  12.752  1.00  0.00    -0.293 OA
HETATM   22  C6  UNL     1      -2.821   5.263  12.686  1.00  0.00     0.053 C 
HETATM   23  C8  UNL     1      -0.500   4.420  12.703  1.00  0.00     0.035 C 
HETATM   24  C9  UNL     1       0.663   4.921  11.860  1.00  0.00     0.010 C 
HETATM   25  C17 UNL     1       2.323   6.869  10.195  1.00  0.00     0.009 C 
HETATM   26  C18 UNL     1       3.326   7.949   9.776  1.00  0.00     0.047 C 
BRANCH   7  27
HETATM   27  O2  UNL     1       4.452   9.666  11.026  1.00  0.00    -0.381 OA
HETATM   28  H27 UNL     1       4.769   9.886  10.127  1.00  0.00     0.211 HD
ENDBRANCH   7  27
ENDBRANCH   5   7
ENDBRANCH   4   5
ENDBRANCH   3   4
ENDBRANCH   1   3
BRANCH   1  29
HETATM   29  C23 UNL     1       7.896   7.816  14.921  1.00  0.00     0.120 C 
BRANCH  29  30
HETATM   30  C24 UNL     1       9.154   7.984  15.761  1.00  0.00     0.112 C 
BRANCH  30  31
HETATM   31  C25 UNL     1       8.979   9.014  16.861  1.00  0.00     0.217 C 
HETATM   32  O6  UNL     1       7.893   9.319  17.337  1.00  0.00    -0.274 OA
HETATM   33  N1  UNL     1      10.176   9.553  17.287  1.00  0.00    -0.361 N 
HETATM   34  H34 UNL     1      10.993   9.420  16.704  1.00  0.00     0.162 HD
BRANCH  33  35
HETATM   35  C26 UNL     1      10.203  10.632  18.254  1.00  0.00     0.122 C 
BRANCH  35  36
HETATM   36  C27 UNL     1      10.539  11.974  17.611  1.00  0.00     0.020 C 
BRANCH  36  37
HETATM   37  C28 UNL     1      11.715  11.936  16.627  1.00  0.00     0.002 C 
BRANCH  37  38
HETATM   38  C29 UNL     1      13.108  12.157  17.233  1.00  0.00     0.009 C 
BRANCH  38  39
HETATM   39  C30 UNL     1      14.245  11.427  16.517  1.00  0.00     0.103 C 
BRANCH  39  40
HETATM   40  C31 UNL     1      15.537  12.224  16.457  1.00  0.00     0.217 C 
HETATM   41  O7  UNL     1      15.588  13.424  16.212  1.00  0.00    -0.274 OA
HETATM   42  N2  UNL     1      16.653  11.450  16.686  1.00  0.00    -0.361 N 
HETATM   43  H45 UNL     1      16.529  10.525  17.076  1.00  0.00     0.162 HD
BRANCH  42  44
HETATM   44  C32 UNL     1      17.980  12.036  16.768  1.00  0.00     0.127 C 
BRANCH  44  45
HETATM   45  C33 UNL     1      18.654  11.826  18.129  1.00  0.00     0.058 C 
BRANCH  45  46
HETATM   46  C34 UNL     1      17.982  12.591  19.246  1.00  0.00    -0.054 A 
HETATM   47  C35 UNL     1      18.529  13.801  19.705  1.00  0.00     0.010 A 
HETATM   48  C36 UNL     1      17.898  14.529  20.717  1.00  0.00     0.040 A 
HETATM   49  C37 UNL     1      16.722  14.045  21.268  1.00  0.00     0.098 A 
HETATM   50  C38 UNL     1      16.190  12.831  20.845  1.00  0.00     0.099 A 
HETATM   51  C39 UNL     1      16.799  12.108  19.827  1.00  0.00     0.046 A 
BRANCH  49  52
HETATM   52  O8  UNL     1      16.080  14.794  22.212  1.00  0.00    -0.358 OA
HETATM   53  H52 UNL     1      15.127  14.635  22.082  1.00  0.00     0.217 HD
ENDBRANCH  49  52
BRANCH  50  54
HETATM   54  O9  UNL     1      15.077  12.316  21.444  1.00  0.00    -0.358 OA
HETATM   55  H53 UNL     1      15.191  12.477  22.399  1.00  0.00     0.217 HD
ENDBRANCH  50  54
ENDBRANCH  45  46
ENDBRANCH  44  45
ENDBRANCH  42  44
ENDBRANCH  39  40
ENDBRANCH  38  39
ENDBRANCH  37  38
ENDBRANCH  36  37
ENDBRANCH  35  36
ENDBRANCH  33  35
ENDBRANCH  30  31
ENDBRANCH  29  30
ENDBRANCH   1  29
TORSDOF 19
ENDMDL
MODEL 3
REMARK minimizedAffinity -8.92810059
REMARK CNNscore 0.393001914
REMARK CNNaffinity 6.70007849
REMARK  19 active torsions:
REMARK  status: ('A' for Active; 'I' for Inactive)
REMARK    1  A    between atoms: C19_20  and  O2_21 
REMARK    2  A    between atoms: C19_20  and  C20_22 
REMARK    3  A    between atoms: C20_22  and  C21_24 
REMARK    4  A    between atoms: C21_24  and  O4_25 
REMARK    5  A    between atoms: O4_25  and  C22_26 
REMARK    6  A    between atoms: C22_26  and  C23_28 
REMARK    7  A    between atoms: C23_28  and  C24_29 
REMARK    8  A    between atoms: C24_29  and  C25_30 
REMARK       I    between atoms: C25_30  and  N1_32 
REMARK    9  A    between atoms: N1_32  and  C26_33 
REMARK   10  A    between atoms: C26_33  and  C27_34 
REMARK   11  A    between atoms: C27_34  and  C28_35 
REMARK   12  A    between atoms: C28_35  and  C29_36 
REMARK   13  A    between atoms: C29_36  and  C30_37 
REMARK   14  A    between atoms: C30_37  and  C31_38 
REMARK       I    between atoms: C31_38  and  N2_40 
REMARK   15  A    between atoms: N2_40  and  C32_41 
REMARK   16  A    between atoms: C32_41  and  C33_42 
REMARK   17  A    between atoms: C33_42  and  C34_43 
REMARK   18  A    between atoms: C37_46  and  O8_47 
REMARK   19  A    between atoms: C38_48  and  O9_49 
ROOT
HETATM    1  C22 UNL     1       4.897   6.569  10.701  1.00  0.00     0.259 C 
HETATM    2  O5  UNL     1       5.985   6.051  10.498  1.00  0.00    -0.265 OA
ENDROOT
BRANCH   1   3
HETATM    3  O4  UNL     1       4.586   7.305  11.800  1.00  0.00    -0.314 OA
BRANCH   3   4
HETATM    4  C21 UNL     1       5.290   8.526  11.963  1.00  0.00     0.260 C 
BRANCH   4   5
HETATM    5  C20 UNL     1       6.658   8.696  12.661  1.00  0.00     0.185 C 
HETATM    6  O3  UNL     1       7.634   9.040  11.981  1.00  0.00    -0.292 OA
BRANCH   5   7
HETATM    7  C19 UNL     1       6.759   8.574  14.213  1.00  0.00     0.128 C 
HETATM    8  C14 UNL     1       7.144   9.905  14.939  1.00  0.00    -0.002 C 
HETATM    9  C13 UNL     1       6.845   9.820  16.464  1.00  0.00     0.013 C 
HETATM   10  C15 UNL     1       6.416  11.133  14.364  1.00  0.00     0.019 C 
HETATM   11  C16 UNL     1       8.668   9.986  14.694  1.00  0.00     0.002 C 
HETATM   12  C12 UNL     1       7.557  10.887  17.299  1.00  0.00     0.007 C 
HETATM   13  C11 UNL     1       9.083  10.875  17.086  1.00  0.00     0.002 C 
HETATM   14  C2  UNL     1       9.853  11.919  17.990  1.00  0.00    -0.016 C 
HETATM   15  C10 UNL     1       9.404  11.020  15.577  1.00  0.00    -0.004 C 
HETATM   16  C1  UNL     1       9.281  13.348  17.847  1.00  0.00     0.020 C 
HETATM   17  C3  UNL     1       9.714  11.464  19.475  1.00  0.00     0.022 C 
HETATM   18  C7  UNL     1      11.335  11.962  17.598  1.00  0.00    -0.068 C 
HETATM   19  C4  UNL     1      10.682  12.158  20.424  1.00  0.00     0.084 C 
HETATM   20  C5  UNL     1      12.100  11.992  19.947  1.00  0.00     0.149 C 
HETATM   21  O1  UNL     1      13.055  11.964  20.720  1.00  0.00    -0.293 OA
HETATM   22  C6  UNL     1      12.345  11.953  18.487  1.00  0.00     0.053 C 
HETATM   23  C8  UNL     1      11.642  12.054  16.122  1.00  0.00     0.035 C 
HETATM   24  C9  UNL     1      10.920  10.971  15.334  1.00  0.00     0.010 C 
HETATM   25  C17 UNL     1       9.152   8.533  14.833  1.00  0.00     0.009 C 
HETATM   26  C18 UNL     1       7.940   7.637  14.559  1.00  0.00     0.047 C 
BRANCH   7  27
HETATM   27  O2  UNL     1       5.577   8.022  14.776  1.00  0.00    -0.381 OA
HETATM   28  H27 UNL     1       5.564   7.079  14.513  1.00  0.00     0.211 HD
ENDBRANCH   7  27
ENDBRANCH   5   7
ENDBRANCH   4   5
ENDBRANCH   3   4
ENDBRANCH   1   3
BRANCH   1  29
HETATM   29  C23 UNL     1       3.695   6.441   9.802  1.00  0.00     0.120 C 
BRANCH  29  30
HETATM   30  C24 UNL     1       3.403   7.753   9.088  1.00  0.00     0.112 C 
BRANCH  30  31
HETATM   31  C25 UNL     1       1.974   8.217   9.297  1.00  0.00     0.217 C 
HETATM   32  O6  UNL     1       1.268   8.661   8.401  1.00  0.00    -0.274 OA
HETATM   33  N1  UNL     1       1.544   8.063  10.599  1.00  0.00    -0.361 N 
HETATM   34  H34 UNL     1       2.241   7.903  11.316  1.00  0.00     0.162 HD
BRANCH  33  35
HETATM   35  C26 UNL     1       0.245   8.551  11.016  1.00  0.00     0.122 C 
BRANCH  35  36
HETATM   36  C27 UNL     1      -0.502   7.538  11.879  1.00  0.00     0.020 C 
BRANCH  36  37
HETATM   37  C28 UNL     1      -1.126   8.120  13.153  1.00  0.00     0.002 C 
BRANCH  37  38
HETATM   38  C29 UNL     1      -2.412   8.936  12.963  1.00  0.00     0.009 C 
BRANCH  38  39
HETATM   39  C30 UNL     1      -3.075   9.407  14.258  1.00  0.00     0.103 C 
BRANCH  39  40
HETATM   40  C31 UNL     1      -4.479   8.863  14.455  1.00  0.00     0.217 C 
HETATM   41  O7  UNL     1      -5.308   9.370  15.204  1.00  0.00    -0.274 OA
HETATM   42  N2  UNL     1      -4.719   7.724  13.719  1.00  0.00    -0.361 N 
HETATM   43  H45 UNL     1      -4.073   7.479  12.981  1.00  0.00     0.162 HD
BRANCH  42  44
HETATM   44  C32 UNL     1      -6.031   7.100  13.692  1.00  0.00     0.127 C 
BRANCH  44  45
HETATM   45  C33 UNL     1      -6.070   5.736  14.390  1.00  0.00     0.058 C 
BRANCH  45  46
HETATM   46  C34 UNL     1      -6.037   4.575  13.423  1.00  0.00    -0.054 A 
HETATM   47  C35 UNL     1      -4.952   4.416  12.544  1.00  0.00     0.010 A 
HETATM   48  C36 UNL     1      -4.900   3.330  11.667  1.00  0.00     0.040 A 
HETATM   49  C37 UNL     1      -5.934   2.405  11.670  1.00  0.00     0.098 A 
HETATM   50  C38 UNL     1      -7.029   2.572  12.512  1.00  0.00     0.099 A 
HETATM   51  C39 UNL     1      -7.082   3.638  13.400  1.00  0.00     0.046 A 
BRANCH  49  52
HETATM   52  O8  UNL     1      -5.844   1.314  10.854  1.00  0.00    -0.358 OA
HETATM   53  H52 UNL     1      -6.279   0.584  11.330  1.00  0.00     0.217 HD
ENDBRANCH  49  52
BRANCH  50  54
HETATM   54  O9  UNL     1      -8.083   1.707  12.457  1.00  0.00    -0.358 OA
HETATM   55  H53 UNL     1      -8.235   1.534  11.510  1.00  0.00     0.217 HD
ENDBRANCH  50  54
ENDBRANCH  45  46
ENDBRANCH  44  45
ENDBRANCH  42  44
ENDBRANCH  39  40
ENDBRANCH  38  39
ENDBRANCH  37  38
ENDBRANCH  36  37
ENDBRANCH  35  36
ENDBRANCH  33  35
ENDBRANCH  30  31
ENDBRANCH  29  30
ENDBRANCH   1  29
TORSDOF 19
ENDMDL
MODEL 4
REMARK minimizedAffinity -8.35433865
REMARK CNNscore 0.387305975
REMARK CNNaffinity 7.15663576
REMARK  19 active torsions:
REMARK  status: ('A' for Active; 'I' for Inactive)
REMARK    1  A    between atoms: C19_20  and  O2_21 
REMARK    2  A    between atoms: C19_20  and  C20_22 
REMARK    3  A    between atoms: C20_22  and  C21_24 
REMARK    4  A    between atoms: C21_24  and  O4_25 
REMARK    5  A    between atoms: O4_25  and  C22_26 
REMARK    6  A    between atoms: C22_26  and  C23_28 
REMARK    7  A    between atoms: C23_28  and  C24_29 
REMARK    8  A    between atoms: C24_29  and  C25_30 
REMARK       I    between atoms: C25_30  and  N1_32 
REMARK    9  A    between atoms: N1_32  and  C26_33 
REMARK   10  A    between atoms: C26_33  and  C27_34 
REMARK   11  A    between atoms: C27_34  and  C28_35 
REMARK   12  A    between atoms: C28_35  and  C29_36 
REMARK   13  A    between atoms: C29_36  and  C30_37 
REMARK   14  A    between atoms: C30_37  and  C31_38 
REMARK       I    between atoms: C31_38  and  N2_40 
REMARK   15  A    between atoms: N2_40  and  C32_41 
REMARK   16  A    between atoms: C32_41  and  C33_42 
REMARK   17  A    between atoms: C33_42  and  C34_43 
REMARK   18  A    between atoms: C37_46  and  O8_47 
REMARK   19  A    between atoms: C38_48  and  O9_49 
ROOT
HETATM    1  C22 UNL     1      -3.572   2.201  11.602  1.00  0.00     0.259 C 
HETATM    2  O5  UNL     1      -3.556   0.980  11.568  1.00  0.00    -0.265 OA
ENDROOT
BRANCH   1   3
HETATM    3  O4  UNL     1      -2.505   2.978  11.924  1.00  0.00    -0.314 OA
BRANCH   3   4
HETATM    4  C21 UNL     1      -2.644   4.371  11.691  1.00  0.00     0.260 C 
BRANCH   4   5
HETATM    5  C20 UNL     1      -2.607   5.476  12.770  1.00  0.00     0.185 C 
HETATM    6  O3  UNL     1      -3.613   6.179  12.936  1.00  0.00    -0.292 OA
BRANCH   5   7
HETATM    7  C19 UNL     1      -1.375   5.595  13.719  1.00  0.00     0.128 C 
HETATM    8  C14 UNL     1      -0.432   6.803  13.402  1.00  0.00    -0.002 C 
HETATM    9  C13 UNL     1       0.528   7.094  14.591  1.00  0.00     0.013 C 
HETATM   10  C15 UNL     1      -1.202   8.091  13.066  1.00  0.00     0.019 C 
HETATM   11  C16 UNL     1       0.366   6.288  12.182  1.00  0.00     0.002 C 
HETATM   12  C12 UNL     1       1.734   7.960  14.222  1.00  0.00     0.007 C 
HETATM   13  C11 UNL     1       2.547   7.365  13.055  1.00  0.00     0.002 C 
HETATM   14  C2  UNL     1       3.840   8.202  12.699  1.00  0.00    -0.016 C 
HETATM   15  C10 UNL     1       1.620   7.123  11.838  1.00  0.00    -0.004 C 
HETATM   16  C1  UNL     1       3.520   9.693  12.450  1.00  0.00     0.020 C 
HETATM   17  C3  UNL     1       4.832   8.090  13.896  1.00  0.00     0.022 C 
HETATM   18  C7  UNL     1       4.495   7.642  11.430  1.00  0.00    -0.068 C 
HETATM   19  C4  UNL     1       6.248   8.542  13.566  1.00  0.00     0.084 C 
HETATM   20  C5  UNL     1       6.775   7.798  12.368  1.00  0.00     0.149 C 
HETATM   21  O1  UNL     1       7.971   7.563  12.214  1.00  0.00    -0.293 OA
HETATM   22  C6  UNL     1       5.817   7.424  11.303  1.00  0.00     0.053 C 
HETATM   23  C8  UNL     1       3.578   7.363  10.263  1.00  0.00     0.035 C 
HETATM   24  C9  UNL     1       2.400   6.493  10.674  1.00  0.00     0.010 C 
HETATM   25  C17 UNL     1       0.624   4.805  12.496  1.00  0.00     0.009 C 
HETATM   26  C18 UNL     1      -0.457   4.371  13.492  1.00  0.00     0.047 C 
BRANCH   7  27
HETATM   27  O2  UNL     1      -1.761   5.610  15.086  1.00  0.00    -0.381 OA
HETATM   28  H27 UNL     1      -2.072   4.704  15.292  1.00  0.00     0.211 HD
ENDBRANCH   7  27
ENDBRANCH   5   7
ENDBRANCH   4   5
ENDBRANCH   3   4
ENDBRANCH   1   3
BRANCH   1  29
HETATM   29  C23 UNL     1      -4.785   3.059  11.347  1.00  0.00     0.120 C 
BRANCH  29  30
HETATM   30  C24 UNL     1      -6.067   2.303  11.667  1.00  0.00     0.112 C 
BRANCH  30  31
HETATM   31  C25 UNL     1      -6.969   3.072  12.613  1.00  0.00     0.217 C 
HETATM   32  O6  UNL     1      -8.020   2.628  13.057  1.00  0.00    -0.274 OA
HETATM   33  N1  UNL     1      -6.468   4.315  12.941  1.00  0.00    -0.361 N 
HETATM   34  H34 UNL     1      -5.723   4.695  12.371  1.00  0.00     0.162 HD
BRANCH  33  35
HETATM   35  C26 UNL     1      -7.242   5.240  13.746  1.00  0.00     0.122 C 
BRANCH  35  36
HETATM   36  C27 UNL     1      -6.800   6.687  13.546  1.00  0.00     0.020 C 
BRANCH  36  37
HETATM   37  C28 UNL     1      -6.621   7.486  14.843  1.00  0.00     0.002 C 
BRANCH  37  38
HETATM   38  C29 UNL     1      -7.785   8.407  15.233  1.00  0.00     0.009 C 
BRANCH  38  39
HETATM   39  C30 UNL     1      -8.763   7.814  16.248  1.00  0.00     0.103 C 
BRANCH  39  40
HETATM   40  C31 UNL     1     -10.184   8.329  16.097  1.00  0.00     0.217 C 
HETATM   41  O7  UNL     1     -10.630   9.292  16.711  1.00  0.00    -0.274 OA
HETATM   42  N2  UNL     1     -10.930   7.585  15.210  1.00  0.00    -0.361 N 
HETATM   43  H45 UNL     1     -10.451   6.939  14.596  1.00  0.00     0.162 HD
BRANCH  42  44
HETATM   44  C32 UNL     1     -12.285   7.967  14.850  1.00  0.00     0.127 C 
BRANCH  44  45
HETATM   45  C33 UNL     1     -12.710   7.462  13.466  1.00  0.00     0.058 C 
BRANCH  45  46
HETATM   46  C34 UNL     1     -14.072   6.805  13.470  1.00  0.00    -0.054 A 
HETATM   47  C35 UNL     1     -15.030   7.155  12.502  1.00  0.00     0.010 A 
HETATM   48  C36 UNL     1     -16.279   6.531  12.480  1.00  0.00     0.040 A 
HETATM   49  C37 UNL     1     -16.569   5.559  13.426  1.00  0.00     0.098 A 
HETATM   50  C38 UNL     1     -15.641   5.230  14.408  1.00  0.00     0.099 A 
HETATM   51  C39 UNL     1     -14.389   5.831  14.429  1.00  0.00     0.046 A 
BRANCH  49  52
HETATM   52  O8  UNL     1     -17.769   4.912  13.358  1.00  0.00    -0.358 OA
HETATM   53  H52 UNL     1     -17.603   4.002  13.665  1.00  0.00     0.217 HD
ENDBRANCH  49  52
BRANCH  50  54
HETATM   54  O9  UNL     1     -15.957   4.333  15.387  1.00  0.00    -0.358 OA
HETATM   55  H53 UNL     1     -16.873   4.538  15.650  1.00  0.00     0.217 HD
ENDBRANCH  50  54
ENDBRANCH  45  46
ENDBRANCH  44  45
ENDBRANCH  42  44
ENDBRANCH  39  40
ENDBRANCH  38  39
ENDBRANCH  37  38
ENDBRANCH  36  37
ENDBRANCH  35  36
ENDBRANCH  33  35
ENDBRANCH  30  31
ENDBRANCH  29  30
ENDBRANCH   1  29
TORSDOF 19
ENDMDL
MODEL 5
REMARK minimizedAffinity -7.70332003
REMARK CNNscore 0.313049376
REMARK CNNaffinity 6.98681116
REMARK  19 active torsions:
REMARK  status: ('A' for Active; 'I' for Inactive)
REMARK    1  A    between atoms: C19_20  and  O2_21 
REMARK    2  A    between atoms: C19_20  and  C20_22 
REMARK    3  A    between atoms: C20_22  and  C21_24 
REMARK    4  A    between atoms: C21_24  and  O4_25 
REMARK    5  A    between atoms: O4_25  and  C22_26 
REMARK    6  A    between atoms: C22_26  and  C23_28 
REMARK    7  A    between atoms: C23_28  and  C24_29 
REMARK    8  A    between atoms: C24_29  and  C25_30 
REMARK       I    between atoms: C25_30  and  N1_32 
REMARK    9  A    between atoms: N1_32  and  C26_33 
REMARK   10  A    between atoms: C26_33  and  C27_34 
REMARK   11  A    between atoms: C27_34  and  C28_35 
REMARK   12  A    between atoms: C28_35  and  C29_36 
REMARK   13  A    between atoms: C29_36  and  C30_37 
REMARK   14  A    between atoms: C30_37  and  C31_38 
REMARK       I    between atoms: C31_38  and  N2_40 
REMARK   15  A    between atoms: N2_40  and  C32_41 
REMARK   16  A    between atoms: C32_41  and  C33_42 
REMARK   17  A    between atoms: C33_42  and  C34_43 
REMARK   18  A    between atoms: C37_46  and  O8_47 
REMARK   19  A    between atoms: C38_48  and  O9_49 
ROOT
HETATM    1  C22 UNL     1       3.114   7.854  12.115  1.00  0.00     0.259 C 
HETATM    2  O5  UNL     1       3.098   8.077  10.914  1.00  0.00    -0.265 OA
ENDROOT
BRANCH   1   3
HETATM    3  O4  UNL     1       2.050   7.406  12.832  1.00  0.00    -0.314 OA
BRANCH   3   4
HETATM    4  C21 UNL     1       0.969   8.311  12.990  1.00  0.00     0.260 C 
BRANCH   4   5
HETATM    5  C20 UNL     1       0.393   8.805  14.336  1.00  0.00     0.185 C 
HETATM    6  O3  UNL     1       1.111   8.759  15.343  1.00  0.00    -0.292 OA
BRANCH   5   7
HETATM    7  C19 UNL     1      -1.014   9.478  14.378  1.00  0.00     0.128 C 
HETATM    8  C14 UNL     1      -2.118   8.618  15.078  1.00  0.00    -0.002 C 
HETATM    9  C13 UNL     1      -3.362   9.483  15.435  1.00  0.00     0.013 C 
HETATM   10  C15 UNL     1      -1.617   7.928  16.358  1.00  0.00     0.019 C 
HETATM   11  C16 UNL     1      -2.477   7.587  13.984  1.00  0.00     0.002 C 
HETATM   12  C12 UNL     1      -4.623   8.668  15.733  1.00  0.00     0.007 C 
HETATM   13  C11 UNL     1      -4.989   7.715  14.579  1.00  0.00     0.002 C 
HETATM   14  C2  UNL     1      -6.329   6.912  14.828  1.00  0.00    -0.016 C 
HETATM   15  C10 UNL     1      -3.782   6.802  14.248  1.00  0.00    -0.004 C 
HETATM   16  C1  UNL     1      -6.320   6.169  16.183  1.00  0.00     0.020 C 
HETATM   17  C3  UNL     1      -7.510   7.930  14.815  1.00  0.00     0.022 C 
HETATM   18  C7  UNL     1      -6.531   5.870  13.720  1.00  0.00    -0.068 C 
HETATM   19  C4  UNL     1      -8.881   7.279  14.691  1.00  0.00     0.084 C 
HETATM   20  C5  UNL     1      -8.934   6.387  13.479  1.00  0.00     0.149 C 
HETATM   21  O1  UNL     1      -9.975   6.182  12.860  1.00  0.00    -0.293 OA
HETATM   22  C6  UNL     1      -7.701   5.668  13.087  1.00  0.00     0.053 C 
HETATM   23  C8  UNL     1      -5.336   5.017  13.369  1.00  0.00     0.035 C 
HETATM   24  C9  UNL     1      -4.110   5.867  13.073  1.00  0.00     0.010 C 
HETATM   25  C17 UNL     1      -2.443   8.395  12.676  1.00  0.00     0.009 C 
HETATM   26  C18 UNL     1      -1.543   9.608  12.931  1.00  0.00     0.047 C 
BRANCH   7  27
HETATM   27  O2  UNL     1      -0.959  10.778  14.947  1.00  0.00    -0.381 OA
HETATM   28  H27 UNL     1      -0.499  11.344  14.294  1.00  0.00     0.211 HD
ENDBRANCH   7  27
ENDBRANCH   5   7
ENDBRANCH   4   5
ENDBRANCH   3   4
ENDBRANCH   1   3
BRANCH   1  29
HETATM   29  C23 UNL     1       4.294   8.087  13.023  1.00  0.00     0.120 C 
BRANCH  29  30
HETATM   30  C24 UNL     1       4.757   9.536  12.959  1.00  0.00     0.112 C 
BRANCH  30  31
HETATM   31  C25 UNL     1       5.541   9.945  14.191  1.00  0.00     0.217 C 
HETATM   32  O6  UNL     1       5.074   9.947  15.322  1.00  0.00    -0.274 OA
HETATM   33  N1  UNL     1       6.846  10.291  13.906  1.00  0.00    -0.361 N 
HETATM   34  H34 UNL     1       7.091  10.478  12.941  1.00  0.00     0.162 HD
BRANCH  33  35
HETATM   35  C26 UNL     1       7.720  10.815  14.937  1.00  0.00     0.122 C 
BRANCH  35  36
HETATM   36  C27 UNL     1       7.612  12.331  15.070  1.00  0.00     0.020 C 
BRANCH  36  37
HETATM   37  C28 UNL     1       6.715  12.811  16.217  1.00  0.00     0.002 C 
BRANCH  37  38
HETATM   38  C29 UNL     1       7.425  13.524  17.375  1.00  0.00     0.009 C 
BRANCH  38  39
HETATM   39  C30 UNL     1       7.500  12.724  18.676  1.00  0.00     0.103 C 
BRANCH  39  40
HETATM   40  C31 UNL     1       6.410  13.080  19.672  1.00  0.00     0.217 C 
HETATM   41  O7  UNL     1       5.361  13.637  19.366  1.00  0.00    -0.274 OA
HETATM   42  N2  UNL     1       6.733  12.732  20.965  1.00  0.00    -0.361 N 
HETATM   43  H45 UNL     1       7.512  12.104  21.117  1.00  0.00     0.162 HD
BRANCH  42  44
HETATM   44  C32 UNL     1       5.788  12.898  22.056  1.00  0.00     0.127 C 
BRANCH  44  45
HETATM   45  C33 UNL     1       5.751  11.704  23.015  1.00  0.00     0.058 C 
BRANCH  45  46
HETATM   46  C34 UNL     1       4.591  10.770  22.752  1.00  0.00    -0.054 A 
HETATM   47  C35 UNL     1       4.218  10.458  21.433  1.00  0.00     0.010 A 
HETATM   48  C36 UNL     1       3.167   9.573  21.181  1.00  0.00     0.040 A 
HETATM   49  C37 UNL     1       2.491   9.002  22.248  1.00  0.00     0.098 A 
HETATM   50  C38 UNL     1       2.830   9.330  23.557  1.00  0.00     0.099 A 
HETATM   51  C39 UNL     1       3.884  10.194  23.819  1.00  0.00     0.046 A 
BRANCH  49  52
HETATM   52  O8  UNL     1       1.506   8.091  21.993  1.00  0.00    -0.358 OA
HETATM   53  H52 UNL     1       1.537   7.447  22.723  1.00  0.00     0.217 HD
ENDBRANCH  49  52
BRANCH  50  54
HETATM   54  O9  UNL     1       2.111   8.831  24.605  1.00  0.00    -0.358 OA
HETATM   55  H53 UNL     1       1.176   8.877  24.331  1.00  0.00     0.217 HD
ENDBRANCH  50  54
ENDBRANCH  45  46
ENDBRANCH  44  45
ENDBRANCH  42  44
ENDBRANCH  39  40
ENDBRANCH  38  39
ENDBRANCH  37  38
ENDBRANCH  36  37
ENDBRANCH  35  36
ENDBRANCH  33  35
ENDBRANCH  30  31
ENDBRANCH  29  30
ENDBRANCH   1  29
TORSDOF 19
ENDMDL
MODEL 6
REMARK minimizedAffinity -8.07655239
REMARK CNNscore 0.248118237
REMARK CNNaffinity 6.55143118
REMARK  19 active torsions:
REMARK  status: ('A' for Active; 'I' for Inactive)
REMARK    1  A    between atoms: C19_20  and  O2_21 
REMARK    2  A    between atoms: C19_20  and  C20_22 
REMARK    3  A    between atoms: C20_22  and  C21_24 
REMARK    4  A    between atoms: C21_24  and  O4_25 
REMARK    5  A    between atoms: O4_25  and  C22_26 
REMARK    6  A    between atoms: C22_26  and  C23_28 
REMARK    7  A    between atoms: C23_28  and  C24_29 
REMARK    8  A    between atoms: C24_29  and  C25_30 
REMARK       I    between atoms: C25_30  and  N1_32 
REMARK    9  A    between atoms: N1_32  and  C26_33 
REMARK   10  A    between atoms: C26_33  and  C27_34 
REMARK   11  A    between atoms: C27_34  and  C28_35 
REMARK   12  A    between atoms: C28_35  and  C29_36 
REMARK   13  A    between atoms: C29_36  and  C30_37 
REMARK   14  A    between atoms: C30_37  and  C31_38 
REMARK       I    between atoms: C31_38  and  N2_40 
REMARK   15  A    between atoms: N2_40  and  C32_41 
REMARK   16  A    between atoms: C32_41  and  C33_42 
REMARK   17  A    between atoms: C33_42  and  C34_43 
REMARK   18  A    between atoms: C37_46  and  O8_47 
REMARK   19  A    between atoms: C38_48  and  O9_49 
ROOT
HETATM    1  C22 UNL     1      -1.594  10.396  14.902  1.00  0.00     0.259 C 
HETATM    2  O5  UNL     1      -1.150  10.286  13.769  1.00  0.00    -0.265 OA
ENDROOT
BRANCH   1   3
HETATM    3  O4  UNL     1      -0.849  10.308  16.035  1.00  0.00    -0.314 OA
BRANCH   3   4
HETATM    4  C21 UNL     1      -0.166  11.485  16.435  1.00  0.00     0.260 C 
BRANCH   4   5
HETATM    5  C20 UNL     1      -0.092  12.043  17.873  1.00  0.00     0.185 C 
HETATM    6  O3  UNL     1      -0.787  13.025  18.167  1.00  0.00    -0.292 OA
BRANCH   5   7
HETATM    7  C19 UNL     1       0.734  11.287  18.958  1.00  0.00     0.128 C 
HETATM    8  C14 UNL     1       1.611  12.215  19.864  1.00  0.00    -0.002 C 
HETATM    9  C13 UNL     1       2.084  11.467  21.143  1.00  0.00     0.013 C 
HETATM   10  C15 UNL     1       0.879  13.500  20.289  1.00  0.00     0.019 C 
HETATM   11  C16 UNL     1       2.816  12.528  18.947  1.00  0.00     0.002 C 
HETATM   12  C12 UNL     1       3.257  12.140  21.860  1.00  0.00     0.007 C 
HETATM   13  C11 UNL     1       4.466  12.356  20.929  1.00  0.00     0.002 C 
HETATM   14  C2  UNL     1       5.719  12.984  21.660  1.00  0.00    -0.016 C 
HETATM   15  C10 UNL     1       4.028  13.153  19.675  1.00  0.00    -0.004 C 
HETATM   16  C1  UNL     1       5.361  14.282  22.420  1.00  0.00     0.020 C 
HETATM   17  C3  UNL     1       6.259  11.935  22.679  1.00  0.00     0.022 C 
HETATM   18  C7  UNL     1       6.811  13.321  20.637  1.00  0.00    -0.068 C 
HETATM   19  C4  UNL     1       7.654  12.246  23.203  1.00  0.00     0.084 C 
HETATM   20  C5  UNL     1       8.620  12.424  22.061  1.00  0.00     0.149 C 
HETATM   21  O1  UNL     1       9.814  12.158  22.163  1.00  0.00    -0.293 OA
HETATM   22  C6  UNL     1       8.113  13.028  20.808  1.00  0.00     0.053 C 
HETATM   23  C8  UNL     1       6.369  14.055  19.394  1.00  0.00     0.035 C 
HETATM   24  C9  UNL     1       5.208  13.348  18.711  1.00  0.00     0.010 C 
HETATM   25  C17 UNL     1       3.092  11.202  18.219  1.00  0.00     0.009 C 
HETATM   26  C18 UNL     1       1.786  10.401  18.250  1.00  0.00     0.047 C 
BRANCH   7  27
HETATM   27  O2  UNL     1      -0.088  10.445  19.755  1.00  0.00    -0.381 OA
HETATM   28  H27 UNL     1      -0.362   9.705  19.177  1.00  0.00     0.211 HD
ENDBRANCH   7  27
ENDBRANCH   5   7
ENDBRANCH   4   5
ENDBRANCH   3   4
ENDBRANCH   1   3
BRANCH   1  29
HETATM   29  C23 UNL     1      -3.047  10.593  15.247  1.00  0.00     0.120 C 
BRANCH  29  30
HETATM   30  C24 UNL     1      -3.511   9.566  16.271  1.00  0.00     0.112 C 
BRANCH  30  31
HETATM   31  C25 UNL     1      -3.953   8.267  15.626  1.00  0.00     0.217 C 
HETATM   32  O6  UNL     1      -3.235   7.280  15.530  1.00  0.00    -0.274 OA
HETATM   33  N1  UNL     1      -5.258   8.305  15.180  1.00  0.00    -0.361 N 
HETATM   34  H34 UNL     1      -5.706   9.208  15.092  1.00  0.00     0.162 HD
BRANCH  33  35
HETATM   35  C26 UNL     1      -5.823   7.195  14.438  1.00  0.00     0.122 C 
BRANCH  35  36
HETATM   36  C27 UNL     1      -7.216   6.819  14.936  1.00  0.00     0.020 C 
BRANCH  36  37
HETATM   37  C28 UNL     1      -8.290   6.756  13.843  1.00  0.00     0.002 C 
BRANCH  37  38
HETATM   38  C29 UNL     1      -8.568   5.369  13.250  1.00  0.00     0.009 C 
BRANCH  38  39
HETATM   39  C30 UNL     1      -7.778   4.225  13.888  1.00  0.00     0.103 C 
BRANCH  39  40
HETATM   40  C31 UNL     1      -7.416   3.118  12.914  1.00  0.00     0.217 C 
HETATM   41  O7  UNL     1      -8.111   2.126  12.718  1.00  0.00    -0.274 OA
HETATM   42  N2  UNL     1      -6.209   3.333  12.285  1.00  0.00    -0.361 N 
HETATM   43  H45 UNL     1      -5.792   4.253  12.340  1.00  0.00     0.162 HD
BRANCH  42  44
HETATM   44  C32 UNL     1      -5.724   2.441  11.246  1.00  0.00     0.127 C 
BRANCH  44  45
HETATM   45  C33 UNL     1      -4.619   1.494  11.726  1.00  0.00     0.058 C 
BRANCH  45  46
HETATM   46  C34 UNL     1      -3.235   2.091  11.606  1.00  0.00    -0.054 A 
HETATM   47  C35 UNL     1      -3.016   3.441  11.929  1.00  0.00     0.010 A 
HETATM   48  C36 UNL     1      -1.735   3.993  11.849  1.00  0.00     0.040 A 
HETATM   49  C37 UNL     1      -0.676   3.194  11.446  1.00  0.00     0.098 A 
HETATM   50  C38 UNL     1      -0.888   1.865  11.091  1.00  0.00     0.099 A 
HETATM   51  C39 UNL     1      -2.154   1.302  11.184  1.00  0.00     0.046 A 
BRANCH  49  52
HETATM   52  O8  UNL     1       0.581   3.725  11.431  1.00  0.00    -0.358 OA
HETATM   53  H52 UNL     1       1.185   2.998  11.666  1.00  0.00     0.217 HD
ENDBRANCH  49  52
BRANCH  50  54
HETATM   54  O9  UNL     1       0.139   1.102  10.617  1.00  0.00    -0.358 OA
HETATM   55  H53 UNL     1       0.642   1.680  10.014  1.00  0.00     0.217 HD
ENDBRANCH  50  54
ENDBRANCH  45  46
ENDBRANCH  44  45
ENDBRANCH  42  44
ENDBRANCH  39  40
ENDBRANCH  38  39
ENDBRANCH  37  38
ENDBRANCH  36  37
ENDBRANCH  35  36
ENDBRANCH  33  35
ENDBRANCH  30  31
ENDBRANCH  29  30
ENDBRANCH   1  29
TORSDOF 19
ENDMDL
MODEL 7
REMARK minimizedAffinity -8.67469406
REMARK CNNscore 0.244648233
REMARK CNNaffinity 6.39737463
REMARK  19 active torsions:
REMARK  status: ('A' for Active; 'I' for Inactive)
REMARK    1  A    between atoms: C19_20  and  O2_21 
REMARK    2  A    between atoms: C19_20  and  C20_22 
REMARK    3  A    between atoms: C20_22  and  C21_24 
REMARK    4  A    between atoms: C21_24  and  O4_25 
REMARK    5  A    between atoms: O4_25  and  C22_26 
REMARK    6  A    between atoms: C22_26  and  C23_28 
REMARK    7  A    between atoms: C23_28  and  C24_29 
REMARK    8  A    between atoms: C24_29  and  C25_30 
REMARK       I    between atoms: C25_30  and  N1_32 
REMARK    9  A    between atoms: N1_32  and  C26_33 
REMARK   10  A    between atoms: C26_33  and  C27_34 
REMARK   11  A    between atoms: C27_34  and  C28_35 
REMARK   12  A    between atoms: C28_35  and  C29_36 
REMARK   13  A    between atoms: C29_36  and  C30_37 
REMARK   14  A    between atoms: C30_37  and  C31_38 
REMARK       I    between atoms: C31_38  and  N2_40 
REMARK   15  A    between atoms: N2_40  and  C32_41 
REMARK   16  A    between atoms: C32_41  and  C33_42 
REMARK   17  A    between atoms: C33_42  and  C34_43 
REMARK   18  A    between atoms: C37_46  and  O8_47 
REMARK   19  A    between atoms: C38_48  and  O9_49 
ROOT
HETATM    1  C22 UNL     1       5.154   8.894  10.694  1.00  0.00     0.259 C 
HETATM    2  O5  UNL     1       5.390   9.807   9.916  1.00  0.00    -0.265 OA
ENDROOT
BRANCH   1   3
HETATM    3  O4  UNL     1       5.875   7.745  10.777  1.00  0.00    -0.314 OA
BRANCH   3   4
HETATM    4  C21 UNL     1       6.540   7.503  12.006  1.00  0.00     0.260 C 
BRANCH   4   5
HETATM    5  C20 UNL     1       7.622   8.405  12.642  1.00  0.00     0.185 C 
HETATM    6  O3  UNL     1       7.964   9.435  12.046  1.00  0.00    -0.292 OA
BRANCH   5   7
HETATM    7  C19 UNL     1       8.155   8.086  14.072  1.00  0.00     0.128 C 
HETATM    8  C14 UNL     1       8.189   9.319  15.036  1.00  0.00    -0.002 C 
HETATM    9  C13 UNL     1       8.346   8.871  16.517  1.00  0.00     0.013 C 
HETATM   10  C15 UNL     1       6.936  10.204  14.921  1.00  0.00     0.019 C 
HETATM   11  C16 UNL     1       9.456  10.071  14.566  1.00  0.00     0.002 C 
HETATM   12  C12 UNL     1       8.798   9.987  17.462  1.00  0.00     0.007 C 
HETATM   13  C11 UNL     1      10.109  10.651  16.998  1.00  0.00     0.002 C 
HETATM   14  C2  UNL     1      10.638  11.760  17.994  1.00  0.00    -0.016 C 
HETATM   15  C10 UNL     1       9.954  11.160  15.543  1.00  0.00    -0.004 C 
HETATM   16  C1  UNL     1       9.559  12.819  18.314  1.00  0.00     0.020 C 
HETATM   17  C3  UNL     1      11.065  11.055  19.317  1.00  0.00     0.022 C 
HETATM   18  C7  UNL     1      11.843  12.484  17.381  1.00  0.00    -0.068 C 
HETATM   19  C4  UNL     1      11.913  11.927  20.233  1.00  0.00     0.084 C 
HETATM   20  C5  UNL     1      13.118  12.450  19.497  1.00  0.00     0.149 C 
HETATM   21  O1  UNL     1      14.177  12.701  20.066  1.00  0.00    -0.293 OA
HETATM   22  C6  UNL     1      12.976  12.755  18.055  1.00  0.00     0.053 C 
HETATM   23  C8  UNL     1      11.704  12.934  15.946  1.00  0.00     0.035 C 
HETATM   24  C9  UNL     1      11.262  11.792  15.044  1.00  0.00     0.010 C 
HETATM   25  C17 UNL     1      10.464   8.954  14.250  1.00  0.00     0.009 C 
HETATM   26  C18 UNL     1       9.646   7.689  13.967  1.00  0.00     0.047 C 
BRANCH   7  27
HETATM   27  O2  UNL     1       7.451   7.007  14.670  1.00  0.00    -0.381 OA
HETATM   28  H27 UNL     1       7.723   6.201  14.184  1.00  0.00     0.211 HD
ENDBRANCH   7  27
ENDBRANCH   5   7
ENDBRANCH   4   5
ENDBRANCH   3   4
ENDBRANCH   1   3
BRANCH   1  29
HETATM   29  C23 UNL     1       3.996   8.855  11.657  1.00  0.00     0.120 C 
BRANCH  29  30
HETATM   30  C24 UNL     1       2.865   7.990  11.119  1.00  0.00     0.112 C 
BRANCH  30  31
HETATM   31  C25 UNL     1       1.501   8.489  11.555  1.00  0.00     0.217 C 
HETATM   32  O6  UNL     1       0.610   8.796  10.773  1.00  0.00    -0.274 OA
HETATM   33  N1  UNL     1       1.360   8.536  12.927  1.00  0.00    -0.361 N 
HETATM   34  H34 UNL     1       2.196   8.483  13.495  1.00  0.00     0.162 HD
BRANCH  33  35
HETATM   35  C26 UNL     1       0.165   9.089  13.533  1.00  0.00     0.122 C 
BRANCH  35  36
HETATM   36  C27 UNL     1      -0.802   8.003  13.998  1.00  0.00     0.020 C 
BRANCH  36  37
HETATM   37  C28 UNL     1      -0.128   6.738  14.542  1.00  0.00     0.002 C 
BRANCH  37  38
HETATM   38  C29 UNL     1      -0.557   5.414  13.894  1.00  0.00     0.009 C 
BRANCH  38  39
HETATM   39  C30 UNL     1       0.210   5.040  12.625  1.00  0.00     0.103 C 
BRANCH  39  40
HETATM   40  C31 UNL     1      -0.525   4.049  11.741  1.00  0.00     0.217 C 
HETATM   41  O7  UNL     1      -0.035   2.998  11.340  1.00  0.00    -0.274 OA
HETATM   42  N2  UNL     1      -1.797   4.464  11.414  1.00  0.00    -0.361 N 
HETATM   43  H45 UNL     1      -2.204   5.230  11.934  1.00  0.00     0.162 HD
BRANCH  42  44
HETATM   44  C32 UNL     1      -2.701   3.617  10.655  1.00  0.00     0.127 C 
BRANCH  44  45
HETATM   45  C33 UNL     1      -3.429   2.580  11.517  1.00  0.00     0.058 C 
BRANCH  45  46
HETATM   46  C34 UNL     1      -4.733   3.092  12.085  1.00  0.00    -0.054 A 
HETATM   47  C35 UNL     1      -4.797   4.368  12.672  1.00  0.00     0.010 A 
HETATM   48  C36 UNL     1      -6.005   4.861  13.172  1.00  0.00     0.040 A 
HETATM   49  C37 UNL     1      -7.145   4.077  13.085  1.00  0.00     0.098 A 
HETATM   50  C38 UNL     1      -7.086   2.800  12.536  1.00  0.00     0.099 A 
HETATM   51  C39 UNL     1      -5.895   2.307  12.020  1.00  0.00     0.046 A 
BRANCH  49  52
HETATM   52  O8  UNL     1      -8.333   4.592  13.520  1.00  0.00    -0.358 OA
HETATM   53  H52 UNL     1      -9.019   4.219  12.937  1.00  0.00     0.217 HD
ENDBRANCH  49  52
BRANCH  50  54
HETATM   54  O9  UNL     1      -8.190   1.999  12.524  1.00  0.00    -0.358 OA
HETATM   55  H53 UNL     1      -8.617   2.123  13.392  1.00  0.00     0.217 HD
ENDBRANCH  50  54
ENDBRANCH  45  46
ENDBRANCH  44  45
ENDBRANCH  42  44
ENDBRANCH  39  40
ENDBRANCH  38  39
ENDBRANCH  37  38
ENDBRANCH  36  37
ENDBRANCH  35  36
ENDBRANCH  33  35
ENDBRANCH  30  31
ENDBRANCH  29  30
ENDBRANCH   1  29
TORSDOF 19
ENDMDL
MODEL 8
REMARK minimizedAffinity -8.10667515
REMARK CNNscore 0.239663377
REMARK CNNaffinity 7.11023188
REMARK  19 active torsions:
REMARK  status: ('A' for Active; 'I' for Inactive)
REMARK    1  A    between atoms: C19_20  and  O2_21 
REMARK    2  A    between atoms: C19_20  and  C20_22 
REMARK    3  A    between atoms: C20_22  and  C21_24 
REMARK    4  A    between atoms: C21_24  and  O4_25 
REMARK    5  A    between atoms: O4_25  and  C22_26 
REMARK    6  A    between atoms: C22_26  and  C23_28 
REMARK    7  A    between atoms: C23_28  and  C24_29 
REMARK    8  A    between atoms: C24_29  and  C25_30 
REMARK       I    between atoms: C25_30  and  N1_32 
REMARK    9  A    between atoms: N1_32  and  C26_33 
REMARK   10  A    between atoms: C26_33  and  C27_34 
REMARK   11  A    between atoms: C27_34  and  C28_35 
REMARK   12  A    between atoms: C28_35  and  C29_36 
REMARK   13  A    between atoms: C29_36  and  C30_37 
REMARK   14  A    between atoms: C30_37  and  C31_38 
REMARK       I    between atoms: C31_38  and  N2_40 
REMARK   15  A    between atoms: N2_40  and  C32_41 
REMARK   16  A    between atoms: C32_41  and  C33_42 
REMARK   17  A    between atoms: C33_42  and  C34_43 
REMARK   18  A    between atoms: C37_46  and  O8_47 
REMARK   19  A    between atoms: C38_48  and  O9_49 
ROOT
HETATM    1  C22 UNL     1       2.277   7.091   9.157  1.00  0.00     0.259 C 
HETATM    2  O5  UNL     1       2.579   7.253   7.983  1.00  0.00    -0.265 OA
ENDROOT
BRANCH   1   3
HETATM    3  O4  UNL     1       1.602   7.997   9.911  1.00  0.00    -0.314 OA
BRANCH   3   4
HETATM    4  C21 UNL     1       1.047   7.520  11.127  1.00  0.00     0.260 C 
BRANCH   4   5
HETATM    5  C20 UNL     1       1.659   7.703  12.533  1.00  0.00     0.185 C 
HETATM    6  O3  UNL     1       2.693   8.375  12.650  1.00  0.00    -0.292 OA
BRANCH   5   7
HETATM    7  C19 UNL     1       0.899   7.168  13.786  1.00  0.00     0.128 C 
HETATM    8  C14 UNL     1      -0.486   6.514  13.468  1.00  0.00    -0.002 C 
HETATM    9  C13 UNL     1      -0.997   5.667  14.669  1.00  0.00     0.013 C 
HETATM   10  C15 UNL     1      -0.452   5.619  12.217  1.00  0.00     0.019 C 
HETATM   11  C16 UNL     1      -1.393   7.747  13.256  1.00  0.00     0.002 C 
HETATM   12  C12 UNL     1      -2.492   5.342  14.612  1.00  0.00     0.007 C 
HETATM   13  C11 UNL     1      -3.361   6.608  14.485  1.00  0.00     0.002 C 
HETATM   14  C2  UNL     1      -4.914   6.309  14.496  1.00  0.00    -0.016 C 
HETATM   15  C10 UNL     1      -2.908   7.436  13.257  1.00  0.00    -0.004 C 
HETATM   16  C1  UNL     1      -5.311   5.251  13.441  1.00  0.00     0.020 C 
HETATM   17  C3  UNL     1      -5.292   5.778  15.912  1.00  0.00     0.022 C 
HETATM   18  C7  UNL     1      -5.699   7.592  14.197  1.00  0.00    -0.068 C 
HETATM   19  C4  UNL     1      -6.789   5.778  16.190  1.00  0.00     0.084 C 
HETATM   20  C5  UNL     1      -7.369   7.149  15.963  1.00  0.00     0.149 C 
HETATM   21  O1  UNL     1      -8.348   7.559  16.581  1.00  0.00    -0.293 OA
HETATM   22  C6  UNL     1      -6.783   7.985  14.891  1.00  0.00     0.053 C 
HETATM   23  C8  UNL     1      -5.221   8.420  13.028  1.00  0.00     0.035 C 
HETATM   24  C9  UNL     1      -3.735   8.725  13.131  1.00  0.00     0.010 C 
HETATM   25  C17 UNL     1      -0.923   8.751  14.322  1.00  0.00     0.009 C 
HETATM   26  C18 UNL     1       0.516   8.370  14.682  1.00  0.00     0.047 C 
BRANCH   7  27
HETATM   27  O2  UNL     1       1.704   6.284  14.553  1.00  0.00    -0.381 OA
HETATM   28  H27 UNL     1       2.394   6.837  14.973  1.00  0.00     0.211 HD
ENDBRANCH   7  27
ENDBRANCH   5   7
ENDBRANCH   4   5
ENDBRANCH   3   4
ENDBRANCH   1   3
BRANCH   1  29
HETATM   29  C23 UNL     1       2.643   5.889   9.987  1.00  0.00     0.120 C 
BRANCH  29  30
HETATM   30  C24 UNL     1       4.133   5.594   9.896  1.00  0.00     0.112 C 
BRANCH  30  31
HETATM   31  C25 UNL     1       4.969   6.604  10.658  1.00  0.00     0.217 C 
HETATM   32  O6  UNL     1       5.313   7.685  10.196  1.00  0.00    -0.274 OA
HETATM   33  N1  UNL     1       5.280   6.189  11.937  1.00  0.00    -0.361 N 
HETATM   34  H34 UNL     1       5.155   5.211  12.164  1.00  0.00     0.162 HD
BRANCH  33  35
HETATM   35  C26 UNL     1       6.163   6.972  12.779  1.00  0.00     0.122 C 
BRANCH  35  36
HETATM   36  C27 UNL     1       5.943   8.472  12.609  1.00  0.00     0.020 C 
BRANCH  36  37
HETATM   37  C28 UNL     1       7.172   9.337  12.912  1.00  0.00     0.002 C 
BRANCH  37  38
HETATM   38  C29 UNL     1       7.811   9.139  14.293  1.00  0.00     0.009 C 
BRANCH  38  39
HETATM   39  C30 UNL     1       7.857  10.393  15.168  1.00  0.00     0.103 C 
BRANCH  39  40
HETATM   40  C31 UNL     1       9.055  11.284  14.891  1.00  0.00     0.217 C 
HETATM   41  O7  UNL     1       9.924  11.023  14.066  1.00  0.00    -0.274 OA
HETATM   42  N2  UNL     1       9.077  12.411  15.683  1.00  0.00    -0.361 N 
HETATM   43  H45 UNL     1       8.239  12.663  16.190  1.00  0.00     0.162 HD
BRANCH  42  44
HETATM   44  C32 UNL     1      10.087  13.441  15.510  1.00  0.00     0.127 C 
BRANCH  44  45
HETATM   45  C33 UNL     1      11.516  12.890  15.474  1.00  0.00     0.058 C 
BRANCH  45  46
HETATM   46  C34 UNL     1      12.116  12.711  16.850  1.00  0.00    -0.054 A 
HETATM   47  C35 UNL     1      13.060  13.633  17.337  1.00  0.00     0.010 A 
HETATM   48  C36 UNL     1      13.597  13.492  18.618  1.00  0.00     0.040 A 
HETATM   49  C37 UNL     1      13.189  12.430  19.411  1.00  0.00     0.098 A 
HETATM   50  C38 UNL     1      12.282  11.493  18.927  1.00  0.00     0.099 A 
HETATM   51  C39 UNL     1      11.728  11.633  17.661  1.00  0.00     0.046 A 
BRANCH  49  52
HETATM   52  O8  UNL     1      13.673  12.335  20.685  1.00  0.00    -0.358 OA
HETATM   53  H52 UNL     1      12.955  11.948  21.219  1.00  0.00     0.217 HD
ENDBRANCH  49  52
BRANCH  50  54
HETATM   54  O9  UNL     1      11.944  10.404  19.676  1.00  0.00    -0.358 OA
HETATM   55  H53 UNL     1      12.774  10.094  20.083  1.00  0.00     0.217 HD
ENDBRANCH  50  54
ENDBRANCH  45  46
ENDBRANCH  44  45
ENDBRANCH  42  44
ENDBRANCH  39  40
ENDBRANCH  38  39
ENDBRANCH  37  38
ENDBRANCH  36  37
ENDBRANCH  35  36
ENDBRANCH  33  35
ENDBRANCH  30  31
ENDBRANCH  29  30
ENDBRANCH   1  29
TORSDOF 19
ENDMDL
MODEL 9
REMARK minimizedAffinity -8.14430714
REMARK CNNscore 0.234131753
REMARK CNNaffinity 6.92725134
REMARK  19 active torsions:
REMARK  status: ('A' for Active; 'I' for Inactive)
REMARK    1  A    between atoms: C19_20  and  O2_21 
REMARK    2  A    between atoms: C19_20  and  C20_22 
REMARK    3  A    between atoms: C20_22  and  C21_24 
REMARK    4  A    between atoms: C21_24  and  O4_25 
REMARK    5  A    between atoms: O4_25  and  C22_26 
REMARK    6  A    between atoms: C22_26  and  C23_28 
REMARK    7  A    between atoms: C23_28  and  C24_29 
REMARK    8  A    between atoms: C24_29  and  C25_30 
REMARK       I    between atoms: C25_30  and  N1_32 
REMARK    9  A    between atoms: N1_32  and  C26_33 
REMARK   10  A    between atoms: C26_33  and  C27_34 
REMARK   11  A    between atoms: C27_34  and  C28_35 
REMARK   12  A    between atoms: C28_35  and  C29_36 
REMARK   13  A    between atoms: C29_36  and  C30_37 
REMARK   14  A    between atoms: C30_37  and  C31_38 
REMARK       I    between atoms: C31_38  and  N2_40 
REMARK   15  A    between atoms: N2_40  and  C32_41 
REMARK   16  A    between atoms: C32_41  and  C33_42 
REMARK   17  A    between atoms: C33_42  and  C34_43 
REMARK   18  A    between atoms: C37_46  and  O8_47 
REMARK   19  A    between atoms: C38_48  and  O9_49 
ROOT
HETATM    1  C22 UNL     1       2.400   7.144   9.288  1.00  0.00     0.259 C 
HETATM    2  O5  UNL     1       2.692   7.238   8.105  1.00  0.00    -0.265 OA
ENDROOT
BRANCH   1   3
HETATM    3  O4  UNL     1       1.694   8.073   9.984  1.00  0.00    -0.314 OA
BRANCH   3   4
HETATM    4  C21 UNL     1       1.094   7.637  11.193  1.00  0.00     0.260 C 
BRANCH   4   5
HETATM    5  C20 UNL     1       1.661   7.853  12.613  1.00  0.00     0.185 C 
HETATM    6  O3  UNL     1       2.646   8.590  12.755  1.00  0.00    -0.292 OA
BRANCH   5   7
HETATM    7  C19 UNL     1       0.909   7.265  13.847  1.00  0.00     0.128 C 
HETATM    8  C14 UNL     1      -0.469   6.605  13.507  1.00  0.00    -0.002 C 
HETATM    9  C13 UNL     1      -0.968   5.711  14.678  1.00  0.00     0.013 C 
HETATM   10  C15 UNL     1      -0.426   5.756  12.225  1.00  0.00     0.019 C 
HETATM   11  C16 UNL     1      -1.391   7.835  13.340  1.00  0.00     0.002 C 
HETATM   12  C12 UNL     1      -2.459   5.370  14.611  1.00  0.00     0.007 C 
HETATM   13  C11 UNL     1      -3.344   6.630  14.530  1.00  0.00     0.002 C 
HETATM   14  C2  UNL     1      -4.892   6.311  14.532  1.00  0.00    -0.016 C 
HETATM   15  C10 UNL     1      -2.901   7.506  13.331  1.00  0.00    -0.004 C 
HETATM   16  C1  UNL     1      -5.278   5.287  13.440  1.00  0.00     0.020 C 
HETATM   17  C3  UNL     1      -5.262   5.726  15.929  1.00  0.00     0.022 C 
HETATM   18  C7  UNL     1      -5.693   7.594  14.279  1.00  0.00    -0.068 C 
HETATM   19  C4  UNL     1      -6.759   5.698  16.207  1.00  0.00     0.084 C 
HETATM   20  C5  UNL     1      -7.355   7.069  16.030  1.00  0.00     0.149 C 
HETATM   21  O1  UNL     1      -8.339   7.445  16.662  1.00  0.00    -0.293 OA
HETATM   22  C6  UNL     1      -6.781   7.950  14.988  1.00  0.00     0.053 C 
HETATM   23  C8  UNL     1      -5.227   8.469  13.140  1.00  0.00     0.035 C 
HETATM   24  C9  UNL     1      -3.744   8.788  13.252  1.00  0.00     0.010 C 
HETATM   25  C17 UNL     1      -0.931   8.806  14.440  1.00  0.00     0.009 C 
HETATM   26  C18 UNL     1       0.513   8.429  14.785  1.00  0.00     0.047 C 
BRANCH   7  27
HETATM   27  O2  UNL     1       1.725   6.363  14.582  1.00  0.00    -0.381 OA
HETATM   28  H27 UNL     1       2.409   6.910  15.020  1.00  0.00     0.211 HD
ENDBRANCH   7  27
ENDBRANCH   5   7
ENDBRANCH   4   5
ENDBRANCH   3   4
ENDBRANCH   1   3
BRANCH   1  29
HETATM   29  C23 UNL     1       2.812   6.014  10.195  1.00  0.00     0.120 C 
BRANCH  29  30
HETATM   30  C24 UNL     1       4.291   5.693  10.031  1.00  0.00     0.112 C 
BRANCH  30  31
HETATM   31  C25 UNL     1       5.177   6.627  10.832  1.00  0.00     0.217 C 
HETATM   32  O6  UNL     1       5.928   7.450  10.324  1.00  0.00    -0.274 OA
HETATM   33  N1  UNL     1       5.030   6.470  12.195  1.00  0.00    -0.361 N 
HETATM   34  H34 UNL     1       4.569   5.635  12.532  1.00  0.00     0.162 HD
BRANCH  33  35
HETATM   35  C26 UNL     1       5.872   7.198  13.123  1.00  0.00     0.122 C 
BRANCH  35  36
HETATM   36  C27 UNL     1       5.902   8.694  12.823  1.00  0.00     0.020 C 
BRANCH  36  37
HETATM   37  C28 UNL     1       6.310   9.577  14.009  1.00  0.00     0.002 C 
BRANCH  37  38
HETATM   38  C29 UNL     1       5.523   9.364  15.310  1.00  0.00     0.009 C 
BRANCH  38  39
HETATM   39  C30 UNL     1       4.947  10.637  15.931  1.00  0.00     0.103 C 
BRANCH  39  40
HETATM   40  C31 UNL     1       5.788  11.195  17.065  1.00  0.00     0.217 C 
HETATM   41  O7  UNL     1       6.691  10.573  17.615  1.00  0.00    -0.274 OA
HETATM   42  N2  UNL     1       5.417  12.470  17.429  1.00  0.00    -0.361 N 
HETATM   43  H45 UNL     1       4.810  12.993  16.810  1.00  0.00     0.162 HD
BRANCH  42  44
HETATM   44  C32 UNL     1       6.157  13.221  18.429  1.00  0.00     0.127 C 
BRANCH  44  45
HETATM   45  C33 UNL     1       5.545  13.131  19.831  1.00  0.00     0.058 C 
BRANCH  45  46
HETATM   46  C34 UNL     1       6.584  13.113  20.930  1.00  0.00    -0.054 A 
HETATM   47  C35 UNL     1       6.390  12.323  22.075  1.00  0.00     0.010 A 
HETATM   48  C36 UNL     1       7.358  12.279  23.081  1.00  0.00     0.040 A 
HETATM   49  C37 UNL     1       8.518  13.025  22.940  1.00  0.00     0.098 A 
HETATM   50  C38 UNL     1       8.704  13.837  21.826  1.00  0.00     0.099 A 
HETATM   51  C39 UNL     1       7.757  13.875  20.811  1.00  0.00     0.046 A 
BRANCH  49  52
HETATM   52  O8  UNL     1       9.485  12.927  23.898  1.00  0.00    -0.358 OA
HETATM   53  H52 UNL     1      10.337  13.025  23.434  1.00  0.00     0.217 HD
ENDBRANCH  49  52
BRANCH  50  54
HETATM   54  O9  UNL     1       9.808  14.633  21.725  1.00  0.00    -0.358 OA
HETATM   55  H53 UNL     1       9.946  15.009  22.615  1.00  0.00     0.217 HD
ENDBRANCH  50  54
ENDBRANCH  45  46
ENDBRANCH  44  45
ENDBRANCH  42  44
ENDBRANCH  39  40
ENDBRANCH  38  39
ENDBRANCH  37  38
ENDBRANCH  36  37
ENDBRANCH  35  36
ENDBRANCH  33  35
ENDBRANCH  30  31
ENDBRANCH  29  30
ENDBRANCH   1  29
TORSDOF 19
ENDMDL
