MODEL 1
REMARK minimizedAffinity -7.32069921
REMARK CNNscore 0.608642638
REMARK CNNaffinity 6.3522644
REMARK  9 active torsions:
REMARK  status: ('A' for Active; 'I' for Inactive)
REMARK    1  A    between atoms: C2_2  and  C4_4 
REMARK    2  A    between atoms: C4_4  and  O1_5 
REMARK    3  A    between atoms: C4_4  and  C5_7 
REMARK    4  A    between atoms: O1_5  and  O2_6 
REMARK    5  A    between atoms: C5_7  and  O3_8 
REMARK    6  A    between atoms: C5_7  and  C6_9 
REMARK    7  A    between atoms: C6_9  and  C7_10 
REMARK    8  A    between atoms: C7_10  and  C9_12 
REMARK    9  A    between atoms: C20_23  and  O4_24 
ROOT
HETATM    1  C9  UNL     1       5.923  55.893  -7.791  1.00  0.00    -0.002 C 
HETATM    2  C10 UNL     1       6.735  54.823  -8.569  1.00  0.00     0.006 C 
HETATM    3  C11 UNL     1       5.741  54.010  -9.417  1.00  0.00     0.011 C 
HETATM    4  C12 UNL     1       4.422  54.801  -9.360  1.00  0.00    -0.032 C 
HETATM    5  C13 UNL     1       4.512  55.898 -10.467  1.00  0.00     0.016 C 
HETATM    6  C14 UNL     1       3.149  53.938  -9.558  1.00  0.00     0.004 C 
HETATM    7  C15 UNL     1       2.955  53.421 -10.991  1.00  0.00     0.006 C 
HETATM    8  C16 UNL     1       1.720  52.529 -11.073  1.00  0.00     0.006 C 
HETATM    9  C17 UNL     1       0.450  53.363 -10.875  1.00  0.00     0.001 C 
HETATM   10  C18 UNL     1      -0.845  52.509 -10.801  1.00  0.00     0.015 C 
HETATM   11  C19 UNL     1      -1.057  51.686 -12.081  1.00  0.00     0.013 C 
HETATM   12  C20 UNL     1      -2.092  53.392 -10.531  1.00  0.00     0.122 C 
HETATM   13  C21 UNL     1      -1.798  54.892 -10.565  1.00  0.00     0.033 C 
HETATM   14  C22 UNL     1      -0.649  55.287  -9.628  1.00  0.00     0.013 C 
HETATM   15  C23 UNL     1       0.504  54.285  -9.654  1.00  0.00    -0.027 A 
HETATM   16  C24 UNL     1       0.899  53.720  -8.311  1.00  0.00     0.021 A 
HETATM   17  C25 UNL     1       1.876  54.640  -9.024  1.00  0.00    -0.027 A 
HETATM   18  C26 UNL     1       2.037  56.055  -8.470  1.00  0.00     0.011 C 
HETATM   19  C27 UNL     1       3.340  56.384  -7.723  1.00  0.00     0.011 C 
HETATM   20  C28 UNL     1       4.457  55.346  -7.883  1.00  0.00    -0.032 C 
HETATM   21  C29 UNL     1       4.252  54.249  -6.797  1.00  0.00     0.016 C 
ENDROOT
BRANCH   1  22
HETATM   22  C7  UNL     1       6.543  56.235  -6.402  1.00  0.00    -0.011 C 
HETATM   23  C8  UNL     1       6.264  57.677  -5.988  1.00  0.00     0.010 C 
BRANCH  22  24
HETATM   24  C6  UNL     1       8.060  55.884  -6.272  1.00  0.00     0.039 C 
BRANCH  24  25
HETATM   25  C5  UNL     1       8.860  56.318  -5.026  1.00  0.00     0.154 C 
BRANCH  25  26
HETATM   26  C4  UNL     1      10.254  56.965  -5.280  1.00  0.00     0.216 C 
BRANCH  26  27
HETATM   27  C2  UNL     1      10.337  58.442  -4.912  1.00  0.00    -0.059 C 
HETATM   28  C1  UNL     1       9.311  59.297  -5.080  1.00  0.00     0.016 C 
HETATM   29  C3  UNL     1      11.624  58.911  -4.289  1.00  0.00     0.045 C 
ENDBRANCH  26  27
BRANCH  26  30
HETATM   30  O1  UNL     1      11.224  56.273  -4.447  1.00  0.00    -0.231 OA
BRANCH  30  31
HETATM   31  O2  UNL     1      12.402  56.027  -5.266  1.00  0.00    -0.250 OA
HETATM   32  H7  UNL     1      13.002  56.615  -4.771  1.00  0.00     0.253 HD
ENDBRANCH  30  31
ENDBRANCH  26  30
ENDBRANCH  25  26
BRANCH  25  33
HETATM   33  O3  UNL     1       8.970  55.216  -4.120  1.00  0.00    -0.393 OA
HETATM   34  H9  UNL     1       9.685  55.457  -3.492  1.00  0.00     0.210 HD
ENDBRANCH  25  33
ENDBRANCH  24  25
ENDBRANCH  22  24
ENDBRANCH   1  22
BRANCH  12  35
HETATM   35  O4  UNL     1      -2.623  53.045  -9.247  1.00  0.00    -0.395 OA
HETATM   36  H35 UNL     1      -3.439  53.559  -9.120  1.00  0.00     0.210 HD
ENDBRANCH  12  35
TORSDOF 9
ENDMDL
MODEL 2
REMARK minimizedAffinity -6.9514699
REMARK CNNscore 0.443980634
REMARK CNNaffinity 6.28360796
REMARK  9 active torsions:
REMARK  status: ('A' for Active; 'I' for Inactive)
REMARK    1  A    between atoms: C2_2  and  C4_4 
REMARK    2  A    between atoms: C4_4  and  O1_5 
REMARK    3  A    between atoms: C4_4  and  C5_7 
REMARK    4  A    between atoms: O1_5  and  O2_6 
REMARK    5  A    between atoms: C5_7  and  O3_8 
REMARK    6  A    between atoms: C5_7  and  C6_9 
REMARK    7  A    between atoms: C6_9  and  C7_10 
REMARK    8  A    between atoms: C7_10  and  C9_12 
REMARK    9  A    between atoms: C20_23  and  O4_24 
ROOT
HETATM    1  C9  UNL     1      -1.071  53.281 -11.401  1.00  0.00    -0.002 C 
HETATM    2  C10 UNL     1      -0.181  52.440 -12.355  1.00  0.00     0.006 C 
HETATM    3  C11 UNL     1      -0.924  51.123 -12.644  1.00  0.00     0.011 C 
HETATM    4  C12 UNL     1      -2.350  51.340 -12.110  1.00  0.00    -0.032 C 
HETATM    5  C13 UNL     1      -3.144  52.067 -13.240  1.00  0.00     0.016 C 
HETATM    6  C14 UNL     1      -3.082  50.038 -11.689  1.00  0.00     0.004 C 
HETATM    7  C15 UNL     1      -3.494  49.140 -12.865  1.00  0.00     0.006 C 
HETATM    8  C16 UNL     1      -4.141  47.856 -12.353  1.00  0.00     0.006 C 
HETATM    9  C17 UNL     1      -5.499  48.166 -11.715  1.00  0.00     0.001 C 
HETATM   10  C18 UNL     1      -6.160  46.934 -11.040  1.00  0.00     0.015 C 
HETATM   11  C19 UNL     1      -6.398  45.795 -12.044  1.00  0.00     0.013 C 
HETATM   12  C20 UNL     1      -7.497  47.314 -10.350  1.00  0.00     0.122 C 
HETATM   13  C21 UNL     1      -7.940  48.751 -10.626  1.00  0.00     0.033 C 
HETATM   14  C22 UNL     1      -6.852  49.777 -10.286  1.00  0.00     0.013 C 
HETATM   15  C23 UNL     1      -5.457  49.318 -10.707  1.00  0.00    -0.027 A 
HETATM   16  C24 UNL     1      -4.422  49.308  -9.608  1.00  0.00     0.021 A 
HETATM   17  C25 UNL     1      -4.269  50.315 -10.734  1.00  0.00    -0.027 A 
HETATM   18  C26 UNL     1      -4.586  51.776 -10.416  1.00  0.00     0.011 C 
HETATM   19  C27 UNL     1      -3.404  52.753 -10.308  1.00  0.00     0.011 C 
HETATM   20  C28 UNL     1      -2.067  52.214 -10.831  1.00  0.00    -0.032 C 
HETATM   21  C29 UNL     1      -1.376  51.437  -9.671  1.00  0.00     0.016 C 
ENDROOT
BRANCH   1  22
HETATM   22  C7  UNL     1      -0.242  54.174 -10.429  1.00  0.00    -0.011 C 
HETATM   23  C8  UNL     1      -1.023  55.405  -9.975  1.00  0.00     0.010 C 
BRANCH  22  24
HETATM   24  C6  UNL     1       1.176  54.557 -10.959  1.00  0.00     0.039 C 
BRANCH  24  25
HETATM   25  C5  UNL     1       2.435  53.860 -10.400  1.00  0.00     0.154 C 
BRANCH  25  26
HETATM   26  C4  UNL     1       3.388  54.732  -9.529  1.00  0.00     0.216 C 
BRANCH  26  27
HETATM   27  C2  UNL     1       4.593  55.288 -10.278  1.00  0.00    -0.059 C 
HETATM   28  C1  UNL     1       4.487  55.951 -11.445  1.00  0.00     0.016 C 
HETATM   29  C3  UNL     1       5.936  55.110  -9.623  1.00  0.00     0.045 C 
ENDBRANCH  26  27
BRANCH  26  30
HETATM   30  O1  UNL     1       2.630  55.877  -9.050  1.00  0.00    -0.231 OA
BRANCH  30  31
HETATM   31  O2  UNL     1       3.545  57.007  -8.989  1.00  0.00    -0.250 OA
HETATM   32  H7  UNL     1       3.116  57.530  -9.692  1.00  0.00     0.253 HD
ENDBRANCH  30  31
ENDBRANCH  26  30
ENDBRANCH  25  26
BRANCH  25  33
HETATM   33  O3  UNL     1       3.154  53.240 -11.471  1.00  0.00    -0.393 OA
HETATM   34  H9  UNL     1       4.048  53.046 -11.114  1.00  0.00     0.210 HD
ENDBRANCH  25  33
ENDBRANCH  24  25
ENDBRANCH  22  24
ENDBRANCH   1  22
BRANCH  12  35
HETATM   35  O4  UNL     1      -7.346  47.131  -8.937  1.00  0.00    -0.395 OA
HETATM   36  H35 UNL     1      -8.208  47.310  -8.526  1.00  0.00     0.210 HD
ENDBRANCH  12  35
TORSDOF 9
ENDMDL
MODEL 3
REMARK minimizedAffinity -7.31548977
REMARK CNNscore 0.403376639
REMARK CNNaffinity 6.5173645
REMARK  9 active torsions:
REMARK  status: ('A' for Active; 'I' for Inactive)
REMARK    1  A    between atoms: C2_2  and  C4_4 
REMARK    2  A    between atoms: C4_4  and  O1_5 
REMARK    3  A    between atoms: C4_4  and  C5_7 
REMARK    4  A    between atoms: O1_5  and  O2_6 
REMARK    5  A    between atoms: C5_7  and  O3_8 
REMARK    6  A    between atoms: C5_7  and  C6_9 
REMARK    7  A    between atoms: C6_9  and  C7_10 
REMARK    8  A    between atoms: C7_10  and  C9_12 
REMARK    9  A    between atoms: C20_23  and  O4_24 
ROOT
HETATM    1  C9  UNL     1       1.934  53.535 -11.034  1.00  0.00    -0.002 C 
HETATM    2  C10 UNL     1       0.828  54.606 -10.832  1.00  0.00     0.006 C 
HETATM    3  C11 UNL     1       1.344  55.618  -9.795  1.00  0.00     0.011 C 
HETATM    4  C12 UNL     1       2.842  55.302  -9.634  1.00  0.00    -0.032 C 
HETATM    5  C13 UNL     1       3.583  56.059 -10.781  1.00  0.00     0.016 C 
HETATM    6  C14 UNL     1       3.435  55.697  -8.256  1.00  0.00     0.004 C 
HETATM    7  C15 UNL     1       3.575  57.211  -8.041  1.00  0.00     0.006 C 
HETATM    8  C16 UNL     1       4.100  57.504  -6.638  1.00  0.00     0.006 C 
HETATM    9  C17 UNL     1       5.555  57.042  -6.510  1.00  0.00     0.001 C 
HETATM   10  C18 UNL     1       6.120  57.172  -5.070  1.00  0.00     0.015 C 
HETATM   11  C19 UNL     1       6.077  58.625  -4.572  1.00  0.00     0.013 C 
HETATM   12  C20 UNL     1       7.571  56.628  -4.978  1.00  0.00     0.122 C 
HETATM   13  C21 UNL     1       8.167  56.248  -6.334  1.00  0.00     0.033 C 
HETATM   14  C22 UNL     1       7.278  55.272  -7.115  1.00  0.00     0.013 C 
HETATM   15  C23 UNL     1       5.793  55.613  -7.007  1.00  0.00    -0.027 A 
HETATM   16  C24 UNL     1       4.908  54.495  -6.510  1.00  0.00     0.021 A 
HETATM   17  C25 UNL     1       4.757  54.950  -7.952  1.00  0.00    -0.027 A 
HETATM   18  C26 UNL     1       5.305  54.026  -9.039  1.00  0.00     0.011 C 
HETATM   19  C27 UNL     1       4.290  53.256  -9.898  1.00  0.00     0.011 C 
HETATM   20  C28 UNL     1       2.838  53.734  -9.770  1.00  0.00    -0.032 C 
HETATM   21  C29 UNL     1       2.195  52.993  -8.559  1.00  0.00     0.016 C 
ENDROOT
BRANCH   1  22
HETATM   22  C7  UNL     1       1.359  52.125 -11.369  1.00  0.00    -0.011 C 
HETATM   23  C8  UNL     1       1.659  51.712 -12.808  1.00  0.00     0.010 C 
BRANCH  22  24
HETATM   24  C6  UNL     1      -0.154  51.950 -11.025  1.00  0.00     0.039 C 
BRANCH  24  25
HETATM   25  C5  UNL     1      -1.241  52.534 -11.952  1.00  0.00     0.154 C 
BRANCH  25  26
HETATM   26  C4  UNL     1      -2.589  51.756 -12.026  1.00  0.00     0.216 C 
BRANCH  26  27
HETATM   27  C2  UNL     1      -3.633  52.210 -11.012  1.00  0.00    -0.059 C 
HETATM   28  C1  UNL     1      -4.672  51.440 -10.638  1.00  0.00     0.016 C 
HETATM   29  C3  UNL     1      -3.425  53.563 -10.388  1.00  0.00     0.045 C 
ENDBRANCH  26  27
BRANCH  26  30
HETATM   30  O1  UNL     1      -3.162  51.984 -13.343  1.00  0.00    -0.231 OA
BRANCH  30  31
HETATM   31  O2  UNL     1      -3.663  53.350 -13.368  1.00  0.00    -0.250 OA
HETATM   32  H7  UNL     1      -3.030  53.684 -14.032  1.00  0.00     0.253 HD
ENDBRANCH  30  31
ENDBRANCH  26  30
ENDBRANCH  25  26
BRANCH  25  33
HETATM   33  O3  UNL     1      -0.699  52.733 -13.261  1.00  0.00    -0.393 OA
HETATM   34  H9  UNL     1      -1.471  52.852 -13.855  1.00  0.00     0.210 HD
ENDBRANCH  25  33
ENDBRANCH  24  25
ENDBRANCH  22  24
ENDBRANCH   1  22
BRANCH  12  35
HETATM   35  O4  UNL     1       7.570  55.477  -4.125  1.00  0.00    -0.395 OA
HETATM   36  H35 UNL     1       8.492  55.188  -4.026  1.00  0.00     0.210 HD
ENDBRANCH  12  35
TORSDOF 9
ENDMDL
MODEL 4
REMARK minimizedAffinity -9.29775524
REMARK CNNscore 0.375582665
REMARK CNNaffinity 6.75967741
REMARK  9 active torsions:
REMARK  status: ('A' for Active; 'I' for Inactive)
REMARK    1  A    between atoms: C2_2  and  C4_4 
REMARK    2  A    between atoms: C4_4  and  O1_5 
REMARK    3  A    between atoms: C4_4  and  C5_7 
REMARK    4  A    between atoms: O1_5  and  O2_6 
REMARK    5  A    between atoms: C5_7  and  O3_8 
REMARK    6  A    between atoms: C5_7  and  C6_9 
REMARK    7  A    between atoms: C6_9  and  C7_10 
REMARK    8  A    between atoms: C7_10  and  C9_12 
REMARK    9  A    between atoms: C20_23  and  O4_24 
ROOT
HETATM    1  C9  UNL     1      -1.118  50.985 -23.358  1.00  0.00    -0.002 C 
HETATM    2  C10 UNL     1      -0.654  52.465 -23.426  1.00  0.00     0.006 C 
HETATM    3  C11 UNL     1      -0.202  52.876 -22.014  1.00  0.00     0.011 C 
HETATM    4  C12 UNL     1      -0.121  51.561 -21.218  1.00  0.00    -0.032 C 
HETATM    5  C13 UNL     1       1.282  50.945 -21.516  1.00  0.00     0.016 C 
HETATM    6  C14 UNL     1      -0.325  51.724 -19.688  1.00  0.00     0.004 C 
HETATM    7  C15 UNL     1       0.845  52.411 -18.968  1.00  0.00     0.006 C 
HETATM    8  C16 UNL     1       0.527  52.589 -17.486  1.00  0.00     0.006 C 
HETATM    9  C17 UNL     1       0.493  51.228 -16.784  1.00  0.00     0.001 C 
HETATM   10  C18 UNL     1       0.035  51.307 -15.303  1.00  0.00     0.015 C 
HETATM   11  C19 UNL     1       0.960  52.207 -14.469  1.00  0.00     0.013 C 
HETATM   12  C20 UNL     1      -0.050  49.898 -14.658  1.00  0.00     0.122 C 
HETATM   13  C21 UNL     1       0.488  48.783 -15.556  1.00  0.00     0.033 C 
HETATM   14  C22 UNL     1      -0.167  48.777 -16.943  1.00  0.00     0.013 C 
HETATM   15  C23 UNL     1      -0.359  50.183 -17.509  1.00  0.00    -0.027 A 
HETATM   16  C24 UNL     1      -1.771  50.527 -17.918  1.00  0.00     0.021 A 
HETATM   17  C25 UNL     1      -0.718  50.392 -19.004  1.00  0.00    -0.027 A 
HETATM   18  C26 UNL     1      -0.773  49.143 -19.883  1.00  0.00     0.011 C 
HETATM   19  C27 UNL     1      -1.256  49.313 -21.333  1.00  0.00     0.011 C 
HETATM   20  C28 UNL     1      -1.337  50.764 -21.822  1.00  0.00    -0.032 C 
HETATM   21  C29 UNL     1      -2.731  51.330 -21.418  1.00  0.00     0.016 C 
ENDROOT
BRANCH   1  22
HETATM   22  C7  UNL     1      -2.264  50.662 -24.365  1.00  0.00    -0.011 C 
HETATM   23  C8  UNL     1      -2.948  49.335 -24.048  1.00  0.00     0.010 C 
BRANCH  22  24
HETATM   24  C6  UNL     1      -1.842  50.747 -25.866  1.00  0.00     0.039 C 
BRANCH  24  25
HETATM   25  C5  UNL     1      -1.852  52.100 -26.608  1.00  0.00     0.154 C 
BRANCH  25  26
HETATM   26  C4  UNL     1      -0.525  52.916 -26.593  1.00  0.00     0.216 C 
BRANCH  26  27
HETATM   27  C2  UNL     1       0.690  52.148 -27.101  1.00  0.00    -0.059 C 
HETATM   28  C1  UNL     1       0.868  51.836 -28.399  1.00  0.00     0.016 C 
HETATM   29  C3  UNL     1       1.736  51.789 -26.081  1.00  0.00     0.045 C 
ENDBRANCH  26  27
BRANCH  26  30
HETATM   30  O1  UNL     1      -0.695  54.058 -27.476  1.00  0.00    -0.231 OA
BRANCH  30  31
HETATM   31  O2  UNL     1       0.083  55.156 -26.919  1.00  0.00    -0.250 OA
HETATM   32  H7  UNL     1       0.732  55.206 -27.646  1.00  0.00     0.253 HD
ENDBRANCH  30  31
ENDBRANCH  26  30
ENDBRANCH  25  26
BRANCH  25  33
HETATM   33  O3  UNL     1      -2.942  52.898 -26.136  1.00  0.00    -0.393 OA
HETATM   34  H9  UNL     1      -2.753  53.813 -26.436  1.00  0.00     0.210 HD
ENDBRANCH  25  33
ENDBRANCH  24  25
ENDBRANCH  22  24
ENDBRANCH   1  22
BRANCH  12  35
HETATM   35  O4  UNL     1      -1.420  49.627 -14.340  1.00  0.00    -0.395 OA
HETATM   36  H35 UNL     1      -1.448  48.771 -13.879  1.00  0.00     0.210 HD
ENDBRANCH  12  35
TORSDOF 9
ENDMDL
MODEL 5
REMARK minimizedAffinity -7.30405903
REMARK CNNscore 0.357324094
REMARK CNNaffinity 6.4036541
REMARK  9 active torsions:
REMARK  status: ('A' for Active; 'I' for Inactive)
REMARK    1  A    between atoms: C2_2  and  C4_4 
REMARK    2  A    between atoms: C4_4  and  O1_5 
REMARK    3  A    between atoms: C4_4  and  C5_7 
REMARK    4  A    between atoms: O1_5  and  O2_6 
REMARK    5  A    between atoms: C5_7  and  O3_8 
REMARK    6  A    between atoms: C5_7  and  C6_9 
REMARK    7  A    between atoms: C6_9  and  C7_10 
REMARK    8  A    between atoms: C7_10  and  C9_12 
REMARK    9  A    between atoms: C20_23  and  O4_24 
ROOT
HETATM    1  C9  UNL     1       2.453  53.094 -11.016  1.00  0.00    -0.002 C 
HETATM    2  C10 UNL     1       1.386  54.218 -11.094  1.00  0.00     0.006 C 
HETATM    3  C11 UNL     1       1.822  55.342 -10.137  1.00  0.00     0.011 C 
HETATM    4  C12 UNL     1       3.271  54.999  -9.749  1.00  0.00    -0.032 C 
HETATM    5  C13 UNL     1       4.182  55.573 -10.880  1.00  0.00     0.016 C 
HETATM    6  C14 UNL     1       3.713  55.553  -8.369  1.00  0.00     0.004 C 
HETATM    7  C15 UNL     1       3.900  57.077  -8.332  1.00  0.00     0.006 C 
HETATM    8  C16 UNL     1       4.266  57.535  -6.923  1.00  0.00     0.006 C 
HETATM    9  C17 UNL     1       5.670  57.045  -6.555  1.00  0.00     0.001 C 
HETATM   10  C18 UNL     1       6.063  57.346  -5.083  1.00  0.00     0.015 C 
HETATM   11  C19 UNL     1       6.032  58.852  -4.783  1.00  0.00     0.013 C 
HETATM   12  C20 UNL     1       7.463  56.770  -4.740  1.00  0.00     0.122 C 
HETATM   13  C21 UNL     1       8.199  56.194  -5.950  1.00  0.00     0.033 C 
HETATM   14  C22 UNL     1       7.364  55.154  -6.706  1.00  0.00     0.013 C 
HETATM   15  C23 UNL     1       5.895  55.556  -6.831  1.00  0.00    -0.027 A 
HETATM   16  C24 UNL     1       4.902  54.544  -6.312  1.00  0.00     0.021 A 
HETATM   17  C25 UNL     1       4.949  54.808  -7.807  1.00  0.00    -0.027 A 
HETATM   18  C26 UNL     1       5.579  53.731  -8.690  1.00  0.00     0.011 C 
HETATM   19  C27 UNL     1       4.637  52.888  -9.566  1.00  0.00     0.011 C 
HETATM   20  C28 UNL     1       3.206  53.428  -9.684  1.00  0.00    -0.032 C 
HETATM   21  C29 UNL     1       2.386  52.876  -8.480  1.00  0.00     0.016 C 
ENDROOT
BRANCH   1  22
HETATM   22  C7  UNL     1       1.853  51.672 -11.240  1.00  0.00    -0.011 C 
HETATM   23  C8  UNL     1       2.921  50.583 -11.173  1.00  0.00     0.010 C 
BRANCH  22  24
HETATM   24  C6  UNL     1       0.978  51.539 -12.526  1.00  0.00     0.039 C 
BRANCH  24  25
HETATM   25  C5  UNL     1       1.578  50.961 -13.826  1.00  0.00     0.154 C 
BRANCH  25  26
HETATM   26  C4  UNL     1       2.279  51.971 -14.782  1.00  0.00     0.216 C 
BRANCH  26  27
HETATM   27  C2  UNL     1       3.714  51.604 -15.142  1.00  0.00    -0.059 C 
HETATM   28  C1  UNL     1       4.429  52.270 -16.069  1.00  0.00     0.016 C 
HETATM   29  C3  UNL     1       4.336  50.475 -14.367  1.00  0.00     0.045 C 
ENDBRANCH  26  27
BRANCH  26  30
HETATM   30  O1  UNL     1       1.530  51.996 -16.028  1.00  0.00    -0.231 OA
BRANCH  30  31
HETATM   31  O2  UNL     1       1.267  53.392 -16.348  1.00  0.00    -0.250 OA
HETATM   32  H7  UNL     1       1.820  53.424 -17.151  1.00  0.00     0.253 HD
ENDBRANCH  30  31
ENDBRANCH  26  30
ENDBRANCH  25  26
BRANCH  25  33
HETATM   33  O3  UNL     1       0.578  50.212 -14.524  1.00  0.00    -0.393 OA
HETATM   34  H9  UNL     1       0.922  50.093 -15.435  1.00  0.00     0.210 HD
ENDBRANCH  25  33
ENDBRANCH  24  25
ENDBRANCH  22  24
ENDBRANCH   1  22
BRANCH  12  35
HETATM   35  O4  UNL     1       7.301  55.743  -3.754  1.00  0.00    -0.395 OA
HETATM   36  H35 UNL     1       8.190  55.438  -3.503  1.00  0.00     0.210 HD
ENDBRANCH  12  35
TORSDOF 9
ENDMDL
MODEL 6
REMARK minimizedAffinity -9.56585026
REMARK CNNscore 0.344283789
REMARK CNNaffinity 7.0104332
REMARK  9 active torsions:
REMARK  status: ('A' for Active; 'I' for Inactive)
REMARK    1  A    between atoms: C2_2  and  C4_4 
REMARK    2  A    between atoms: C4_4  and  O1_5 
REMARK    3  A    between atoms: C4_4  and  C5_7 
REMARK    4  A    between atoms: O1_5  and  O2_6 
REMARK    5  A    between atoms: C5_7  and  O3_8 
REMARK    6  A    between atoms: C5_7  and  C6_9 
REMARK    7  A    between atoms: C6_9  and  C7_10 
REMARK    8  A    between atoms: C7_10  and  C9_12 
REMARK    9  A    between atoms: C20_23  and  O4_24 
ROOT
HETATM    1  C9  UNL     1      -3.706  50.572 -24.936  1.00  0.00    -0.002 C 
HETATM    2  C10 UNL     1      -5.101  50.056 -24.491  1.00  0.00     0.006 C 
HETATM    3  C11 UNL     1      -5.117  50.024 -22.953  1.00  0.00     0.011 C 
HETATM    4  C12 UNL     1      -3.859  50.799 -22.521  1.00  0.00    -0.032 C 
HETATM    5  C13 UNL     1      -4.246  52.312 -22.520  1.00  0.00     0.016 C 
HETATM    6  C14 UNL     1      -3.295  50.386 -21.136  1.00  0.00     0.004 C 
HETATM    7  C15 UNL     1      -4.162  50.826 -19.947  1.00  0.00     0.006 C 
HETATM    8  C16 UNL     1      -3.567  50.318 -18.637  1.00  0.00     0.006 C 
HETATM    9  C17 UNL     1      -2.249  51.040 -18.339  1.00  0.00     0.001 C 
HETATM   10  C18 UNL     1      -1.504  50.480 -17.096  1.00  0.00     0.015 C 
HETATM   11  C19 UNL     1      -2.360  50.587 -15.825  1.00  0.00     0.013 C 
HETATM   12  C20 UNL     1      -0.145  51.196 -16.877  1.00  0.00     0.122 C 
HETATM   13  C21 UNL     1       0.076  52.384 -17.815  1.00  0.00     0.033 C 
HETATM   14  C22 UNL     1      -0.099  52.008 -19.292  1.00  0.00     0.013 C 
HETATM   15  C23 UNL     1      -1.280  51.067 -19.524  1.00  0.00    -0.027 A 
HETATM   16  C24 UNL     1      -0.950  49.782 -20.245  1.00  0.00     0.021 A 
HETATM   17  C25 UNL     1      -1.816  50.807 -20.956  1.00  0.00    -0.027 A 
HETATM   18  C26 UNL     1      -1.172  51.604 -22.090  1.00  0.00     0.011 C 
HETATM   19  C27 UNL     1      -1.595  51.265 -23.529  1.00  0.00     0.011 C 
HETATM   20  C28 UNL     1      -2.840  50.377 -23.645  1.00  0.00    -0.032 C 
HETATM   21  C29 UNL     1      -2.379  48.891 -23.558  1.00  0.00     0.016 C 
ENDROOT
BRANCH   1  22
HETATM   22  C7  UNL     1      -3.238  49.960 -26.291  1.00  0.00    -0.011 C 
HETATM   23  C8  UNL     1      -3.056  48.447 -26.205  1.00  0.00     0.010 C 
BRANCH  22  24
HETATM   24  C6  UNL     1      -1.983  50.655 -26.910  1.00  0.00     0.039 C 
BRANCH  24  25
HETATM   25  C5  UNL     1      -1.967  52.180 -27.144  1.00  0.00     0.154 C 
BRANCH  25  26
HETATM   26  C4  UNL     1      -0.655  52.931 -26.772  1.00  0.00     0.216 C 
BRANCH  26  27
HETATM   27  C2  UNL     1       0.620  52.133 -27.025  1.00  0.00    -0.059 C 
HETATM   28  C1  UNL     1       1.095  51.885 -28.260  1.00  0.00     0.016 C 
HETATM   29  C3  UNL     1       1.375  51.666 -25.810  1.00  0.00     0.045 C 
ENDBRANCH  26  27
BRANCH  26  30
HETATM   30  O1  UNL     1      -0.572  54.121 -27.603  1.00  0.00    -0.231 OA
BRANCH  30  31
HETATM   31  O2  UNL     1      -1.786  54.175 -28.405  1.00  0.00    -0.250 OA
HETATM   32  H7  UNL     1      -2.151  54.981 -27.994  1.00  0.00     0.253 HD
ENDBRANCH  30  31
ENDBRANCH  26  30
ENDBRANCH  25  26
BRANCH  25  33
HETATM   33  O3  UNL     1      -3.094  52.777 -26.494  1.00  0.00    -0.393 OA
HETATM   34  H9  UNL     1      -2.900  53.738 -26.452  1.00  0.00     0.210 HD
ENDBRANCH  25  33
ENDBRANCH  24  25
ENDBRANCH  22  24
ENDBRANCH   1  22
BRANCH  12  35
HETATM   35  O4  UNL     1       0.906  50.242 -17.069  1.00  0.00    -0.395 OA
HETATM   36  H35 UNL     1       1.745  50.688 -16.866  1.00  0.00     0.210 HD
ENDBRANCH  12  35
TORSDOF 9
ENDMDL
MODEL 7
REMARK minimizedAffinity -8.43002987
REMARK CNNscore 0.308167845
REMARK CNNaffinity 6.47830248
REMARK  9 active torsions:
REMARK  status: ('A' for Active; 'I' for Inactive)
REMARK    1  A    between atoms: C2_2  and  C4_4 
REMARK    2  A    between atoms: C4_4  and  O1_5 
REMARK    3  A    between atoms: C4_4  and  C5_7 
REMARK    4  A    between atoms: O1_5  and  O2_6 
REMARK    5  A    between atoms: C5_7  and  O3_8 
REMARK    6  A    between atoms: C5_7  and  C6_9 
REMARK    7  A    between atoms: C6_9  and  C7_10 
REMARK    8  A    between atoms: C7_10  and  C9_12 
REMARK    9  A    between atoms: C20_23  and  O4_24 
ROOT
HETATM    1  C9  UNL     1      -1.795  50.507 -23.340  1.00  0.00    -0.002 C 
HETATM    2  C10 UNL     1      -1.417  51.794 -22.557  1.00  0.00     0.006 C 
HETATM    3  C11 UNL     1      -1.568  51.487 -21.057  1.00  0.00     0.011 C 
HETATM    4  C12 UNL     1      -1.734  49.959 -20.973  1.00  0.00    -0.032 C 
HETATM    5  C13 UNL     1      -0.295  49.354 -20.979  1.00  0.00     0.016 C 
HETATM    6  C14 UNL     1      -2.521  49.468 -19.729  1.00  0.00     0.004 C 
HETATM    7  C15 UNL     1      -1.758  49.612 -18.404  1.00  0.00     0.006 C 
HETATM    8  C16 UNL     1      -2.632  49.170 -17.235  1.00  0.00     0.006 C 
HETATM    9  C17 UNL     1      -2.865  47.656 -17.290  1.00  0.00     0.001 C 
HETATM   10  C18 UNL     1      -3.864  47.145 -16.217  1.00  0.00     0.015 C 
HETATM   11  C19 UNL     1      -3.380  47.462 -14.793  1.00  0.00     0.013 C 
HETATM   12  C20 UNL     1      -4.119  45.621 -16.359  1.00  0.00     0.122 C 
HETATM   13  C21 UNL     1      -3.220  44.946 -17.395  1.00  0.00     0.033 C 
HETATM   14  C22 UNL     1      -3.287  45.629 -18.766  1.00  0.00     0.013 C 
HETATM   15  C23 UNL     1      -3.316  47.153 -18.664  1.00  0.00    -0.027 A 
HETATM   16  C24 UNL     1      -4.476  47.825 -19.359  1.00  0.00     0.021 A 
HETATM   17  C25 UNL     1      -3.080  48.036 -19.917  1.00  0.00    -0.027 A 
HETATM   18  C26 UNL     1      -2.727  47.312 -21.216  1.00  0.00     0.011 C 
HETATM   19  C27 UNL     1      -2.620  48.157 -22.496  1.00  0.00     0.011 C 
HETATM   20  C28 UNL     1      -2.579  49.673 -22.270  1.00  0.00    -0.032 C 
HETATM   21  C29 UNL     1      -4.048  50.187 -22.197  1.00  0.00     0.016 C 
ENDROOT
BRANCH   1  22
HETATM   22  C7  UNL     1      -2.444  50.809 -24.725  1.00  0.00    -0.011 C 
HETATM   23  C8  UNL     1      -2.057  49.773 -25.777  1.00  0.00     0.010 C 
BRANCH  22  24
HETATM   24  C6  UNL     1      -2.212  52.265 -25.240  1.00  0.00     0.039 C 
BRANCH  24  25
HETATM   25  C5  UNL     1      -1.345  52.524 -26.490  1.00  0.00     0.154 C 
BRANCH  25  26
HETATM   26  C4  UNL     1       0.145  52.906 -26.241  1.00  0.00     0.216 C 
BRANCH  26  27
HETATM   27  C2  UNL     1       1.152  51.982 -26.917  1.00  0.00    -0.059 C 
HETATM   28  C1  UNL     1       2.181  51.415 -26.260  1.00  0.00     0.016 C 
HETATM   29  C3  UNL     1       0.917  51.677 -28.372  1.00  0.00     0.045 C 
ENDBRANCH  26  27
BRANCH  26  30
HETATM   30  O1  UNL     1       0.362  54.234 -26.792  1.00  0.00    -0.231 OA
BRANCH  30  31
HETATM   31  O2  UNL     1       0.162  55.189 -25.711  1.00  0.00    -0.250 OA
HETATM   32  H7  UNL     1       1.086  55.498 -25.669  1.00  0.00     0.253 HD
ENDBRANCH  30  31
ENDBRANCH  26  30
ENDBRANCH  25  26
BRANCH  25  33
HETATM   33  O3  UNL     1      -1.984  53.496 -27.324  1.00  0.00    -0.393 OA
HETATM   34  H9  UNL     1      -1.293  53.808 -27.947  1.00  0.00     0.210 HD
ENDBRANCH  25  33
ENDBRANCH  24  25
ENDBRANCH  22  24
ENDBRANCH   1  22
BRANCH  12  35
HETATM   35  O4  UNL     1      -5.490  45.423 -16.724  1.00  0.00    -0.395 OA
HETATM   36  H35 UNL     1      -5.650  44.465 -16.746  1.00  0.00     0.210 HD
ENDBRANCH  12  35
TORSDOF 9
ENDMDL
MODEL 8
REMARK minimizedAffinity -7.44287109
REMARK CNNscore 0.299707055
REMARK CNNaffinity 5.74132729
REMARK  9 active torsions:
REMARK  status: ('A' for Active; 'I' for Inactive)
REMARK    1  A    between atoms: C2_2  and  C4_4 
REMARK    2  A    between atoms: C4_4  and  O1_5 
REMARK    3  A    between atoms: C4_4  and  C5_7 
REMARK    4  A    between atoms: O1_5  and  O2_6 
REMARK    5  A    between atoms: C5_7  and  O3_8 
REMARK    6  A    between atoms: C5_7  and  C6_9 
REMARK    7  A    between atoms: C6_9  and  C7_10 
REMARK    8  A    between atoms: C7_10  and  C9_12 
REMARK    9  A    between atoms: C20_23  and  O4_24 
ROOT
HETATM    1  C9  UNL     1      -7.837  47.416 -30.458  1.00  0.00    -0.002 C 
HETATM    2  C10 UNL     1      -6.416  47.777 -29.948  1.00  0.00     0.006 C 
HETATM    3  C11 UNL     1      -5.437  46.739 -30.524  1.00  0.00     0.011 C 
HETATM    4  C12 UNL     1      -6.241  45.978 -31.593  1.00  0.00    -0.032 C 
HETATM    5  C13 UNL     1      -6.154  46.824 -32.902  1.00  0.00     0.016 C 
HETATM    6  C14 UNL     1      -5.748  44.530 -31.854  1.00  0.00     0.004 C 
HETATM    7  C15 UNL     1      -4.401  44.445 -32.586  1.00  0.00     0.006 C 
HETATM    8  C16 UNL     1      -3.966  42.990 -32.736  1.00  0.00     0.006 C 
HETATM    9  C17 UNL     1      -4.892  42.259 -33.714  1.00  0.00     0.001 C 
HETATM   10  C18 UNL     1      -4.607  40.736 -33.814  1.00  0.00     0.015 C 
HETATM   11  C19 UNL     1      -3.169  40.456 -34.279  1.00  0.00     0.013 C 
HETATM   12  C20 UNL     1      -5.612  40.031 -34.762  1.00  0.00     0.122 C 
HETATM   13  C21 UNL     1      -6.536  41.000 -35.502  1.00  0.00     0.033 C 
HETATM   14  C22 UNL     1      -7.273  41.951 -34.551  1.00  0.00     0.013 C 
HETATM   15  C23 UNL     1      -6.381  42.465 -33.422  1.00  0.00    -0.027 A 
HETATM   16  C24 UNL     1      -6.905  42.229 -32.026  1.00  0.00     0.021 A 
HETATM   17  C25 UNL     1      -6.829  43.657 -32.538  1.00  0.00    -0.027 A 
HETATM   18  C26 UNL     1      -8.145  44.339 -32.913  1.00  0.00     0.011 C 
HETATM   19  C27 UNL     1      -8.673  45.434 -31.971  1.00  0.00     0.011 C 
HETATM   20  C28 UNL     1      -7.666  45.931 -30.927  1.00  0.00    -0.032 C 
HETATM   21  C29 UNL     1      -7.757  44.990 -29.688  1.00  0.00     0.016 C 
ENDROOT
BRANCH   1  22
HETATM   22  C7  UNL     1      -8.959  47.791 -29.443  1.00  0.00    -0.011 C 
HETATM   23  C8  UNL     1     -10.152  48.454 -30.126  1.00  0.00     0.010 C 
BRANCH  22  24
HETATM   24  C6  UNL     1      -8.465  48.623 -28.217  1.00  0.00     0.039 C 
BRANCH  24  25
HETATM   25  C5  UNL     1      -9.248  48.598 -26.887  1.00  0.00     0.154 C 
BRANCH  25  26
HETATM   26  C4  UNL     1     -10.573  47.781 -26.870  1.00  0.00     0.216 C 
BRANCH  26  27
HETATM   27  C2  UNL     1     -10.530  46.530 -25.998  1.00  0.00    -0.059 C 
HETATM   28  C1  UNL     1      -9.766  46.435 -24.894  1.00  0.00     0.016 C 
HETATM   29  C3  UNL     1     -11.435  45.397 -26.399  1.00  0.00     0.045 C 
ENDBRANCH  26  27
BRANCH  26  30
HETATM   30  O1  UNL     1     -11.615  48.634 -26.322  1.00  0.00    -0.231 OA
BRANCH  30  31
HETATM   31  O2  UNL     1     -12.584  48.871 -27.383  1.00  0.00    -0.250 OA
HETATM   32  H7  UNL     1     -13.322  48.390 -26.964  1.00  0.00     0.253 HD
ENDBRANCH  30  31
ENDBRANCH  26  30
ENDBRANCH  25  26
BRANCH  25  33
HETATM   33  O3  UNL     1      -9.473  49.938 -26.438  1.00  0.00    -0.393 OA
HETATM   34  H9  UNL     1     -10.175  49.877 -25.755  1.00  0.00     0.210 HD
ENDBRANCH  25  33
ENDBRANCH  24  25
ENDBRANCH  22  24
ENDBRANCH   1  22
BRANCH  12  35
HETATM   35  O4  UNL     1      -6.405  39.124 -33.987  1.00  0.00    -0.395 OA
HETATM   36  H35 UNL     1      -6.985  38.644 -34.603  1.00  0.00     0.210 HD
ENDBRANCH  12  35
TORSDOF 9
ENDMDL
MODEL 9
REMARK minimizedAffinity -6.8550458
REMARK CNNscore 0.262816876
REMARK CNNaffinity 5.19440126
REMARK  9 active torsions:
REMARK  status: ('A' for Active; 'I' for Inactive)
REMARK    1  A    between atoms: C2_2  and  C4_4 
REMARK    2  A    between atoms: C4_4  and  O1_5 
REMARK    3  A    between atoms: C4_4  and  C5_7 
REMARK    4  A    between atoms: O1_5  and  O2_6 
REMARK    5  A    between atoms: C5_7  and  O3_8 
REMARK    6  A    between atoms: C5_7  and  C6_9 
REMARK    7  A    between atoms: C6_9  and  C7_10 
REMARK    8  A    between atoms: C7_10  and  C9_12 
REMARK    9  A    between atoms: C20_23  and  O4_24 
ROOT
HETATM    1  C9  UNL     1     -15.726  45.328 -27.499  1.00  0.00    -0.002 C 
HETATM    2  C10 UNL     1     -16.173  43.953 -28.064  1.00  0.00     0.006 C 
HETATM    3  C11 UNL     1     -16.986  43.242 -26.968  1.00  0.00     0.011 C 
HETATM    4  C12 UNL     1     -17.259  44.321 -25.905  1.00  0.00    -0.032 C 
HETATM    5  C13 UNL     1     -18.526  45.101 -26.377  1.00  0.00     0.016 C 
HETATM    6  C14 UNL     1     -17.469  43.768 -24.470  1.00  0.00     0.004 C 
HETATM    7  C15 UNL     1     -18.795  43.019 -24.272  1.00  0.00     0.006 C 
HETATM    8  C16 UNL     1     -18.882  42.455 -22.857  1.00  0.00     0.006 C 
HETATM    9  C17 UNL     1     -19.019  43.593 -21.841  1.00  0.00     0.001 C 
HETATM   10  C18 UNL     1     -18.969  43.113 -20.365  1.00  0.00     0.015 C 
HETATM   11  C19 UNL     1     -20.092  42.111 -20.055  1.00  0.00     0.013 C 
HETATM   12  C20 UNL     1     -19.042  44.307 -19.376  1.00  0.00     0.122 C 
HETATM   13  C21 UNL     1     -19.311  45.649 -20.059  1.00  0.00     0.033 C 
HETATM   14  C22 UNL     1     -18.312  45.946 -21.185  1.00  0.00     0.013 C 
HETATM   15  C23 UNL     1     -17.993  44.714 -22.030  1.00  0.00    -0.027 A 
HETATM   16  C24 UNL     1     -16.527  44.371 -22.144  1.00  0.00     0.021 A 
HETATM   17  C25 UNL     1     -17.255  44.854 -23.387  1.00  0.00    -0.027 A 
HETATM   18  C26 UNL     1     -16.955  46.273 -23.868  1.00  0.00     0.011 C 
HETATM   19  C27 UNL     1     -16.108  46.430 -25.142  1.00  0.00     0.011 C 
HETATM   20  C28 UNL     1     -15.918  45.144 -25.955  1.00  0.00    -0.032 C 
HETATM   21  C29 UNL     1     -14.687  44.387 -25.373  1.00  0.00     0.016 C 
ENDROOT
BRANCH   1  22
HETATM   22  C7  UNL     1     -14.351  45.798 -28.065  1.00  0.00    -0.011 C 
HETATM   23  C8  UNL     1     -13.447  44.622 -28.425  1.00  0.00     0.010 C 
BRANCH  22  24
HETATM   24  C6  UNL     1     -13.609  46.839 -27.167  1.00  0.00     0.039 C 
BRANCH  24  25
HETATM   25  C5  UNL     1     -12.400  47.626 -27.716  1.00  0.00     0.154 C 
BRANCH  25  26
HETATM   26  C4  UNL     1     -11.014  47.314 -27.078  1.00  0.00     0.216 C 
BRANCH  26  27
HETATM   27  C2  UNL     1      -9.822  47.654 -27.965  1.00  0.00    -0.059 C 
HETATM   28  C1  UNL     1      -9.939  47.905 -29.283  1.00  0.00     0.016 C 
HETATM   29  C3  UNL     1      -8.483  47.754 -27.287  1.00  0.00     0.045 C 
ENDBRANCH  26  27
BRANCH  26  30
HETATM   30  O1  UNL     1     -10.885  48.124 -25.877  1.00  0.00    -0.231 OA
BRANCH  30  31
HETATM   31  O2  UNL     1     -10.714  49.506 -26.303  1.00  0.00    -0.250 OA
HETATM   32  H7  UNL     1     -11.560  49.834 -25.943  1.00  0.00     0.253 HD
ENDBRANCH  30  31
ENDBRANCH  26  30
ENDBRANCH  25  26
BRANCH  25  33
HETATM   33  O3  UNL     1     -12.678  49.029 -27.664  1.00  0.00    -0.393 OA
HETATM   34  H9  UNL     1     -11.811  49.476 -27.772  1.00  0.00     0.210 HD
ENDBRANCH  25  33
ENDBRANCH  24  25
ENDBRANCH  22  24
ENDBRANCH   1  22
BRANCH  12  35
HETATM   35  O4  UNL     1     -17.802  44.382 -18.663  1.00  0.00    -0.395 OA
HETATM   36  H35 UNL     1     -17.886  45.092 -18.005  1.00  0.00     0.210 HD
ENDBRANCH  12  35
TORSDOF 9
ENDMDL
