MODEL 1
REMARK minimizedAffinity -8.53752232
REMARK  12 active torsions:
REMARK  status: ('A' for Active; 'I' for Inactive)
REMARK    1  A    between atoms: C2_2  and  O1_3 
REMARK    2  A    between atoms: C2_2  and  C3_4 
REMARK    3  A    between atoms: C4_5  and  C5_6 
REMARK    4  A    between atoms: C5_6  and  O2_7 
REMARK    5  A    between atoms: C8_10  and  O3_11 
REMARK    6  A    between atoms: O3_11  and  C9_12 
REMARK    7  A    between atoms: C10_14  and  C11_15 
REMARK    8  A    between atoms: C11_15  and  O5_16 
REMARK    9  A    between atoms: C12_17  and  O6_18 
REMARK   10  A    between atoms: C13_19  and  O7_20 
REMARK   11  A    between atoms: C14_21  and  O8_22 
REMARK   12  A    between atoms: C15_23  and  O9_24 
ROOT
HETATM    1  C5  UNL     1      -1.489   7.235  12.953  1.00  0.00     0.088 C 
HETATM    2  C6  UNL     1      -2.157   5.823  12.985  1.00  0.00     0.052 C 
HETATM    3  C7  UNL     1      -1.261   4.650  12.550  1.00  0.00     0.016 C 
HETATM    4  C8  UNL     1      -2.809   5.474  14.352  1.00  0.00     0.160 C 
HETATM    5  C15 UNL     1      -3.179   6.730  15.165  1.00  0.00     0.148 C 
HETATM    6  C16 UNL     1      -1.975   7.652  15.427  1.00  0.00     0.046 C 
HETATM    7  C17 UNL     1      -0.865   7.650  14.334  1.00  0.00    -0.010 C 
HETATM    8  C18 UNL     1      -0.263   9.079  14.283  1.00  0.00     0.018 C 
HETATM    9  C19 UNL     1       0.279   6.715  14.791  1.00  0.00     0.018 C 
ENDROOT
BRANCH   4  10
HETATM   10  O3  UNL     1      -3.964   4.670  14.030  1.00  0.00    -0.350 OA
BRANCH  10  11
HETATM   11  C9  UNL     1      -4.545   4.933  12.754  1.00  0.00     0.292 C 
HETATM   12  O4  UNL     1      -5.708   5.743  12.931  1.00  0.00    -0.348 OA
HETATM   13  C10 UNL     1      -6.797   5.115  13.616  1.00  0.00     0.179 C 
HETATM   14  C12 UNL     1      -6.924   3.594  13.389  1.00  0.00     0.180 C 
HETATM   15  C13 UNL     1      -6.331   3.246  12.025  1.00  0.00     0.183 C 
HETATM   16  C14 UNL     1      -4.842   3.599  12.027  1.00  0.00     0.204 C 
BRANCH  13  17
HETATM   17  C11 UNL     1      -6.783   5.454  15.114  1.00  0.00     0.198 C 
BRANCH  17  18
HETATM   18  O5  UNL     1      -7.732   4.648  15.817  1.00  0.00    -0.398 OA
HETATM   19  H18 UNL     1      -8.476   5.230  16.057  1.00  0.00     0.209 HD
ENDBRANCH  17  18
ENDBRANCH  13  17
BRANCH  14  20
HETATM   20  O6  UNL     1      -8.308   3.222  13.473  1.00  0.00    -0.390 OA
HETATM   21  H20 UNL     1      -8.581   3.438  14.387  1.00  0.00     0.210 HD
ENDBRANCH  14  20
BRANCH  15  22
HETATM   22  O7  UNL     1      -6.453   1.841  11.746  1.00  0.00    -0.390 OA
HETATM   23  H22 UNL     1      -6.101   1.728  10.842  1.00  0.00     0.210 HD
ENDBRANCH  15  22
BRANCH  16  24
HETATM   24  O8  UNL     1      -4.376   3.622  10.663  1.00  0.00    -0.388 OA
HETATM   25  H24 UNL     1      -3.420   3.832  10.733  1.00  0.00     0.210 HD
ENDBRANCH  16  24
ENDBRANCH  10  11
ENDBRANCH   4  10
BRANCH   5  26
HETATM   26  O9  UNL     1      -3.732   6.383  16.449  1.00  0.00    -0.393 OA
HETATM   27  H26 UNL     1      -3.915   7.230  16.901  1.00  0.00     0.210 HD
ENDBRANCH   5  26
BRANCH   1  28
HETATM   28  C4  UNL     1      -0.559   7.393  11.760  1.00  0.00     0.010 C 
HETATM   29  C3  UNL     1      -0.568   8.439  10.911  1.00  0.00     0.003 C 
BRANCH  29  30
HETATM   30  C2  UNL     1       0.343   8.591   9.731  1.00  0.00     0.136 C 
HETATM   31  C1  UNL     1       0.965   7.262   9.328  1.00  0.00     0.043 C 
BRANCH  30  32
HETATM   32  O1  UNL     1      -0.436   9.094   8.651  1.00  0.00    -0.392 OA
HETATM   33  H5  UNL     1      -1.057   8.397   8.382  1.00  0.00     0.210 HD
ENDBRANCH  30  32
ENDBRANCH  29  30
ENDBRANCH   1  28
BRANCH   1  34
HETATM   34  O2  UNL     1      -2.581   8.159  12.732  1.00  0.00    -0.385 OA
HETATM   35  H8  UNL     1      -2.200   8.985  12.384  1.00  0.00     0.211 HD
ENDBRANCH   1  34
TORSDOF 12
ENDMDL
MODEL 2
REMARK minimizedAffinity -8.18725491
REMARK  12 active torsions:
REMARK  status: ('A' for Active; 'I' for Inactive)
REMARK    1  A    between atoms: C2_2  and  O1_3 
REMARK    2  A    between atoms: C2_2  and  C3_4 
REMARK    3  A    between atoms: C4_5  and  C5_6 
REMARK    4  A    between atoms: C5_6  and  O2_7 
REMARK    5  A    between atoms: C8_10  and  O3_11 
REMARK    6  A    between atoms: O3_11  and  C9_12 
REMARK    7  A    between atoms: C10_14  and  C11_15 
REMARK    8  A    between atoms: C11_15  and  O5_16 
REMARK    9  A    between atoms: C12_17  and  O6_18 
REMARK   10  A    between atoms: C13_19  and  O7_20 
REMARK   11  A    between atoms: C14_21  and  O8_22 
REMARK   12  A    between atoms: C15_23  and  O9_24 
ROOT
HETATM    1  C5  UNL     1       0.301   7.383  11.224  1.00  0.00     0.088 C 
HETATM    2  C6  UNL     1      -0.627   6.130  11.312  1.00  0.00     0.052 C 
HETATM    3  C7  UNL     1       0.072   4.768  11.153  1.00  0.00     0.016 C 
HETATM    4  C8  UNL     1      -1.506   6.094  12.594  1.00  0.00     0.160 C 
HETATM    5  C15 UNL     1      -1.726   7.497  13.194  1.00  0.00     0.148 C 
HETATM    6  C16 UNL     1      -0.410   8.220  13.531  1.00  0.00     0.046 C 
HETATM    7  C17 UNL     1       0.810   7.870  12.628  1.00  0.00    -0.010 C 
HETATM    8  C18 UNL     1       1.680   9.149  12.509  1.00  0.00     0.018 C 
HETATM    9  C19 UNL     1       1.681   6.820  13.357  1.00  0.00     0.018 C 
ENDROOT
BRANCH   4  10
HETATM   10  O3  UNL     1      -2.743   5.470  12.191  1.00  0.00    -0.350 OA
BRANCH  10  11
HETATM   11  C9  UNL     1      -3.450   4.802  13.235  1.00  0.00     0.292 C 
HETATM   12  O4  UNL     1      -3.111   3.415  13.213  1.00  0.00    -0.348 OA
HETATM   13  C10 UNL     1      -3.555   2.691  12.060  1.00  0.00     0.179 C 
HETATM   14  C12 UNL     1      -4.880   3.187  11.445  1.00  0.00     0.180 C 
HETATM   15  C13 UNL     1      -5.720   3.839  12.542  1.00  0.00     0.183 C 
HETATM   16  C14 UNL     1      -4.969   5.055  13.086  1.00  0.00     0.204 C 
BRANCH  13  17
HETATM   17  C11 UNL     1      -2.449   2.601  10.998  1.00  0.00     0.198 C 
BRANCH  17  18
HETATM   18  O5  UNL     1      -2.837   3.300   9.813  1.00  0.00    -0.398 OA
HETATM   19  H18 UNL     1      -3.043   2.626   9.140  1.00  0.00     0.209 HD
ENDBRANCH  17  18
ENDBRANCH  13  17
BRANCH  14  20
HETATM   20  O6  UNL     1      -5.564   2.077  10.846  1.00  0.00    -0.390 OA
HETATM   21  H20 UNL     1      -4.973   1.760  10.133  1.00  0.00     0.210 HD
ENDBRANCH  14  20
BRANCH  15  22
HETATM   22  O7  UNL     1      -6.985   4.291  12.030  1.00  0.00    -0.390 OA
HETATM   23  H22 UNL     1      -7.467   4.637  12.807  1.00  0.00     0.210 HD
ENDBRANCH  15  22
BRANCH  16  24
HETATM   24  O8  UNL     1      -5.569   5.439  14.340  1.00  0.00    -0.388 OA
HETATM   25  H24 UNL     1      -5.061   6.229  14.624  1.00  0.00     0.210 HD
ENDBRANCH  16  24
ENDBRANCH  10  11
ENDBRANCH   4  10
BRANCH   5  26
HETATM   26  O9  UNL     1      -2.497   7.434  14.409  1.00  0.00    -0.393 OA
HETATM   27  H26 UNL     1      -2.569   8.355  14.730  1.00  0.00     0.210 HD
ENDBRANCH   5  26
BRANCH   1  28
HETATM   28  C4  UNL     1       1.390   7.208  10.177  1.00  0.00     0.010 C 
HETATM   29  C3  UNL     1       1.412   7.823   8.979  1.00  0.00     0.003 C 
BRANCH  29  30
HETATM   30  C2  UNL     1       2.481   7.644   7.944  1.00  0.00     0.136 C 
HETATM   31  C1  UNL     1       1.929   7.030   6.667  1.00  0.00     0.043 C 
BRANCH  30  32
HETATM   32  O1  UNL     1       3.016   8.932   7.655  1.00  0.00    -0.392 OA
HETATM   33  H5  UNL     1       2.328   9.445   7.199  1.00  0.00     0.210 HD
ENDBRANCH  30  32
ENDBRANCH  29  30
ENDBRANCH   1  28
BRANCH   1  34
HETATM   34  O2  UNL     1      -0.553   8.446  10.736  1.00  0.00    -0.385 OA
HETATM   35  H8  UNL     1       0.022   9.135  10.360  1.00  0.00     0.211 HD
ENDBRANCH   1  34
TORSDOF 12
ENDMDL
MODEL 3
REMARK minimizedAffinity -8.02047157
REMARK  12 active torsions:
REMARK  status: ('A' for Active; 'I' for Inactive)
REMARK    1  A    between atoms: C2_2  and  O1_3 
REMARK    2  A    between atoms: C2_2  and  C3_4 
REMARK    3  A    between atoms: C4_5  and  C5_6 
REMARK    4  A    between atoms: C5_6  and  O2_7 
REMARK    5  A    between atoms: C8_10  and  O3_11 
REMARK    6  A    between atoms: O3_11  and  C9_12 
REMARK    7  A    between atoms: C10_14  and  C11_15 
REMARK    8  A    between atoms: C11_15  and  O5_16 
REMARK    9  A    between atoms: C12_17  and  O6_18 
REMARK   10  A    between atoms: C13_19  and  O7_20 
REMARK   11  A    between atoms: C14_21  and  O8_22 
REMARK   12  A    between atoms: C15_23  and  O9_24 
ROOT
HETATM    1  C5  UNL     1      -1.912   7.565  14.025  1.00  0.00     0.088 C 
HETATM    2  C6  UNL     1      -0.989   7.752  12.779  1.00  0.00     0.052 C 
HETATM    3  C7  UNL     1      -1.217   9.038  11.965  1.00  0.00     0.016 C 
HETATM    4  C8  UNL     1       0.527   7.627  13.103  1.00  0.00     0.160 C 
HETATM    5  C15 UNL     1       0.789   6.802  14.378  1.00  0.00     0.148 C 
HETATM    6  C16 UNL     1       0.076   7.369  15.618  1.00  0.00     0.046 C 
HETATM    7  C17 UNL     1      -1.270   8.107  15.352  1.00  0.00    -0.010 C 
HETATM    8  C18 UNL     1      -2.187   7.852  16.577  1.00  0.00     0.018 C 
HETATM    9  C19 UNL     1      -1.002   9.630  15.321  1.00  0.00     0.018 C 
ENDROOT
BRANCH   4  10
HETATM   10  O3  UNL     1       1.119   7.030  11.930  1.00  0.00    -0.350 OA
BRANCH  10  11
HETATM   11  C9  UNL     1       2.389   7.563  11.557  1.00  0.00     0.292 C 
HETATM   12  O4  UNL     1       2.228   8.371  10.390  1.00  0.00    -0.348 OA
HETATM   13  C10 UNL     1       1.854   7.668   9.201  1.00  0.00     0.179 C 
HETATM   14  C12 UNL     1       2.398   6.228   9.092  1.00  0.00     0.180 C 
HETATM   15  C13 UNL     1       3.700   6.130   9.886  1.00  0.00     0.183 C 
HETATM   16  C14 UNL     1       3.405   6.412  11.360  1.00  0.00     0.204 C 
BRANCH  13  17
HETATM   17  C11 UNL     1       0.334   7.704   8.986  1.00  0.00     0.198 C 
BRANCH  17  18
HETATM   18  O5  UNL     1      -0.104   9.043   8.738  1.00  0.00    -0.398 OA
HETATM   19  H18 UNL     1      -0.569   9.343   9.540  1.00  0.00     0.209 HD
ENDBRANCH  17  18
ENDBRANCH  13  17
BRANCH  14  20
HETATM   20  O6  UNL     1       2.599   5.906   7.708  1.00  0.00    -0.390 OA
HETATM   21  H20 UNL     1       1.711   5.949   7.299  1.00  0.00     0.210 HD
ENDBRANCH  14  20
BRANCH  15  22
HETATM   22  O7  UNL     1       4.271   4.814   9.791  1.00  0.00    -0.390 OA
HETATM   23  H22 UNL     1       5.117   4.867  10.278  1.00  0.00     0.210 HD
ENDBRANCH  15  22
BRANCH  16  24
HETATM   24  O8  UNL     1       4.651   6.684  12.032  1.00  0.00    -0.388 OA
HETATM   25  H24 UNL     1       4.399   6.834  12.968  1.00  0.00     0.210 HD
ENDBRANCH  16  24
ENDBRANCH  10  11
ENDBRANCH   4  10
BRANCH   5  26
HETATM   26  O9  UNL     1       2.195   6.746  14.688  1.00  0.00    -0.393 OA
HETATM   27  H26 UNL     1       2.268   6.227  15.514  1.00  0.00     0.210 HD
ENDBRANCH   5  26
BRANCH   1  28
HETATM   28  C4  UNL     1      -3.328   8.051  13.757  1.00  0.00     0.010 C 
HETATM   29  C3  UNL     1      -4.432   7.282  13.828  1.00  0.00     0.003 C 
BRANCH  29  30
HETATM   30  C2  UNL     1      -5.826   7.760  13.557  1.00  0.00     0.136 C 
HETATM   31  C1  UNL     1      -6.844   6.641  13.721  1.00  0.00     0.043 C 
BRANCH  30  32
HETATM   32  O1  UNL     1      -6.112   8.797  14.490  1.00  0.00    -0.392 OA
HETATM   33  H5  UNL     1      -6.165   8.396  15.373  1.00  0.00     0.210 HD
ENDBRANCH  30  32
ENDBRANCH  29  30
ENDBRANCH   1  28
BRANCH   1  34
HETATM   34  O2  UNL     1      -2.010   6.131  14.204  1.00  0.00    -0.385 OA
HETATM   35  H8  UNL     1      -2.806   5.956  14.736  1.00  0.00     0.211 HD
ENDBRANCH   1  34
TORSDOF 12
ENDMDL
MODEL 4
REMARK minimizedAffinity -7.9732132
REMARK  12 active torsions:
REMARK  status: ('A' for Active; 'I' for Inactive)
REMARK    1  A    between atoms: C2_2  and  O1_3 
REMARK    2  A    between atoms: C2_2  and  C3_4 
REMARK    3  A    between atoms: C4_5  and  C5_6 
REMARK    4  A    between atoms: C5_6  and  O2_7 
REMARK    5  A    between atoms: C8_10  and  O3_11 
REMARK    6  A    between atoms: O3_11  and  C9_12 
REMARK    7  A    between atoms: C10_14  and  C11_15 
REMARK    8  A    between atoms: C11_15  and  O5_16 
REMARK    9  A    between atoms: C12_17  and  O6_18 
REMARK   10  A    between atoms: C13_19  and  O7_20 
REMARK   11  A    between atoms: C14_21  and  O8_22 
REMARK   12  A    between atoms: C15_23  and  O9_24 
ROOT
HETATM    1  C5  UNL     1      -4.132 -11.183   6.665  1.00  0.00     0.088 C 
HETATM    2  C6  UNL     1      -4.366 -10.150   7.812  1.00  0.00     0.052 C 
HETATM    3  C7  UNL     1      -3.115  -9.394   8.296  1.00  0.00     0.016 C 
HETATM    4  C8  UNL     1      -5.485  -9.117   7.502  1.00  0.00     0.160 C 
HETATM    5  C15 UNL     1      -6.493  -9.639   6.459  1.00  0.00     0.148 C 
HETATM    6  C16 UNL     1      -5.830 -10.044   5.132  1.00  0.00     0.046 C 
HETATM    7  C17 UNL     1      -4.369 -10.577   5.235  1.00  0.00    -0.010 C 
HETATM    8  C18 UNL     1      -4.187 -11.645   4.124  1.00  0.00     0.018 C 
HETATM    9  C19 UNL     1      -3.396  -9.426   4.893  1.00  0.00     0.018 C 
ENDROOT
BRANCH   4  10
HETATM   10  O3  UNL     1      -6.107  -8.834   8.773  1.00  0.00    -0.350 OA
BRANCH  10  11
HETATM   11  C9  UNL     1      -6.076  -9.908   9.712  1.00  0.00     0.292 C 
HETATM   12  O4  UNL     1      -7.380 -10.480   9.808  1.00  0.00    -0.348 OA
HETATM   13  C10 UNL     1      -8.384  -9.633  10.378  1.00  0.00     0.179 C 
HETATM   14  C12 UNL     1      -7.877  -8.646  11.450  1.00  0.00     0.180 C 
HETATM   15  C13 UNL     1      -6.639  -9.238  12.120  1.00  0.00     0.183 C 
HETATM   16  C14 UNL     1      -5.536  -9.401  11.072  1.00  0.00     0.204 C 
BRANCH  13  17
HETATM   17  C11 UNL     1      -9.185  -8.906   9.288  1.00  0.00     0.198 C 
BRANCH  17  18
HETATM   18  O5  UNL     1      -8.831  -7.521   9.248  1.00  0.00    -0.398 OA
HETATM   19  H18 UNL     1      -9.580  -7.026   9.627  1.00  0.00     0.209 HD
ENDBRANCH  17  18
ENDBRANCH  13  17
BRANCH  14  20
HETATM   20  O6  UNL     1      -8.926  -8.406  12.399  1.00  0.00    -0.390 OA
HETATM   21  H20 UNL     1      -9.649  -7.988  11.889  1.00  0.00     0.210 HD
ENDBRANCH  14  20
BRANCH  15  22
HETATM   22  O7  UNL     1      -6.142  -8.372  13.155  1.00  0.00    -0.390 OA
HETATM   23  H22 UNL     1      -5.393  -8.856  13.556  1.00  0.00     0.210 HD
ENDBRANCH  15  22
BRANCH  16  24
HETATM   24  O8  UNL     1      -4.526 -10.281  11.604  1.00  0.00    -0.388 OA
HETATM   25  H24 UNL     1      -3.845 -10.327  10.899  1.00  0.00     0.210 HD
ENDBRANCH  16  24
ENDBRANCH  10  11
ENDBRANCH   4  10
BRANCH   5  26
HETATM   26  O9  UNL     1      -7.490  -8.646   6.148  1.00  0.00    -0.393 OA
HETATM   27  H26 UNL     1      -8.068  -9.049   5.470  1.00  0.00     0.210 HD
ENDBRANCH   5  26
BRANCH   1  28
HETATM   28  C4  UNL     1      -2.816 -11.926   6.832  1.00  0.00     0.010 C 
HETATM   29  C3  UNL     1      -2.563 -13.161   6.358  1.00  0.00     0.003 C 
BRANCH  29  30
HETATM   30  C2  UNL     1      -1.268 -13.896   6.529  1.00  0.00     0.136 C 
HETATM   31  C1  UNL     1      -1.494 -15.376   6.798  1.00  0.00     0.043 C 
BRANCH  30  32
HETATM   32  O1  UNL     1      -0.527 -13.743   5.323  1.00  0.00    -0.392 OA
HETATM   33  H5  UNL     1      -0.990 -14.237   4.625  1.00  0.00     0.210 HD
ENDBRANCH  30  32
ENDBRANCH  29  30
ENDBRANCH   1  28
BRANCH   1  34
HETATM   34  O2  UNL     1      -5.174 -12.175   6.839  1.00  0.00    -0.385 OA
HETATM   35  H8  UNL     1      -4.888 -12.984   6.379  1.00  0.00     0.211 HD
ENDBRANCH   1  34
TORSDOF 12
ENDMDL
MODEL 5
REMARK minimizedAffinity -7.87292671
REMARK  12 active torsions:
REMARK  status: ('A' for Active; 'I' for Inactive)
REMARK    1  A    between atoms: C2_2  and  O1_3 
REMARK    2  A    between atoms: C2_2  and  C3_4 
REMARK    3  A    between atoms: C4_5  and  C5_6 
REMARK    4  A    between atoms: C5_6  and  O2_7 
REMARK    5  A    between atoms: C8_10  and  O3_11 
REMARK    6  A    between atoms: O3_11  and  C9_12 
REMARK    7  A    between atoms: C10_14  and  C11_15 
REMARK    8  A    between atoms: C11_15  and  O5_16 
REMARK    9  A    between atoms: C12_17  and  O6_18 
REMARK   10  A    between atoms: C13_19  and  O7_20 
REMARK   11  A    between atoms: C14_21  and  O8_22 
REMARK   12  A    between atoms: C15_23  and  O9_24 
ROOT
HETATM    1  C5  UNL     1       2.398   6.733  10.004  1.00  0.00     0.088 C 
HETATM    2  C6  UNL     1       1.956   7.685  11.162  1.00  0.00     0.052 C 
HETATM    3  C7  UNL     1       3.080   8.504  11.821  1.00  0.00     0.016 C 
HETATM    4  C8  UNL     1       0.800   8.647  10.770  1.00  0.00     0.160 C 
HETATM    5  C15 UNL     1      -0.040   8.108   9.595  1.00  0.00     0.148 C 
HETATM    6  C16 UNL     1       0.799   7.824   8.337  1.00  0.00     0.046 C 
HETATM    7  C17 UNL     1       2.276   7.395   8.586  1.00  0.00    -0.010 C 
HETATM    8  C18 UNL     1       2.666   6.405   7.456  1.00  0.00     0.018 C 
HETATM    9  C19 UNL     1       3.187   8.632   8.410  1.00  0.00     0.018 C 
ENDROOT
BRANCH   4  10
HETATM   10  O3  UNL     1       0.018   8.815  11.971  1.00  0.00    -0.350 OA
BRANCH  10  11
HETATM   11  C9  UNL     1      -1.097   7.934  12.094  1.00  0.00     0.292 C 
HETATM   12  O4  UNL     1      -2.076   8.538  12.940  1.00  0.00    -0.348 OA
HETATM   13  C10 UNL     1      -1.690   8.700  14.309  1.00  0.00     0.179 C 
HETATM   14  C12 UNL     1      -0.740   7.614  14.856  1.00  0.00     0.180 C 
HETATM   15  C13 UNL     1      -0.971   6.319  14.079  1.00  0.00     0.183 C 
HETATM   16  C14 UNL     1      -0.622   6.553  12.608  1.00  0.00     0.204 C 
BRANCH  13  17
HETATM   17  C11 UNL     1      -1.133  10.107  14.568  1.00  0.00     0.198 C 
BRANCH  17  18
HETATM   18  O5  UNL     1      -1.471  10.985  13.491  1.00  0.00    -0.398 OA
HETATM   19  H18 UNL     1      -0.653  11.142  12.986  1.00  0.00     0.209 HD
ENDBRANCH  17  18
ENDBRANCH  13  17
BRANCH  14  20
HETATM   20  O6  UNL     1      -0.986   7.439  16.258  1.00  0.00    -0.390 OA
HETATM   21  H20 UNL     1      -0.768   8.299  16.671  1.00  0.00     0.210 HD
ENDBRANCH  14  20
BRANCH  15  22
HETATM   22  O7  UNL     1      -0.132   5.260  14.571  1.00  0.00    -0.390 OA
HETATM   23  H22 UNL     1      -0.389   4.470  14.056  1.00  0.00     0.210 HD
ENDBRANCH  15  22
BRANCH  16  24
HETATM   24  O8  UNL     1      -1.179   5.476  11.829  1.00  0.00    -0.388 OA
HETATM   25  H24 UNL     1      -0.906   5.671  10.907  1.00  0.00     0.210 HD
ENDBRANCH  16  24
ENDBRANCH  10  11
ENDBRANCH   4  10
BRANCH   5  26
HETATM   26  O9  UNL     1      -1.071   9.040   9.214  1.00  0.00    -0.393 OA
HETATM   27  H26 UNL     1      -1.536   8.632   8.457  1.00  0.00     0.210 HD
ENDBRANCH   5  26
BRANCH   1  28
HETATM   28  C4  UNL     1       3.743   6.082  10.291  1.00  0.00     0.010 C 
HETATM   29  C3  UNL     1       4.834   6.734  10.737  1.00  0.00     0.003 C 
BRANCH  29  30
HETATM   30  C2  UNL     1       6.160   6.093  11.012  1.00  0.00     0.136 C 
HETATM   31  C1  UNL     1       6.287   4.746  10.317  1.00  0.00     0.043 C 
BRANCH  30  32
HETATM   32  O1  UNL     1       7.169   6.972  10.524  1.00  0.00    -0.392 OA
HETATM   33  H5  UNL     1       7.108   6.985   9.554  1.00  0.00     0.210 HD
ENDBRANCH  30  32
ENDBRANCH  29  30
ENDBRANCH   1  28
BRANCH   1  34
HETATM   34  O2  UNL     1       1.426   5.660  10.012  1.00  0.00    -0.385 OA
HETATM   35  H8  UNL     1       1.825   4.900   9.553  1.00  0.00     0.211 HD
ENDBRANCH   1  34
TORSDOF 12
ENDMDL
MODEL 6
REMARK minimizedAffinity -7.86984491
REMARK  12 active torsions:
REMARK  status: ('A' for Active; 'I' for Inactive)
REMARK    1  A    between atoms: C2_2  and  O1_3 
REMARK    2  A    between atoms: C2_2  and  C3_4 
REMARK    3  A    between atoms: C4_5  and  C5_6 
REMARK    4  A    between atoms: C5_6  and  O2_7 
REMARK    5  A    between atoms: C8_10  and  O3_11 
REMARK    6  A    between atoms: O3_11  and  C9_12 
REMARK    7  A    between atoms: C10_14  and  C11_15 
REMARK    8  A    between atoms: C11_15  and  O5_16 
REMARK    9  A    between atoms: C12_17  and  O6_18 
REMARK   10  A    between atoms: C13_19  and  O7_20 
REMARK   11  A    between atoms: C14_21  and  O8_22 
REMARK   12  A    between atoms: C15_23  and  O9_24 
ROOT
HETATM    1  C5  UNL     1      -0.886   6.802  14.182  1.00  0.00     0.088 C 
HETATM    2  C6  UNL     1      -2.442   6.941  14.146  1.00  0.00     0.052 C 
HETATM    3  C7  UNL     1      -2.979   8.336  13.779  1.00  0.00     0.016 C 
HETATM    4  C8  UNL     1      -3.141   5.884  13.246  1.00  0.00     0.160 C 
HETATM    5  C15 UNL     1      -2.285   4.616  13.058  1.00  0.00     0.148 C 
HETATM    6  C16 UNL     1      -0.896   4.910  12.464  1.00  0.00     0.046 C 
HETATM    7  C17 UNL     1      -0.283   6.297  12.823  1.00  0.00    -0.010 C 
HETATM    8  C18 UNL     1       1.255   6.113  12.912  1.00  0.00     0.018 C 
HETATM    9  C19 UNL     1      -0.535   7.268  11.646  1.00  0.00     0.018 C 
ENDROOT
BRANCH   4  10
HETATM   10  O3  UNL     1      -4.400   5.605  13.894  1.00  0.00    -0.350 OA
BRANCH  10  11
HETATM   11  C9  UNL     1      -5.533   5.586  13.027  1.00  0.00     0.292 C 
HETATM   12  O4  UNL     1      -6.401   6.666  13.373  1.00  0.00    -0.348 OA
HETATM   13  C10 UNL     1      -7.024   6.568  14.658  1.00  0.00     0.179 C 
HETATM   14  C12 UNL     1      -7.329   5.132  15.131  1.00  0.00     0.180 C 
HETATM   15  C13 UNL     1      -7.528   4.240  13.907  1.00  0.00     0.183 C 
HETATM   16  C14 UNL     1      -6.228   4.204  13.102  1.00  0.00     0.204 C 
BRANCH  13  17
HETATM   17  C11 UNL     1      -6.235   7.347  15.721  1.00  0.00     0.198 C 
BRANCH  17  18
HETATM   18  O5  UNL     1      -6.862   7.224  16.999  1.00  0.00    -0.398 OA
HETATM   19  H18 UNL     1      -7.280   8.083  17.194  1.00  0.00     0.209 HD
ENDBRANCH  17  18
ENDBRANCH  13  17
BRANCH  14  20
HETATM   20  O6  UNL     1      -8.496   5.151  15.965  1.00  0.00    -0.390 OA
HETATM   21  H20 UNL     1      -8.257   5.703  16.737  1.00  0.00     0.210 HD
ENDBRANCH  14  20
BRANCH  15  22
HETATM   22  O7  UNL     1      -7.849   2.892  14.291  1.00  0.00    -0.390 OA
HETATM   23  H22 UNL     1      -8.011   2.419  13.451  1.00  0.00     0.210 HD
ENDBRANCH  15  22
BRANCH  16  24
HETATM   24  O8  UNL     1      -6.518   3.684  11.789  1.00  0.00    -0.388 OA
HETATM   25  H24 UNL     1      -5.649   3.667  11.334  1.00  0.00     0.210 HD
ENDBRANCH  16  24
ENDBRANCH  10  11
ENDBRANCH   4  10
BRANCH   5  26
HETATM   26  O9  UNL     1      -2.929   3.673  12.178  1.00  0.00    -0.393 OA
HETATM   27  H26 UNL     1      -2.314   2.917  12.099  1.00  0.00     0.210 HD
ENDBRANCH   5  26
BRANCH   1  28
HETATM   28  C4  UNL     1      -0.220   8.045  14.752  1.00  0.00     0.010 C 
HETATM   29  C3  UNL     1       0.554   8.066  15.854  1.00  0.00     0.003 C 
BRANCH  29  30
HETATM   30  C2  UNL     1       1.204   9.292  16.420  1.00  0.00     0.136 C 
HETATM   31  C1  UNL     1       0.200  10.176  17.143  1.00  0.00     0.043 C 
BRANCH  30  32
HETATM   32  O1  UNL     1       2.202   8.862  17.340  1.00  0.00    -0.392 OA
HETATM   33  H5  UNL     1       1.750   8.460  18.101  1.00  0.00     0.210 HD
ENDBRANCH  30  32
ENDBRANCH  29  30
ENDBRANCH   1  28
BRANCH   1  34
HETATM   34  O2  UNL     1      -0.630   5.741  15.133  1.00  0.00    -0.385 OA
HETATM   35  H8  UNL     1       0.292   5.833  15.434  1.00  0.00     0.211 HD
ENDBRANCH   1  34
TORSDOF 12
ENDMDL
MODEL 7
REMARK minimizedAffinity -7.81229687
REMARK  12 active torsions:
REMARK  status: ('A' for Active; 'I' for Inactive)
REMARK    1  A    between atoms: C2_2  and  O1_3 
REMARK    2  A    between atoms: C2_2  and  C3_4 
REMARK    3  A    between atoms: C4_5  and  C5_6 
REMARK    4  A    between atoms: C5_6  and  O2_7 
REMARK    5  A    between atoms: C8_10  and  O3_11 
REMARK    6  A    between atoms: O3_11  and  C9_12 
REMARK    7  A    between atoms: C10_14  and  C11_15 
REMARK    8  A    between atoms: C11_15  and  O5_16 
REMARK    9  A    between atoms: C12_17  and  O6_18 
REMARK   10  A    between atoms: C13_19  and  O7_20 
REMARK   11  A    between atoms: C14_21  and  O8_22 
REMARK   12  A    between atoms: C15_23  and  O9_24 
ROOT
HETATM    1  C5  UNL     1      -1.816   6.515  14.034  1.00  0.00     0.088 C 
HETATM    2  C6  UNL     1      -3.200   7.100  13.606  1.00  0.00     0.052 C 
HETATM    3  C7  UNL     1      -3.155   8.444  12.857  1.00  0.00     0.016 C 
HETATM    4  C8  UNL     1      -4.073   6.103  12.794  1.00  0.00     0.160 C 
HETATM    5  C15 UNL     1      -3.693   4.634  13.065  1.00  0.00     0.148 C 
HETATM    6  C16 UNL     1      -2.213   4.332  12.769  1.00  0.00     0.046 C 
HETATM    7  C17 UNL     1      -1.221   5.514  12.981  1.00  0.00    -0.010 C 
HETATM    8  C18 UNL     1       0.124   4.907  13.464  1.00  0.00     0.018 C 
HETATM    9  C19 UNL     1      -0.932   6.170  11.611  1.00  0.00     0.018 C 
ENDROOT
BRANCH   4  10
HETATM   10  O3  UNL     1      -5.435   6.396  13.169  1.00  0.00    -0.350 OA
BRANCH  10  11
HETATM   11  C9  UNL     1      -5.691   6.380  14.573  1.00  0.00     0.292 C 
HETATM   12  O4  UNL     1      -6.476   5.230  14.889  1.00  0.00    -0.348 OA
HETATM   13  C10 UNL     1      -7.805   5.226  14.358  1.00  0.00     0.179 C 
HETATM   14  C12 UNL     1      -8.463   6.615  14.227  1.00  0.00     0.180 C 
HETATM   15  C13 UNL     1      -7.861   7.548  15.276  1.00  0.00     0.183 C 
HETATM   16  C14 UNL     1      -6.364   7.707  14.998  1.00  0.00     0.204 C 
BRANCH  13  17
HETATM   17  C11 UNL     1      -7.873   4.452  13.033  1.00  0.00     0.198 C 
BRANCH  17  18
HETATM   18  O5  UNL     1      -8.824   3.388  13.124  1.00  0.00    -0.398 OA
HETATM   19  H18 UNL     1      -8.316   2.557  13.170  1.00  0.00     0.209 HD
ENDBRANCH  17  18
ENDBRANCH  13  17
BRANCH  14  20
HETATM   20  O6  UNL     1      -9.882   6.480  14.394  1.00  0.00    -0.390 OA
HETATM   21  H20 UNL     1     -10.178   5.909  13.656  1.00  0.00     0.210 HD
ENDBRANCH  14  20
BRANCH  15  22
HETATM   22  O7  UNL     1      -8.463   8.852  15.221  1.00  0.00    -0.390 OA
HETATM   23  H22 UNL     1      -8.058   9.352  15.956  1.00  0.00     0.210 HD
ENDBRANCH  15  22
BRANCH  16  24
HETATM   24  O8  UNL     1      -5.740   8.268  16.170  1.00  0.00    -0.388 OA
HETATM   25  H24 UNL     1      -4.795   8.364  15.923  1.00  0.00     0.210 HD
ENDBRANCH  16  24
ENDBRANCH  10  11
ENDBRANCH   4  10
BRANCH   5  26
HETATM   26  O9  UNL     1      -4.477   3.731  12.262  1.00  0.00    -0.393 OA
HETATM   27  H26 UNL     1      -4.159   2.832  12.479  1.00  0.00     0.210 HD
ENDBRANCH   5  26
BRANCH   1  28
HETATM   28  C4  UNL     1      -0.858   7.606  14.489  1.00  0.00     0.010 C 
HETATM   29  C3  UNL     1      -0.046   7.519  15.561  1.00  0.00     0.003 C 
BRANCH  29  30
HETATM   30  C2  UNL     1       0.892   8.596  16.013  1.00  0.00     0.136 C 
HETATM   31  C1  UNL     1       0.167   9.677  16.801  1.00  0.00     0.043 C 
BRANCH  30  32
HETATM   32  O1  UNL     1       1.875   7.986  16.843  1.00  0.00    -0.392 OA
HETATM   33  H5  UNL     1       1.436   7.696  17.660  1.00  0.00     0.210 HD
ENDBRANCH  30  32
ENDBRANCH  29  30
ENDBRANCH   1  28
BRANCH   1  34
HETATM   34  O2  UNL     1      -2.096   5.716  15.209  1.00  0.00    -0.385 OA
HETATM   35  H8  UNL     1      -1.259   5.604  15.693  1.00  0.00     0.211 HD
ENDBRANCH   1  34
TORSDOF 12
ENDMDL
MODEL 8
REMARK minimizedAffinity -7.80631304
REMARK  12 active torsions:
REMARK  status: ('A' for Active; 'I' for Inactive)
REMARK    1  A    between atoms: C2_2  and  O1_3 
REMARK    2  A    between atoms: C2_2  and  C3_4 
REMARK    3  A    between atoms: C4_5  and  C5_6 
REMARK    4  A    between atoms: C5_6  and  O2_7 
REMARK    5  A    between atoms: C8_10  and  O3_11 
REMARK    6  A    between atoms: O3_11  and  C9_12 
REMARK    7  A    between atoms: C10_14  and  C11_15 
REMARK    8  A    between atoms: C11_15  and  O5_16 
REMARK    9  A    between atoms: C12_17  and  O6_18 
REMARK   10  A    between atoms: C13_19  and  O7_20 
REMARK   11  A    between atoms: C14_21  and  O8_22 
REMARK   12  A    between atoms: C15_23  and  O9_24 
ROOT
HETATM    1  C5  UNL     1      -4.374   6.490  14.781  1.00  0.00     0.088 C 
HETATM    2  C6  UNL     1      -3.053   5.950  14.144  1.00  0.00     0.052 C 
HETATM    3  C7  UNL     1      -3.201   5.280  12.767  1.00  0.00     0.016 C 
HETATM    4  C8  UNL     1      -1.920   7.011  14.066  1.00  0.00     0.160 C 
HETATM    5  C15 UNL     1      -2.096   8.136  15.104  1.00  0.00     0.148 C 
HETATM    6  C16 UNL     1      -3.447   8.863  14.981  1.00  0.00     0.046 C 
HETATM    7  C17 UNL     1      -4.636   8.005  14.457  1.00  0.00    -0.010 C 
HETATM    8  C18 UNL     1      -5.923   8.524  15.152  1.00  0.00     0.018 C 
HETATM    9  C19 UNL     1      -4.819   8.281  12.946  1.00  0.00     0.018 C 
ENDROOT
BRANCH   4  10
HETATM   10  O3  UNL     1      -0.694   6.275  14.256  1.00  0.00    -0.350 OA
BRANCH  10  11
HETATM   11  C9  UNL     1       0.046   6.017  13.064  1.00  0.00     0.292 C 
HETATM   12  O4  UNL     1       1.441   6.048  13.368  1.00  0.00    -0.348 OA
HETATM   13  C10 UNL     1       1.959   7.326  13.753  1.00  0.00     0.179 C 
HETATM   14  C12 UNL     1       1.270   8.539  13.093  1.00  0.00     0.180 C 
HETATM   15  C13 UNL     1       0.704   8.110  11.741  1.00  0.00     0.183 C 
HETATM   16  C14 UNL     1      -0.357   7.030  11.966  1.00  0.00     0.204 C 
BRANCH  13  17
HETATM   17  C11 UNL     1       1.999   7.473  15.281  1.00  0.00     0.198 C 
BRANCH  17  18
HETATM   18  O5  UNL     1       2.984   6.602  15.842  1.00  0.00    -0.398 OA
HETATM   19  H18 UNL     1       2.504   5.877  16.282  1.00  0.00     0.209 HD
ENDBRANCH  17  18
ENDBRANCH  13  17
BRANCH  14  20
HETATM   20  O6  UNL     1       2.224   9.601  12.953  1.00  0.00    -0.390 OA
HETATM   21  H20 UNL     1       2.490   9.835  13.865  1.00  0.00     0.210 HD
ENDBRANCH  14  20
BRANCH  15  22
HETATM   22  O7  UNL     1       0.077   9.213  11.065  1.00  0.00    -0.390 OA
HETATM   23  H22 UNL     1      -0.200   8.857  10.197  1.00  0.00     0.210 HD
ENDBRANCH  15  22
BRANCH  16  24
HETATM   24  O8  UNL     1      -0.616   6.375  10.708  1.00  0.00    -0.388 OA
HETATM   25  H24 UNL     1      -1.312   5.715  10.914  1.00  0.00     0.210 HD
ENDBRANCH  16  24
ENDBRANCH  10  11
ENDBRANCH   4  10
BRANCH   5  26
HETATM   26  O9  UNL     1      -1.065   9.135  14.977  1.00  0.00    -0.393 OA
HETATM   27  H26 UNL     1      -1.264   9.814  15.653  1.00  0.00     0.210 HD
ENDBRANCH   5  26
BRANCH   1  28
HETATM   28  C4  UNL     1      -5.552   5.567  14.509  1.00  0.00     0.010 C 
HETATM   29  C3  UNL     1      -6.258   5.538  13.363  1.00  0.00     0.003 C 
BRANCH  29  30
HETATM   30  C2  UNL     1      -7.423   4.633  13.099  1.00  0.00     0.136 C 
HETATM   31  C1  UNL     1      -6.998   3.174  13.044  1.00  0.00     0.043 C 
BRANCH  30  32
HETATM   32  O1  UNL     1      -8.354   4.813  14.161  1.00  0.00    -0.392 OA
HETATM   33  H5  UNL     1      -7.954   4.455  14.971  1.00  0.00     0.210 HD
ENDBRANCH  30  32
ENDBRANCH  29  30
ENDBRANCH   1  28
BRANCH   1  34
HETATM   34  O2  UNL     1      -4.147   6.438  16.210  1.00  0.00    -0.385 OA
HETATM   35  H8  UNL     1      -5.018   6.446  16.645  1.00  0.00     0.211 HD
ENDBRANCH   1  34
TORSDOF 12
ENDMDL
MODEL 9
REMARK minimizedAffinity -7.68226385
REMARK  12 active torsions:
REMARK  status: ('A' for Active; 'I' for Inactive)
REMARK    1  A    between atoms: C2_2  and  O1_3 
REMARK    2  A    between atoms: C2_2  and  C3_4 
REMARK    3  A    between atoms: C4_5  and  C5_6 
REMARK    4  A    between atoms: C5_6  and  O2_7 
REMARK    5  A    between atoms: C8_10  and  O3_11 
REMARK    6  A    between atoms: O3_11  and  C9_12 
REMARK    7  A    between atoms: C10_14  and  C11_15 
REMARK    8  A    between atoms: C11_15  and  O5_16 
REMARK    9  A    between atoms: C12_17  and  O6_18 
REMARK   10  A    between atoms: C13_19  and  O7_20 
REMARK   11  A    between atoms: C14_21  and  O8_22 
REMARK   12  A    between atoms: C15_23  and  O9_24 
ROOT
HETATM    1  C5  UNL     1      -1.537   5.854  13.854  1.00  0.00     0.088 C 
HETATM    2  C6  UNL     1      -0.422   5.887  12.760  1.00  0.00     0.052 C 
HETATM    3  C7  UNL     1      -0.890   5.609  11.320  1.00  0.00     0.016 C 
HETATM    4  C8  UNL     1       0.420   7.194  12.768  1.00  0.00     0.160 C 
HETATM    5  C15 UNL     1       0.398   7.898  14.140  1.00  0.00     0.148 C 
HETATM    6  C16 UNL     1      -1.025   8.238  14.618  1.00  0.00     0.046 C 
HETATM    7  C17 UNL     1      -2.151   7.269  14.148  1.00  0.00    -0.010 C 
HETATM    8  C18 UNL     1      -3.211   7.209  15.280  1.00  0.00     0.018 C 
HETATM    9  C19 UNL     1      -2.860   7.891  12.923  1.00  0.00     0.018 C 
ENDROOT
BRANCH   4  10
HETATM   10  O3  UNL     1       1.750   6.794  12.378  1.00  0.00    -0.350 OA
BRANCH  10  11
HETATM   11  C9  UNL     1       2.643   7.868  12.087  1.00  0.00     0.292 C 
HETATM   12  O4  UNL     1       2.879   7.907  10.679  1.00  0.00    -0.348 OA
HETATM   13  C10 UNL     1       3.595   6.788  10.144  1.00  0.00     0.179 C 
HETATM   14  C12 UNL     1       4.629   6.154  11.098  1.00  0.00     0.180 C 
HETATM   15  C13 UNL     1       5.122   7.222  12.072  1.00  0.00     0.183 C 
HETATM   16  C14 UNL     1       3.941   7.711  12.914  1.00  0.00     0.204 C 
BRANCH  13  17
HETATM   17  C11 UNL     1       2.635   5.729   9.582  1.00  0.00     0.198 C 
BRANCH  17  18
HETATM   18  O5  UNL     1       2.707   4.529  10.355  1.00  0.00    -0.398 OA
HETATM   19  H18 UNL     1       3.181   3.871   9.815  1.00  0.00     0.209 HD
ENDBRANCH  17  18
ENDBRANCH  13  17
BRANCH  14  20
HETATM   20  O6  UNL     1       5.706   5.607  10.325  1.00  0.00    -0.390 OA
HETATM   21  H20 UNL     1       5.302   4.908   9.773  1.00  0.00     0.210 HD
ENDBRANCH  14  20
BRANCH  15  22
HETATM   22  O7  UNL     1       6.116   6.693  12.967  1.00  0.00    -0.390 OA
HETATM   23  H22 UNL     1       6.406   7.455  13.506  1.00  0.00     0.210 HD
ENDBRANCH  15  22
BRANCH  16  24
HETATM   24  O8  UNL     1       4.317   8.947  13.554  1.00  0.00    -0.388 OA
HETATM   25  H24 UNL     1       3.533   9.194  14.089  1.00  0.00     0.210 HD
ENDBRANCH  16  24
ENDBRANCH  10  11
ENDBRANCH   4  10
BRANCH   5  26
HETATM   26  O9  UNL     1       1.139   9.133  14.109  1.00  0.00    -0.393 OA
HETATM   27  H26 UNL     1       1.055   9.519  15.003  1.00  0.00     0.210 HD
ENDBRANCH   5  26
BRANCH   1  28
HETATM   28  C4  UNL     1      -2.558   4.758  13.587  1.00  0.00     0.010 C 
HETATM   29  C3  UNL     1      -3.655   4.900  12.818  1.00  0.00     0.003 C 
BRANCH  29  30
HETATM   30  C2  UNL     1      -4.664   3.823  12.561  1.00  0.00     0.136 C 
HETATM   31  C1  UNL     1      -6.075   4.288  12.887  1.00  0.00     0.043 C 
BRANCH  30  32
HETATM   32  O1  UNL     1      -4.586   3.484  11.181  1.00  0.00    -0.392 OA
HETATM   33  H5  UNL     1      -4.914   4.243  10.669  1.00  0.00     0.210 HD
ENDBRANCH  30  32
ENDBRANCH  29  30
ENDBRANCH   1  28
BRANCH   1  34
HETATM   34  O2  UNL     1      -0.852   5.472  15.072  1.00  0.00    -0.385 OA
HETATM   35  H8  UNL     1      -1.521   5.124  15.687  1.00  0.00     0.211 HD
ENDBRANCH   1  34
TORSDOF 12
ENDMDL
