MODEL 1
REMARK minimizedAffinity -9.47164917
REMARK CNNscore 0.674571633
REMARK CNNaffinity 6.75751495
REMARK  8 active torsions:
REMARK  status: ('A' for Active; 'I' for Inactive)
REMARK    1  A    between atoms: C2_2  and  C30_35 
REMARK    2  A    between atoms: C3_3  and  C4_4 
REMARK    3  A    between atoms: C4_4  and  O1_5 
REMARK    4  A    between atoms: C4_4  and  C5_6 
REMARK    5  A    between atoms: C5_6  and  C6_7 
REMARK    6  A    between atoms: C6_7  and  C8_9 
REMARK    7  A    between atoms: C29_33  and  O5_34 
REMARK    8  A    between atoms: C30_35  and  O7_37 
ROOT
HETATM    1  C8  UNL     1      -6.216   7.192  14.653  1.00  0.00     0.006 C 
HETATM    2  C9  UNL     1      -5.877   8.435  15.513  1.00  0.00     0.085 C 
HETATM    3  C10 UNL     1      -4.464   8.776  15.087  1.00  0.00     0.140 C 
HETATM    4  O2  UNL     1      -3.848   9.750  15.507  1.00  0.00    -0.297 OA
HETATM    5  C11 UNL     1      -3.947   7.807  14.014  1.00  0.00     0.051 C 
HETATM    6  C12 UNL     1      -4.302   8.532  12.680  1.00  0.00     0.029 C 
HETATM    7  C13 UNL     1      -2.495   7.382  13.897  1.00  0.00    -0.024 C 
HETATM    8  C14 UNL     1      -2.178   6.282  13.161  1.00  0.00     0.003 C 
HETATM    9  C15 UNL     1      -3.314   5.383  12.683  1.00  0.00     0.157 C 
HETATM   10  O3  UNL     1      -3.108   4.486  11.863  1.00  0.00    -0.293 OA
HETATM   11  C16 UNL     1      -4.739   5.587  13.198  1.00  0.00     0.094 C 
HETATM   12  C17 UNL     1      -4.817   6.554  14.379  1.00  0.00    -0.015 C 
HETATM   13  C18 UNL     1      -4.288   5.811  15.643  1.00  0.00     0.018 C 
HETATM   14  C19 UNL     1      -0.729   5.888  12.794  1.00  0.00    -0.008 C 
HETATM   15  C20 UNL     1      -0.356   4.669  13.678  1.00  0.00     0.021 C 
HETATM   16  C21 UNL     1      -0.585   5.460  11.297  1.00  0.00     0.022 C 
HETATM   17  C22 UNL     1       0.793   5.720  10.710  1.00  0.00     0.080 C 
HETATM   18  C23 UNL     1       1.100   7.200  10.719  1.00  0.00     0.135 C 
HETATM   19  O4  UNL     1       1.783   7.694   9.820  1.00  0.00    -0.297 OA
HETATM   20  C24 UNL     1       0.547   8.036  11.887  1.00  0.00     0.018 C 
HETATM   21  C25 UNL     1      -0.679   8.792  11.354  1.00  0.00     0.023 C 
HETATM   22  C26 UNL     1       1.624   9.080  12.253  1.00  0.00     0.023 C 
HETATM   23  C27 UNL     1       0.293   7.058  13.090  1.00  0.00     0.016 C 
HETATM   24  C28 UNL     1      -0.030   7.718  14.434  1.00  0.00     0.043 C 
HETATM   25  C29 UNL     1      -1.452   8.251  14.553  1.00  0.00     0.149 C 
ENDROOT
BRANCH   1  26
HETATM   26  C6  UNL     1      -7.426   6.377  15.197  1.00  0.00    -0.011 C 
HETATM   27  C7  UNL     1      -7.423   4.871  14.908  1.00  0.00     0.010 C 
BRANCH  26  28
HETATM   28  C5  UNL     1      -8.775   7.034  14.799  1.00  0.00     0.040 C 
BRANCH  28  29
HETATM   29  C4  UNL     1      -9.460   6.385  13.582  1.00  0.00     0.142 C 
BRANCH  29  30
HETATM   30  C3  UNL     1     -10.527   7.297  13.029  1.00  0.00     0.018 C 
HETATM   31  C2  UNL     1     -11.849   7.379  13.298  1.00  0.00     0.010 C 
HETATM   32  C1  UNL     1     -12.586   6.519  14.287  1.00  0.00     0.055 C 
BRANCH  31  33
HETATM   33  C30 UNL     1     -12.690   8.387  12.596  1.00  0.00     0.171 C 
HETATM   34  O6  UNL     1     -13.909   8.386  12.550  1.00  0.00    -0.646 OA
BRANCH  33  35
HETATM   35  O7  UNL     1     -11.987   9.350  11.975  1.00  0.00    -0.773 OA
HETATM   36  H42 UNL     1     -12.684   9.902  11.561  1.00  0.00     0.167 HD
ENDBRANCH  33  35
ENDBRANCH  31  33
ENDBRANCH  29  30
BRANCH  29  37
HETATM   37  O1  UNL     1      -8.488   6.067  12.606  1.00  0.00    -0.392 OA
HETATM   38  H6  UNL     1      -8.877   5.379  12.035  1.00  0.00     0.210 HD
ENDBRANCH  29  37
ENDBRANCH  28  29
ENDBRANCH  26  28
ENDBRANCH   1  26
BRANCH  25  39
HETATM   39  O5  UNL     1      -1.724   8.307  15.952  1.00  0.00    -0.391 OA
HETATM   40  H41 UNL     1      -2.260   9.116  16.093  1.00  0.00     0.210 HD
ENDBRANCH  25  39
TORSDOF 8
ENDMDL
MODEL 2
REMARK minimizedAffinity -8.54822063
REMARK CNNscore 0.616231203
REMARK CNNaffinity 6.57410192
REMARK  8 active torsions:
REMARK  status: ('A' for Active; 'I' for Inactive)
REMARK    1  A    between atoms: C2_2  and  C30_35 
REMARK    2  A    between atoms: C3_3  and  C4_4 
REMARK    3  A    between atoms: C4_4  and  O1_5 
REMARK    4  A    between atoms: C4_4  and  C5_6 
REMARK    5  A    between atoms: C5_6  and  C6_7 
REMARK    6  A    between atoms: C6_7  and  C8_9 
REMARK    7  A    between atoms: C29_33  and  O5_34 
REMARK    8  A    between atoms: C30_35  and  O7_37 
ROOT
HETATM    1  C8  UNL     1      -0.297  11.025  17.630  1.00  0.00     0.006 C 
HETATM    2  C9  UNL     1      -1.669  11.609  18.049  1.00  0.00     0.085 C 
HETATM    3  C10 UNL     1      -2.659  10.725  17.319  1.00  0.00     0.140 C 
HETATM    4  O2  UNL     1      -3.876  10.833  17.438  1.00  0.00    -0.297 OA
HETATM    5  C11 UNL     1      -1.951   9.641  16.496  1.00  0.00     0.051 C 
HETATM    6  C12 UNL     1      -1.903   8.427  17.473  1.00  0.00     0.029 C 
HETATM    7  C13 UNL     1      -2.480   9.108  15.177  1.00  0.00    -0.024 C 
HETATM    8  C14 UNL     1      -1.646   8.417  14.353  1.00  0.00     0.003 C 
HETATM    9  C15 UNL     1      -0.155   8.414  14.673  1.00  0.00     0.157 C 
HETATM   10  O3  UNL     1       0.618   7.660  14.079  1.00  0.00    -0.293 OA
HETATM   11  C16 UNL     1       0.411   9.334  15.755  1.00  0.00     0.094 C 
HETATM   12  C17 UNL     1      -0.592  10.381  16.238  1.00  0.00    -0.015 C 
HETATM   13  C18 UNL     1      -0.712  11.476  15.134  1.00  0.00     0.018 C 
HETATM   14  C19 UNL     1      -2.128   7.647  13.102  1.00  0.00    -0.008 C 
HETATM   15  C20 UNL     1      -1.692   8.478  11.866  1.00  0.00     0.021 C 
HETATM   16  C21 UNL     1      -1.477   6.230  12.983  1.00  0.00     0.022 C 
HETATM   17  C22 UNL     1      -2.341   5.213  12.255  1.00  0.00     0.080 C 
HETATM   18  C23 UNL     1      -3.632   4.983  13.006  1.00  0.00     0.135 C 
HETATM   19  O4  UNL     1      -4.162   3.870  12.997  1.00  0.00    -0.297 OA
HETATM   20  C24 UNL     1      -4.246   6.181  13.752  1.00  0.00     0.018 C 
HETATM   21  C25 UNL     1      -3.919   5.998  15.241  1.00  0.00     0.023 C 
HETATM   22  C26 UNL     1      -5.780   6.084  13.590  1.00  0.00     0.023 C 
HETATM   23  C27 UNL     1      -3.700   7.490  13.075  1.00  0.00     0.016 C 
HETATM   24  C28 UNL     1      -4.373   8.798  13.505  1.00  0.00     0.043 C 
HETATM   25  C29 UNL     1      -3.942   9.312  14.873  1.00  0.00     0.149 C 
ENDROOT
BRANCH   1  26
HETATM   26  C6  UNL     1       0.891  12.001  17.877  1.00  0.00    -0.011 C 
HETATM   27  C7  UNL     1       1.539  12.620  16.632  1.00  0.00     0.010 C 
BRANCH  26  28
HETATM   28  C5  UNL     1       1.950  11.375  18.823  1.00  0.00     0.040 C 
BRANCH  28  29
HETATM   29  C4  UNL     1       1.804  11.787  20.299  1.00  0.00     0.142 C 
BRANCH  29  30
HETATM   30  C3  UNL     1       1.714  10.566  21.181  1.00  0.00     0.018 C 
HETATM   31  C2  UNL     1       2.680   9.815  21.754  1.00  0.00     0.010 C 
HETATM   32  C1  UNL     1       4.158  10.063  21.631  1.00  0.00     0.055 C 
BRANCH  31  33
HETATM   33  C30 UNL     1       2.311   8.641  22.592  1.00  0.00     0.171 C 
HETATM   34  O6  UNL     1       1.744   7.636  22.197  1.00  0.00    -0.646 OA
BRANCH  33  35
HETATM   35  O7  UNL     1       2.650   8.765  23.887  1.00  0.00    -0.773 OA
HETATM   36  H42 UNL     1       2.323   7.929  24.284  1.00  0.00     0.167 HD
ENDBRANCH  33  35
ENDBRANCH  31  33
ENDBRANCH  29  30
BRANCH  29  37
HETATM   37  O1  UNL     1       2.887  12.619  20.667  1.00  0.00    -0.392 OA
HETATM   38  H6  UNL     1       2.601  13.122  21.452  1.00  0.00     0.210 HD
ENDBRANCH  29  37
ENDBRANCH  28  29
ENDBRANCH  26  28
ENDBRANCH   1  26
BRANCH  25  39
HETATM   39  O5  UNL     1      -4.210  10.713  14.856  1.00  0.00    -0.391 OA
HETATM   40  H41 UNL     1      -4.528  10.940  15.756  1.00  0.00     0.210 HD
ENDBRANCH  25  39
TORSDOF 8
ENDMDL
MODEL 3
REMARK minimizedAffinity -9.32275391
REMARK CNNscore 0.489570439
REMARK CNNaffinity 6.51896143
REMARK  8 active torsions:
REMARK  status: ('A' for Active; 'I' for Inactive)
REMARK    1  A    between atoms: C2_2  and  C30_35 
REMARK    2  A    between atoms: C3_3  and  C4_4 
REMARK    3  A    between atoms: C4_4  and  O1_5 
REMARK    4  A    between atoms: C4_4  and  C5_6 
REMARK    5  A    between atoms: C5_6  and  C6_7 
REMARK    6  A    between atoms: C6_7  and  C8_9 
REMARK    7  A    between atoms: C29_33  and  O5_34 
REMARK    8  A    between atoms: C30_35  and  O7_37 
ROOT
HETATM    1  C8  UNL     1       6.767   9.425  14.002  1.00  0.00     0.006 C 
HETATM    2  C9  UNL     1       7.816   8.528  13.300  1.00  0.00     0.085 C 
HETATM    3  C10 UNL     1       7.051   7.955  12.125  1.00  0.00     0.140 C 
HETATM    4  O2  UNL     1       7.559   7.226  11.279  1.00  0.00    -0.297 OA
HETATM    5  C11 UNL     1       5.606   8.470  12.085  1.00  0.00     0.051 C 
HETATM    6  C12 UNL     1       5.697   9.715  11.152  1.00  0.00     0.029 C 
HETATM    7  C13 UNL     1       4.434   7.644  11.584  1.00  0.00    -0.024 C 
HETATM    8  C14 UNL     1       3.166   8.028  11.894  1.00  0.00     0.003 C 
HETATM    9  C15 UNL     1       2.979   9.131  12.931  1.00  0.00     0.157 C 
HETATM   10  O3  UNL     1       1.875   9.647  13.114  1.00  0.00    -0.293 OA
HETATM   11  C16 UNL     1       4.164   9.635  13.755  1.00  0.00     0.094 C 
HETATM   12  C17 UNL     1       5.408   8.758  13.614  1.00  0.00    -0.015 C 
HETATM   13  C18 UNL     1       5.174   7.456  14.440  1.00  0.00     0.018 C 
HETATM   14  C19 UNL     1       1.905   7.397  11.262  1.00  0.00    -0.008 C 
HETATM   15  C20 UNL     1       1.260   6.495  12.347  1.00  0.00     0.021 C 
HETATM   16  C21 UNL     1       0.848   8.468  10.836  1.00  0.00     0.022 C 
HETATM   17  C22 UNL     1      -0.026   8.043   9.667  1.00  0.00     0.080 C 
HETATM   18  C23 UNL     1       0.817   7.820   8.432  1.00  0.00     0.135 C 
HETATM   19  O4  UNL     1       0.358   8.074   7.317  1.00  0.00    -0.297 OA
HETATM   20  C24 UNL     1       2.236   7.258   8.629  1.00  0.00     0.018 C 
HETATM   21  C25 UNL     1       3.209   8.436   8.483  1.00  0.00     0.023 C 
HETATM   22  C26 UNL     1       2.504   6.275   7.467  1.00  0.00     0.023 C 
HETATM   23  C27 UNL     1       2.258   6.503  10.007  1.00  0.00     0.016 C 
HETATM   24  C28 UNL     1       3.506   5.660  10.290  1.00  0.00     0.043 C 
HETATM   25  C29 UNL     1       4.735   6.463  10.697  1.00  0.00     0.149 C 
ENDROOT
BRANCH   1  26
HETATM   26  C6  UNL     1       7.145   9.785  15.469  1.00  0.00    -0.011 C 
HETATM   27  C7  UNL     1       7.027  11.262  15.864  1.00  0.00     0.010 C 
BRANCH  26  28
HETATM   28  C5  UNL     1       8.529   9.198  15.856  1.00  0.00     0.040 C 
BRANCH  28  29
HETATM   29  C4  UNL     1       9.640  10.251  16.024  1.00  0.00     0.142 C 
BRANCH  29  30
HETATM   30  C3  UNL     1      10.092  10.316  17.461  1.00  0.00     0.018 C 
HETATM   31  C2  UNL     1      10.522  11.358  18.207  1.00  0.00     0.010 C 
HETATM   32  C1  UNL     1      10.640  12.778  17.727  1.00  0.00     0.055 C 
BRANCH  31  33
HETATM   33  C30 UNL     1      10.917  11.143  19.627  1.00  0.00     0.171 C 
HETATM   34  O6  UNL     1      10.320  11.570  20.602  1.00  0.00    -0.646 OA
BRANCH  33  35
HETATM   35  O7  UNL     1      12.038  10.417  19.780  1.00  0.00    -0.773 OA
HETATM   36  H42 UNL     1      12.155  10.392  20.753  1.00  0.00     0.167 HD
ENDBRANCH  33  35
ENDBRANCH  31  33
ENDBRANCH  29  30
BRANCH  29  37
HETATM   37  O1  UNL     1      10.711   9.951  15.152  1.00  0.00    -0.392 OA
HETATM   38  H6  UNL     1      11.214  10.777  15.028  1.00  0.00     0.210 HD
ENDBRANCH  29  37
ENDBRANCH  28  29
ENDBRANCH  26  28
ENDBRANCH   1  26
BRANCH  25  39
HETATM   39  O5  UNL     1       5.564   5.555  11.418  1.00  0.00    -0.391 OA
HETATM   40  H41 UNL     1       6.488   5.774  11.171  1.00  0.00     0.210 HD
ENDBRANCH  25  39
TORSDOF 8
ENDMDL
MODEL 4
REMARK minimizedAffinity -8.23345661
REMARK CNNscore 0.428603351
REMARK CNNaffinity 5.98768568
REMARK  8 active torsions:
REMARK  status: ('A' for Active; 'I' for Inactive)
REMARK    1  A    between atoms: C2_2  and  C30_35 
REMARK    2  A    between atoms: C3_3  and  C4_4 
REMARK    3  A    between atoms: C4_4  and  O1_5 
REMARK    4  A    between atoms: C4_4  and  C5_6 
REMARK    5  A    between atoms: C5_6  and  C6_7 
REMARK    6  A    between atoms: C6_7  and  C8_9 
REMARK    7  A    between atoms: C29_33  and  O5_34 
REMARK    8  A    between atoms: C30_35  and  O7_37 
ROOT
HETATM    1  C8  UNL     1      -0.453   9.111  13.306  1.00  0.00     0.006 C 
HETATM    2  C9  UNL     1      -1.903   8.576  13.192  1.00  0.00     0.085 C 
HETATM    3  C10 UNL     1      -2.641   9.346  14.268  1.00  0.00     0.140 C 
HETATM    4  O2  UNL     1      -3.848   9.245  14.463  1.00  0.00    -0.297 OA
HETATM    5  C11 UNL     1      -1.711  10.316  15.009  1.00  0.00     0.051 C 
HETATM    6  C12 UNL     1      -1.890  11.651  14.223  1.00  0.00     0.029 C 
HETATM    7  C13 UNL     1      -1.860  10.663  16.480  1.00  0.00    -0.024 C 
HETATM    8  C14 UNL     1      -0.820  11.244  17.137  1.00  0.00     0.003 C 
HETATM    9  C15 UNL     1       0.534  11.304  16.436  1.00  0.00     0.157 C 
HETATM   10  O3  UNL     1       1.456  11.978  16.898  1.00  0.00    -0.293 OA
HETATM   11  C16 UNL     1       0.770  10.542  15.132  1.00  0.00     0.094 C 
HETATM   12  C17 UNL     1      -0.353   9.560  14.799  1.00  0.00    -0.015 C 
HETATM   13  C18 UNL     1      -0.207   8.326  15.741  1.00  0.00     0.018 C 
HETATM   14  C19 UNL     1      -0.933  11.835  18.561  1.00  0.00    -0.008 C 
HETATM   15  C20 UNL     1      -0.209  10.850  19.517  1.00  0.00     0.021 C 
HETATM   16  C21 UNL     1      -0.236  13.230  18.688  1.00  0.00     0.022 C 
HETATM   17  C22 UNL     1      -0.849  14.132  19.746  1.00  0.00     0.080 C 
HETATM   18  C23 UNL     1      -2.286  14.449  19.402  1.00  0.00     0.135 C 
HETATM   19  O4  UNL     1      -2.765  15.546  19.697  1.00  0.00    -0.297 OA
HETATM   20  C24 UNL     1      -3.108  13.357  18.694  1.00  0.00     0.018 C 
HETATM   21  C25 UNL     1      -3.180  13.741  17.209  1.00  0.00     0.023 C 
HETATM   22  C26 UNL     1      -4.541  13.418  19.268  1.00  0.00     0.023 C 
HETATM   23  C27 UNL     1      -2.438  11.974  19.024  1.00  0.00     0.016 C 
HETATM   24  C28 UNL     1      -3.236  10.730  18.620  1.00  0.00     0.043 C 
HETATM   25  C29 UNL     1      -3.195  10.407  17.131  1.00  0.00     0.149 C 
ENDROOT
BRANCH   1  26
HETATM   26  C6  UNL     1       0.600   8.188  12.627  1.00  0.00    -0.011 C 
HETATM   27  C7  UNL     1       1.780   8.885  11.938  1.00  0.00     0.010 C 
BRANCH  26  28
HETATM   28  C5  UNL     1      -0.076   7.150  11.692  1.00  0.00     0.040 C 
BRANCH  28  29
HETATM   29  C4  UNL     1       0.910   6.305  10.865  1.00  0.00     0.142 C 
BRANCH  29  30
HETATM   30  C3  UNL     1       1.218   6.985   9.554  1.00  0.00     0.018 C 
HETATM   31  C2  UNL     1       2.152   6.717   8.616  1.00  0.00     0.010 C 
HETATM   32  C1  UNL     1       3.149   5.593   8.682  1.00  0.00     0.055 C 
BRANCH  31  33
HETATM   33  C30 UNL     1       2.243   7.562   7.394  1.00  0.00     0.171 C 
HETATM   34  O6  UNL     1       1.797   7.273   6.296  1.00  0.00    -0.646 OA
BRANCH  33  35
HETATM   35  O7  UNL     1       2.890   8.726   7.580  1.00  0.00    -0.773 OA
HETATM   36  H42 UNL     1       2.872   9.136   6.688  1.00  0.00     0.167 HD
ENDBRANCH  33  35
ENDBRANCH  31  33
ENDBRANCH  29  30
BRANCH  29  37
HETATM   37  O1  UNL     1       2.081   6.071  11.621  1.00  0.00    -0.392 OA
HETATM   38  H6  UNL     1       2.513   5.286  11.235  1.00  0.00     0.210 HD
ENDBRANCH  29  37
ENDBRANCH  28  29
ENDBRANCH  26  28
ENDBRANCH   1  26
BRANCH  25  39
HETATM   39  O5  UNL     1      -3.487   9.014  17.034  1.00  0.00    -0.391 OA
HETATM   40  H41 UNL     1      -4.037   8.907  16.228  1.00  0.00     0.210 HD
ENDBRANCH  25  39
TORSDOF 8
ENDMDL
MODEL 5
REMARK minimizedAffinity -9.85453796
REMARK CNNscore 0.418369681
REMARK CNNaffinity 6.51915121
REMARK  8 active torsions:
REMARK  status: ('A' for Active; 'I' for Inactive)
REMARK    1  A    between atoms: C2_2  and  C30_35 
REMARK    2  A    between atoms: C3_3  and  C4_4 
REMARK    3  A    between atoms: C4_4  and  O1_5 
REMARK    4  A    between atoms: C4_4  and  C5_6 
REMARK    5  A    between atoms: C5_6  and  C6_7 
REMARK    6  A    between atoms: C6_7  and  C8_9 
REMARK    7  A    between atoms: C29_33  and  O5_34 
REMARK    8  A    between atoms: C30_35  and  O7_37 
ROOT
HETATM    1  C8  UNL     1      -5.716   7.458  14.375  1.00  0.00     0.006 C 
HETATM    2  C9  UNL     1      -5.371   8.709  15.221  1.00  0.00     0.085 C 
HETATM    3  C10 UNL     1      -3.928   8.988  14.855  1.00  0.00     0.140 C 
HETATM    4  O2  UNL     1      -3.296   9.949  15.282  1.00  0.00    -0.297 OA
HETATM    5  C11 UNL     1      -3.398   7.975  13.830  1.00  0.00     0.051 C 
HETATM    6  C12 UNL     1      -3.663   8.679  12.465  1.00  0.00     0.029 C 
HETATM    7  C13 UNL     1      -1.959   7.495  13.792  1.00  0.00    -0.024 C 
HETATM    8  C14 UNL     1      -1.650   6.366  13.096  1.00  0.00     0.003 C 
HETATM    9  C15 UNL     1      -2.795   5.497  12.586  1.00  0.00     0.157 C 
HETATM   10  O3  UNL     1      -2.585   4.574  11.797  1.00  0.00    -0.293 OA
HETATM   11  C16 UNL     1      -4.234   5.766  13.028  1.00  0.00     0.094 C 
HETATM   12  C17 UNL     1      -4.330   6.763  14.182  1.00  0.00    -0.015 C 
HETATM   13  C18 UNL     1      -3.889   6.033  15.486  1.00  0.00     0.018 C 
HETATM   14  C19 UNL     1      -0.201   5.911  12.808  1.00  0.00    -0.008 C 
HETATM   15  C20 UNL     1       0.084   4.701  13.736  1.00  0.00     0.021 C 
HETATM   16  C21 UNL     1      -0.004   5.441  11.329  1.00  0.00     0.022 C 
HETATM   17  C22 UNL     1       1.409   5.636  10.803  1.00  0.00     0.080 C 
HETATM   18  C23 UNL     1       1.771   7.104  10.793  1.00  0.00     0.135 C 
HETATM   19  O4  UNL     1       2.512   7.551   9.915  1.00  0.00    -0.297 OA
HETATM   20  C24 UNL     1       1.195   7.988  11.913  1.00  0.00     0.018 C 
HETATM   21  C25 UNL     1       0.024   8.775  11.306  1.00  0.00     0.023 C 
HETATM   22  C26 UNL     1       2.293   9.001  12.306  1.00  0.00     0.023 C 
HETATM   23  C27 UNL     1       0.849   7.049  13.125  1.00  0.00     0.016 C 
HETATM   24  C28 UNL     1       0.489   7.754  14.437  1.00  0.00     0.043 C 
HETATM   25  C29 UNL     1      -0.916   8.341  14.476  1.00  0.00     0.149 C 
ENDROOT
BRANCH   1  26
HETATM   26  C6  UNL     1      -6.980   6.701  14.880  1.00  0.00    -0.011 C 
HETATM   27  C7  UNL     1      -6.752   5.619  15.942  1.00  0.00     0.010 C 
BRANCH  26  28
HETATM   28  C5  UNL     1      -7.831   6.170  13.695  1.00  0.00     0.040 C 
BRANCH  28  29
HETATM   29  C4  UNL     1      -7.903   4.635  13.605  1.00  0.00     0.142 C 
BRANCH  29  30
HETATM   30  C3  UNL     1      -6.885   4.116  12.621  1.00  0.00     0.018 C 
HETATM   31  C2  UNL     1      -6.634   2.862  12.185  1.00  0.00     0.010 C 
HETATM   32  C1  UNL     1      -7.381   1.629  12.616  1.00  0.00     0.055 C 
BRANCH  31  33
HETATM   33  C30 UNL     1      -5.550   2.621  11.193  1.00  0.00     0.171 C 
HETATM   34  O6  UNL     1      -5.237   3.376  10.288  1.00  0.00    -0.646 OA
BRANCH  33  35
HETATM   35  O7  UNL     1      -4.906   1.453  11.359  1.00  0.00    -0.773 OA
HETATM   36  H42 UNL     1      -4.254   1.453  10.626  1.00  0.00     0.167 HD
ENDBRANCH  33  35
ENDBRANCH  31  33
ENDBRANCH  29  30
BRANCH  29  37
HETATM   37  O1  UNL     1      -7.719   4.077  14.891  1.00  0.00    -0.392 OA
HETATM   38  H6  UNL     1      -8.099   3.179  14.866  1.00  0.00     0.210 HD
ENDBRANCH  29  37
ENDBRANCH  28  29
ENDBRANCH  26  28
ENDBRANCH   1  26
BRANCH  25  39
HETATM   39  O5  UNL     1      -1.251   8.441  15.859  1.00  0.00    -0.391 OA
HETATM   40  H41 UNL     1      -1.762   9.272  15.956  1.00  0.00     0.210 HD
ENDBRANCH  25  39
TORSDOF 8
ENDMDL
MODEL 6
REMARK minimizedAffinity -7.70128298
REMARK CNNscore 0.391826421
REMARK CNNaffinity 5.93470764
REMARK  8 active torsions:
REMARK  status: ('A' for Active; 'I' for Inactive)
REMARK    1  A    between atoms: C2_2  and  C30_35 
REMARK    2  A    between atoms: C3_3  and  C4_4 
REMARK    3  A    between atoms: C4_4  and  O1_5 
REMARK    4  A    between atoms: C4_4  and  C5_6 
REMARK    5  A    between atoms: C5_6  and  C6_7 
REMARK    6  A    between atoms: C6_7  and  C8_9 
REMARK    7  A    between atoms: C29_33  and  O5_34 
REMARK    8  A    between atoms: C30_35  and  O7_37 
ROOT
HETATM    1  C8  UNL     1      -1.118  11.590  15.855  1.00  0.00     0.006 C 
HETATM    2  C9  UNL     1       0.357  11.159  16.042  1.00  0.00     0.085 C 
HETATM    3  C10 UNL     1       0.394   9.774  15.430  1.00  0.00     0.140 C 
HETATM    4  O2  UNL     1       1.418   9.106  15.331  1.00  0.00    -0.297 OA
HETATM    5  C11 UNL     1      -0.979   9.362  14.880  1.00  0.00     0.051 C 
HETATM    6  C12 UNL     1      -0.909   9.799  13.385  1.00  0.00     0.029 C 
HETATM    7  C13 UNL     1      -1.490   7.933  14.885  1.00  0.00    -0.024 C 
HETATM    8  C14 UNL     1      -2.818   7.698  14.706  1.00  0.00     0.003 C 
HETATM    9  C15 UNL     1      -3.773   8.887  14.749  1.00  0.00     0.157 C 
HETATM   10  O3  UNL     1      -4.952   8.765  14.409  1.00  0.00    -0.293 OA
HETATM   11  C16 UNL     1      -3.283  10.264  15.196  1.00  0.00     0.094 C 
HETATM   12  C17 UNL     1      -1.887  10.231  15.818  1.00  0.00    -0.015 C 
HETATM   13  C18 UNL     1      -2.014   9.626  17.250  1.00  0.00     0.018 C 
HETATM   14  C19 UNL     1      -3.413   6.290  14.474  1.00  0.00    -0.008 C 
HETATM   15  C20 UNL     1      -4.127   5.881  15.790  1.00  0.00     0.021 C 
HETATM   16  C21 UNL     1      -4.473   6.269  13.324  1.00  0.00     0.022 C 
HETATM   17  C22 UNL     1      -4.579   4.933  12.607  1.00  0.00     0.080 C 
HETATM   18  C23 UNL     1      -3.270   4.591  11.932  1.00  0.00     0.135 C 
HETATM   19  O4  UNL     1      -3.268   3.967  10.868  1.00  0.00    -0.297 OA
HETATM   20  C24 UNL     1      -1.972   5.036  12.627  1.00  0.00     0.018 C 
HETATM   21  C25 UNL     1      -1.468   6.281  11.882  1.00  0.00     0.023 C 
HETATM   22  C26 UNL     1      -0.934   3.910  12.423  1.00  0.00     0.023 C 
HETATM   23  C27 UNL     1      -2.293   5.222  14.154  1.00  0.00     0.016 C 
HETATM   24  C28 UNL     1      -1.084   5.427  15.073  1.00  0.00     0.043 C 
HETATM   25  C29 UNL     1      -0.478   6.824  15.020  1.00  0.00     0.149 C 
ENDROOT
BRANCH   1  26
HETATM   26  C6  UNL     1      -1.537  12.775  16.775  1.00  0.00    -0.011 C 
HETATM   27  C7  UNL     1      -2.097  14.020  16.076  1.00  0.00     0.010 C 
BRANCH  26  28
HETATM   28  C5  UNL     1      -0.407  13.140  17.776  1.00  0.00     0.040 C 
BRANCH  28  29
HETATM   29  C4  UNL     1      -0.691  12.723  19.230  1.00  0.00     0.142 C 
BRANCH  29  30
HETATM   30  C3  UNL     1       0.245  11.620  19.656  1.00  0.00     0.018 C 
HETATM   31  C2  UNL     1       1.449  11.667  20.267  1.00  0.00     0.010 C 
HETATM   32  C1  UNL     1       2.157  12.924  20.691  1.00  0.00     0.055 C 
BRANCH  31  33
HETATM   33  C30 UNL     1       2.176  10.405  20.577  1.00  0.00     0.171 C 
HETATM   34  O6  UNL     1       3.290  10.110  20.177  1.00  0.00    -0.646 OA
BRANCH  33  35
HETATM   35  O7  UNL     1       1.490   9.558  21.363  1.00  0.00    -0.773 OA
HETATM   36  H42 UNL     1       2.097   8.792  21.448  1.00  0.00     0.167 HD
ENDBRANCH  33  35
ENDBRANCH  31  33
ENDBRANCH  29  30
BRANCH  29  37
HETATM   37  O1  UNL     1      -0.586  13.852  20.074  1.00  0.00    -0.392 OA
HETATM   38  H6  UNL     1      -1.087  13.646  20.885  1.00  0.00     0.210 HD
ENDBRANCH  29  37
ENDBRANCH  28  29
ENDBRANCH  26  28
ENDBRANCH   1  26
BRANCH  25  39
HETATM   39  O5  UNL     1       0.213   6.989  16.257  1.00  0.00    -0.391 OA
HETATM   40  H41 UNL     1       1.027   7.494  16.049  1.00  0.00     0.210 HD
ENDBRANCH  25  39
TORSDOF 8
ENDMDL
MODEL 7
REMARK minimizedAffinity -7.927145
REMARK CNNscore 0.385382593
REMARK CNNaffinity 6.10896921
REMARK  8 active torsions:
REMARK  status: ('A' for Active; 'I' for Inactive)
REMARK    1  A    between atoms: C2_2  and  C30_35 
REMARK    2  A    between atoms: C3_3  and  C4_4 
REMARK    3  A    between atoms: C4_4  and  O1_5 
REMARK    4  A    between atoms: C4_4  and  C5_6 
REMARK    5  A    between atoms: C5_6  and  C6_7 
REMARK    6  A    between atoms: C6_7  and  C8_9 
REMARK    7  A    between atoms: C29_33  and  O5_34 
REMARK    8  A    between atoms: C30_35  and  O7_37 
ROOT
HETATM    1  C8  UNL     1       0.632  10.579  16.960  1.00  0.00     0.006 C 
HETATM    2  C9  UNL     1       1.911   9.872  17.474  1.00  0.00     0.085 C 
HETATM    3  C10 UNL     1       2.434   9.163  16.242  1.00  0.00     0.140 C 
HETATM    4  O2  UNL     1       3.482   8.526  16.223  1.00  0.00    -0.297 OA
HETATM    5  C11 UNL     1       1.540   9.418  15.021  1.00  0.00     0.051 C 
HETATM    6  C12 UNL     1       2.208  10.652  14.341  1.00  0.00     0.029 C 
HETATM    7  C13 UNL     1       1.310   8.397  13.921  1.00  0.00    -0.024 C 
HETATM    8  C14 UNL     1       0.260   8.556  13.071  1.00  0.00     0.003 C 
HETATM    9  C15 UNL     1      -0.783   9.620  13.403  1.00  0.00     0.157 C 
HETATM   10  O3  UNL     1      -1.646   9.937  12.583  1.00  0.00    -0.293 OA
HETATM   11  C16 UNL     1      -0.767  10.330  14.756  1.00  0.00     0.094 C 
HETATM   12  C17 UNL     1       0.184   9.682  15.763  1.00  0.00    -0.015 C 
HETATM   13  C18 UNL     1      -0.481   8.367  16.273  1.00  0.00     0.018 C 
HETATM   14  C19 UNL     1       0.059   7.709  11.793  1.00  0.00    -0.008 C 
HETATM   15  C20 UNL     1      -1.099   6.719  12.086  1.00  0.00     0.021 C 
HETATM   16  C21 UNL     1      -0.349   8.576  10.557  1.00  0.00     0.022 C 
HETATM   17  C22 UNL     1       0.088   7.994   9.223  1.00  0.00     0.080 C 
HETATM   18  C23 UNL     1       1.596   7.910   9.153  1.00  0.00     0.135 C 
HETATM   19  O4  UNL     1       2.175   8.070   8.077  1.00  0.00    -0.297 OA
HETATM   20  C24 UNL     1       2.354   7.605  10.457  1.00  0.00     0.018 C 
HETATM   21  C25 UNL     1       2.941   8.934  10.955  1.00  0.00     0.023 C 
HETATM   22  C26 UNL     1       3.533   6.674  10.095  1.00  0.00     0.023 C 
HETATM   23  C27 UNL     1       1.354   6.879  11.427  1.00  0.00     0.016 C 
HETATM   24  C28 UNL     1       1.969   6.269  12.691  1.00  0.00     0.043 C 
HETATM   25  C29 UNL     1       2.310   7.278  13.780  1.00  0.00     0.149 C 
ENDROOT
BRANCH   1  26
HETATM   26  C6  UNL     1      -0.334  11.013  18.102  1.00  0.00    -0.011 C 
HETATM   27  C7  UNL     1       0.228  10.971  19.528  1.00  0.00     0.010 C 
BRANCH  26  28
HETATM   28  C5  UNL     1      -1.696  10.274  18.002  1.00  0.00     0.040 C 
BRANCH  28  29
HETATM   29  C4  UNL     1      -2.850  10.968  18.748  1.00  0.00     0.142 C 
BRANCH  29  30
HETATM   30  C3  UNL     1      -3.493  12.013  17.870  1.00  0.00     0.018 C 
HETATM   31  C2  UNL     1      -4.100  11.906  16.667  1.00  0.00     0.010 C 
HETATM   32  C1  UNL     1      -4.283  10.627  15.899  1.00  0.00     0.055 C 
BRANCH  31  33
HETATM   33  C30 UNL     1      -4.659  13.118  16.006  1.00  0.00     0.171 C 
HETATM   34  O6  UNL     1      -4.008  14.056  15.576  1.00  0.00    -0.646 OA
BRANCH  33  35
HETATM   35  O7  UNL     1      -6.000  13.121  15.913  1.00  0.00    -0.773 OA
HETATM   36  H42 UNL     1      -6.190  13.980  15.479  1.00  0.00     0.167 HD
ENDBRANCH  33  35
ENDBRANCH  31  33
ENDBRANCH  29  30
BRANCH  29  37
HETATM   37  O1  UNL     1      -3.785   9.999  19.179  1.00  0.00    -0.392 OA
HETATM   38  H6  UNL     1      -4.291  10.401  19.909  1.00  0.00     0.210 HD
ENDBRANCH  29  37
ENDBRANCH  28  29
ENDBRANCH  26  28
ENDBRANCH   1  26
BRANCH  25  39
HETATM   39  O5  UNL     1       2.332   6.534  14.997  1.00  0.00    -0.391 OA
HETATM   40  H41 UNL     1       3.064   6.909  15.532  1.00  0.00     0.210 HD
ENDBRANCH  25  39
TORSDOF 8
ENDMDL
MODEL 8
REMARK minimizedAffinity -7.14957762
REMARK CNNscore 0.350293785
REMARK CNNaffinity 5.48160887
REMARK  8 active torsions:
REMARK  status: ('A' for Active; 'I' for Inactive)
REMARK    1  A    between atoms: C2_2  and  C30_35 
REMARK    2  A    between atoms: C3_3  and  C4_4 
REMARK    3  A    between atoms: C4_4  and  O1_5 
REMARK    4  A    between atoms: C4_4  and  C5_6 
REMARK    5  A    between atoms: C5_6  and  C6_7 
REMARK    6  A    between atoms: C6_7  and  C8_9 
REMARK    7  A    between atoms: C29_33  and  O5_34 
REMARK    8  A    between atoms: C30_35  and  O7_37 
ROOT
HETATM    1  C8  UNL     1      -3.105  12.697  16.723  1.00  0.00     0.006 C 
HETATM    2  C9  UNL     1      -1.665  12.908  17.252  1.00  0.00     0.085 C 
HETATM    3  C10 UNL     1      -0.892  11.770  16.617  1.00  0.00     0.140 C 
HETATM    4  O2  UNL     1       0.318  11.619  16.749  1.00  0.00    -0.297 OA
HETATM    5  C11 UNL     1      -1.793  10.898  15.732  1.00  0.00     0.051 C 
HETATM    6  C12 UNL     1      -1.620  11.530  14.317  1.00  0.00     0.029 C 
HETATM    7  C13 UNL     1      -1.605   9.402  15.559  1.00  0.00    -0.024 C 
HETATM    8  C14 UNL     1      -2.623   8.656  15.050  1.00  0.00     0.003 C 
HETATM    9  C15 UNL     1      -3.993   9.310  14.900  1.00  0.00     0.157 C 
HETATM   10  O3  UNL     1      -4.896   8.750  14.277  1.00  0.00    -0.293 OA
HETATM   11  C16 UNL     1      -4.268  10.687  15.504  1.00  0.00     0.094 C 
HETATM   12  C17 UNL     1      -3.164  11.160  16.449  1.00  0.00    -0.015 C 
HETATM   13  C18 UNL     1      -3.299  10.363  17.782  1.00  0.00     0.018 C 
HETATM   14  C19 UNL     1      -2.469   7.177  14.629  1.00  0.00    -0.008 C 
HETATM   15  C20 UNL     1      -3.179   6.323  15.712  1.00  0.00     0.021 C 
HETATM   16  C21 UNL     1      -3.148   6.871  13.253  1.00  0.00     0.022 C 
HETATM   17  C22 UNL     1      -2.500   5.732  12.484  1.00  0.00     0.080 C 
HETATM   18  C23 UNL     1      -1.068   6.075  12.140  1.00  0.00     0.135 C 
HETATM   19  O4  UNL     1      -0.571   5.667  11.088  1.00  0.00    -0.297 OA
HETATM   20  C24 UNL     1      -0.276   6.924  13.149  1.00  0.00     0.018 C 
HETATM   21  C25 UNL     1      -0.236   8.356  12.596  1.00  0.00     0.023 C 
HETATM   22  C26 UNL     1       1.171   6.384  13.165  1.00  0.00     0.023 C 
HETATM   23  C27 UNL     1      -0.951   6.739  14.556  1.00  0.00     0.016 C 
HETATM   24  C28 UNL     1      -0.177   7.305  15.751  1.00  0.00     0.043 C 
HETATM   25  C29 UNL     1      -0.257   8.819  15.899  1.00  0.00     0.149 C 
ENDROOT
BRANCH   1  26
HETATM   26  C6  UNL     1      -4.185  13.451  17.554  1.00  0.00    -0.011 C 
HETATM   27  C7  UNL     1      -4.224  13.152  19.058  1.00  0.00     0.010 C 
BRANCH  26  28
HETATM   28  C5  UNL     1      -5.590  13.319  16.908  1.00  0.00     0.040 C 
BRANCH  28  29
HETATM   29  C4  UNL     1      -5.955  14.465  15.947  1.00  0.00     0.142 C 
BRANCH  29  30
HETATM   30  C3  UNL     1      -4.808  14.755  15.011  1.00  0.00     0.018 C 
HETATM   31  C2  UNL     1      -4.501  15.866  14.305  1.00  0.00     0.010 C 
HETATM   32  C1  UNL     1      -5.291  17.145  14.314  1.00  0.00     0.055 C 
BRANCH  31  33
HETATM   33  C30 UNL     1      -3.289  15.885  13.440  1.00  0.00     0.171 C 
HETATM   34  O6  UNL     1      -2.762  16.884  12.979  1.00  0.00    -0.646 OA
BRANCH  33  35
HETATM   35  O7  UNL     1      -2.786  14.668  13.175  1.00  0.00    -0.773 OA
HETATM   36  H42 UNL     1      -2.022  14.864  12.592  1.00  0.00     0.167 HD
ENDBRANCH  33  35
ENDBRANCH  31  33
ENDBRANCH  29  30
BRANCH  29  37
HETATM   37  O1  UNL     1      -7.135  14.133  15.242  1.00  0.00    -0.392 OA
HETATM   38  H6  UNL     1      -7.517  14.971  14.922  1.00  0.00     0.210 HD
ENDBRANCH  29  37
ENDBRANCH  28  29
ENDBRANCH  26  28
ENDBRANCH   1  26
BRANCH  25  39
HETATM   39  O5  UNL     1       0.018   9.084  17.273  1.00  0.00    -0.391 OA
HETATM   40  H41 UNL     1       0.546   9.910  17.290  1.00  0.00     0.210 HD
ENDBRANCH  25  39
TORSDOF 8
ENDMDL
MODEL 9
REMARK minimizedAffinity -8.04754257
REMARK CNNscore 0.345862269
REMARK CNNaffinity 6.06330347
REMARK  8 active torsions:
REMARK  status: ('A' for Active; 'I' for Inactive)
REMARK    1  A    between atoms: C2_2  and  C30_35 
REMARK    2  A    between atoms: C3_3  and  C4_4 
REMARK    3  A    between atoms: C4_4  and  O1_5 
REMARK    4  A    between atoms: C4_4  and  C5_6 
REMARK    5  A    between atoms: C5_6  and  C6_7 
REMARK    6  A    between atoms: C6_7  and  C8_9 
REMARK    7  A    between atoms: C29_33  and  O5_34 
REMARK    8  A    between atoms: C30_35  and  O7_37 
ROOT
HETATM    1  C8  UNL     1      -3.045   7.784  14.739  1.00  0.00     0.006 C 
HETATM    2  C9  UNL     1      -1.777   6.925  14.971  1.00  0.00     0.085 C 
HETATM    3  C10 UNL     1      -0.903   7.822  15.824  1.00  0.00     0.140 C 
HETATM    4  O2  UNL     1       0.185   7.475  16.273  1.00  0.00    -0.297 OA
HETATM    5  C11 UNL     1      -1.586   9.164  16.119  1.00  0.00     0.051 C 
HETATM    6  C12 UNL     1      -2.297   8.909  17.483  1.00  0.00     0.029 C 
HETATM    7  C13 UNL     1      -0.834  10.474  16.268  1.00  0.00    -0.024 C 
HETATM    8  C14 UNL     1      -1.516  11.648  16.185  1.00  0.00     0.003 C 
HETATM    9  C15 UNL     1      -2.965  11.610  15.708  1.00  0.00     0.157 C 
HETATM   10  O3  UNL     1      -3.685  12.606  15.792  1.00  0.00    -0.293 OA
HETATM   11  C16 UNL     1      -3.561  10.325  15.132  1.00  0.00     0.094 C 
HETATM   12  C17 UNL     1      -2.512   9.248  14.856  1.00  0.00    -0.015 C 
HETATM   13  C18 UNL     1      -1.730   9.658  13.572  1.00  0.00     0.018 C 
HETATM   14  C19 UNL     1      -0.898  13.021  16.537  1.00  0.00    -0.008 C 
HETATM   15  C20 UNL     1      -0.650  13.760  15.195  1.00  0.00     0.021 C 
HETATM   16  C21 UNL     1      -1.855  13.905  17.403  1.00  0.00     0.022 C 
HETATM   17  C22 UNL     1      -1.133  14.883  18.316  1.00  0.00     0.080 C 
HETATM   18  C23 UNL     1      -0.281  14.140  19.318  1.00  0.00     0.135 C 
HETATM   19  O4  UNL     1      -0.121  14.596  20.452  1.00  0.00    -0.297 OA
HETATM   20  C24 UNL     1       0.375  12.825  18.861  1.00  0.00     0.018 C 
HETATM   21  C25 UNL     1      -0.457  11.679  19.454  1.00  0.00     0.023 C 
HETATM   22  C26 UNL     1       1.781  12.769  19.500  1.00  0.00     0.023 C 
HETATM   23  C27 UNL     1       0.481  12.870  17.294  1.00  0.00     0.016 C 
HETATM   24  C28 UNL     1       1.325  11.767  16.647  1.00  0.00     0.043 C 
HETATM   25  C29 UNL     1       0.640  10.408  16.573  1.00  0.00     0.149 C 
ENDROOT
BRANCH   1  26
HETATM   26  C6  UNL     1      -3.913   7.292  13.544  1.00  0.00    -0.011 C 
HETATM   27  C7  UNL     1      -5.118   8.164  13.168  1.00  0.00     0.010 C 
BRANCH  26  28
HETATM   28  C5  UNL     1      -4.315   5.802  13.712  1.00  0.00     0.040 C 
BRANCH  28  29
HETATM   29  C4  UNL     1      -5.814   5.522  13.500  1.00  0.00     0.142 C 
BRANCH  29  30
HETATM   30  C3  UNL     1      -6.005   4.370  12.545  1.00  0.00     0.018 C 
HETATM   31  C2  UNL     1      -5.138   3.431  12.106  1.00  0.00     0.010 C 
HETATM   32  C1  UNL     1      -3.695   3.323  12.516  1.00  0.00     0.055 C 
BRANCH  31  33
HETATM   33  C30 UNL     1      -5.595   2.388  11.146  1.00  0.00     0.171 C 
HETATM   34  O6  UNL     1      -6.094   1.316  11.446  1.00  0.00    -0.646 OA
BRANCH  33  35
HETATM   35  O7  UNL     1      -5.406   2.712   9.856  1.00  0.00    -0.773 OA
HETATM   36  H42 UNL     1      -5.738   1.923   9.377  1.00  0.00     0.167 HD
ENDBRANCH  33  35
ENDBRANCH  31  33
ENDBRANCH  29  30
BRANCH  29  37
HETATM   37  O1  UNL     1      -6.430   5.275  14.748  1.00  0.00    -0.392 OA
HETATM   38  H6  UNL     1      -7.384   5.441  14.629  1.00  0.00     0.210 HD
ENDBRANCH  29  37
ENDBRANCH  28  29
ENDBRANCH  26  28
ENDBRANCH   1  26
BRANCH  25  39
HETATM   39  O5  UNL     1       1.291   9.709  15.513  1.00  0.00    -0.391 OA
HETATM   40  H41 UNL     1       1.350   8.773  15.800  1.00  0.00     0.210 HD
ENDBRANCH  25  39
TORSDOF 8
ENDMDL
