MODEL 1
REMARK minimizedAffinity -8.69953632
REMARK CNNscore 0.475639999
REMARK CNNaffinity 7.57741594
REMARK  8 active torsions:
REMARK  status: ('A' for Active; 'I' for Inactive)
REMARK    1  A    between atoms: O1_2  and  C2_3 
REMARK    2  A    between atoms: C5_6  and  N1_7 
REMARK    3  A    between atoms: N1_7  and  C6_8 
REMARK    4  A    between atoms: C16_25  and  O4_26 
REMARK    5  A    between atoms: O4_26  and  C17_27 
REMARK    6  A    between atoms: C17_27  and  C18_28 
REMARK    7  A    between atoms: C18_28  and  C19_29 
REMARK    8  A    between atoms: C19_29  and  N4_30 
ROOT
HETATM    1  C2  UNL     1      -0.928  50.555 -21.851  1.00  0.00     0.102 A 
HETATM    2  C3  UNL     1      -0.592  51.508 -22.813  1.00  0.00     0.057 A 
HETATM    3  C4  UNL     1       0.252  52.604 -22.494  1.00  0.00     0.038 A 
HETATM    4  C5  UNL     1       0.659  53.612 -23.391  1.00  0.00     0.119 A 
HETATM    5  N2  UNL     1       1.441  54.641 -23.019  1.00  0.00    -0.338 N 
ATOM      6  H2  UNL     1       1.706  55.378 -23.672  1.00  0.00     0.168 HD
HETATM    7  C13 UNL     1       1.852  54.645 -21.751  1.00  0.00     0.182 A 
HETATM    8  N3  UNL     1       1.542  53.739 -20.815  1.00  0.00    -0.351 N 
ATOM      9  H3  UNL     1       1.896  53.814 -19.861  1.00  0.00     0.166 HD
HETATM   10  C14 UNL     1       0.748  52.733 -21.191  1.00  0.00     0.050 A 
HETATM   11  C15 UNL     1       0.401  51.780 -20.242  1.00  0.00     0.070 A 
HETATM   12  C16 UNL     1      -0.430  50.696 -20.547  1.00  0.00     0.104 A 
ENDROOT
BRANCH   4  13
HETATM   13  N1  UNL     1       0.230  53.616 -24.735  1.00  0.00    -0.338 N 
HETATM   14  H5  UNL     1      -0.291  54.467 -24.932  1.00  0.00     0.167 HD
BRANCH  13  15
HETATM   15  C6  UNL     1      -0.346  52.515 -25.420  1.00  0.00     0.092 A 
HETATM   16  C7  UNL     1       0.476  51.550 -26.042  1.00  0.00     0.063 A 
HETATM   17 CL1  UNL     1       2.194  51.769 -26.095  1.00  0.00    -0.082 Cl
HETATM   18  C8  UNL     1      -0.059  50.406 -26.666  1.00  0.00     0.029 A 
HETATM   19  C9  UNL     1      -1.435  50.187 -26.671  1.00  0.00     0.041 A 
HETATM   20  C10 UNL     1      -2.231  51.121 -26.044  1.00  0.00     0.107 A 
HETATM   21  C11 UNL     1      -1.712  52.243 -25.431  1.00  0.00     0.133 A 
HETATM   22  O3  UNL     1      -3.587  51.049 -25.951  1.00  0.00    -0.323 OA
HETATM   23  O2  UNL     1      -2.698  53.009 -24.882  1.00  0.00    -0.321 OA
HETATM   24  C12 UNL     1      -3.872  52.238 -25.188  1.00  0.00     0.352 A 
ENDBRANCH  13  15
ENDBRANCH   4  13
BRANCH   1  25
HETATM   25  O1  UNL     1      -1.738  49.473 -22.079  1.00  0.00    -0.353 OA
HETATM   26  C1  UNL     1      -3.090  49.722 -22.440  1.00  0.00     0.210 C 
ENDBRANCH   1  25
BRANCH  12  27
HETATM   27  O4  UNL     1      -0.798  49.724 -19.652  1.00  0.00    -0.348 OA
BRANCH  27  28
HETATM   28  C17 UNL     1      -1.250  50.136 -18.365  1.00  0.00     0.177 C 
BRANCH  28  29
HETATM   29  C18 UNL     1      -0.276  49.626 -17.302  1.00  0.00     0.057 C 
BRANCH  29  30
HETATM   30  C19 UNL     1      -0.053  50.662 -16.191  1.00  0.00     0.274 C 
BRANCH  30  31
HETATM   31  N4  UNL     1       1.347  51.115 -16.121  1.00  0.00     0.088 N 
HETATM   32  C20 UNL     1       1.903  50.850 -14.780  1.00  0.00     0.272 C 
HETATM   33  C21 UNL     1       3.115  51.721 -14.418  1.00  0.00     0.030 C 
HETATM   34  C22 UNL     1       3.906  52.117 -15.654  1.00  0.00     0.003 C 
HETATM   35  C23 UNL     1       3.012  52.837 -16.667  1.00  0.00     0.030 C 
HETATM   36  C24 UNL     1       1.521  52.519 -16.494  1.00  0.00     0.272 C 
ENDBRANCH  30  31
ENDBRANCH  29  30
ENDBRANCH  28  29
ENDBRANCH  27  28
ENDBRANCH  12  27
TORSDOF 8
ENDMDL
MODEL 2
REMARK minimizedAffinity -6.93518925
REMARK CNNscore 0.328228474
REMARK CNNaffinity 6.42243576
REMARK  8 active torsions:
REMARK  status: ('A' for Active; 'I' for Inactive)
REMARK    1  A    between atoms: O1_2  and  C2_3 
REMARK    2  A    between atoms: C5_6  and  N1_7 
REMARK    3  A    between atoms: N1_7  and  C6_8 
REMARK    4  A    between atoms: C16_25  and  O4_26 
REMARK    5  A    between atoms: O4_26  and  C17_27 
REMARK    6  A    between atoms: C17_27  and  C18_28 
REMARK    7  A    between atoms: C18_28  and  C19_29 
REMARK    8  A    between atoms: C19_29  and  N4_30 
ROOT
HETATM    1  C2  UNL     1       0.639  51.147 -16.068  1.00  0.00     0.102 A 
HETATM    2  C3  UNL     1       0.334  50.706 -17.356  1.00  0.00     0.057 A 
HETATM    3  C4  UNL     1      -0.989  50.333 -17.709  1.00  0.00     0.038 A 
HETATM    4  C5  UNL     1      -1.402  49.886 -18.980  1.00  0.00     0.119 A 
HETATM    5  N2  UNL     1      -2.669  49.522 -19.244  1.00  0.00    -0.338 N 
ATOM      6  H2  UNL     1      -2.949  49.174 -20.160  1.00  0.00     0.168 HD
HETATM    7  C13 UNL     1      -3.541  49.640 -18.242  1.00  0.00     0.182 A 
HETATM    8  N3  UNL     1      -3.269  50.063 -17.002  1.00  0.00    -0.351 N 
ATOM      9  H3  UNL     1      -3.993  50.124 -16.286  1.00  0.00     0.166 HD
HETATM   10  C14 UNL     1      -2.002  50.402 -16.746  1.00  0.00     0.050 A 
HETATM   11  C15 UNL     1      -1.684  50.839 -15.466  1.00  0.00     0.070 A 
HETATM   12  C16 UNL     1      -0.383  51.208 -15.109  1.00  0.00     0.104 A 
ENDROOT
BRANCH   4  13
HETATM   13  N1  UNL     1      -0.487  49.757 -20.047  1.00  0.00    -0.338 N 
HETATM   14  H5  UNL     1       0.447  49.584 -19.685  1.00  0.00     0.167 HD
BRANCH  13  15
HETATM   15  C6  UNL     1      -0.427  50.601 -21.186  1.00  0.00     0.092 A 
HETATM   16  C7  UNL     1      -1.156  50.280 -22.353  1.00  0.00     0.063 A 
HETATM   17 CL1  UNL     1      -2.025  48.785 -22.456  1.00  0.00    -0.082 Cl
HETATM   18  C8  UNL     1      -1.177  51.130 -23.476  1.00  0.00     0.029 A 
HETATM   19  C9  UNL     1      -0.481  52.338 -23.456  1.00  0.00     0.041 A 
HETATM   20  C10 UNL     1       0.211  52.656 -22.307  1.00  0.00     0.107 A 
HETATM   21  C11 UNL     1       0.236  51.825 -21.205  1.00  0.00     0.133 A 
HETATM   22  O3  UNL     1       0.930  53.797 -22.124  1.00  0.00    -0.323 OA
HETATM   23  O2  UNL     1       0.985  52.361 -20.198  1.00  0.00    -0.321 OA
HETATM   24  C12 UNL     1       1.394  53.614 -20.773  1.00  0.00     0.352 A 
ENDBRANCH  13  15
ENDBRANCH   4  13
BRANCH   1  25
HETATM   25  O1  UNL     1       1.889  51.521 -15.650  1.00  0.00    -0.353 OA
HETATM   26  C1  UNL     1       2.629  52.405 -16.481  1.00  0.00     0.210 C 
ENDBRANCH   1  25
BRANCH  12  27
HETATM   27  O4  UNL     1      -0.015  51.652 -13.864  1.00  0.00    -0.348 OA
BRANCH  27  28
HETATM   28  C17 UNL     1       0.103  50.690 -12.819  1.00  0.00     0.177 C 
BRANCH  28  29
HETATM   29  C18 UNL     1      -0.210  51.359 -11.480  1.00  0.00     0.057 C 
BRANCH  29  30
HETATM   30  C19 UNL     1       0.936  52.271 -11.019  1.00  0.00     0.274 C 
BRANCH  30  31
HETATM   31  N4  UNL     1       0.464  53.374 -10.165  1.00  0.00     0.088 N 
HETATM   32  C20 UNL     1      -0.842  53.868 -10.641  1.00  0.00     0.272 C 
HETATM   33  C21 UNL     1      -1.174  55.299 -10.196  1.00  0.00     0.030 C 
HETATM   34  C22 UNL     1      -0.520  55.635  -8.865  1.00  0.00     0.003 C 
HETATM   35  C23 UNL     1       0.995  55.433  -8.934  1.00  0.00     0.030 C 
HETATM   36  C24 UNL     1       1.428  54.468 -10.045  1.00  0.00     0.272 C 
ENDBRANCH  30  31
ENDBRANCH  29  30
ENDBRANCH  28  29
ENDBRANCH  27  28
ENDBRANCH  12  27
TORSDOF 8
ENDMDL
MODEL 3
REMARK minimizedAffinity -8.20220852
REMARK CNNscore 0.242990628
REMARK CNNaffinity 6.63407564
REMARK  8 active torsions:
REMARK  status: ('A' for Active; 'I' for Inactive)
REMARK    1  A    between atoms: O1_2  and  C2_3 
REMARK    2  A    between atoms: C5_6  and  N1_7 
REMARK    3  A    between atoms: N1_7  and  C6_8 
REMARK    4  A    between atoms: C16_25  and  O4_26 
REMARK    5  A    between atoms: O4_26  and  C17_27 
REMARK    6  A    between atoms: C17_27  and  C18_28 
REMARK    7  A    between atoms: C18_28  and  C19_29 
REMARK    8  A    between atoms: C19_29  and  N4_30 
ROOT
HETATM    1  C2  UNL     1      -0.407  50.315 -17.905  1.00  0.00     0.102 A 
HETATM    2  C3  UNL     1      -0.449  50.520 -19.285  1.00  0.00     0.057 A 
HETATM    3  C4  UNL     1       0.094  51.695 -19.868  1.00  0.00     0.038 A 
HETATM    4  C5  UNL     1       0.112  51.992 -21.246  1.00  0.00     0.119 A 
HETATM    5  N2  UNL     1       0.619  53.137 -21.733  1.00  0.00    -0.338 N 
ATOM      6  H2  UNL     1       0.601  53.352 -22.730  1.00  0.00     0.168 HD
HETATM    7  C13 UNL     1       1.148  53.978 -20.844  1.00  0.00     0.182 A 
HETATM    8  N3  UNL     1       1.199  53.799 -19.519  1.00  0.00    -0.351 N 
ATOM      9  H3  UNL     1       1.620  54.493 -18.901  1.00  0.00     0.166 HD
HETATM   10  C14 UNL     1       0.674  52.666 -19.044  1.00  0.00     0.050 A 
HETATM   11  C15 UNL     1       0.704  52.452 -17.672  1.00  0.00     0.070 A 
HETATM   12  C16 UNL     1       0.172  51.298 -17.088  1.00  0.00     0.104 A 
ENDROOT
BRANCH   4  13
HETATM   13  N1  UNL     1      -0.445  51.108 -22.196  1.00  0.00    -0.338 N 
HETATM   14  H5  UNL     1       0.283  50.515 -22.587  1.00  0.00     0.167 HD
BRANCH  13  15
HETATM   15  C6  UNL     1      -1.385  51.461 -23.197  1.00  0.00     0.092 A 
HETATM   16  C7  UNL     1      -2.771  51.314 -22.960  1.00  0.00     0.063 A 
HETATM   17 CL1  UNL     1      -3.333  50.576 -21.498  1.00  0.00    -0.082 Cl
HETATM   18  C8  UNL     1      -3.734  51.722 -23.903  1.00  0.00     0.029 A 
HETATM   19  C9  UNL     1      -3.339  52.306 -25.105  1.00  0.00     0.041 A 
HETATM   20  C10 UNL     1      -1.987  52.466 -25.322  1.00  0.00     0.107 A 
HETATM   21  C11 UNL     1      -1.039  52.067 -24.401  1.00  0.00     0.133 A 
HETATM   22  O3  UNL     1      -1.440  53.026 -26.435  1.00  0.00    -0.323 OA
HETATM   23  O2  UNL     1       0.224  52.334 -24.844  1.00  0.00    -0.321 OA
HETATM   24  C12 UNL     1      -0.037  52.963 -26.111  1.00  0.00     0.352 A 
ENDBRANCH  13  15
ENDBRANCH   4  13
BRANCH   1  25
HETATM   25  O1  UNL     1      -0.911  49.212 -17.268  1.00  0.00    -0.353 OA
HETATM   26  C1  UNL     1      -1.982  48.517 -17.893  1.00  0.00     0.210 C 
ENDBRANCH   1  25
BRANCH  12  27
HETATM   27  O4  UNL     1       0.181  51.033 -15.742  1.00  0.00    -0.348 OA
BRANCH  27  28
HETATM   28  C17 UNL     1       1.136  51.713 -14.933  1.00  0.00     0.177 C 
BRANCH  28  29
HETATM   29  C18 UNL     1       0.430  52.311 -13.715  1.00  0.00     0.057 C 
BRANCH  29  30
HETATM   30  C19 UNL     1      -0.983  51.737 -13.537  1.00  0.00     0.274 C 
BRANCH  30  31
HETATM   31  N4  UNL     1      -1.818  52.567 -12.654  1.00  0.00     0.088 N 
HETATM   32  C20 UNL     1      -1.099  52.862 -11.399  1.00  0.00     0.272 C 
HETATM   33  C21 UNL     1      -2.013  53.241 -10.225  1.00  0.00     0.030 C 
HETATM   34  C22 UNL     1      -3.289  53.913 -10.706  1.00  0.00     0.003 C 
HETATM   35  C23 UNL     1      -4.036  53.020 -11.699  1.00  0.00     0.030 C 
HETATM   36  C24 UNL     1      -3.132  51.986 -12.383  1.00  0.00     0.272 C 
ENDBRANCH  30  31
ENDBRANCH  29  30
ENDBRANCH  28  29
ENDBRANCH  27  28
ENDBRANCH  12  27
TORSDOF 8
ENDMDL
MODEL 4
REMARK minimizedAffinity -7.5607686
REMARK CNNscore 0.239986092
REMARK CNNaffinity 6.44262075
REMARK  8 active torsions:
REMARK  status: ('A' for Active; 'I' for Inactive)
REMARK    1  A    between atoms: O1_2  and  C2_3 
REMARK    2  A    between atoms: C5_6  and  N1_7 
REMARK    3  A    between atoms: N1_7  and  C6_8 
REMARK    4  A    between atoms: C16_25  and  O4_26 
REMARK    5  A    between atoms: O4_26  and  C17_27 
REMARK    6  A    between atoms: C17_27  and  C18_28 
REMARK    7  A    between atoms: C18_28  and  C19_29 
REMARK    8  A    between atoms: C19_29  and  N4_30 
ROOT
HETATM    1  C2  UNL     1      -4.358  48.828 -24.820  1.00  0.00     0.102 A 
HETATM    2  C3  UNL     1      -3.323  49.360 -24.050  1.00  0.00     0.057 A 
HETATM    3  C4  UNL     1      -3.591  50.050 -22.839  1.00  0.00     0.038 A 
HETATM    4  C5  UNL     1      -2.621  50.615 -21.986  1.00  0.00     0.119 A 
HETATM    5  N2  UNL     1      -2.943  51.281 -20.863  1.00  0.00    -0.338 N 
ATOM      6  H2  UNL     1      -2.233  51.707 -20.269  1.00  0.00     0.168 HD
HETATM    7  C13 UNL     1      -4.241  51.353 -20.568  1.00  0.00     0.182 A 
HETATM    8  N3  UNL     1      -5.247  50.847 -21.292  1.00  0.00    -0.351 N 
ATOM      9  H3  UNL     1      -6.220  50.947 -20.999  1.00  0.00     0.166 HD
HETATM   10  C14 UNL     1      -4.916  50.206 -22.416  1.00  0.00     0.050 A 
HETATM   11  C15 UNL     1      -5.937  49.676 -23.195  1.00  0.00     0.070 A 
HETATM   12  C16 UNL     1      -5.683  48.994 -24.389  1.00  0.00     0.104 A 
ENDROOT
BRANCH   4  13
HETATM   13  N1  UNL     1      -1.245  50.543 -22.289  1.00  0.00    -0.338 N 
HETATM   14  H5  UNL     1      -0.790  49.864 -21.684  1.00  0.00     0.167 HD
BRANCH  13  15
HETATM   15  C6  UNL     1      -0.392  51.654 -22.513  1.00  0.00     0.092 A 
HETATM   16  C7  UNL     1      -0.106  52.082 -23.829  1.00  0.00     0.063 A 
HETATM   17 CL1  UNL     1      -0.683  51.174 -25.187  1.00  0.00    -0.082 Cl
HETATM   18  C8  UNL     1       0.677  53.224 -24.087  1.00  0.00     0.029 A 
HETATM   19  C9  UNL     1       1.184  53.982 -23.033  1.00  0.00     0.041 A 
HETATM   20  C10 UNL     1       0.884  53.572 -21.752  1.00  0.00     0.107 A 
HETATM   21  C11 UNL     1       0.118  52.453 -21.494  1.00  0.00     0.133 A 
HETATM   22  O3  UNL     1       1.291  54.206 -20.618  1.00  0.00    -0.323 OA
HETATM   23  O2  UNL     1      -0.039  52.259 -20.152  1.00  0.00    -0.321 OA
HETATM   24  C12 UNL     1       0.677  53.382 -19.609  1.00  0.00     0.352 A 
ENDBRANCH  13  15
ENDBRANCH   4  13
BRANCH   1  25
HETATM   25  O1  UNL     1      -4.180  48.153 -25.999  1.00  0.00    -0.353 OA
HETATM   26  C1  UNL     1      -3.114  48.565 -26.844  1.00  0.00     0.210 C 
ENDBRANCH   1  25
BRANCH  12  27
HETATM   27  O4  UNL     1      -6.650  48.445 -25.192  1.00  0.00    -0.348 OA
BRANCH  27  28
HETATM   28  C17 UNL     1      -7.292  47.253 -24.747  1.00  0.00     0.177 C 
BRANCH  28  29
HETATM   29  C18 UNL     1      -7.888  46.522 -25.951  1.00  0.00     0.057 C 
BRANCH  29  30
HETATM   30  C19 UNL     1      -7.266  46.999 -27.271  1.00  0.00     0.274 C 
BRANCH  30  31
HETATM   31  N4  UNL     1      -8.280  47.251 -28.309  1.00  0.00     0.088 N 
HETATM   32  C20 UNL     1      -7.753  48.185 -29.323  1.00  0.00     0.272 C 
HETATM   33  C21 UNL     1      -8.837  48.921 -30.123  1.00  0.00     0.030 C 
HETATM   34  C22 UNL     1     -10.104  48.088 -30.243  1.00  0.00     0.003 C 
HETATM   35  C23 UNL     1     -10.632  47.695 -28.862  1.00  0.00     0.030 C 
HETATM   36  C24 UNL     1      -9.555  47.724 -27.770  1.00  0.00     0.272 C 
ENDBRANCH  30  31
ENDBRANCH  29  30
ENDBRANCH  28  29
ENDBRANCH  27  28
ENDBRANCH  12  27
TORSDOF 8
ENDMDL
MODEL 5
REMARK minimizedAffinity -8.24679852
REMARK CNNscore 0.231969446
REMARK CNNaffinity 6.76409388
REMARK  8 active torsions:
REMARK  status: ('A' for Active; 'I' for Inactive)
REMARK    1  A    between atoms: O1_2  and  C2_3 
REMARK    2  A    between atoms: C5_6  and  N1_7 
REMARK    3  A    between atoms: N1_7  and  C6_8 
REMARK    4  A    between atoms: C16_25  and  O4_26 
REMARK    5  A    between atoms: O4_26  and  C17_27 
REMARK    6  A    between atoms: C17_27  and  C18_28 
REMARK    7  A    between atoms: C18_28  and  C19_29 
REMARK    8  A    between atoms: C19_29  and  N4_30 
ROOT
HETATM    1  C2  UNL     1      -0.364  50.095 -18.195  1.00  0.00     0.102 A 
HETATM    2  C3  UNL     1      -0.381  50.427 -19.550  1.00  0.00     0.057 A 
HETATM    3  C4  UNL     1       0.123  51.673 -20.005  1.00  0.00     0.038 A 
HETATM    4  C5  UNL     1       0.161  52.099 -21.349  1.00  0.00     0.119 A 
HETATM    5  N2  UNL     1       0.629  53.306 -21.713  1.00  0.00    -0.338 N 
ATOM      6  H2  UNL     1       0.625  53.613 -22.685  1.00  0.00     0.168 HD
HETATM    7  C13 UNL     1       1.098  54.080 -20.734  1.00  0.00     0.182 A 
HETATM    8  N3  UNL     1       1.127  53.778 -19.430  1.00  0.00    -0.351 N 
ATOM      9  H3  UNL     1       1.502  54.428 -18.739  1.00  0.00     0.166 HD
HETATM   10  C14 UNL     1       0.640  52.585 -19.078  1.00  0.00     0.050 A 
HETATM   11  C15 UNL     1       0.647  52.244 -17.732  1.00  0.00     0.070 A 
HETATM   12  C16 UNL     1       0.152  51.019 -17.273  1.00  0.00     0.104 A 
ENDROOT
BRANCH   4  13
HETATM   13  N1  UNL     1      -0.334  51.287 -22.392  1.00  0.00    -0.338 N 
HETATM   14  H5  UNL     1       0.436  50.823 -22.866  1.00  0.00     0.167 HD
BRANCH  13  15
HETATM   15  C6  UNL     1      -1.334  51.663 -23.325  1.00  0.00     0.092 A 
HETATM   16  C7  UNL     1      -0.988  51.954 -24.664  1.00  0.00     0.063 A 
HETATM   17 CL1  UNL     1       0.674  51.987 -25.150  1.00  0.00    -0.082 Cl
HETATM   18  C8  UNL     1      -1.962  52.259 -25.635  1.00  0.00     0.029 A 
HETATM   19  C9  UNL     1      -3.315  52.265 -25.296  1.00  0.00     0.041 A 
HETATM   20  C10 UNL     1      -3.647  51.960 -23.994  1.00  0.00     0.107 A 
HETATM   21  C11 UNL     1      -2.696  51.661 -23.039  1.00  0.00     0.133 A 
HETATM   22  O3  UNL     1      -4.917  51.913 -23.507  1.00  0.00    -0.323 OA
HETATM   23  O2  UNL     1      -3.274  51.393 -21.832  1.00  0.00    -0.321 OA
HETATM   24  C12 UNL     1      -4.672  51.525 -22.141  1.00  0.00     0.352 A 
ENDBRANCH  13  15
ENDBRANCH   4  13
BRANCH   1  25
HETATM   25  O1  UNL     1      -0.834  48.916 -17.678  1.00  0.00    -0.353 OA
HETATM   26  C1  UNL     1      -2.110  48.464 -18.111  1.00  0.00     0.210 C 
ENDBRANCH   1  25
BRANCH  12  27
HETATM   27  O4  UNL     1       0.140  50.628 -15.958  1.00  0.00    -0.348 OA
BRANCH  27  28
HETATM   28  C17 UNL     1       0.297  51.633 -14.961  1.00  0.00     0.177 C 
BRANCH  28  29
HETATM   29  C18 UNL     1      -0.825  51.501 -13.931  1.00  0.00     0.057 C 
BRANCH  29  30
HETATM   30  C19 UNL     1      -0.439  52.129 -12.584  1.00  0.00     0.274 C 
BRANCH  30  31
HETATM   31  N4  UNL     1      -1.566  52.834 -11.951  1.00  0.00     0.088 N 
HETATM   32  C20 UNL     1      -1.306  53.026 -10.511  1.00  0.00     0.272 C 
HETATM   33  C21 UNL     1      -2.569  53.248  -9.668  1.00  0.00     0.030 C 
HETATM   34  C22 UNL     1      -3.669  53.918 -10.477  1.00  0.00     0.003 C 
HETATM   35  C23 UNL     1      -3.998  53.104 -11.730  1.00  0.00     0.030 C 
HETATM   36  C24 UNL     1      -2.856  52.179 -12.170  1.00  0.00     0.272 C 
ENDBRANCH  30  31
ENDBRANCH  29  30
ENDBRANCH  28  29
ENDBRANCH  27  28
ENDBRANCH  12  27
TORSDOF 8
ENDMDL
MODEL 6
REMARK minimizedAffinity -7.99699879
REMARK CNNscore 0.180986479
REMARK CNNaffinity 6.49324226
REMARK  8 active torsions:
REMARK  status: ('A' for Active; 'I' for Inactive)
REMARK    1  A    between atoms: O1_2  and  C2_3 
REMARK    2  A    between atoms: C5_6  and  N1_7 
REMARK    3  A    between atoms: N1_7  and  C6_8 
REMARK    4  A    between atoms: C16_25  and  O4_26 
REMARK    5  A    between atoms: O4_26  and  C17_27 
REMARK    6  A    between atoms: C17_27  and  C18_28 
REMARK    7  A    between atoms: C18_28  and  C19_29 
REMARK    8  A    between atoms: C19_29  and  N4_30 
ROOT
HETATM    1  C2  UNL     1      -2.835  50.721 -20.008  1.00  0.00     0.102 A 
HETATM    2  C3  UNL     1      -2.230  50.802 -21.263  1.00  0.00     0.057 A 
HETATM    3  C4  UNL     1      -1.092  51.622 -21.477  1.00  0.00     0.038 A 
HETATM    4  C5  UNL     1      -0.403  51.765 -22.698  1.00  0.00     0.119 A 
HETATM    5  N2  UNL     1       0.655  52.580 -22.842  1.00  0.00    -0.338 N 
ATOM      6  H2  UNL     1       1.128  52.695 -23.738  1.00  0.00     0.168 HD
HETATM    7  C13 UNL     1       1.055  53.231 -21.750  1.00  0.00     0.182 A 
HETATM    8  N3  UNL     1       0.491  53.166 -20.538  1.00  0.00    -0.351 N 
ATOM      9  H3  UNL     1       0.856  53.699 -19.748  1.00  0.00     0.166 HD
HETATM   10  C14 UNL     1      -0.573  52.368 -20.412  1.00  0.00     0.050 A 
HETATM   11  C15 UNL     1      -1.188  52.283 -19.169  1.00  0.00     0.070 A 
HETATM   12  C16 UNL     1      -2.310  51.477 -18.949  1.00  0.00     0.104 A 
ENDROOT
BRANCH   4  13
HETATM   13  N1  UNL     1      -0.819  51.080 -23.860  1.00  0.00    -0.338 N 
HETATM   14  H5  UNL     1      -0.503  50.114 -23.827  1.00  0.00     0.167 HD
BRANCH  13  15
HETATM   15  C6  UNL     1      -0.736  51.580 -25.186  1.00  0.00     0.092 A 
HETATM   16  C7  UNL     1      -1.864  52.169 -25.799  1.00  0.00     0.063 A 
HETATM   17 CL1  UNL     1      -3.397  52.166 -24.994  1.00  0.00    -0.082 Cl
HETATM   18  C8  UNL     1      -1.798  52.740 -27.085  1.00  0.00     0.029 A 
HETATM   19  C9  UNL     1      -0.595  52.754 -27.788  1.00  0.00     0.041 A 
HETATM   20  C10 UNL     1       0.507  52.198 -27.175  1.00  0.00     0.107 A 
HETATM   21  C11 UNL     1       0.448  51.635 -25.916  1.00  0.00     0.133 A 
HETATM   22  O3  UNL     1       1.753  52.140 -27.721  1.00  0.00    -0.323 OA
HETATM   23  O2  UNL     1       1.666  51.156 -25.530  1.00  0.00    -0.321 OA
HETATM   24  C12 UNL     1       2.488  51.503 -26.658  1.00  0.00     0.352 A 
ENDBRANCH  13  15
ENDBRANCH   4  13
BRANCH   1  25
HETATM   25  O1  UNL     1      -3.936  49.957 -19.723  1.00  0.00    -0.353 OA
HETATM   26  C1  UNL     1      -3.760  48.550 -19.631  1.00  0.00     0.210 C 
ENDBRANCH   1  25
BRANCH  12  27
HETATM   27  O4  UNL     1      -2.951  51.351 -17.743  1.00  0.00    -0.348 OA
BRANCH  27  28
HETATM   28  C17 UNL     1      -2.250  50.717 -16.676  1.00  0.00     0.177 C 
BRANCH  28  29
HETATM   29  C18 UNL     1      -2.926  51.068 -15.350  1.00  0.00     0.057 C 
BRANCH  29  30
HETATM   30  C19 UNL     1      -1.915  51.133 -14.196  1.00  0.00     0.274 C 
BRANCH  30  31
HETATM   31  N4  UNL     1      -2.540  51.541 -12.926  1.00  0.00     0.088 N 
HETATM   32  C20 UNL     1      -3.123  50.370 -12.244  1.00  0.00     0.272 C 
HETATM   33  C21 UNL     1      -4.223  50.716 -11.230  1.00  0.00     0.030 C 
HETATM   34  C22 UNL     1      -4.008  52.093 -10.622  1.00  0.00     0.003 C 
HETATM   35  C23 UNL     1      -3.927  53.164 -11.711  1.00  0.00     0.030 C 
HETATM   36  C24 UNL     1      -3.531  52.606 -13.084  1.00  0.00     0.272 C 
ENDBRANCH  30  31
ENDBRANCH  29  30
ENDBRANCH  28  29
ENDBRANCH  27  28
ENDBRANCH  12  27
TORSDOF 8
ENDMDL
MODEL 7
REMARK minimizedAffinity -6.69038916
REMARK CNNscore 0.172623754
REMARK CNNaffinity 6.29917192
REMARK  8 active torsions:
REMARK  status: ('A' for Active; 'I' for Inactive)
REMARK    1  A    between atoms: O1_2  and  C2_3 
REMARK    2  A    between atoms: C5_6  and  N1_7 
REMARK    3  A    between atoms: N1_7  and  C6_8 
REMARK    4  A    between atoms: C16_25  and  O4_26 
REMARK    5  A    between atoms: O4_26  and  C17_27 
REMARK    6  A    between atoms: C17_27  and  C18_28 
REMARK    7  A    between atoms: C18_28  and  C19_29 
REMARK    8  A    between atoms: C19_29  and  N4_30 
ROOT
HETATM    1  C2  UNL     1      -0.839  49.598 -17.349  1.00  0.00     0.102 A 
HETATM    2  C3  UNL     1      -0.724  49.716 -18.735  1.00  0.00     0.057 A 
HETATM    3  C4  UNL     1      -0.230  50.906 -19.330  1.00  0.00     0.038 A 
HETATM    4  C5  UNL     1      -0.065  51.123 -20.713  1.00  0.00     0.119 A 
HETATM    5  N2  UNL     1       0.384  52.286 -21.216  1.00  0.00    -0.338 N 
ATOM      6  H2  UNL     1       0.473  52.439 -22.220  1.00  0.00     0.168 HD
HETATM    7  C13 UNL     1       0.707  53.229 -20.331  1.00  0.00     0.182 A 
HETATM    8  N3  UNL     1       0.606  53.134 -19.000  1.00  0.00    -0.351 N 
ATOM      9  H3  UNL     1       0.873  53.905 -18.387  1.00  0.00     0.166 HD
HETATM   10  C14 UNL     1       0.139  51.981 -18.513  1.00  0.00     0.050 A 
HETATM   11  C15 UNL     1       0.014  51.852 -17.135  1.00  0.00     0.070 A 
HETATM   12  C16 UNL     1      -0.471  50.683 -16.540  1.00  0.00     0.104 A 
ENDROOT
BRANCH   4  13
HETATM   13  N1  UNL     1      -0.405  50.130 -21.658  1.00  0.00    -0.338 N 
HETATM   14  H5  UNL     1       0.275  50.124 -22.414  1.00  0.00     0.167 HD
BRANCH  13  15
HETATM   15  C6  UNL     1      -1.708  49.884 -22.162  1.00  0.00     0.092 A 
HETATM   16  C7  UNL     1      -2.317  48.621 -21.982  1.00  0.00     0.063 A 
HETATM   17 CL1  UNL     1      -1.430  47.318 -21.265  1.00  0.00    -0.082 Cl
HETATM   18  C8  UNL     1      -3.635  48.364 -22.405  1.00  0.00     0.029 A 
HETATM   19  C9  UNL     1      -4.390  49.370 -23.005  1.00  0.00     0.041 A 
HETATM   20  C10 UNL     1      -3.799  50.606 -23.158  1.00  0.00     0.107 A 
HETATM   21  C11 UNL     1      -2.506  50.862 -22.747  1.00  0.00     0.133 A 
HETATM   22  O3  UNL     1      -4.401  51.692 -23.714  1.00  0.00    -0.323 OA
HETATM   23  O2  UNL     1      -2.152  52.155 -23.005  1.00  0.00    -0.321 OA
HETATM   24  C12 UNL     1      -3.358  52.678 -23.586  1.00  0.00     0.352 A 
ENDBRANCH  13  15
ENDBRANCH   4  13
BRANCH   1  25
HETATM   25  O1  UNL     1      -1.309  48.486 -16.701  1.00  0.00    -0.353 OA
HETATM   26  C1  UNL     1      -2.476  47.860 -17.217  1.00  0.00     0.210 C 
ENDBRANCH   1  25
BRANCH  12  27
HETATM   27  O4  UNL     1      -0.608  50.499 -15.187  1.00  0.00    -0.348 OA
BRANCH  27  28
HETATM   28  C17 UNL     1       0.319  51.154 -14.326  1.00  0.00     0.177 C 
BRANCH  28  29
HETATM   29  C18 UNL     1      -0.439  52.109 -13.402  1.00  0.00     0.057 C 
BRANCH  29  30
HETATM   30  C19 UNL     1      -0.494  51.582 -11.961  1.00  0.00     0.274 C 
BRANCH  30  31
HETATM   31  N4  UNL     1      -1.862  51.581 -11.416  1.00  0.00     0.088 N 
HETATM   32  C20 UNL     1      -2.420  50.216 -11.436  1.00  0.00     0.272 C 
HETATM   33  C21 UNL     1      -3.955  50.163 -11.406  1.00  0.00     0.030 C 
HETATM   34  C22 UNL     1      -4.539  51.359 -10.673  1.00  0.00     0.003 C 
HETATM   35  C23 UNL     1      -4.061  52.671 -11.299  1.00  0.00     0.030 C 
HETATM   36  C24 UNL     1      -2.754  52.525 -12.090  1.00  0.00     0.272 C 
ENDBRANCH  30  31
ENDBRANCH  29  30
ENDBRANCH  28  29
ENDBRANCH  27  28
ENDBRANCH  12  27
TORSDOF 8
ENDMDL
MODEL 8
REMARK minimizedAffinity -7.28709364
REMARK CNNscore 0.135104463
REMARK CNNaffinity 5.463202
REMARK  8 active torsions:
REMARK  status: ('A' for Active; 'I' for Inactive)
REMARK    1  A    between atoms: O1_2  and  C2_3 
REMARK    2  A    between atoms: C5_6  and  N1_7 
REMARK    3  A    between atoms: N1_7  and  C6_8 
REMARK    4  A    between atoms: C16_25  and  O4_26 
REMARK    5  A    between atoms: O4_26  and  C17_27 
REMARK    6  A    between atoms: C17_27  and  C18_28 
REMARK    7  A    between atoms: C18_28  and  C19_29 
REMARK    8  A    between atoms: C19_29  and  N4_30 
ROOT
HETATM    1  C2  UNL     1      -1.005  50.976 -17.634  1.00  0.00     0.102 A 
HETATM    2  C3  UNL     1      -0.208  50.949 -16.489  1.00  0.00     0.057 A 
HETATM    3  C4  UNL     1       1.006  51.682 -16.425  1.00  0.00     0.038 A 
HETATM    4  C5  UNL     1       1.876  51.730 -15.317  1.00  0.00     0.119 A 
HETATM    5  N2  UNL     1       3.028  52.424 -15.330  1.00  0.00    -0.338 N 
ATOM      6  H2  UNL     1       3.661  52.428 -14.531  1.00  0.00     0.168 HD
HETATM    7  C13 UNL     1       3.297  53.106 -16.443  1.00  0.00     0.182 A 
HETATM    8  N3  UNL     1       2.544  53.146 -17.549  1.00  0.00    -0.351 N 
ATOM      9  H3  UNL     1       2.821  53.692 -18.365  1.00  0.00     0.166 HD
HETATM   10  C14 UNL     1       1.413  52.436 -17.532  1.00  0.00     0.050 A 
HETATM   11  C15 UNL     1       0.611  52.450 -18.667  1.00  0.00     0.070 A 
HETATM   12  C16 UNL     1      -0.586  51.731 -18.739  1.00  0.00     0.104 A 
ENDROOT
BRANCH   4  13
HETATM   13  N1  UNL     1       1.600  51.011 -14.134  1.00  0.00    -0.338 N 
HETATM   14  H5  UNL     1       0.634  50.693 -14.138  1.00  0.00     0.167 HD
BRANCH  13  15
HETATM   15  C6  UNL     1       1.987  51.399 -12.825  1.00  0.00     0.092 A 
HETATM   16  C7  UNL     1       3.189  50.913 -12.262  1.00  0.00     0.063 A 
HETATM   17 CL1  UNL     1       4.135  49.734 -13.107  1.00  0.00    -0.082 Cl
HETATM   18  C8  UNL     1       3.640  51.333 -10.996  1.00  0.00     0.029 A 
HETATM   19  C9  UNL     1       2.910  52.267 -10.263  1.00  0.00     0.041 A 
HETATM   20  C10 UNL     1       1.750  52.753 -10.827  1.00  0.00     0.107 A 
HETATM   21  C11 UNL     1       1.303  52.344 -12.067  1.00  0.00     0.133 A 
HETATM   22  O3  UNL     1       0.931  53.673 -10.247  1.00  0.00    -0.323 OA
HETATM   23  O2  UNL     1       0.138  52.969 -12.404  1.00  0.00    -0.321 OA
HETATM   24  C12 UNL     1      -0.075  53.825 -11.268  1.00  0.00     0.352 A 
ENDBRANCH  13  15
ENDBRANCH   4  13
BRANCH   1  25
HETATM   25  O1  UNL     1      -2.186  50.294 -17.774  1.00  0.00    -0.353 OA
HETATM   26  C1  UNL     1      -3.086  50.295 -16.673  1.00  0.00     0.210 C 
ENDBRANCH   1  25
BRANCH  12  27
HETATM   27  O4  UNL     1      -1.418  51.714 -19.830  1.00  0.00    -0.348 OA
BRANCH  27  28
HETATM   28  C17 UNL     1      -0.917  51.163 -21.045  1.00  0.00     0.177 C 
BRANCH  28  29
HETATM   29  C18 UNL     1      -1.622  51.827 -22.228  1.00  0.00     0.057 C 
BRANCH  29  30
HETATM   30  C19 UNL     1      -1.667  50.904 -23.454  1.00  0.00     0.274 C 
BRANCH  30  31
HETATM   31  N4  UNL     1      -0.621  51.228 -24.438  1.00  0.00     0.088 N 
HETATM   32  C20 UNL     1      -0.305  52.669 -24.393  1.00  0.00     0.272 C 
HETATM   33  C21 UNL     1       0.342  53.211 -25.676  1.00  0.00     0.030 C 
HETATM   34  C22 UNL     1       1.150  52.138 -26.389  1.00  0.00     0.003 C 
HETATM   35  C23 UNL     1       0.281  50.919 -26.703  1.00  0.00     0.030 C 
HETATM   36  C24 UNL     1      -0.953  50.804 -25.799  1.00  0.00     0.272 C 
ENDBRANCH  30  31
ENDBRANCH  29  30
ENDBRANCH  28  29
ENDBRANCH  27  28
ENDBRANCH  12  27
TORSDOF 8
ENDMDL
MODEL 9
REMARK minimizedAffinity -7.0697341
REMARK CNNscore 0.1316735
REMARK CNNaffinity 6.6109066
REMARK  8 active torsions:
REMARK  status: ('A' for Active; 'I' for Inactive)
REMARK    1  A    between atoms: O1_2  and  C2_3 
REMARK    2  A    between atoms: C5_6  and  N1_7 
REMARK    3  A    between atoms: N1_7  and  C6_8 
REMARK    4  A    between atoms: C16_25  and  O4_26 
REMARK    5  A    between atoms: O4_26  and  C17_27 
REMARK    6  A    between atoms: C17_27  and  C18_28 
REMARK    7  A    between atoms: C18_28  and  C19_29 
REMARK    8  A    between atoms: C19_29  and  N4_30 
ROOT
HETATM    1  C2  UNL     1      -1.404  49.088 -21.530  1.00  0.00     0.102 A 
HETATM    2  C3  UNL     1      -1.078  50.143 -22.385  1.00  0.00     0.057 A 
HETATM    3  C4  UNL     1      -0.384  51.285 -21.907  1.00  0.00     0.038 A 
HETATM    4  C5  UNL     1      -0.000  52.395 -22.686  1.00  0.00     0.119 A 
HETATM    5  N2  UNL     1       0.634  53.460 -22.166  1.00  0.00    -0.338 N 
ATOM      6  H2  UNL     1       0.882  54.269 -22.736  1.00  0.00     0.168 HD
HETATM    7  C13 UNL     1       0.923  53.403 -20.866  1.00  0.00     0.182 A 
HETATM    8  N3  UNL     1       0.622  52.400 -20.032  1.00  0.00    -0.351 N 
ATOM      9  H3  UNL     1       0.876  52.431 -19.044  1.00  0.00     0.166 HD
HETATM   10  C14 UNL     1      -0.027  51.356 -20.555  1.00  0.00     0.050 A 
HETATM   11  C15 UNL     1      -0.362  50.302 -19.715  1.00  0.00     0.070 A 
HETATM   12  C16 UNL     1      -1.046  49.172 -20.177  1.00  0.00     0.104 A 
ENDROOT
BRANCH   4  13
HETATM   13  N1  UNL     1      -0.301  52.465 -24.063  1.00  0.00    -0.338 N 
HETATM   14  H5  UNL     1      -0.231  53.427 -24.386  1.00  0.00     0.167 HD
BRANCH  13  15
HETATM   15  C6  UNL     1      -1.380  51.806 -24.706  1.00  0.00     0.092 A 
HETATM   16  C7  UNL     1      -1.137  50.886 -25.749  1.00  0.00     0.063 A 
HETATM   17 CL1  UNL     1       0.471  50.651 -26.349  1.00  0.00    -0.082 Cl
HETATM   18  C8  UNL     1      -2.178  50.159 -26.360  1.00  0.00     0.029 A 
HETATM   19  C9  UNL     1      -3.494  50.321 -25.930  1.00  0.00     0.041 A 
HETATM   20  C10 UNL     1      -3.723  51.205 -24.897  1.00  0.00     0.107 A 
HETATM   21  C11 UNL     1      -2.706  51.919 -24.297  1.00  0.00     0.133 A 
HETATM   22  O3  UNL     1      -4.944  51.468 -24.357  1.00  0.00    -0.323 OA
HETATM   23  O2  UNL     1      -3.185  52.722 -23.302  1.00  0.00    -0.321 OA
HETATM   24  C12 UNL     1      -4.589  52.411 -23.326  1.00  0.00     0.352 A 
ENDBRANCH  13  15
ENDBRANCH   4  13
BRANCH   1  25
HETATM   25  O1  UNL     1      -2.074  47.956 -21.914  1.00  0.00    -0.353 OA
HETATM   26  C1  UNL     1      -3.327  48.117 -22.566  1.00  0.00     0.210 C 
ENDBRANCH   1  25
BRANCH  12  27
HETATM   27  O4  UNL     1      -1.395  48.101 -19.394  1.00  0.00    -0.348 OA
BRANCH  27  28
HETATM   28  C17 UNL     1      -2.703  48.083 -18.829  1.00  0.00     0.177 C 
BRANCH  28  29
HETATM   29  C18 UNL     1      -2.849  49.256 -17.859  1.00  0.00     0.057 C 
BRANCH  29  30
HETATM   30  C19 UNL     1      -2.648  48.818 -16.401  1.00  0.00     0.274 C 
BRANCH  30  31
HETATM   31  N4  UNL     1      -1.418  49.375 -15.814  1.00  0.00     0.088 N 
HETATM   32  C20 UNL     1      -1.201  50.753 -16.294  1.00  0.00     0.272 C 
HETATM   33  C21 UNL     1       0.255  51.231 -16.194  1.00  0.00     0.030 C 
HETATM   34  C22 UNL     1       0.986  50.557 -15.044  1.00  0.00     0.003 C 
HETATM   35  C23 UNL     1       0.931  49.034 -15.179  1.00  0.00     0.030 C 
HETATM   36  C24 UNL     1      -0.237  48.544 -16.045  1.00  0.00     0.272 C 
ENDBRANCH  30  31
ENDBRANCH  29  30
ENDBRANCH  28  29
ENDBRANCH  27  28
ENDBRANCH  12  27
TORSDOF 8
ENDMDL
