MODEL 1
REMARK minimizedAffinity -6.91739511
REMARK CNNscore 0.729126513
REMARK CNNaffinity 6.73953581
REMARK  15 active torsions:
REMARK  status: ('A' for Active; 'I' for Inactive)
REMARK    1  A    between atoms: C19_20  and  O2_21 
REMARK    2  A    between atoms: C19_20  and  C20_22 
REMARK    3  A    between atoms: C20_22  and  C21_24 
REMARK    4  A    between atoms: C21_24  and  O4_25 
REMARK    5  A    between atoms: O4_25  and  C22_26 
REMARK    6  A    between atoms: C22_26  and  C23_28 
REMARK    7  A    between atoms: C23_28  and  C24_29 
REMARK    8  A    between atoms: C24_29  and  C25_30 
REMARK       I    between atoms: C25_30  and  N1_32 
REMARK    9  A    between atoms: N1_32  and  C26_33 
REMARK   10  A    between atoms: C26_33  and  C27_34 
REMARK   11  A    between atoms: C27_34  and  C28_35 
REMARK   12  A    between atoms: C28_35  and  C29_36 
REMARK   13  A    between atoms: C29_36  and  C30_37 
REMARK   14  A    between atoms: C30_37  and  C31_38 
REMARK   15  A    between atoms: C31_38  and  O8_40 
ROOT
HETATM    1  C1  UNL     1      -0.155  49.451 -20.290  1.00  0.00     0.020 C 
HETATM    2  C2  UNL     1      -0.616  50.815 -20.866  1.00  0.00    -0.016 C 
HETATM    3  C3  UNL     1       0.498  51.233 -21.871  1.00  0.00     0.022 C 
HETATM    4  C4  UNL     1       0.490  52.715 -22.210  1.00  0.00     0.084 C 
HETATM    5  C5  UNL     1       0.642  53.509 -20.938  1.00  0.00     0.149 C 
HETATM    6  O1  UNL     1       1.303  54.544 -20.878  1.00  0.00    -0.293 OA
HETATM    7  C6  UNL     1      -0.119  53.052 -19.752  1.00  0.00     0.053 C 
HETATM    8  C7  UNL     1      -0.736  51.857 -19.744  1.00  0.00    -0.068 C 
HETATM    9  C8  UNL     1      -1.731  51.531 -18.659  1.00  0.00     0.035 C 
HETATM   10  C9  UNL     1      -3.122  51.386 -19.279  1.00  0.00     0.010 C 
HETATM   11  C10 UNL     1      -3.145  50.386 -20.450  1.00  0.00    -0.004 C 
HETATM   12  C11 UNL     1      -2.044  50.720 -21.517  1.00  0.00     0.002 C 
HETATM   13  C12 UNL     1      -2.133  49.767 -22.736  1.00  0.00     0.007 C 
HETATM   14  C13 UNL     1      -3.550  49.663 -23.330  1.00  0.00     0.013 C 
HETATM   15  C14 UNL     1      -4.602  49.292 -22.267  1.00  0.00    -0.002 C 
HETATM   16  C15 UNL     1      -4.342  47.846 -21.762  1.00  0.00     0.019 C 
HETATM   17  C16 UNL     1      -4.512  50.359 -21.149  1.00  0.00     0.002 C 
HETATM   18  C17 UNL     1      -5.752  50.098 -20.303  1.00  0.00     0.009 C 
HETATM   19  C18 UNL     1      -6.826  49.672 -21.322  1.00  0.00     0.047 C 
HETATM   20  C19 UNL     1      -6.098  49.456 -22.679  1.00  0.00     0.128 C 
ENDROOT
BRANCH  20  21
HETATM   21  O2  UNL     1      -6.264  50.651 -23.448  1.00  0.00    -0.381 OA
HETATM   22  H27 UNL     1      -7.218  50.752 -23.642  1.00  0.00     0.211 HD
ENDBRANCH  20  21
BRANCH  20  23
HETATM   23  C20 UNL     1      -6.664  48.262 -23.477  1.00  0.00     0.185 C 
HETATM   24  O3  UNL     1      -6.580  47.100 -23.075  1.00  0.00    -0.292 OA
BRANCH  23  25
HETATM   25  C21 UNL     1      -7.325  48.582 -24.818  1.00  0.00     0.260 C 
BRANCH  25  26
HETATM   26  O4  UNL     1      -8.722  48.282 -24.812  1.00  0.00    -0.314 OA
BRANCH  26  27
HETATM   27  C22 UNL     1      -9.359  48.631 -25.966  1.00  0.00     0.259 C 
HETATM   28  O5  UNL     1     -10.270  49.453 -26.028  1.00  0.00    -0.265 OA
BRANCH  27  29
HETATM   29  C23 UNL     1      -8.888  47.820 -27.153  1.00  0.00     0.120 C 
BRANCH  29  30
HETATM   30  C24 UNL     1      -8.618  48.634 -28.413  1.00  0.00     0.112 C 
BRANCH  30  31
HETATM   31  C25 UNL     1      -8.180  47.758 -29.569  1.00  0.00     0.217 C 
HETATM   32  O6  UNL     1      -8.438  48.006 -30.740  1.00  0.00    -0.274 OA
HETATM   33  N1  UNL     1      -7.474  46.644 -29.165  1.00  0.00    -0.361 N 
HETATM   34  H34 UNL     1      -7.066  46.660 -28.237  1.00  0.00     0.162 HD
BRANCH  33  35
HETATM   35  C26 UNL     1      -6.902  45.748 -30.150  1.00  0.00     0.122 C 
BRANCH  35  36
HETATM   36  C27 UNL     1      -7.092  44.288 -29.751  1.00  0.00     0.020 C 
BRANCH  36  37
HETATM   37  C28 UNL     1      -8.131  44.091 -28.643  1.00  0.00     0.002 C 
BRANCH  37  38
HETATM   38  C29 UNL     1      -9.595  44.101 -29.090  1.00  0.00     0.010 C 
BRANCH  38  39
HETATM   39  C30 UNL     1      -9.832  43.368 -30.412  1.00  0.00     0.110 C 
BRANCH  39  40
HETATM   40  C31 UNL     1     -10.000  41.887 -30.200  1.00  0.00     0.139 C 
HETATM   41  O7  UNL     1     -10.652  41.329 -29.336  1.00  0.00    -0.650 OA
BRANCH  40  42
HETATM   42  O8  UNL     1      -9.329  41.171 -31.122  1.00  0.00    -0.776 OA
HETATM   43  H45 UNL     1      -9.507  40.239 -30.872  1.00  0.00     0.167 HD
ENDBRANCH  40  42
ENDBRANCH  39  40
ENDBRANCH  38  39
ENDBRANCH  37  38
ENDBRANCH  36  37
ENDBRANCH  35  36
ENDBRANCH  33  35
ENDBRANCH  30  31
ENDBRANCH  29  30
ENDBRANCH  27  29
ENDBRANCH  26  27
ENDBRANCH  25  26
ENDBRANCH  23  25
ENDBRANCH  20  23
TORSDOF 15
ENDMDL
MODEL 2
REMARK minimizedAffinity -6.8838644
REMARK CNNscore 0.668972433
REMARK CNNaffinity 6.29152918
REMARK  15 active torsions:
REMARK  status: ('A' for Active; 'I' for Inactive)
REMARK    1  A    between atoms: C19_20  and  O2_21 
REMARK    2  A    between atoms: C19_20  and  C20_22 
REMARK    3  A    between atoms: C20_22  and  C21_24 
REMARK    4  A    between atoms: C21_24  and  O4_25 
REMARK    5  A    between atoms: O4_25  and  C22_26 
REMARK    6  A    between atoms: C22_26  and  C23_28 
REMARK    7  A    between atoms: C23_28  and  C24_29 
REMARK    8  A    between atoms: C24_29  and  C25_30 
REMARK       I    between atoms: C25_30  and  N1_32 
REMARK    9  A    between atoms: N1_32  and  C26_33 
REMARK   10  A    between atoms: C26_33  and  C27_34 
REMARK   11  A    between atoms: C27_34  and  C28_35 
REMARK   12  A    between atoms: C28_35  and  C29_36 
REMARK   13  A    between atoms: C29_36  and  C30_37 
REMARK   14  A    between atoms: C30_37  and  C31_38 
REMARK   15  A    between atoms: C31_38  and  O8_40 
ROOT
HETATM    1  C1  UNL     1      -4.289  48.508 -24.440  1.00  0.00     0.020 C 
HETATM    2  C2  UNL     1      -4.080  49.296 -23.121  1.00  0.00    -0.016 C 
HETATM    3  C3  UNL     1      -4.279  50.794 -23.501  1.00  0.00     0.022 C 
HETATM    4  C4  UNL     1      -3.688  51.764 -22.492  1.00  0.00     0.084 C 
HETATM    5  C5  UNL     1      -2.216  51.480 -22.343  1.00  0.00     0.149 C 
HETATM    6  O1  UNL     1      -1.381  52.369 -22.194  1.00  0.00    -0.293 OA
HETATM    7  C6  UNL     1      -1.798  50.059 -22.285  1.00  0.00     0.053 C 
HETATM    8  C7  UNL     1      -2.660  49.071 -22.582  1.00  0.00    -0.068 C 
HETATM    9  C8  UNL     1      -2.312  47.643 -22.246  1.00  0.00     0.035 C 
HETATM   10  C9  UNL     1      -3.278  47.127 -21.178  1.00  0.00     0.010 C 
HETATM   11  C10 UNL     1      -4.753  47.319 -21.574  1.00  0.00    -0.004 C 
HETATM   12  C11 UNL     1      -5.052  48.804 -21.988  1.00  0.00     0.002 C 
HETATM   13  C12 UNL     1      -6.557  49.012 -22.295  1.00  0.00     0.007 C 
HETATM   14  C13 UNL     1      -7.487  48.485 -21.186  1.00  0.00     0.013 C 
HETATM   15  C14 UNL     1      -7.199  47.014 -20.833  1.00  0.00    -0.002 C 
HETATM   16  C15 UNL     1      -7.568  46.108 -22.040  1.00  0.00     0.019 C 
HETATM   17  C16 UNL     1      -5.705  46.928 -20.435  1.00  0.00     0.002 C 
HETATM   18  C17 UNL     1      -5.574  45.535 -19.829  1.00  0.00     0.009 C 
HETATM   19  C18 UNL     1      -6.913  45.309 -19.101  1.00  0.00     0.047 C 
HETATM   20  C19 UNL     1      -7.859  46.467 -19.530  1.00  0.00     0.128 C 
ENDROOT
BRANCH  20  21
HETATM   21  O2  UNL     1      -7.808  47.462 -18.503  1.00  0.00    -0.381 OA
HETATM   22  H27 UNL     1      -8.179  47.069 -17.686  1.00  0.00     0.211 HD
ENDBRANCH  20  21
BRANCH  20  23
HETATM   23  C20 UNL     1      -9.322  46.007 -19.711  1.00  0.00     0.185 C 
HETATM   24  O3  UNL     1      -9.617  44.848 -20.008  1.00  0.00    -0.292 OA
BRANCH  23  25
HETATM   25  C21 UNL     1     -10.405  47.070 -19.527  1.00  0.00     0.260 C 
BRANCH  25  26
HETATM   26  O4  UNL     1     -10.919  47.086 -18.194  1.00  0.00    -0.314 OA
BRANCH  26  27
HETATM   27  C22 UNL     1     -12.177  47.602 -18.101  1.00  0.00     0.259 C 
HETATM   28  O5  UNL     1     -12.889  47.507 -17.104  1.00  0.00    -0.265 OA
BRANCH  27  29
HETATM   29  C23 UNL     1     -12.645  48.220 -19.401  1.00  0.00     0.120 C 
BRANCH  29  30
HETATM   30  C24 UNL     1     -14.145  48.476 -19.480  1.00  0.00     0.112 C 
BRANCH  30  31
HETATM   31  C25 UNL     1     -14.792  47.703 -20.611  1.00  0.00     0.217 C 
HETATM   32  O6  UNL     1     -14.336  47.662 -21.747  1.00  0.00    -0.274 OA
HETATM   33  N1  UNL     1     -15.954  47.064 -20.234  1.00  0.00    -0.361 N 
HETATM   34  H34 UNL     1     -16.104  46.913 -19.243  1.00  0.00     0.162 HD
BRANCH  33  35
HETATM   35  C26 UNL     1     -16.650  46.205 -21.172  1.00  0.00     0.122 C 
BRANCH  35  36
HETATM   36  C27 UNL     1     -18.139  46.528 -21.221  1.00  0.00     0.020 C 
BRANCH  36  37
HETATM   37  C28 UNL     1     -19.026  45.289 -21.368  1.00  0.00     0.002 C 
BRANCH  37  38
HETATM   38  C29 UNL     1     -19.555  45.009 -22.778  1.00  0.00     0.010 C 
BRANCH  38  39
HETATM   39  C30 UNL     1     -18.639  45.531 -23.886  1.00  0.00     0.110 C 
BRANCH  39  40
HETATM   40  C31 UNL     1     -19.280  46.660 -24.647  1.00  0.00     0.139 C 
HETATM   41  O7  UNL     1     -18.855  47.792 -24.796  1.00  0.00    -0.650 OA
BRANCH  40  42
HETATM   42  O8  UNL     1     -20.448  46.288 -25.205  1.00  0.00    -0.776 OA
HETATM   43  H45 UNL     1     -20.763  47.100 -25.655  1.00  0.00     0.167 HD
ENDBRANCH  40  42
ENDBRANCH  39  40
ENDBRANCH  38  39
ENDBRANCH  37  38
ENDBRANCH  36  37
ENDBRANCH  35  36
ENDBRANCH  33  35
ENDBRANCH  30  31
ENDBRANCH  29  30
ENDBRANCH  27  29
ENDBRANCH  26  27
ENDBRANCH  25  26
ENDBRANCH  23  25
ENDBRANCH  20  23
TORSDOF 15
ENDMDL
MODEL 3
REMARK minimizedAffinity -8.55623627
REMARK CNNscore 0.571389139
REMARK CNNaffinity 6.38821554
REMARK  15 active torsions:
REMARK  status: ('A' for Active; 'I' for Inactive)
REMARK    1  A    between atoms: C19_20  and  O2_21 
REMARK    2  A    between atoms: C19_20  and  C20_22 
REMARK    3  A    between atoms: C20_22  and  C21_24 
REMARK    4  A    between atoms: C21_24  and  O4_25 
REMARK    5  A    between atoms: O4_25  and  C22_26 
REMARK    6  A    between atoms: C22_26  and  C23_28 
REMARK    7  A    between atoms: C23_28  and  C24_29 
REMARK    8  A    between atoms: C24_29  and  C25_30 
REMARK       I    between atoms: C25_30  and  N1_32 
REMARK    9  A    between atoms: N1_32  and  C26_33 
REMARK   10  A    between atoms: C26_33  and  C27_34 
REMARK   11  A    between atoms: C27_34  and  C28_35 
REMARK   12  A    between atoms: C28_35  and  C29_36 
REMARK   13  A    between atoms: C29_36  and  C30_37 
REMARK   14  A    between atoms: C30_37  and  C31_38 
REMARK   15  A    between atoms: C31_38  and  O8_40 
ROOT
HETATM    1  C1  UNL     1      -0.316  49.423 -20.223  1.00  0.00     0.020 C 
HETATM    2  C2  UNL     1      -0.621  50.823 -20.814  1.00  0.00    -0.016 C 
HETATM    3  C3  UNL     1       0.677  51.243 -21.566  1.00  0.00     0.022 C 
HETATM    4  C4  UNL     1       0.773  52.736 -21.832  1.00  0.00     0.084 C 
HETATM    5  C5  UNL     1       0.697  53.474 -20.520  1.00  0.00     0.149 C 
HETATM    6  O1  UNL     1       1.360  54.482 -20.287  1.00  0.00    -0.293 OA
HETATM    7  C6  UNL     1      -0.292  52.996 -19.525  1.00  0.00     0.053 C 
HETATM    8  C7  UNL     1      -0.929  51.823 -19.690  1.00  0.00    -0.068 C 
HETATM    9  C8  UNL     1      -2.124  51.489 -18.833  1.00  0.00     0.035 C 
HETATM   10  C9  UNL     1      -3.371  51.416 -19.715  1.00  0.00     0.010 C 
HETATM   11  C10 UNL     1      -3.193  50.465 -20.913  1.00  0.00    -0.004 C 
HETATM   12  C11 UNL     1      -1.897  50.803 -21.732  1.00  0.00     0.002 C 
HETATM   13  C12 UNL     1      -1.774  49.903 -22.988  1.00  0.00     0.007 C 
HETATM   14  C13 UNL     1      -3.051  49.871 -23.847  1.00  0.00     0.013 C 
HETATM   15  C14 UNL     1      -4.298  49.494 -23.025  1.00  0.00    -0.002 C 
HETATM   16  C15 UNL     1      -4.177  48.021 -22.546  1.00  0.00     0.019 C 
HETATM   17  C16 UNL     1      -4.398  50.513 -21.862  1.00  0.00     0.002 C 
HETATM   18  C17 UNL     1      -5.786  50.261 -21.284  1.00  0.00     0.009 C 
HETATM   19  C18 UNL     1      -6.652  49.913 -22.510  1.00  0.00     0.047 C 
HETATM   20  C19 UNL     1      -5.681  49.725 -23.709  1.00  0.00     0.128 C 
ENDROOT
BRANCH  20  21
HETATM   21  O2  UNL     1      -5.663  50.955 -24.441  1.00  0.00    -0.381 OA
HETATM   22  H27 UNL     1      -6.559  51.096 -24.810  1.00  0.00     0.211 HD
ENDBRANCH  20  21
BRANCH  20  23
HETATM   23  C20 UNL     1      -6.112  48.584 -24.655  1.00  0.00     0.185 C 
HETATM   24  O3  UNL     1      -7.106  47.888 -24.438  1.00  0.00    -0.292 OA
BRANCH  23  25
HETATM   25  C21 UNL     1      -5.231  48.334 -25.879  1.00  0.00     0.260 C 
BRANCH  25  26
HETATM   26  O4  UNL     1      -5.980  47.822 -26.983  1.00  0.00    -0.314 OA
BRANCH  26  27
HETATM   27  C22 UNL     1      -5.326  47.916 -28.175  1.00  0.00     0.259 C 
HETATM   28  O5  UNL     1      -4.117  48.103 -28.284  1.00  0.00    -0.265 OA
BRANCH  27  29
HETATM   29  C23 UNL     1      -6.270  47.865 -29.357  1.00  0.00     0.120 C 
BRANCH  29  30
HETATM   30  C24 UNL     1      -5.590  47.949 -30.718  1.00  0.00     0.112 C 
BRANCH  30  31
HETATM   31  C25 UNL     1      -5.133  46.589 -31.207  1.00  0.00     0.217 C 
HETATM   32  O6  UNL     1      -3.973  46.332 -31.501  1.00  0.00    -0.274 OA
HETATM   33  N1  UNL     1      -6.162  45.676 -31.300  1.00  0.00    -0.361 N 
HETATM   34  H34 UNL     1      -7.011  45.871 -30.781  1.00  0.00     0.162 HD
BRANCH  33  35
HETATM   35  C26 UNL     1      -5.883  44.300 -31.663  1.00  0.00     0.122 C 
BRANCH  35  36
HETATM   36  C27 UNL     1      -4.751  44.213 -32.681  1.00  0.00     0.020 C 
BRANCH  36  37
HETATM   37  C28 UNL     1      -4.128  42.818 -32.780  1.00  0.00     0.002 C 
BRANCH  37  38
HETATM   38  C29 UNL     1      -3.446  42.484 -34.110  1.00  0.00     0.010 C 
BRANCH  38  39
HETATM   39  C30 UNL     1      -3.644  41.031 -34.547  1.00  0.00     0.110 C 
BRANCH  39  40
HETATM   40  C31 UNL     1      -3.985  40.936 -36.010  1.00  0.00     0.139 C 
HETATM   41  O7  UNL     1      -3.707  40.034 -36.780  1.00  0.00    -0.650 OA
BRANCH  40  42
HETATM   42  O8  UNL     1      -4.688  42.004 -36.430  1.00  0.00    -0.776 OA
HETATM   43  H45 UNL     1      -4.836  41.828 -37.384  1.00  0.00     0.167 HD
ENDBRANCH  40  42
ENDBRANCH  39  40
ENDBRANCH  38  39
ENDBRANCH  37  38
ENDBRANCH  36  37
ENDBRANCH  35  36
ENDBRANCH  33  35
ENDBRANCH  30  31
ENDBRANCH  29  30
ENDBRANCH  27  29
ENDBRANCH  26  27
ENDBRANCH  25  26
ENDBRANCH  23  25
ENDBRANCH  20  23
TORSDOF 15
ENDMDL
MODEL 4
REMARK minimizedAffinity -7.63081646
REMARK CNNscore 0.523750663
REMARK CNNaffinity 6.56459999
REMARK  15 active torsions:
REMARK  status: ('A' for Active; 'I' for Inactive)
REMARK    1  A    between atoms: C19_20  and  O2_21 
REMARK    2  A    between atoms: C19_20  and  C20_22 
REMARK    3  A    between atoms: C20_22  and  C21_24 
REMARK    4  A    between atoms: C21_24  and  O4_25 
REMARK    5  A    between atoms: O4_25  and  C22_26 
REMARK    6  A    between atoms: C22_26  and  C23_28 
REMARK    7  A    between atoms: C23_28  and  C24_29 
REMARK    8  A    between atoms: C24_29  and  C25_30 
REMARK       I    between atoms: C25_30  and  N1_32 
REMARK    9  A    between atoms: N1_32  and  C26_33 
REMARK   10  A    between atoms: C26_33  and  C27_34 
REMARK   11  A    between atoms: C27_34  and  C28_35 
REMARK   12  A    between atoms: C28_35  and  C29_36 
REMARK   13  A    between atoms: C29_36  and  C30_37 
REMARK   14  A    between atoms: C30_37  and  C31_38 
REMARK   15  A    between atoms: C31_38  and  O8_40 
ROOT
HETATM    1  C1  UNL     1      -0.315  49.424 -20.196  1.00  0.00     0.020 C 
HETATM    2  C2  UNL     1      -0.627  50.822 -20.788  1.00  0.00    -0.016 C 
HETATM    3  C3  UNL     1       0.667  51.247 -21.543  1.00  0.00     0.022 C 
HETATM    4  C4  UNL     1       0.756  52.740 -21.811  1.00  0.00     0.084 C 
HETATM    5  C5  UNL     1       0.679  53.479 -20.500  1.00  0.00     0.149 C 
HETATM    6  O1  UNL     1       1.338  54.491 -20.269  1.00  0.00    -0.293 OA
HETATM    7  C6  UNL     1      -0.306  52.998 -19.503  1.00  0.00     0.053 C 
HETATM    8  C7  UNL     1      -0.938  51.822 -19.665  1.00  0.00    -0.068 C 
HETATM    9  C8  UNL     1      -2.129  51.484 -18.805  1.00  0.00     0.035 C 
HETATM   10  C9  UNL     1      -3.378  51.404 -19.685  1.00  0.00     0.010 C 
HETATM   11  C10 UNL     1      -3.198  50.451 -20.882  1.00  0.00    -0.004 C 
HETATM   12  C11 UNL     1      -1.905  50.795 -21.704  1.00  0.00     0.002 C 
HETATM   13  C12 UNL     1      -1.779  49.894 -22.958  1.00  0.00     0.007 C 
HETATM   14  C13 UNL     1      -3.058  49.855 -23.815  1.00  0.00     0.013 C 
HETATM   15  C14 UNL     1      -4.301  49.473 -22.991  1.00  0.00    -0.002 C 
HETATM   16  C15 UNL     1      -4.174  48.001 -22.510  1.00  0.00     0.019 C 
HETATM   17  C16 UNL     1      -4.405  50.492 -21.829  1.00  0.00     0.002 C 
HETATM   18  C17 UNL     1      -5.790  50.235 -21.248  1.00  0.00     0.009 C 
HETATM   19  C18 UNL     1      -6.657  49.881 -22.472  1.00  0.00     0.047 C 
HETATM   20  C19 UNL     1      -5.687  49.697 -23.672  1.00  0.00     0.128 C 
ENDROOT
BRANCH  20  21
HETATM   21  O2  UNL     1      -5.676  50.926 -24.406  1.00  0.00    -0.381 OA
HETATM   22  H27 UNL     1      -6.573  51.062 -24.774  1.00  0.00     0.211 HD
ENDBRANCH  20  21
BRANCH  20  23
HETATM   23  C20 UNL     1      -6.115  48.553 -24.616  1.00  0.00     0.185 C 
HETATM   24  O3  UNL     1      -7.065  47.809 -24.363  1.00  0.00    -0.292 OA
BRANCH  23  25
HETATM   25  C21 UNL     1      -5.286  48.361 -25.886  1.00  0.00     0.260 C 
BRANCH  25  26
HETATM   26  O4  UNL     1      -6.013  47.666 -26.901  1.00  0.00    -0.314 OA
BRANCH  26  27
HETATM   27  C22 UNL     1      -5.532  47.880 -28.158  1.00  0.00     0.259 C 
HETATM   28  O5  UNL     1      -4.349  48.084 -28.418  1.00  0.00    -0.265 OA
BRANCH  27  29
HETATM   29  C23 UNL     1      -6.634  47.939 -29.195  1.00  0.00     0.120 C 
BRANCH  29  30
HETATM   30  C24 UNL     1      -6.147  47.962 -30.639  1.00  0.00     0.112 C 
BRANCH  30  31
HETATM   31  C25 UNL     1      -6.976  47.058 -31.529  1.00  0.00     0.217 C 
HETATM   32  O6  UNL     1      -6.648  46.745 -32.666  1.00  0.00    -0.274 OA
HETATM   33  N1  UNL     1      -8.146  46.639 -30.932  1.00  0.00    -0.361 N 
HETATM   34  H34 UNL     1      -8.206  46.703 -29.922  1.00  0.00     0.162 HD
BRANCH  33  35
HETATM   35  C26 UNL     1      -9.012  45.695 -31.611  1.00  0.00     0.122 C 
BRANCH  35  36
HETATM   36  C27 UNL     1     -10.203  46.397 -32.255  1.00  0.00     0.020 C 
BRANCH  36  37
HETATM   37  C28 UNL     1     -10.404  46.027 -33.727  1.00  0.00     0.002 C 
BRANCH  37  38
HETATM   38  C29 UNL     1     -11.472  44.967 -34.010  1.00  0.00     0.010 C 
BRANCH  38  39
HETATM   39  C30 UNL     1     -10.968  43.815 -34.882  1.00  0.00     0.110 C 
BRANCH  39  40
HETATM   40  C31 UNL     1      -9.537  44.022 -35.299  1.00  0.00     0.139 C 
HETATM   41  O7  UNL     1      -8.532  43.659 -34.713  1.00  0.00    -0.650 OA
BRANCH  40  42
HETATM   42  O8  UNL     1      -9.448  44.680 -36.470  1.00  0.00    -0.776 OA
HETATM   43  H45 UNL     1      -8.481  44.759 -36.623  1.00  0.00     0.167 HD
ENDBRANCH  40  42
ENDBRANCH  39  40
ENDBRANCH  38  39
ENDBRANCH  37  38
ENDBRANCH  36  37
ENDBRANCH  35  36
ENDBRANCH  33  35
ENDBRANCH  30  31
ENDBRANCH  29  30
ENDBRANCH  27  29
ENDBRANCH  26  27
ENDBRANCH  25  26
ENDBRANCH  23  25
ENDBRANCH  20  23
TORSDOF 15
ENDMDL
MODEL 5
REMARK minimizedAffinity -8.18228149
REMARK CNNscore 0.507132053
REMARK CNNaffinity 6.97520876
REMARK  15 active torsions:
REMARK  status: ('A' for Active; 'I' for Inactive)
REMARK    1  A    between atoms: C19_20  and  O2_21 
REMARK    2  A    between atoms: C19_20  and  C20_22 
REMARK    3  A    between atoms: C20_22  and  C21_24 
REMARK    4  A    between atoms: C21_24  and  O4_25 
REMARK    5  A    between atoms: O4_25  and  C22_26 
REMARK    6  A    between atoms: C22_26  and  C23_28 
REMARK    7  A    between atoms: C23_28  and  C24_29 
REMARK    8  A    between atoms: C24_29  and  C25_30 
REMARK       I    between atoms: C25_30  and  N1_32 
REMARK    9  A    between atoms: N1_32  and  C26_33 
REMARK   10  A    between atoms: C26_33  and  C27_34 
REMARK   11  A    between atoms: C27_34  and  C28_35 
REMARK   12  A    between atoms: C28_35  and  C29_36 
REMARK   13  A    between atoms: C29_36  and  C30_37 
REMARK   14  A    between atoms: C30_37  and  C31_38 
REMARK   15  A    between atoms: C31_38  and  O8_40 
ROOT
HETATM    1  C1  UNL     1      -0.421  49.370 -19.812  1.00  0.00     0.020 C 
HETATM    2  C2  UNL     1      -0.622  50.763 -20.463  1.00  0.00    -0.016 C 
HETATM    3  C3  UNL     1       0.738  51.098 -21.145  1.00  0.00     0.022 C 
HETATM    4  C4  UNL     1       0.921  52.576 -21.449  1.00  0.00     0.084 C 
HETATM    5  C5  UNL     1       0.799  53.359 -20.167  1.00  0.00     0.149 C 
HETATM    6  O1  UNL     1       1.494  54.343 -19.923  1.00  0.00    -0.293 OA
HETATM    7  C6  UNL     1      -0.270  52.960 -19.222  1.00  0.00     0.053 C 
HETATM    8  C7  UNL     1      -0.951  51.812 -19.391  1.00  0.00    -0.068 C 
HETATM    9  C8  UNL     1      -2.210  51.562 -18.601  1.00  0.00     0.035 C 
HETATM   10  C9  UNL     1      -3.403  51.516 -19.557  1.00  0.00     0.010 C 
HETATM   11  C10 UNL     1      -3.198  50.519 -20.712  1.00  0.00    -0.004 C 
HETATM   12  C11 UNL     1      -1.839  50.771 -21.458  1.00  0.00     0.002 C 
HETATM   13  C12 UNL     1      -1.682  49.825 -22.676  1.00  0.00     0.007 C 
HETATM   14  C13 UNL     1      -2.904  49.823 -23.612  1.00  0.00     0.013 C 
HETATM   15  C14 UNL     1      -4.215  49.531 -22.859  1.00  0.00    -0.002 C 
HETATM   16  C15 UNL     1      -4.195  48.070 -22.329  1.00  0.00     0.019 C 
HETATM   17  C16 UNL     1      -4.338  50.590 -21.736  1.00  0.00     0.002 C 
HETATM   18  C17 UNL     1      -5.769  50.421 -21.239  1.00  0.00     0.009 C 
HETATM   19  C18 UNL     1      -6.575  50.072 -22.505  1.00  0.00     0.047 C 
HETATM   20  C19 UNL     1      -5.541  49.802 -23.635  1.00  0.00     0.128 C 
ENDROOT
BRANCH  20  21
HETATM   21  O2  UNL     1      -5.421  51.005 -24.401  1.00  0.00    -0.381 OA
HETATM   22  H27 UNL     1      -6.284  51.174 -24.830  1.00  0.00     0.211 HD
ENDBRANCH  20  21
BRANCH  20  23
HETATM   23  C20 UNL     1      -5.968  48.651 -24.572  1.00  0.00     0.185 C 
HETATM   24  O3  UNL     1      -7.019  48.026 -24.413  1.00  0.00    -0.292 OA
BRANCH  23  25
HETATM   25  C21 UNL     1      -5.009  48.297 -25.709  1.00  0.00     0.260 C 
BRANCH  25  26
HETATM   26  O4  UNL     1      -4.107  49.366 -26.001  1.00  0.00    -0.314 OA
BRANCH  26  27
HETATM   27  C22 UNL     1      -3.776  49.454 -27.320  1.00  0.00     0.259 C 
HETATM   28  O5  UNL     1      -3.427  50.494 -27.875  1.00  0.00    -0.265 OA
BRANCH  27  29
HETATM   29  C23 UNL     1      -3.982  48.148 -28.056  1.00  0.00     0.120 C 
BRANCH  29  30
HETATM   30  C24 UNL     1      -5.440  47.784 -28.311  1.00  0.00     0.112 C 
BRANCH  30  31
HETATM   31  C25 UNL     1      -5.931  48.317 -29.641  1.00  0.00     0.217 C 
HETATM   32  O6  UNL     1      -5.186  48.616 -30.566  1.00  0.00    -0.274 OA
HETATM   33  N1  UNL     1      -7.303  48.446 -29.699  1.00  0.00    -0.361 N 
HETATM   34  H34 UNL     1      -7.851  47.924 -29.024  1.00  0.00     0.162 HD
BRANCH  33  35
HETATM   35  C26 UNL     1      -7.945  48.855 -30.932  1.00  0.00     0.122 C 
BRANCH  35  36
HETATM   36  C27 UNL     1      -9.395  48.386 -30.986  1.00  0.00     0.020 C 
BRANCH  36  37
HETATM   37  C28 UNL     1      -9.654  47.332 -32.066  1.00  0.00     0.002 C 
BRANCH  37  38
HETATM   38  C29 UNL     1      -8.432  46.531 -32.525  1.00  0.00     0.010 C 
BRANCH  38  39
HETATM   39  C30 UNL     1      -8.182  46.612 -34.032  1.00  0.00     0.110 C 
BRANCH  39  40
HETATM   40  C31 UNL     1      -6.978  47.457 -34.348  1.00  0.00     0.139 C 
HETATM   41  O7  UNL     1      -6.094  47.807 -33.586  1.00  0.00    -0.650 OA
BRANCH  40  42
HETATM   42  O8  UNL     1      -6.945  47.815 -35.645  1.00  0.00    -0.776 OA
HETATM   43  H45 UNL     1      -6.132  48.361 -35.719  1.00  0.00     0.167 HD
ENDBRANCH  40  42
ENDBRANCH  39  40
ENDBRANCH  38  39
ENDBRANCH  37  38
ENDBRANCH  36  37
ENDBRANCH  35  36
ENDBRANCH  33  35
ENDBRANCH  30  31
ENDBRANCH  29  30
ENDBRANCH  27  29
ENDBRANCH  26  27
ENDBRANCH  25  26
ENDBRANCH  23  25
ENDBRANCH  20  23
TORSDOF 15
ENDMDL
MODEL 6
REMARK minimizedAffinity -6.92332268
REMARK CNNscore 0.502072453
REMARK CNNaffinity 6.46859694
REMARK  15 active torsions:
REMARK  status: ('A' for Active; 'I' for Inactive)
REMARK    1  A    between atoms: C19_20  and  O2_21 
REMARK    2  A    between atoms: C19_20  and  C20_22 
REMARK    3  A    between atoms: C20_22  and  C21_24 
REMARK    4  A    between atoms: C21_24  and  O4_25 
REMARK    5  A    between atoms: O4_25  and  C22_26 
REMARK    6  A    between atoms: C22_26  and  C23_28 
REMARK    7  A    between atoms: C23_28  and  C24_29 
REMARK    8  A    between atoms: C24_29  and  C25_30 
REMARK       I    between atoms: C25_30  and  N1_32 
REMARK    9  A    between atoms: N1_32  and  C26_33 
REMARK   10  A    between atoms: C26_33  and  C27_34 
REMARK   11  A    between atoms: C27_34  and  C28_35 
REMARK   12  A    between atoms: C28_35  and  C29_36 
REMARK   13  A    between atoms: C29_36  and  C30_37 
REMARK   14  A    between atoms: C30_37  and  C31_38 
REMARK   15  A    between atoms: C31_38  and  O8_40 
ROOT
HETATM    1  C1  UNL     1      -4.669  46.529 -21.793  1.00  0.00     0.020 C 
HETATM    2  C2  UNL     1      -5.217  47.969 -21.959  1.00  0.00    -0.016 C 
HETATM    3  C3  UNL     1      -6.731  47.876 -21.605  1.00  0.00     0.022 C 
HETATM    4  C4  UNL     1      -7.554  49.043 -22.125  1.00  0.00     0.084 C 
HETATM    5  C5  UNL     1      -7.396  49.125 -23.622  1.00  0.00     0.149 C 
HETATM    6  O1  UNL     1      -8.323  49.430 -24.370  1.00  0.00    -0.293 OA
HETATM    7  C6  UNL     1      -6.039  48.915 -24.178  1.00  0.00     0.053 C 
HETATM    8  C7  UNL     1      -5.041  48.446 -23.409  1.00  0.00    -0.068 C 
HETATM    9  C8  UNL     1      -3.618  48.507 -23.904  1.00  0.00     0.035 C 
HETATM   10  C9  UNL     1      -2.819  49.468 -23.021  1.00  0.00     0.010 C 
HETATM   11  C10 UNL     1      -2.931  49.127 -21.524  1.00  0.00    -0.004 C 
HETATM   12  C11 UNL     1      -4.429  48.999 -21.071  1.00  0.00     0.002 C 
HETATM   13  C12 UNL     1      -4.537  48.748 -19.545  1.00  0.00     0.007 C 
HETATM   14  C13 UNL     1      -3.724  49.747 -18.701  1.00  0.00     0.013 C 
HETATM   15  C14 UNL     1      -2.250  49.818 -19.141  1.00  0.00    -0.002 C 
HETATM   16  C15 UNL     1      -1.549  48.466 -18.829  1.00  0.00     0.019 C 
HETATM   17  C16 UNL     1      -2.243  50.181 -20.646  1.00  0.00     0.002 C 
HETATM   18  C17 UNL     1      -0.783  50.516 -20.928  1.00  0.00     0.009 C 
HETATM   19  C18 UNL     1      -0.292  51.199 -19.637  1.00  0.00     0.047 C 
HETATM   20  C19 UNL     1      -1.407  51.002 -18.572  1.00  0.00     0.128 C 
ENDROOT
BRANCH  20  21
HETATM   21  O2  UNL     1      -2.196  52.196 -18.553  1.00  0.00    -0.381 OA
HETATM   22  H27 UNL     1      -1.624  52.927 -18.244  1.00  0.00     0.211 HD
ENDBRANCH  20  21
BRANCH  20  23
HETATM   23  C20 UNL     1      -0.844  50.750 -17.157  1.00  0.00     0.185 C 
HETATM   24  O3  UNL     1       0.352  50.881 -16.890  1.00  0.00    -0.292 OA
BRANCH  23  25
HETATM   25  C21 UNL     1      -1.841  50.302 -16.088  1.00  0.00     0.260 C 
BRANCH  25  26
HETATM   26  O4  UNL     1      -2.759  51.341 -15.743  1.00  0.00    -0.314 OA
BRANCH  26  27
HETATM   27  C22 UNL     1      -2.720  51.685 -14.424  1.00  0.00     0.259 C 
HETATM   28  O5  UNL     1      -3.574  52.371 -13.866  1.00  0.00    -0.265 OA
BRANCH  27  29
HETATM   29  C23 UNL     1      -1.455  51.213 -13.741  1.00  0.00     0.120 C 
BRANCH  29  30
HETATM   30  C24 UNL     1      -0.396  52.292 -13.548  1.00  0.00     0.112 C 
BRANCH  30  31
HETATM   31  C25 UNL     1       0.445  52.044 -12.313  1.00  0.00     0.217 C 
HETATM   32  O6  UNL     1       0.339  51.046 -11.613  1.00  0.00    -0.274 OA
HETATM   33  N1  UNL     1       1.331  53.067 -12.048  1.00  0.00    -0.361 N 
HETATM   34  H34 UNL     1       1.555  53.701 -12.808  1.00  0.00     0.162 HD
BRANCH  33  35
HETATM   35  C26 UNL     1       2.275  52.949 -10.955  1.00  0.00     0.122 C 
BRANCH  35  36
HETATM   36  C27 UNL     1       2.306  54.216 -10.107  1.00  0.00     0.020 C 
BRANCH  36  37
HETATM   37  C28 UNL     1       3.121  55.349 -10.736  1.00  0.00     0.002 C 
BRANCH  37  38
HETATM   38  C29 UNL     1       4.576  55.463 -10.272  1.00  0.00     0.010 C 
BRANCH  38  39
HETATM   39  C30 UNL     1       4.961  54.423  -9.219  1.00  0.00     0.110 C 
BRANCH  39  40
HETATM   40  C31 UNL     1       6.435  54.117  -9.258  1.00  0.00     0.139 C 
HETATM   41  O7  UNL     1       6.968  53.023  -9.207  1.00  0.00    -0.650 OA
BRANCH  40  42
HETATM   42  O8  UNL     1       7.175  55.236  -9.374  1.00  0.00    -0.776 OA
HETATM   43  H45 UNL     1       8.099  54.907  -9.378  1.00  0.00     0.167 HD
ENDBRANCH  40  42
ENDBRANCH  39  40
ENDBRANCH  38  39
ENDBRANCH  37  38
ENDBRANCH  36  37
ENDBRANCH  35  36
ENDBRANCH  33  35
ENDBRANCH  30  31
ENDBRANCH  29  30
ENDBRANCH  27  29
ENDBRANCH  26  27
ENDBRANCH  25  26
ENDBRANCH  23  25
ENDBRANCH  20  23
TORSDOF 15
ENDMDL
MODEL 7
REMARK minimizedAffinity -6.83298254
REMARK CNNscore 0.436843336
REMARK CNNaffinity 6.57769203
REMARK  15 active torsions:
REMARK  status: ('A' for Active; 'I' for Inactive)
REMARK    1  A    between atoms: C19_20  and  O2_21 
REMARK    2  A    between atoms: C19_20  and  C20_22 
REMARK    3  A    between atoms: C20_22  and  C21_24 
REMARK    4  A    between atoms: C21_24  and  O4_25 
REMARK    5  A    between atoms: O4_25  and  C22_26 
REMARK    6  A    between atoms: C22_26  and  C23_28 
REMARK    7  A    between atoms: C23_28  and  C24_29 
REMARK    8  A    between atoms: C24_29  and  C25_30 
REMARK       I    between atoms: C25_30  and  N1_32 
REMARK    9  A    between atoms: N1_32  and  C26_33 
REMARK   10  A    between atoms: C26_33  and  C27_34 
REMARK   11  A    between atoms: C27_34  and  C28_35 
REMARK   12  A    between atoms: C28_35  and  C29_36 
REMARK   13  A    between atoms: C29_36  and  C30_37 
REMARK   14  A    between atoms: C30_37  and  C31_38 
REMARK   15  A    between atoms: C31_38  and  O8_40 
ROOT
HETATM    1  C1  UNL     1      -3.492  45.958 -20.897  1.00  0.00     0.020 C 
HETATM    2  C2  UNL     1      -4.004  47.396 -21.169  1.00  0.00    -0.016 C 
HETATM    3  C3  UNL     1      -5.513  47.236 -21.520  1.00  0.00     0.022 C 
HETATM    4  C4  UNL     1      -6.100  48.432 -22.251  1.00  0.00     0.084 C 
HETATM    5  C5  UNL     1      -5.316  48.667 -23.517  1.00  0.00     0.149 C 
HETATM    6  O1  UNL     1      -5.845  49.025 -24.567  1.00  0.00    -0.293 OA
HETATM    7  C6  UNL     1      -3.842  48.542 -23.439  1.00  0.00     0.053 C 
HETATM    8  C7  UNL     1      -3.248  48.019 -22.352  1.00  0.00    -0.068 C 
HETATM    9  C8  UNL     1      -1.758  48.160 -22.168  1.00  0.00     0.035 C 
HETATM   10  C9  UNL     1      -1.482  49.045 -20.951  1.00  0.00     0.010 C 
HETATM   11  C10 UNL     1      -2.209  48.553 -19.686  1.00  0.00    -0.004 C 
HETATM   12  C11 UNL     1      -3.744  48.349 -19.945  1.00  0.00     0.002 C 
HETATM   13  C12 UNL     1      -4.486  47.944 -18.646  1.00  0.00     0.007 C 
HETATM   14  C13 UNL     1      -4.183  48.870 -17.453  1.00  0.00     0.013 C 
HETATM   15  C14 UNL     1      -2.671  49.016 -17.197  1.00  0.00    -0.002 C 
HETATM   16  C15 UNL     1      -2.091  47.655 -16.722  1.00  0.00     0.019 C 
HETATM   17  C16 UNL     1      -2.036  49.528 -18.514  1.00  0.00     0.002 C 
HETATM   18  C17 UNL     1      -0.622  49.921 -18.102  1.00  0.00     0.009 C 
HETATM   19  C18 UNL     1      -0.783  50.482 -16.675  1.00  0.00     0.047 C 
HETATM   20  C19 UNL     1      -2.235  50.155 -16.224  1.00  0.00     0.128 C 
ENDROOT
BRANCH  20  21
HETATM   21  O2  UNL     1      -3.027  51.324 -16.456  1.00  0.00    -0.381 OA
HETATM   22  H27 UNL     1      -2.693  52.033 -15.869  1.00  0.00     0.211 HD
ENDBRANCH  20  21
BRANCH  20  23
HETATM   23  C20 UNL     1      -2.325  49.774 -14.731  1.00  0.00     0.185 C 
HETATM   24  O3  UNL     1      -2.908  48.759 -14.343  1.00  0.00    -0.292 OA
BRANCH  23  25
HETATM   25  C21 UNL     1      -1.673  50.733 -13.735  1.00  0.00     0.260 C 
BRANCH  25  26
HETATM   26  O4  UNL     1      -2.464  50.903 -12.558  1.00  0.00    -0.314 OA
BRANCH  26  27
HETATM   27  C22 UNL     1      -3.375  51.913 -12.655  1.00  0.00     0.259 C 
HETATM   28  O5  UNL     1      -3.538  52.598 -13.661  1.00  0.00    -0.265 OA
BRANCH  27  29
HETATM   29  C23 UNL     1      -4.097  52.166 -11.349  1.00  0.00     0.120 C 
BRANCH  29  30
HETATM   30  C24 UNL     1      -3.905  53.566 -10.777  1.00  0.00     0.112 C 
BRANCH  30  31
HETATM   31  C25 UNL     1      -2.536  53.737 -10.151  1.00  0.00     0.217 C 
HETATM   32  O6  UNL     1      -2.194  53.185  -9.113  1.00  0.00    -0.274 OA
HETATM   33  N1  UNL     1      -1.720  54.591 -10.863  1.00  0.00    -0.361 N 
HETATM   34  H34 UNL     1      -1.964  54.774 -11.830  1.00  0.00     0.162 HD
BRANCH  33  35
HETATM   35  C26 UNL     1      -0.345  54.795 -10.453  1.00  0.00     0.122 C 
BRANCH  35  36
HETATM   36  C27 UNL     1      -0.260  55.676  -9.211  1.00  0.00     0.020 C 
BRANCH  36  37
HETATM   37  C28 UNL     1       0.955  55.372  -8.331  1.00  0.00     0.002 C 
BRANCH  37  38
HETATM   38  C29 UNL     1       2.206  54.882  -9.065  1.00  0.00     0.010 C 
BRANCH  38  39
HETATM   39  C30 UNL     1       2.652  55.812 -10.194  1.00  0.00     0.110 C 
BRANCH  39  40
HETATM   40  C31 UNL     1       4.115  55.642 -10.505  1.00  0.00     0.139 C 
HETATM   41  O7  UNL     1       5.006  55.319  -9.738  1.00  0.00    -0.650 OA
BRANCH  40  42
HETATM   42  O8  UNL     1       4.382  55.882 -11.803  1.00  0.00    -0.776 OA
HETATM   43  H45 UNL     1       5.352  55.750 -11.872  1.00  0.00     0.167 HD
ENDBRANCH  40  42
ENDBRANCH  39  40
ENDBRANCH  38  39
ENDBRANCH  37  38
ENDBRANCH  36  37
ENDBRANCH  35  36
ENDBRANCH  33  35
ENDBRANCH  30  31
ENDBRANCH  29  30
ENDBRANCH  27  29
ENDBRANCH  26  27
ENDBRANCH  25  26
ENDBRANCH  23  25
ENDBRANCH  20  23
TORSDOF 15
ENDMDL
MODEL 8
REMARK minimizedAffinity -8.12367153
REMARK CNNscore 0.427456945
REMARK CNNaffinity 6.83687449
REMARK  15 active torsions:
REMARK  status: ('A' for Active; 'I' for Inactive)
REMARK    1  A    between atoms: C19_20  and  O2_21 
REMARK    2  A    between atoms: C19_20  and  C20_22 
REMARK    3  A    between atoms: C20_22  and  C21_24 
REMARK    4  A    between atoms: C21_24  and  O4_25 
REMARK    5  A    between atoms: O4_25  and  C22_26 
REMARK    6  A    between atoms: C22_26  and  C23_28 
REMARK    7  A    between atoms: C23_28  and  C24_29 
REMARK    8  A    between atoms: C24_29  and  C25_30 
REMARK       I    between atoms: C25_30  and  N1_32 
REMARK    9  A    between atoms: N1_32  and  C26_33 
REMARK   10  A    between atoms: C26_33  and  C27_34 
REMARK   11  A    between atoms: C27_34  and  C28_35 
REMARK   12  A    between atoms: C28_35  and  C29_36 
REMARK   13  A    between atoms: C29_36  and  C30_37 
REMARK   14  A    between atoms: C30_37  and  C31_38 
REMARK   15  A    between atoms: C31_38  and  O8_40 
ROOT
HETATM    1  C1  UNL     1      -2.061  53.020 -24.667  1.00  0.00     0.020 C 
HETATM    2  C2  UNL     1      -0.952  51.948 -24.828  1.00  0.00    -0.016 C 
HETATM    3  C3  UNL     1       0.382  52.747 -24.921  1.00  0.00     0.022 C 
HETATM    4  C4  UNL     1       1.528  51.954 -25.526  1.00  0.00     0.084 C 
HETATM    5  C5  UNL     1       1.130  51.487 -26.902  1.00  0.00     0.149 C 
HETATM    6  O1  UNL     1       1.920  51.446 -27.842  1.00  0.00    -0.293 OA
HETATM    7  C6  UNL     1      -0.251  50.977 -27.077  1.00  0.00     0.053 C 
HETATM    8  C7  UNL     1      -1.175  51.137 -26.113  1.00  0.00    -0.068 C 
HETATM    9  C8  UNL     1      -2.473  50.374 -26.183  1.00  0.00     0.035 C 
HETATM   10  C9  UNL     1      -2.539  49.385 -25.018  1.00  0.00     0.010 C 
HETATM   11  C10 UNL     1      -2.300  50.060 -23.655  1.00  0.00    -0.004 C 
HETATM   12  C11 UNL     1      -0.976  50.904 -23.652  1.00  0.00     0.002 C 
HETATM   13  C12 UNL     1      -0.692  51.504 -22.252  1.00  0.00     0.007 C 
HETATM   14  C13 UNL     1      -0.761  50.468 -21.116  1.00  0.00     0.013 C 
HETATM   15  C14 UNL     1      -2.087  49.687 -21.117  1.00  0.00    -0.002 C 
HETATM   16  C15 UNL     1      -3.257  50.648 -20.766  1.00  0.00     0.019 C 
HETATM   17  C16 UNL     1      -2.228  49.035 -22.515  1.00  0.00     0.002 C 
HETATM   18  C17 UNL     1      -3.388  48.062 -22.343  1.00  0.00     0.009 C 
HETATM   19  C18 UNL     1      -3.235  47.536 -20.902  1.00  0.00     0.047 C 
HETATM   20  C19 UNL     1      -2.150  48.415 -20.217  1.00  0.00     0.128 C 
ENDROOT
BRANCH  20  21
HETATM   21  O2  UNL     1      -0.912  47.701 -20.294  1.00  0.00    -0.381 OA
HETATM   22  H27 UNL     1      -1.004  46.884 -19.763  1.00  0.00     0.211 HD
ENDBRANCH  20  21
BRANCH  20  23
HETATM   23  C20 UNL     1      -2.468  48.708 -18.735  1.00  0.00     0.185 C 
HETATM   24  O3  UNL     1      -3.594  48.548 -18.258  1.00  0.00    -0.292 OA
BRANCH  23  25
HETATM   25  C21 UNL     1      -1.320  49.236 -17.875  1.00  0.00     0.260 C 
BRANCH  25  26
HETATM   26  O4  UNL     1      -1.503  50.607 -17.518  1.00  0.00    -0.314 OA
BRANCH  26  27
HETATM   27  C22 UNL     1      -2.053  50.779 -16.283  1.00  0.00     0.259 C 
HETATM   28  O5  UNL     1      -3.154  51.286 -16.083  1.00  0.00    -0.265 OA
BRANCH  27  29
HETATM   29  C23 UNL     1      -1.113  50.368 -15.170  1.00  0.00     0.120 C 
BRANCH  29  30
HETATM   30  C24 UNL     1      -0.970  51.389 -14.048  1.00  0.00     0.112 C 
BRANCH  30  31
HETATM   31  C25 UNL     1      -2.168  51.380 -13.120  1.00  0.00     0.217 C 
HETATM   32  O6  UNL     1      -2.566  50.378 -12.541  1.00  0.00    -0.274 OA
HETATM   33  N1  UNL     1      -2.773  52.614 -13.008  1.00  0.00    -0.361 N 
HETATM   34  H34 UNL     1      -2.233  53.427 -13.280  1.00  0.00     0.162 HD
BRANCH  33  35
HETATM   35  C26 UNL     1      -3.878  52.802 -12.089  1.00  0.00     0.122 C 
BRANCH  35  36
HETATM   36  C27 UNL     1      -3.557  53.866 -11.045  1.00  0.00     0.020 C 
BRANCH  36  37
HETATM   37  C28 UNL     1      -2.104  53.830 -10.566  1.00  0.00     0.002 C 
BRANCH  37  38
HETATM   38  C29 UNL     1      -1.471  55.187 -10.247  1.00  0.00     0.010 C 
BRANCH  38  39
HETATM   39  C30 UNL     1       0.029  55.106  -9.956  1.00  0.00     0.110 C 
BRANCH  39  40
HETATM   40  C31 UNL     1       0.361  55.678  -8.604  1.00  0.00     0.139 C 
HETATM   41  O7  UNL     1       1.402  55.558  -7.982  1.00  0.00    -0.650 OA
BRANCH  40  42
HETATM   42  O8  UNL     1      -0.658  56.401  -8.103  1.00  0.00    -0.776 OA
HETATM   43  H45 UNL     1      -0.324  56.705  -7.231  1.00  0.00     0.167 HD
ENDBRANCH  40  42
ENDBRANCH  39  40
ENDBRANCH  38  39
ENDBRANCH  37  38
ENDBRANCH  36  37
ENDBRANCH  35  36
ENDBRANCH  33  35
ENDBRANCH  30  31
ENDBRANCH  29  30
ENDBRANCH  27  29
ENDBRANCH  26  27
ENDBRANCH  25  26
ENDBRANCH  23  25
ENDBRANCH  20  23
TORSDOF 15
ENDMDL
MODEL 9
REMARK minimizedAffinity -8.08386993
REMARK CNNscore 0.378958911
REMARK CNNaffinity 6.24302149
REMARK  15 active torsions:
REMARK  status: ('A' for Active; 'I' for Inactive)
REMARK    1  A    between atoms: C19_20  and  O2_21 
REMARK    2  A    between atoms: C19_20  and  C20_22 
REMARK    3  A    between atoms: C20_22  and  C21_24 
REMARK    4  A    between atoms: C21_24  and  O4_25 
REMARK    5  A    between atoms: O4_25  and  C22_26 
REMARK    6  A    between atoms: C22_26  and  C23_28 
REMARK    7  A    between atoms: C23_28  and  C24_29 
REMARK    8  A    between atoms: C24_29  and  C25_30 
REMARK       I    between atoms: C25_30  and  N1_32 
REMARK    9  A    between atoms: N1_32  and  C26_33 
REMARK   10  A    between atoms: C26_33  and  C27_34 
REMARK   11  A    between atoms: C27_34  and  C28_35 
REMARK   12  A    between atoms: C28_35  and  C29_36 
REMARK   13  A    between atoms: C29_36  and  C30_37 
REMARK   14  A    between atoms: C30_37  and  C31_38 
REMARK   15  A    between atoms: C31_38  and  O8_40 
ROOT
HETATM    1  C1  UNL     1      -0.431  49.382 -20.358  1.00  0.00     0.020 C 
HETATM    2  C2  UNL     1      -0.769  50.802 -20.882  1.00  0.00    -0.016 C 
HETATM    3  C3  UNL     1       0.469  51.234 -21.724  1.00  0.00     0.022 C 
HETATM    4  C4  UNL     1       0.559  52.734 -21.953  1.00  0.00     0.084 C 
HETATM    5  C5  UNL     1       0.595  53.432 -20.618  1.00  0.00     0.149 C 
HETATM    6  O1  UNL     1       1.285  54.428 -20.410  1.00  0.00    -0.293 OA
HETATM    7  C6  UNL     1      -0.316  52.933 -19.561  1.00  0.00     0.053 C 
HETATM    8  C7  UNL     1      -0.976  51.770 -19.709  1.00  0.00    -0.068 C 
HETATM    9  C8  UNL     1      -2.102  51.420 -18.769  1.00  0.00     0.035 C 
HETATM   10  C9  UNL     1      -3.416  51.383 -19.550  1.00  0.00     0.010 C 
HETATM   11  C10 UNL     1      -3.344  50.466 -20.785  1.00  0.00    -0.004 C 
HETATM   12  C11 UNL     1      -2.114  50.818 -21.695  1.00  0.00     0.002 C 
HETATM   13  C12 UNL     1      -2.100  49.956 -22.982  1.00  0.00     0.007 C 
HETATM   14  C13 UNL     1      -3.442  49.958 -23.737  1.00  0.00     0.013 C 
HETATM   15  C14 UNL     1      -4.623  49.567 -22.829  1.00  0.00    -0.002 C 
HETATM   16  C15 UNL     1      -4.480  48.080 -22.403  1.00  0.00     0.019 C 
HETATM   17  C16 UNL     1      -4.621  50.551 -21.633  1.00  0.00     0.002 C 
HETATM   18  C17 UNL     1      -5.960  50.293 -20.952  1.00  0.00     0.009 C 
HETATM   19  C18 UNL     1      -6.925  49.988 -22.114  1.00  0.00     0.047 C 
HETATM   20  C19 UNL     1      -6.054  49.829 -23.392  1.00  0.00     0.128 C 
ENDROOT
BRANCH  20  21
HETATM   21  O2  UNL     1      -6.083  51.080 -24.087  1.00  0.00    -0.381 OA
HETATM   22  H27 UNL     1      -7.004  51.238 -24.380  1.00  0.00     0.211 HD
ENDBRANCH  20  21
BRANCH  20  23
HETATM   23  C20 UNL     1      -6.571  48.720 -24.334  1.00  0.00     0.185 C 
HETATM   24  O3  UNL     1      -5.839  48.149 -25.145  1.00  0.00    -0.292 OA
BRANCH  23  25
HETATM   25  C21 UNL     1      -8.056  48.368 -24.233  1.00  0.00     0.260 C 
BRANCH  25  26
HETATM   26  O4  UNL     1      -8.855  49.160 -25.114  1.00  0.00    -0.314 OA
BRANCH  26  27
HETATM   27  C22 UNL     1      -9.823  48.449 -25.758  1.00  0.00     0.259 C 
HETATM   28  O5  UNL     1     -10.899  48.920 -26.118  1.00  0.00    -0.265 OA
BRANCH  27  29
HETATM   29  C23 UNL     1      -9.470  46.984 -25.893  1.00  0.00     0.120 C 
BRANCH  29  30
HETATM   30  C24 UNL     1      -9.952  46.330 -27.183  1.00  0.00     0.112 C 
BRANCH  30  31
HETATM   31  C25 UNL     1     -11.189  45.484 -26.960  1.00  0.00     0.217 C 
HETATM   32  O6  UNL     1     -11.322  44.352 -27.407  1.00  0.00    -0.274 OA
HETATM   33  N1  UNL     1     -12.155  46.127 -26.216  1.00  0.00    -0.361 N 
HETATM   34  H34 UNL     1     -11.865  46.921 -25.658  1.00  0.00     0.162 HD
BRANCH  33  35
HETATM   35  C26 UNL     1     -13.365  45.426 -25.833  1.00  0.00     0.122 C 
BRANCH  35  36
HETATM   36  C27 UNL     1     -14.551  46.379 -25.730  1.00  0.00     0.020 C 
BRANCH  36  37
HETATM   37  C28 UNL     1     -14.751  46.952 -24.325  1.00  0.00     0.002 C 
BRANCH  37  38
HETATM   38  C29 UNL     1     -16.203  47.080 -23.856  1.00  0.00     0.010 C 
BRANCH  38  39
HETATM   39  C30 UNL     1     -17.223  46.658 -24.914  1.00  0.00     0.110 C 
BRANCH  39  40
HETATM   40  C31 UNL     1     -18.634  46.797 -24.408  1.00  0.00     0.139 C 
HETATM   41  O7  UNL     1     -19.640  47.017 -25.061  1.00  0.00    -0.650 OA
BRANCH  40  42
HETATM   42  O8  UNL     1     -18.706  46.632 -23.074  1.00  0.00    -0.776 OA
HETATM   43  H45 UNL     1     -19.658  46.754 -22.872  1.00  0.00     0.167 HD
ENDBRANCH  40  42
ENDBRANCH  39  40
ENDBRANCH  38  39
ENDBRANCH  37  38
ENDBRANCH  36  37
ENDBRANCH  35  36
ENDBRANCH  33  35
ENDBRANCH  30  31
ENDBRANCH  29  30
ENDBRANCH  27  29
ENDBRANCH  26  27
ENDBRANCH  25  26
ENDBRANCH  23  25
ENDBRANCH  20  23
TORSDOF 15
ENDMDL
