MODEL 1
REMARK minimizedAffinity -8.4078598
REMARK CNNscore 0.171473429
REMARK CNNaffinity 7.03845978
REMARK  12 active torsions:
REMARK  status: ('A' for Active; 'I' for Inactive)
REMARK    1  A    between atoms: C3_3  and  C4_4 
REMARK    2  A    between atoms: C4_4  and  C5_5 
REMARK    3  A    between atoms: C4_4  and  N3_26 
REMARK       I    between atoms: C5_5  and  N1_7 
REMARK    4  A    between atoms: N1_7  and  C6_8 
REMARK    5  A    between atoms: C6_8  and  C7_9 
REMARK    6  A    between atoms: C6_8  and  C15_19 
REMARK    7  A    between atoms: C8_10  and  C9_11 
REMARK    8  A    between atoms: C9_11  and  O3_13 
REMARK    9  A    between atoms: O3_13  and  C10_14 
REMARK   10  A    between atoms: C15_19  and  C16_20 
REMARK   11  A    between atoms: C23_30  and  N4_31 
REMARK       I    between atoms: N4_31  and  C24_32 
REMARK   12  A    between atoms: C24_32  and  C25_34 
ROOT
HETATM    1  C1  UNL     1      -0.886   1.489  10.959  1.00  0.00     0.012 C 
HETATM    2  C2  UNL     1      -1.708   2.361  10.887  1.00  0.00    -0.115 C 
HETATM    3  C3  UNL     1      -2.718   3.432  10.820  1.00  0.00     0.128 C 
ENDROOT
BRANCH   3   4
HETATM    4  C4  UNL     1      -3.327   3.773  12.199  1.00  0.00     0.195 C 
BRANCH   4   5
HETATM    5  C5  UNL     1      -3.046   5.254  12.563  1.00  0.00     0.242 C 
HETATM    6  O1  UNL     1      -3.788   6.167  12.208  1.00  0.00    -0.271 OA
HETATM    7  N1  UNL     1      -1.950   5.483  13.371  1.00  0.00    -0.351 N 
HETATM    8  H5  UNL     1      -1.297   4.719  13.484  1.00  0.00     0.163 HD
BRANCH   7   9
HETATM    9  C6  UNL     1      -1.520   6.813  13.761  1.00  0.00     0.108 C 
BRANCH   9  10
HETATM   10  C7  UNL     1      -0.107   6.948  13.252  1.00  0.00     0.004 C 
HETATM   11  C8  UNL     1       0.261   7.838  12.314  1.00  0.00     0.080 C 
BRANCH  11  12
HETATM   12  C9  UNL     1       1.653   8.039  11.859  1.00  0.00     0.283 C 
HETATM   13  O2  UNL     1       2.256   9.085  12.039  1.00  0.00    -0.260 OA
BRANCH  12  14
HETATM   14  O3  UNL     1       2.147   6.910  11.292  1.00  0.00    -0.313 OA
BRANCH  14  15
HETATM   15  C10 UNL     1       1.818   6.718   9.915  1.00  0.00     0.132 C 
HETATM   16  C11 UNL     1       2.951   7.173   9.004  1.00  0.00     0.032 C 
HETATM   17  C12 UNL     1       2.235   7.488   7.703  1.00  0.00     0.002 C 
HETATM   18  C13 UNL     1       0.953   8.178   8.152  1.00  0.00     0.002 C 
HETATM   19  C14 UNL     1       0.638   7.617   9.539  1.00  0.00     0.032 C 
ENDBRANCH  14  15
ENDBRANCH  12  14
ENDBRANCH  11  12
ENDBRANCH   9  10
BRANCH   9  20
HETATM   20  C15 UNL     1      -1.535   7.000  15.297  1.00  0.00     0.043 C 
BRANCH  20  21
HETATM   21  C16 UNL     1      -2.011   8.356  15.824  1.00  0.00     0.081 C 
HETATM   22  C17 UNL     1      -2.782   9.263  14.865  1.00  0.00     0.034 C 
HETATM   23  C18 UNL     1      -2.508  10.663  15.393  1.00  0.00     0.123 C 
HETATM   24  N2  UNL     1      -1.247  10.547  16.056  1.00  0.00    -0.361 N 
HETATM   25  C19 UNL     1      -0.882   9.244  16.301  1.00  0.00     0.222 C 
HETATM   26  H25 UNL     1      -0.626  11.317  16.281  1.00  0.00     0.162 HD
HETATM   27  O4  UNL     1       0.146   8.884  16.844  1.00  0.00    -0.273 OA
ENDBRANCH  20  21
ENDBRANCH   9  20
ENDBRANCH   7   9
ENDBRANCH   4   5
BRANCH   4  28
HETATM   28  N3  UNL     1      -4.772   3.416  12.294  1.00  0.00    -0.308 N 
HETATM   29  C20 UNL     1      -5.237   2.190  11.839  1.00  0.00     0.095 A 
HETATM   30  C21 UNL     1      -6.531   1.864  11.924  1.00  0.00     0.020 A 
HETATM   31  C22 UNL     1      -7.476   2.774  12.519  1.00  0.00     0.037 A 
HETATM   32  C23 UNL     1      -7.097   3.978  12.973  1.00  0.00     0.104 A 
HETATM   33  C29 UNL     1      -5.640   4.371  12.837  1.00  0.00     0.275 A 
HETATM   34  O7  UNL     1      -5.291   5.492  13.204  1.00  0.00    -0.265 OA
BRANCH  32  35
HETATM   35  N4  UNL     1      -7.904   4.916  13.578  1.00  0.00    -0.317 N 
HETATM   36  C24 UNL     1      -8.792   5.808  13.007  1.00  0.00     0.274 C 
HETATM   37  O5  UNL     1      -8.970   5.959  11.802  1.00  0.00    -0.266 OA
HETATM   38  H29 UNL     1      -7.865   4.926  14.602  1.00  0.00     0.169 HD
BRANCH  36  39
HETATM   39  C25 UNL     1      -9.528   6.607  13.993  1.00  0.00     0.125 A 
HETATM   40  C26 UNL     1      -8.996   7.553  14.906  1.00  0.00     0.071 A 
HETATM   41  C27 UNL     1     -10.086   8.007  15.607  1.00  0.00     0.075 A 
HETATM   42  C28 UNL     1     -10.269   8.960  16.716  1.00  0.00     0.079 C 
HETATM   43  O6  UNL     1     -11.204   7.388  15.146  1.00  0.00    -0.242 OA
HETATM   44  N5  UNL     1     -10.862   6.510  14.132  1.00  0.00    -0.256 N 
ATOM     45  H5  UNL     1     -11.493   5.912  13.599  1.00  0.00     0.195 HD
ENDBRANCH  36  39
ENDBRANCH  32  35
ENDBRANCH   4  28
ENDBRANCH   3   4
TORSDOF 12
ENDMDL
MODEL 2
REMARK minimizedAffinity -9.03390694
REMARK CNNscore 0.137247384
REMARK CNNaffinity 6.86758471
REMARK  12 active torsions:
REMARK  status: ('A' for Active; 'I' for Inactive)
REMARK    1  A    between atoms: C3_3  and  C4_4 
REMARK    2  A    between atoms: C4_4  and  C5_5 
REMARK    3  A    between atoms: C4_4  and  N3_26 
REMARK       I    between atoms: C5_5  and  N1_7 
REMARK    4  A    between atoms: N1_7  and  C6_8 
REMARK    5  A    between atoms: C6_8  and  C7_9 
REMARK    6  A    between atoms: C6_8  and  C15_19 
REMARK    7  A    between atoms: C8_10  and  C9_11 
REMARK    8  A    between atoms: C9_11  and  O3_13 
REMARK    9  A    between atoms: O3_13  and  C10_14 
REMARK   10  A    between atoms: C15_19  and  C16_20 
REMARK   11  A    between atoms: C23_30  and  N4_31 
REMARK       I    between atoms: N4_31  and  C24_32 
REMARK   12  A    between atoms: C24_32  and  C25_34 
ROOT
HETATM    1  C1  UNL     1       0.703   7.583  15.639  1.00  0.00     0.012 C 
HETATM    2  C2  UNL     1      -0.469   7.326  15.614  1.00  0.00    -0.115 C 
HETATM    3  C3  UNL     1      -1.906   7.001  15.563  1.00  0.00     0.128 C 
ENDROOT
BRANCH   3   4
HETATM    4  C4  UNL     1      -2.365   6.520  14.168  1.00  0.00     0.195 C 
BRANCH   4   5
HETATM    5  C5  UNL     1      -3.913   6.542  14.070  1.00  0.00     0.242 C 
HETATM    6  O1  UNL     1      -4.498   6.846  13.033  1.00  0.00    -0.271 OA
HETATM    7  N1  UNL     1      -4.598   6.133  15.196  1.00  0.00    -0.351 N 
HETATM    8  H5  UNL     1      -4.068   6.060  16.054  1.00  0.00     0.163 HD
BRANCH   7   9
HETATM    9  C6  UNL     1      -6.047   6.143  15.287  1.00  0.00     0.108 C 
BRANCH   9  10
HETATM   10  C7  UNL     1      -6.537   5.472  14.028  1.00  0.00     0.004 C 
HETATM   11  C8  UNL     1      -6.761   4.150  13.932  1.00  0.00     0.080 C 
BRANCH  11  12
HETATM   12  C9  UNL     1      -7.315   3.486  12.734  1.00  0.00     0.283 C 
HETATM   13  O2  UNL     1      -8.221   2.671  12.797  1.00  0.00    -0.260 OA
BRANCH  12  14
HETATM   14  O3  UNL     1      -6.724   3.949  11.604  1.00  0.00    -0.313 OA
BRANCH  14  15
HETATM   15  C10 UNL     1      -5.637   3.164  11.110  1.00  0.00     0.132 C 
HETATM   16  C11 UNL     1      -5.701   1.735  11.635  1.00  0.00     0.032 C 
HETATM   17  C12 UNL     1      -4.254   1.281  11.559  1.00  0.00     0.002 C 
HETATM   18  C13 UNL     1      -3.466   2.500  12.023  1.00  0.00     0.002 C 
HETATM   19  C14 UNL     1      -4.317   3.715  11.655  1.00  0.00     0.032 C 
ENDBRANCH  14  15
ENDBRANCH  12  14
ENDBRANCH  11  12
ENDBRANCH   9  10
BRANCH   9  20
HETATM   20  C15 UNL     1      -6.613   7.581  15.359  1.00  0.00     0.043 C 
BRANCH  20  21
HETATM   21  C16 UNL     1      -8.092   7.760  15.012  1.00  0.00     0.081 C 
HETATM   22  C17 UNL     1      -8.670   9.174  15.060  1.00  0.00     0.034 C 
HETATM   23  C18 UNL     1     -10.148   8.952  15.349  1.00  0.00     0.123 C 
HETATM   24  N2  UNL     1     -10.185   7.701  16.041  1.00  0.00    -0.361 N 
HETATM   25  C19 UNL     1      -9.020   6.981  15.920  1.00  0.00     0.222 C 
HETATM   26  H25 UNL     1     -10.947   7.373  16.624  1.00  0.00     0.162 HD
HETATM   27  O4  UNL     1      -8.802   5.893  16.422  1.00  0.00    -0.273 OA
ENDBRANCH  20  21
ENDBRANCH   9  20
ENDBRANCH   7   9
ENDBRANCH   4   5
BRANCH   4  28
HETATM   28  N3  UNL     1      -1.702   7.261  13.056  1.00  0.00    -0.308 N 
HETATM   29  C20 UNL     1      -1.962   8.608  12.841  1.00  0.00     0.095 A 
HETATM   30  C21 UNL     1      -1.369   9.278  11.847  1.00  0.00     0.020 A 
HETATM   31  C22 UNL     1      -0.420   8.619  10.987  1.00  0.00     0.037 A 
HETATM   32  C23 UNL     1      -0.127   7.319  11.134  1.00  0.00     0.104 A 
HETATM   33  C29 UNL     1      -0.831   6.543  12.229  1.00  0.00     0.275 A 
HETATM   34  O7  UNL     1      -0.607   5.339  12.340  1.00  0.00    -0.265 OA
BRANCH  32  35
HETATM   35  N4  UNL     1       0.777   6.594  10.389  1.00  0.00    -0.317 N 
HETATM   36  C24 UNL     1       1.957   7.007   9.800  1.00  0.00     0.274 C 
HETATM   37  O5  UNL     1       2.382   8.159   9.792  1.00  0.00    -0.266 OA
HETATM   38  H29 UNL     1       0.559   5.598  10.291  1.00  0.00     0.169 HD
BRANCH  36  39
HETATM   39  C25 UNL     1       2.689   5.920   9.141  1.00  0.00     0.125 A 
HETATM   40  C26 UNL     1       3.483   4.917   9.755  1.00  0.00     0.071 A 
HETATM   41  C27 UNL     1       3.953   4.160   8.711  1.00  0.00     0.075 A 
HETATM   42  C28 UNL     1       4.846   2.993   8.610  1.00  0.00     0.079 C 
HETATM   43  O6  UNL     1       3.471   4.660   7.543  1.00  0.00    -0.242 OA
HETATM   44  N5  UNL     1       2.676   5.763   7.805  1.00  0.00    -0.256 N 
ATOM     45  H5  UNL     1       2.182   6.340   7.124  1.00  0.00     0.195 HD
ENDBRANCH  36  39
ENDBRANCH  32  35
ENDBRANCH   4  28
ENDBRANCH   3   4
TORSDOF 12
ENDMDL
MODEL 3
REMARK minimizedAffinity -8.4962225
REMARK CNNscore 0.121628374
REMARK CNNaffinity 6.68211603
REMARK  12 active torsions:
REMARK  status: ('A' for Active; 'I' for Inactive)
REMARK    1  A    between atoms: C3_3  and  C4_4 
REMARK    2  A    between atoms: C4_4  and  C5_5 
REMARK    3  A    between atoms: C4_4  and  N3_26 
REMARK       I    between atoms: C5_5  and  N1_7 
REMARK    4  A    between atoms: N1_7  and  C6_8 
REMARK    5  A    between atoms: C6_8  and  C7_9 
REMARK    6  A    between atoms: C6_8  and  C15_19 
REMARK    7  A    between atoms: C8_10  and  C9_11 
REMARK    8  A    between atoms: C9_11  and  O3_13 
REMARK    9  A    between atoms: O3_13  and  C10_14 
REMARK   10  A    between atoms: C15_19  and  C16_20 
REMARK   11  A    between atoms: C23_30  and  N4_31 
REMARK       I    between atoms: N4_31  and  C24_32 
REMARK   12  A    between atoms: C24_32  and  C25_34 
ROOT
HETATM    1  C1  UNL     1       0.517   8.235  11.120  1.00  0.00     0.012 C 
HETATM    2  C2  UNL     1       0.733   7.329  11.876  1.00  0.00    -0.115 C 
HETATM    3  C3  UNL     1       0.994   6.227  12.820  1.00  0.00     0.128 C 
ENDROOT
BRANCH   3   4
HETATM    4  C4  UNL     1       1.105   6.705  14.286  1.00  0.00     0.195 C 
BRANCH   4   5
HETATM    5  C5  UNL     1       2.179   7.817  14.413  1.00  0.00     0.242 C 
HETATM    6  O1  UNL     1       1.883   8.990  14.631  1.00  0.00    -0.271 OA
HETATM    7  N1  UNL     1       3.493   7.403  14.338  1.00  0.00    -0.351 N 
HETATM    8  H5  UNL     1       3.660   6.466  13.994  1.00  0.00     0.163 HD
BRANCH   7   9
HETATM    9  C6  UNL     1       4.616   8.322  14.387  1.00  0.00     0.108 C 
BRANCH   9  10
HETATM   10  C7  UNL     1       5.169   8.362  12.985  1.00  0.00     0.004 C 
HETATM   11  C8  UNL     1       4.429   8.661  11.904  1.00  0.00     0.080 C 
BRANCH  11  12
HETATM   12  C9  UNL     1       4.969   8.781  10.534  1.00  0.00     0.283 C 
HETATM   13  O2  UNL     1       5.607   9.754  10.164  1.00  0.00    -0.260 OA
BRANCH  12  14
HETATM   14  O3  UNL     1       4.705   7.666   9.807  1.00  0.00    -0.313 OA
BRANCH  14  15
HETATM   15  C10 UNL     1       3.359   7.534   9.347  1.00  0.00     0.132 C 
HETATM   16  C11 UNL     1       3.137   6.196   8.655  1.00  0.00     0.032 C 
HETATM   17  C12 UNL     1       1.962   6.479   7.736  1.00  0.00     0.002 C 
HETATM   18  C13 UNL     1       2.258   7.870   7.187  1.00  0.00     0.002 C 
HETATM   19  C14 UNL     1       3.083   8.578   8.262  1.00  0.00     0.032 C 
ENDBRANCH  14  15
ENDBRANCH  12  14
ENDBRANCH  11  12
ENDBRANCH   9  10
BRANCH   9  20
HETATM   20  C15 UNL     1       5.716   7.842  15.363  1.00  0.00     0.043 C 
BRANCH  20  21
HETATM   21  C16 UNL     1       7.109   8.449  15.187  1.00  0.00     0.081 C 
HETATM   22  C17 UNL     1       8.231   7.533  14.697  1.00  0.00     0.034 C 
HETATM   23  C18 UNL     1       9.492   8.172  15.260  1.00  0.00     0.123 C 
HETATM   24  N2  UNL     1       9.042   8.869  16.424  1.00  0.00    -0.361 N 
HETATM   25  C19 UNL     1       7.677   9.030  16.465  1.00  0.00     0.222 C 
HETATM   26  H25 UNL     1       9.629   9.171  17.194  1.00  0.00     0.162 HD
HETATM   27  O4  UNL     1       7.052   9.581  17.353  1.00  0.00    -0.273 OA
ENDBRANCH  20  21
ENDBRANCH   9  20
ENDBRANCH   7   9
ENDBRANCH   4   5
BRANCH   4  28
HETATM   28  N3  UNL     1      -0.212   7.102  14.863  1.00  0.00    -0.308 N 
HETATM   29  C20 UNL     1      -0.312   8.162  15.755  1.00  0.00     0.095 A 
HETATM   30  C21 UNL     1      -1.490   8.523  16.273  1.00  0.00     0.020 A 
HETATM   31  C22 UNL     1      -2.697   7.832  15.895  1.00  0.00     0.037 A 
HETATM   32  C23 UNL     1      -2.672   6.795  15.045  1.00  0.00     0.104 A 
HETATM   33  C29 UNL     1      -1.333   6.353  14.490  1.00  0.00     0.275 A 
HETATM   34  O7  UNL     1      -1.294   5.372  13.748  1.00  0.00    -0.265 OA
BRANCH  32  35
HETATM   35  N4  UNL     1      -3.760   6.079  14.596  1.00  0.00    -0.317 N 
HETATM   36  C24 UNL     1      -4.710   6.427  13.653  1.00  0.00     0.274 C 
HETATM   37  O5  UNL     1      -4.777   7.510  13.079  1.00  0.00    -0.266 OA
HETATM   38  H29 UNL     1      -3.855   5.139  14.992  1.00  0.00     0.169 HD
BRANCH  36  39
HETATM   39  C25 UNL     1      -5.685   5.363  13.391  1.00  0.00     0.125 A 
HETATM   40  C26 UNL     1      -5.424   4.048  12.929  1.00  0.00     0.071 A 
HETATM   41  C27 UNL     1      -6.662   3.462  12.836  1.00  0.00     0.075 A 
HETATM   42  C28 UNL     1      -7.141   2.139  12.399  1.00  0.00     0.079 C 
HETATM   43  O6  UNL     1      -7.610   4.354  13.225  1.00  0.00    -0.242 OA
HETATM   44  N5  UNL     1      -7.004   5.549  13.576  1.00  0.00    -0.256 N 
ATOM     45  H5  UNL     1      -7.464   6.396  13.907  1.00  0.00     0.195 HD
ENDBRANCH  36  39
ENDBRANCH  32  35
ENDBRANCH   4  28
ENDBRANCH   3   4
TORSDOF 12
ENDMDL
MODEL 4
REMARK minimizedAffinity -8.01996708
REMARK CNNscore 0.118011959
REMARK CNNaffinity 5.01563311
REMARK  12 active torsions:
REMARK  status: ('A' for Active; 'I' for Inactive)
REMARK    1  A    between atoms: C3_3  and  C4_4 
REMARK    2  A    between atoms: C4_4  and  C5_5 
REMARK    3  A    between atoms: C4_4  and  N3_26 
REMARK       I    between atoms: C5_5  and  N1_7 
REMARK    4  A    between atoms: N1_7  and  C6_8 
REMARK    5  A    between atoms: C6_8  and  C7_9 
REMARK    6  A    between atoms: C6_8  and  C15_19 
REMARK    7  A    between atoms: C8_10  and  C9_11 
REMARK    8  A    between atoms: C9_11  and  O3_13 
REMARK    9  A    between atoms: O3_13  and  C10_14 
REMARK   10  A    between atoms: C15_19  and  C16_20 
REMARK   11  A    between atoms: C23_30  and  N4_31 
REMARK       I    between atoms: N4_31  and  C24_32 
REMARK   12  A    between atoms: C24_32  and  C25_34 
ROOT
HETATM    1  C1  UNL     1       2.427  12.605  14.389  1.00  0.00     0.012 C 
HETATM    2  C2  UNL     1       2.313  11.481  14.795  1.00  0.00    -0.115 C 
HETATM    3  C3  UNL     1       2.153  10.103  15.292  1.00  0.00     0.128 C 
ENDROOT
BRANCH   3   4
HETATM    4  C4  UNL     1       0.681   9.737  15.589  1.00  0.00     0.195 C 
BRANCH   4   5
HETATM    5  C5  UNL     1       0.453   8.214  15.400  1.00  0.00     0.242 C 
HETATM    6  O1  UNL     1       0.598   7.413  16.320  1.00  0.00    -0.271 OA
HETATM    7  N1  UNL     1       0.008   7.817  14.155  1.00  0.00    -0.351 N 
HETATM    8  H5  UNL     1       0.072   8.496  13.408  1.00  0.00     0.163 HD
BRANCH   7   9
HETATM    9  C6  UNL     1      -0.205   6.426  13.799  1.00  0.00     0.108 C 
BRANCH   9  10
HETATM   10  C7  UNL     1       1.026   6.011  13.034  1.00  0.00     0.004 C 
HETATM   11  C8  UNL     1       1.018   5.707  11.724  1.00  0.00     0.080 C 
BRANCH  11  12
HETATM   12  C9  UNL     1       2.225   5.374  10.940  1.00  0.00     0.283 C 
HETATM   13  O2  UNL     1       2.380   4.288  10.405  1.00  0.00    -0.260 OA
BRANCH  12  14
HETATM   14  O3  UNL     1       3.064   6.437  10.864  1.00  0.00    -0.313 OA
BRANCH  14  15
HETATM   15  C10 UNL     1       3.402   6.863   9.543  1.00  0.00     0.132 C 
HETATM   16  C11 UNL     1       3.289   8.376   9.401  1.00  0.00     0.032 C 
HETATM   17  C12 UNL     1       3.056   8.561   7.913  1.00  0.00     0.002 C 
HETATM   18  C13 UNL     1       2.096   7.432   7.553  1.00  0.00     0.002 C 
HETATM   19  C14 UNL     1       2.380   6.307   8.548  1.00  0.00     0.032 C 
ENDBRANCH  14  15
ENDBRANCH  12  14
ENDBRANCH  11  12
ENDBRANCH   9  10
BRANCH   9  20
HETATM   20  C15 UNL     1      -1.455   6.241  12.907  1.00  0.00     0.043 C 
BRANCH  20  21
HETATM   21  C16 UNL     1      -2.803   6.631  13.516  1.00  0.00     0.081 C 
HETATM   22  C17 UNL     1      -3.994   5.708  13.261  1.00  0.00     0.034 C 
HETATM   23  C18 UNL     1      -5.198   6.634  13.364  1.00  0.00     0.123 C 
HETATM   24  N2  UNL     1      -4.681   7.920  13.015  1.00  0.00    -0.361 N 
HETATM   25  C19 UNL     1      -3.307   7.978  13.046  1.00  0.00     0.222 C 
HETATM   26  H25 UNL     1      -5.233   8.714  12.708  1.00  0.00     0.162 HD
HETATM   27  O4  UNL     1      -2.631   8.956  12.782  1.00  0.00    -0.273 OA
ENDBRANCH  20  21
ENDBRANCH   9  20
ENDBRANCH   7   9
ENDBRANCH   4   5
BRANCH   4  28
HETATM   28  N3  UNL     1       0.221  10.233  16.918  1.00  0.00    -0.308 N 
HETATM   29  C20 UNL     1      -1.131  10.358  17.206  1.00  0.00     0.095 A 
HETATM   30  C21 UNL     1      -1.549  10.799  18.397  1.00  0.00     0.020 A 
HETATM   31  C22 UNL     1      -0.598  11.133  19.426  1.00  0.00     0.037 A 
HETATM   32  C23 UNL     1       0.723  11.042  19.215  1.00  0.00     0.104 A 
HETATM   33  C29 UNL     1       1.203  10.586  17.851  1.00  0.00     0.275 A 
HETATM   34  O7  UNL     1       2.412  10.547  17.631  1.00  0.00    -0.265 OA
BRANCH  32  35
HETATM   35  N4  UNL     1       1.719  11.310  20.128  1.00  0.00    -0.317 N 
HETATM   36  C24 UNL     1       2.439  10.435  20.921  1.00  0.00     0.274 C 
HETATM   37  O5  UNL     1       2.256   9.223  20.988  1.00  0.00    -0.266 OA
HETATM   38  H29 UNL     1       1.988  12.295  20.201  1.00  0.00     0.169 HD
BRANCH  36  39
HETATM   39  C25 UNL     1       3.473  11.096  21.724  1.00  0.00     0.125 A 
HETATM   40  C26 UNL     1       4.876  10.902  21.654  1.00  0.00     0.071 A 
HETATM   41  C27 UNL     1       5.389  11.739  22.614  1.00  0.00     0.075 A 
HETATM   42  C28 UNL     1       6.748  12.024  23.106  1.00  0.00     0.079 C 
HETATM   43  O6  UNL     1       4.371  12.404  23.219  1.00  0.00    -0.242 OA
HETATM   44  N5  UNL     1       3.166  12.007  22.665  1.00  0.00    -0.256 N 
ATOM     45  H5  UNL     1       2.235  12.338  22.918  1.00  0.00     0.195 HD
ENDBRANCH  36  39
ENDBRANCH  32  35
ENDBRANCH   4  28
ENDBRANCH   3   4
TORSDOF 12
ENDMDL
MODEL 5
REMARK minimizedAffinity -9.13794613
REMARK CNNscore 0.100178033
REMARK CNNaffinity 6.65270281
REMARK  12 active torsions:
REMARK  status: ('A' for Active; 'I' for Inactive)
REMARK    1  A    between atoms: C3_3  and  C4_4 
REMARK    2  A    between atoms: C4_4  and  C5_5 
REMARK    3  A    between atoms: C4_4  and  N3_26 
REMARK       I    between atoms: C5_5  and  N1_7 
REMARK    4  A    between atoms: N1_7  and  C6_8 
REMARK    5  A    between atoms: C6_8  and  C7_9 
REMARK    6  A    between atoms: C6_8  and  C15_19 
REMARK    7  A    between atoms: C8_10  and  C9_11 
REMARK    8  A    between atoms: C9_11  and  O3_13 
REMARK    9  A    between atoms: O3_13  and  C10_14 
REMARK   10  A    between atoms: C15_19  and  C16_20 
REMARK   11  A    between atoms: C23_30  and  N4_31 
REMARK       I    between atoms: N4_31  and  C24_32 
REMARK   12  A    between atoms: C24_32  and  C25_34 
ROOT
HETATM    1  C1  UNL     1      -0.918   1.284  10.913  1.00  0.00     0.012 C 
HETATM    2  C2  UNL     1      -1.238   2.436  11.022  1.00  0.00    -0.115 C 
HETATM    3  C3  UNL     1      -1.635   3.847  11.176  1.00  0.00     0.128 C 
ENDROOT
BRANCH   3   4
HETATM    4  C4  UNL     1      -2.353   4.127  12.515  1.00  0.00     0.195 C 
BRANCH   4   5
HETATM    5  C5  UNL     1      -2.009   5.550  13.027  1.00  0.00     0.242 C 
HETATM    6  O1  UNL     1      -2.314   5.931  14.155  1.00  0.00    -0.271 OA
HETATM    7  N1  UNL     1      -1.277   6.343  12.167  1.00  0.00    -0.351 N 
HETATM    8  H5  UNL     1      -1.208   6.035  11.206  1.00  0.00     0.163 HD
BRANCH   7   9
HETATM    9  C6  UNL     1      -0.917   7.716  12.472  1.00  0.00     0.108 C 
BRANCH   9  10
HETATM   10  C7  UNL     1      -0.678   8.378  11.138  1.00  0.00     0.004 C 
HETATM   11  C8  UNL     1       0.019   7.807  10.141  1.00  0.00     0.080 C 
BRANCH  11  12
HETATM   12  C9  UNL     1       0.197   8.405   8.801  1.00  0.00     0.283 C 
HETATM   13  O2  UNL     1      -0.714   8.485   7.993  1.00  0.00    -0.260 OA
BRANCH  12  14
HETATM   14  O3  UNL     1       1.458   8.881   8.645  1.00  0.00    -0.313 OA
BRANCH  14  15
HETATM   15  C10 UNL     1       2.360   8.019   7.949  1.00  0.00     0.132 C 
HETATM   16  C11 UNL     1       1.643   7.219   6.869  1.00  0.00     0.032 C 
HETATM   17  C12 UNL     1       2.530   5.998   6.705  1.00  0.00     0.002 C 
HETATM   18  C13 UNL     1       2.931   5.647   8.133  1.00  0.00     0.002 C 
HETATM   19  C14 UNL     1       2.906   6.962   8.912  1.00  0.00     0.032 C 
ENDBRANCH  14  15
ENDBRANCH  12  14
ENDBRANCH  11  12
ENDBRANCH   9  10
BRANCH   9  20
HETATM   20  C15 UNL     1       0.369   7.802  13.328  1.00  0.00     0.043 C 
BRANCH  20  21
HETATM   21  C16 UNL     1       0.365   8.807  14.482  1.00  0.00     0.081 C 
HETATM   22  C17 UNL     1       1.506   9.822  14.547  1.00  0.00     0.034 C 
HETATM   23  C18 UNL     1       1.607  10.159  16.027  1.00  0.00     0.123 C 
HETATM   24  N2  UNL     1       1.104   8.994  16.687  1.00  0.00    -0.361 N 
HETATM   25  C19 UNL     1       0.411   8.154  15.847  1.00  0.00     0.222 C 
HETATM   26  H25 UNL     1       1.274   8.745  17.655  1.00  0.00     0.162 HD
HETATM   27  O4  UNL     1      -0.105   7.098  16.165  1.00  0.00    -0.273 OA
ENDBRANCH  20  21
ENDBRANCH   9  20
ENDBRANCH   7   9
ENDBRANCH   4   5
BRANCH   4  28
HETATM   28  N3  UNL     1      -3.822   3.875  12.444  1.00  0.00    -0.308 N 
HETATM   29  C20 UNL     1      -4.318   2.666  11.974  1.00  0.00     0.095 A 
HETATM   30  C21 UNL     1      -5.633   2.435  11.911  1.00  0.00     0.020 A 
HETATM   31  C22 UNL     1      -6.573   3.432  12.356  1.00  0.00     0.037 A 
HETATM   32  C23 UNL     1      -6.163   4.624  12.814  1.00  0.00     0.104 A 
HETATM   33  C29 UNL     1      -4.675   4.909  12.845  1.00  0.00     0.275 A 
HETATM   34  O7  UNL     1      -4.292   6.017  13.217  1.00  0.00    -0.265 OA
BRANCH  32  35
HETATM   35  N4  UNL     1      -6.966   5.639  13.286  1.00  0.00    -0.317 N 
HETATM   36  C24 UNL     1      -7.300   5.958  14.590  1.00  0.00     0.274 C 
HETATM   37  O5  UNL     1      -6.968   5.319  15.584  1.00  0.00    -0.266 OA
HETATM   38  H29 UNL     1      -7.337   6.268  12.568  1.00  0.00     0.169 HD
BRANCH  36  39
HETATM   39  C25 UNL     1      -8.131   7.162  14.698  1.00  0.00     0.125 A 
HETATM   40  C26 UNL     1      -7.753   8.428  15.212  1.00  0.00     0.071 A 
HETATM   41  C27 UNL     1      -8.885   9.197  15.105  1.00  0.00     0.075 A 
HETATM   42  C28 UNL     1      -9.222  10.584  15.471  1.00  0.00     0.079 C 
HETATM   43  O6  UNL     1      -9.880   8.454  14.554  1.00  0.00    -0.242 OA
HETATM   44  N5  UNL     1      -9.414   7.176  14.295  1.00  0.00    -0.256 N 
ATOM     45  H5  UNL     1      -9.937   6.404  13.883  1.00  0.00     0.195 HD
ENDBRANCH  36  39
ENDBRANCH  32  35
ENDBRANCH   4  28
ENDBRANCH   3   4
TORSDOF 12
ENDMDL
MODEL 6
REMARK minimizedAffinity -8.7196188
REMARK CNNscore 0.0911927372
REMARK CNNaffinity 6.15362549
REMARK  12 active torsions:
REMARK  status: ('A' for Active; 'I' for Inactive)
REMARK    1  A    between atoms: C3_3  and  C4_4 
REMARK    2  A    between atoms: C4_4  and  C5_5 
REMARK    3  A    between atoms: C4_4  and  N3_26 
REMARK       I    between atoms: C5_5  and  N1_7 
REMARK    4  A    between atoms: N1_7  and  C6_8 
REMARK    5  A    between atoms: C6_8  and  C7_9 
REMARK    6  A    between atoms: C6_8  and  C15_19 
REMARK    7  A    between atoms: C8_10  and  C9_11 
REMARK    8  A    between atoms: C9_11  and  O3_13 
REMARK    9  A    between atoms: O3_13  and  C10_14 
REMARK   10  A    between atoms: C15_19  and  C16_20 
REMARK   11  A    between atoms: C23_30  and  N4_31 
REMARK       I    between atoms: N4_31  and  C24_32 
REMARK   12  A    between atoms: C24_32  and  C25_34 
ROOT
HETATM    1  C1  UNL     1      -5.228   2.724  11.574  1.00  0.00     0.012 C 
HETATM    2  C2  UNL     1      -5.907   3.592  12.048  1.00  0.00    -0.115 C 
HETATM    3  C3  UNL     1      -6.725   4.663  12.644  1.00  0.00     0.128 C 
ENDROOT
BRANCH   3   4
HETATM    4  C4  UNL     1      -6.108   5.243  13.937  1.00  0.00     0.195 C 
BRANCH   4   5
HETATM    5  C5  UNL     1      -4.858   6.099  13.604  1.00  0.00     0.242 C 
HETATM    6  O1  UNL     1      -4.938   7.162  12.993  1.00  0.00    -0.271 OA
HETATM    7  N1  UNL     1      -3.655   5.632  14.095  1.00  0.00    -0.351 N 
HETATM    8  H5  UNL     1      -3.638   4.681  14.437  1.00  0.00     0.163 HD
BRANCH   7   9
HETATM    9  C6  UNL     1      -2.386   6.286  13.830  1.00  0.00     0.108 C 
BRANCH   9  10
HETATM   10  C7  UNL     1      -1.614   5.332  12.954  1.00  0.00     0.004 C 
HETATM   11  C8  UNL     1      -0.587   5.709  12.173  1.00  0.00     0.080 C 
BRANCH  11  12
HETATM   12  C9  UNL     1       0.232   4.777  11.370  1.00  0.00     0.283 C 
HETATM   13  O2  UNL     1      -0.230   3.766  10.866  1.00  0.00    -0.260 OA
BRANCH  12  14
HETATM   14  O3  UNL     1       1.503   5.235  11.239  1.00  0.00    -0.313 OA
BRANCH  14  15
HETATM   15  C10 UNL     1       1.656   6.413  10.446  1.00  0.00     0.132 C 
HETATM   16  C11 UNL     1       2.424   6.124   9.163  1.00  0.00     0.032 C 
HETATM   17  C12 UNL     1       3.014   7.476   8.808  1.00  0.00     0.002 C 
HETATM   18  C13 UNL     1       3.457   8.043  10.152  1.00  0.00     0.002 C 
HETATM   19  C14 UNL     1       2.526   7.426  11.195  1.00  0.00     0.032 C 
ENDBRANCH  14  15
ENDBRANCH  12  14
ENDBRANCH  11  12
ENDBRANCH   9  10
BRANCH   9  20
HETATM   20  C15 UNL     1      -1.590   6.555  15.129  1.00  0.00     0.043 C 
BRANCH  20  21
HETATM   21  C16 UNL     1      -1.354   8.020  15.504  1.00  0.00     0.081 C 
HETATM   22  C17 UNL     1      -1.690   9.086  14.461  1.00  0.00     0.034 C 
HETATM   23  C18 UNL     1      -0.769  10.244  14.817  1.00  0.00     0.123 C 
HETATM   24  N2  UNL     1       0.343   9.620  15.465  1.00  0.00    -0.361 N 
HETATM   25  C19 UNL     1       0.087   8.325  15.852  1.00  0.00     0.222 C 
HETATM   26  H25 UNL     1       1.261  10.032  15.587  1.00  0.00     0.162 HD
HETATM   27  O4  UNL     1       0.872   7.583  16.414  1.00  0.00    -0.273 OA
ENDBRANCH  20  21
ENDBRANCH   9  20
ENDBRANCH   7   9
ENDBRANCH   4   5
BRANCH   4  28
HETATM   28  N3  UNL     1      -7.104   5.972  14.774  1.00  0.00    -0.308 N 
HETATM   29  C20 UNL     1      -6.789   6.391  16.060  1.00  0.00     0.095 A 
HETATM   30  C21 UNL     1      -7.677   7.047  16.813  1.00  0.00     0.020 A 
HETATM   31  C22 UNL     1      -8.984   7.361  16.293  1.00  0.00     0.037 A 
HETATM   32  C23 UNL     1      -9.358   6.981  15.063  1.00  0.00     0.104 A 
HETATM   33  C29 UNL     1      -8.371   6.197  14.222  1.00  0.00     0.275 A 
HETATM   34  O7  UNL     1      -8.721   5.801  13.112  1.00  0.00    -0.265 OA
BRANCH  32  35
HETATM   35  N4  UNL     1     -10.566   7.245  14.456  1.00  0.00    -0.317 N 
HETATM   36  C24 UNL     1     -11.082   8.452  14.020  1.00  0.00     0.274 C 
HETATM   37  O5  UNL     1     -10.547   9.547  14.165  1.00  0.00    -0.266 OA
HETATM   38  H29 UNL     1     -11.148   6.423  14.270  1.00  0.00     0.169 HD
BRANCH  36  39
HETATM   39  C25 UNL     1     -12.384   8.320  13.356  1.00  0.00     0.125 A 
HETATM   40  C26 UNL     1     -13.333   7.278  13.515  1.00  0.00     0.071 A 
HETATM   41  C27 UNL     1     -14.362   7.615  12.672  1.00  0.00     0.075 A 
HETATM   42  C28 UNL     1     -15.641   6.981  12.309  1.00  0.00     0.079 C 
HETATM   43  O6  UNL     1     -14.065   8.786  12.049  1.00  0.00    -0.242 OA
HETATM   44  N5  UNL     1     -12.826   9.235  12.475  1.00  0.00    -0.256 N 
ATOM     45  H5  UNL     1     -12.347  10.085  12.180  1.00  0.00     0.195 HD
ENDBRANCH  36  39
ENDBRANCH  32  35
ENDBRANCH   4  28
ENDBRANCH   3   4
TORSDOF 12
ENDMDL
MODEL 7
REMARK minimizedAffinity -9.0600729
REMARK CNNscore 0.0767412782
REMARK CNNaffinity 5.77927256
REMARK  12 active torsions:
REMARK  status: ('A' for Active; 'I' for Inactive)
REMARK    1  A    between atoms: C3_3  and  C4_4 
REMARK    2  A    between atoms: C4_4  and  C5_5 
REMARK    3  A    between atoms: C4_4  and  N3_26 
REMARK       I    between atoms: C5_5  and  N1_7 
REMARK    4  A    between atoms: N1_7  and  C6_8 
REMARK    5  A    between atoms: C6_8  and  C7_9 
REMARK    6  A    between atoms: C6_8  and  C15_19 
REMARK    7  A    between atoms: C8_10  and  C9_11 
REMARK    8  A    between atoms: C9_11  and  O3_13 
REMARK    9  A    between atoms: O3_13  and  C10_14 
REMARK   10  A    between atoms: C15_19  and  C16_20 
REMARK   11  A    between atoms: C23_30  and  N4_31 
REMARK       I    between atoms: N4_31  and  C24_32 
REMARK   12  A    between atoms: C24_32  and  C25_34 
ROOT
HETATM    1  C1  UNL     1      -2.971  11.603  15.880  1.00  0.00     0.012 C 
HETATM    2  C2  UNL     1      -2.305  10.857  15.216  1.00  0.00    -0.115 C 
HETATM    3  C3  UNL     1      -1.504   9.937  14.389  1.00  0.00     0.128 C 
ENDROOT
BRANCH   3   4
HETATM    4  C4  UNL     1      -2.367   9.076  13.439  1.00  0.00     0.195 C 
BRANCH   4   5
HETATM    5  C5  UNL     1      -1.498   8.506  12.287  1.00  0.00     0.242 C 
HETATM    6  O1  UNL     1      -1.333   9.113  11.231  1.00  0.00    -0.271 OA
HETATM    7  N1  UNL     1      -0.864   7.307  12.542  1.00  0.00    -0.351 N 
HETATM    8  H5  UNL     1      -1.174   6.787  13.352  1.00  0.00     0.163 HD
BRANCH   7   9
HETATM    9  C6  UNL     1      -0.057   6.614  11.553  1.00  0.00     0.108 C 
BRANCH   9  10
HETATM   10  C7  UNL     1      -0.892   5.446  11.094  1.00  0.00     0.004 C 
HETATM   11  C8  UNL     1      -0.854   4.234  11.674  1.00  0.00     0.080 C 
BRANCH  11  12
HETATM   12  C9  UNL     1      -1.721   3.101  11.290  1.00  0.00     0.283 C 
HETATM   13  O2  UNL     1      -1.447   2.350  10.367  1.00  0.00    -0.260 OA
BRANCH  12  14
HETATM   14  O3  UNL     1      -2.787   2.999  12.123  1.00  0.00    -0.313 OA
BRANCH  14  15
HETATM   15  C10 UNL     1      -4.065   3.197  11.517  1.00  0.00     0.132 C 
HETATM   16  C11 UNL     1      -4.979   4.031  12.405  1.00  0.00     0.032 C 
HETATM   17  C12 UNL     1      -6.366   3.614  11.952  1.00  0.00     0.002 C 
HETATM   18  C13 UNL     1      -6.245   2.108  11.749  1.00  0.00     0.002 C 
HETATM   19  C14 UNL     1      -4.783   1.851  11.383  1.00  0.00     0.032 C 
ENDBRANCH  14  15
ENDBRANCH  12  14
ENDBRANCH  11  12
ENDBRANCH   9  10
BRANCH   9  20
HETATM   20  C15 UNL     1       1.272   6.095  12.151  1.00  0.00     0.043 C 
BRANCH  20  21
HETATM   21  C16 UNL     1       2.551   6.413  11.373  1.00  0.00     0.081 C 
HETATM   22  C17 UNL     1       2.655   7.782  10.701  1.00  0.00     0.034 C 
HETATM   23  C18 UNL     1       3.608   7.544   9.539  1.00  0.00     0.123 C 
HETATM   24  N2  UNL     1       3.450   6.156   9.236  1.00  0.00    -0.361 N 
HETATM   25  C19 UNL     1       2.815   5.453  10.233  1.00  0.00     0.222 C 
HETATM   26  H25 UNL     1       3.706   5.710   8.361  1.00  0.00     0.162 HD
HETATM   27  O4  UNL     1       2.557   4.263  10.210  1.00  0.00    -0.273 OA
ENDBRANCH  20  21
ENDBRANCH   9  20
ENDBRANCH   7   9
ENDBRANCH   4   5
BRANCH   4  28
HETATM   28  N3  UNL     1      -3.139   8.023  14.159  1.00  0.00    -0.308 N 
HETATM   29  C20 UNL     1      -2.501   7.105  14.983  1.00  0.00     0.095 A 
HETATM   30  C21 UNL     1      -3.189   6.161  15.632  1.00  0.00     0.020 A 
HETATM   31  C22 UNL     1      -4.623   6.089  15.512  1.00  0.00     0.037 A 
HETATM   32  C23 UNL     1      -5.303   6.939  14.728  1.00  0.00     0.104 A 
HETATM   33  C29 UNL     1      -4.523   7.982  13.954  1.00  0.00     0.275 A 
HETATM   34  O7  UNL     1      -5.132   8.734  13.194  1.00  0.00    -0.265 OA
BRANCH  32  35
HETATM   35  N4  UNL     1      -6.669   6.979  14.556  1.00  0.00    -0.317 N 
HETATM   36  C24 UNL     1      -7.604   5.976  14.734  1.00  0.00     0.274 C 
HETATM   37  O5  UNL     1      -7.350   4.813  15.032  1.00  0.00    -0.266 OA
HETATM   38  H29 UNL     1      -7.047   7.894  14.293  1.00  0.00     0.169 HD
BRANCH  36  39
HETATM   39  C25 UNL     1      -8.984   6.424  14.517  1.00  0.00     0.125 A 
HETATM   40  C26 UNL     1      -9.671   6.536  13.280  1.00  0.00     0.071 A 
HETATM   41  C27 UNL     1     -10.915   7.007  13.617  1.00  0.00     0.075 A 
HETATM   42  C28 UNL     1     -12.114   7.381  12.847  1.00  0.00     0.079 C 
HETATM   43  O6  UNL     1     -10.985   7.162  14.965  1.00  0.00    -0.242 OA
HETATM   44  N5  UNL     1      -9.778   6.797  15.536  1.00  0.00    -0.256 N 
ATOM     45  H5  UNL     1      -9.540   6.809  16.528  1.00  0.00     0.195 HD
ENDBRANCH  36  39
ENDBRANCH  32  35
ENDBRANCH   4  28
ENDBRANCH   3   4
TORSDOF 12
ENDMDL
MODEL 8
REMARK minimizedAffinity -8.76351833
REMARK CNNscore 0.0714555457
REMARK CNNaffinity 6.15865183
REMARK  12 active torsions:
REMARK  status: ('A' for Active; 'I' for Inactive)
REMARK    1  A    between atoms: C3_3  and  C4_4 
REMARK    2  A    between atoms: C4_4  and  C5_5 
REMARK    3  A    between atoms: C4_4  and  N3_26 
REMARK       I    between atoms: C5_5  and  N1_7 
REMARK    4  A    between atoms: N1_7  and  C6_8 
REMARK    5  A    between atoms: C6_8  and  C7_9 
REMARK    6  A    between atoms: C6_8  and  C15_19 
REMARK    7  A    between atoms: C8_10  and  C9_11 
REMARK    8  A    between atoms: C9_11  and  O3_13 
REMARK    9  A    between atoms: O3_13  and  C10_14 
REMARK   10  A    between atoms: C15_19  and  C16_20 
REMARK   11  A    between atoms: C23_30  and  N4_31 
REMARK       I    between atoms: N4_31  and  C24_32 
REMARK   12  A    between atoms: C24_32  and  C25_34 
ROOT
HETATM    1  C1  UNL     1      -7.658   2.530  13.272  1.00  0.00     0.012 C 
HETATM    2  C2  UNL     1      -7.296   3.643  13.009  1.00  0.00    -0.115 C 
HETATM    3  C3  UNL     1      -6.844   5.013  12.704  1.00  0.00     0.128 C 
ENDROOT
BRANCH   3   4
HETATM    4  C4  UNL     1      -6.270   5.745  13.938  1.00  0.00     0.195 C 
BRANCH   4   5
HETATM    5  C5  UNL     1      -5.178   6.759  13.507  1.00  0.00     0.242 C 
HETATM    6  O1  UNL     1      -5.457   7.868  13.057  1.00  0.00    -0.271 OA
HETATM    7  N1  UNL     1      -3.871   6.371  13.722  1.00  0.00    -0.351 N 
HETATM    8  H5  UNL     1      -3.712   5.395  13.934  1.00  0.00     0.163 HD
BRANCH   7   9
HETATM    9  C6  UNL     1      -2.731   7.180  13.329  1.00  0.00     0.108 C 
BRANCH   9  10
HETATM   10  C7  UNL     1      -1.949   6.332  12.358  1.00  0.00     0.004 C 
HETATM   11  C8  UNL     1      -1.714   5.021  12.539  1.00  0.00     0.080 C 
BRANCH  11  12
HETATM   12  C9  UNL     1      -1.018   4.158  11.563  1.00  0.00     0.283 C 
HETATM   13  O2  UNL     1      -0.043   4.535  10.933  1.00  0.00    -0.260 OA
BRANCH  12  14
HETATM   14  O3  UNL     1      -1.574   2.921  11.524  1.00  0.00    -0.313 OA
BRANCH  14  15
HETATM   15  C10 UNL     1      -2.981   2.869  11.766  1.00  0.00     0.132 C 
HETATM   16  C11 UNL     1      -3.501   1.438  11.712  1.00  0.00     0.032 C 
HETATM   17  C12 UNL     1      -4.966   1.622  11.360  1.00  0.00     0.002 C 
HETATM   18  C13 UNL     1      -4.952   2.738  10.320  1.00  0.00     0.002 C 
HETATM   19  C14 UNL     1      -3.722   3.589  10.636  1.00  0.00     0.032 C 
ENDBRANCH  14  15
ENDBRANCH  12  14
ENDBRANCH  11  12
ENDBRANCH   9  10
BRANCH   9  20
HETATM   20  C15 UNL     1      -1.835   7.544  14.536  1.00  0.00     0.043 C 
BRANCH  20  21
HETATM   21  C16 UNL     1      -0.521   8.264  14.228  1.00  0.00     0.081 C 
HETATM   22  C17 UNL     1       0.537   8.321  15.329  1.00  0.00     0.034 C 
HETATM   23  C18 UNL     1       1.328   9.581  15.008  1.00  0.00     0.123 C 
HETATM   24  N2  UNL     1       0.399  10.407  14.302  1.00  0.00    -0.361 N 
HETATM   25  C19 UNL     1      -0.707   9.720  13.858  1.00  0.00     0.222 C 
HETATM   26  H25 UNL     1       0.479  11.410  14.178  1.00  0.00     0.162 HD
HETATM   27  O4  UNL     1      -1.640  10.200  13.241  1.00  0.00    -0.273 OA
ENDBRANCH  20  21
ENDBRANCH   9  20
ENDBRANCH   7   9
ENDBRANCH   4   5
BRANCH   4  28
HETATM   28  N3  UNL     1      -7.330   6.361  14.787  1.00  0.00    -0.308 N 
HETATM   29  C20 UNL     1      -7.080   6.700  16.110  1.00  0.00     0.095 A 
HETATM   30  C21 UNL     1      -8.027   7.254  16.875  1.00  0.00     0.020 A 
HETATM   31  C22 UNL     1      -9.330   7.539  16.331  1.00  0.00     0.037 A 
HETATM   32  C23 UNL     1      -9.643   7.232  15.064  1.00  0.00     0.104 A 
HETATM   33  C29 UNL     1      -8.588   6.561  14.207  1.00  0.00     0.275 A 
HETATM   34  O7  UNL     1      -8.880   6.230  13.059  1.00  0.00    -0.265 OA
BRANCH  32  35
HETATM   35  N4  UNL     1     -10.842   7.478  14.433  1.00  0.00    -0.317 N 
HETATM   36  C24 UNL     1     -11.326   8.660  13.902  1.00  0.00     0.274 C 
HETATM   37  O5  UNL     1     -10.763   9.749  13.962  1.00  0.00    -0.266 OA
HETATM   38  H29 UNL     1     -11.444   6.659  14.310  1.00  0.00     0.169 HD
BRANCH  36  39
HETATM   39  C25 UNL     1     -12.629   8.510  13.244  1.00  0.00     0.125 A 
HETATM   40  C26 UNL     1     -13.539   7.428  13.368  1.00  0.00     0.071 A 
HETATM   41  C27 UNL     1     -14.588   7.763  12.549  1.00  0.00     0.075 A 
HETATM   42  C28 UNL     1     -15.848   7.100  12.172  1.00  0.00     0.079 C 
HETATM   43  O6  UNL     1     -14.339   8.969  11.974  1.00  0.00    -0.242 OA
HETATM   44  N5  UNL     1     -13.113   9.444  12.407  1.00  0.00    -0.256 N 
ATOM     45  H5  UNL     1     -12.667  10.323  12.144  1.00  0.00     0.195 HD
ENDBRANCH  36  39
ENDBRANCH  32  35
ENDBRANCH   4  28
ENDBRANCH   3   4
TORSDOF 12
ENDMDL
MODEL 9
REMARK minimizedAffinity -8.16645432
REMARK CNNscore 0.0693216175
REMARK CNNaffinity 6.87427282
REMARK  12 active torsions:
REMARK  status: ('A' for Active; 'I' for Inactive)
REMARK    1  A    between atoms: C3_3  and  C4_4 
REMARK    2  A    between atoms: C4_4  and  C5_5 
REMARK    3  A    between atoms: C4_4  and  N3_26 
REMARK       I    between atoms: C5_5  and  N1_7 
REMARK    4  A    between atoms: N1_7  and  C6_8 
REMARK    5  A    between atoms: C6_8  and  C7_9 
REMARK    6  A    between atoms: C6_8  and  C15_19 
REMARK    7  A    between atoms: C8_10  and  C9_11 
REMARK    8  A    between atoms: C9_11  and  O3_13 
REMARK    9  A    between atoms: O3_13  and  C10_14 
REMARK   10  A    between atoms: C15_19  and  C16_20 
REMARK   11  A    between atoms: C23_30  and  N4_31 
REMARK       I    between atoms: N4_31  and  C24_32 
REMARK   12  A    between atoms: C24_32  and  C25_34 
ROOT
HETATM    1  C1  UNL     1       0.362   5.069  12.761  1.00  0.00     0.012 C 
HETATM    2  C2  UNL     1      -0.355   5.238  13.708  1.00  0.00    -0.115 C 
HETATM    3  C3  UNL     1      -1.250   5.455  14.859  1.00  0.00     0.128 C 
ENDROOT
BRANCH   3   4
HETATM    4  C4  UNL     1      -2.460   6.355  14.519  1.00  0.00     0.195 C 
BRANCH   4   5
HETATM    5  C5  UNL     1      -1.996   7.610  13.733  1.00  0.00     0.242 C 
HETATM    6  O1  UNL     1      -2.599   8.020  12.744  1.00  0.00    -0.271 OA
HETATM    7  N1  UNL     1      -0.907   8.281  14.250  1.00  0.00    -0.351 N 
HETATM    8  H5  UNL     1      -0.365   7.801  14.956  1.00  0.00     0.163 HD
BRANCH   7   9
HETATM    9  C6  UNL     1      -0.317   9.442  13.608  1.00  0.00     0.108 C 
BRANCH   9  10
HETATM   10  C7  UNL     1       0.979   8.959  13.007  1.00  0.00     0.004 C 
HETATM   11  C8  UNL     1       1.115   8.616  11.715  1.00  0.00     0.080 C 
BRANCH  11  12
HETATM   12  C9  UNL     1       2.393   8.215  11.091  1.00  0.00     0.283 C 
HETATM   13  O2  UNL     1       3.450   8.771  11.346  1.00  0.00    -0.260 OA
BRANCH  12  14
HETATM   14  O3  UNL     1       2.222   7.145  10.274  1.00  0.00    -0.313 OA
BRANCH  14  15
HETATM   15  C10 UNL     1       2.656   7.324   8.925  1.00  0.00     0.132 C 
HETATM   16  C11 UNL     1       1.561   7.944   8.067  1.00  0.00     0.032 C 
HETATM   17  C12 UNL     1       1.926   7.486   6.666  1.00  0.00     0.002 C 
HETATM   18  C13 UNL     1       2.367   6.040   6.861  1.00  0.00     0.002 C 
HETATM   19  C14 UNL     1       2.916   5.957   8.285  1.00  0.00     0.032 C 
ENDBRANCH  14  15
ENDBRANCH  12  14
ENDBRANCH  11  12
ENDBRANCH   9  10
BRANCH   9  20
HETATM   20  C15 UNL     1      -0.026  10.578  14.617  1.00  0.00     0.043 C 
BRANCH  20  21
HETATM   21  C16 UNL     1      -0.922  10.648  15.855  1.00  0.00     0.081 C 
HETATM   22  C17 UNL     1      -1.644  11.965  16.140  1.00  0.00     0.034 C 
HETATM   23  C18 UNL     1      -1.845  11.950  17.648  1.00  0.00     0.123 C 
HETATM   24  N2  UNL     1      -0.783  11.126  18.134  1.00  0.00    -0.361 N 
HETATM   25  C19 UNL     1      -0.183  10.378  17.148  1.00  0.00     0.222 C 
HETATM   26  H25 UNL     1      -0.435  11.114  19.087  1.00  0.00     0.162 HD
HETATM   27  O4  UNL     1       0.746   9.607  17.307  1.00  0.00    -0.273 OA
ENDBRANCH  20  21
ENDBRANCH   9  20
ENDBRANCH   7   9
ENDBRANCH   4   5
BRANCH   4  28
HETATM   28  N3  UNL     1      -3.556   5.613  13.833  1.00  0.00    -0.308 N 
HETATM   29  C20 UNL     1      -3.287   4.478  13.079  1.00  0.00     0.095 A 
HETATM   30  C21 UNL     1      -4.266   3.807  12.464  1.00  0.00     0.020 A 
HETATM   31  C22 UNL     1      -5.637   4.234  12.592  1.00  0.00     0.037 A 
HETATM   32  C23 UNL     1      -5.967   5.325  13.299  1.00  0.00     0.104 A 
HETATM   33  C29 UNL     1      -4.856   6.115  13.960  1.00  0.00     0.275 A 
HETATM   34  O7  UNL     1      -5.143   7.144  14.569  1.00  0.00    -0.265 OA
BRANCH  32  35
HETATM   35  N4  UNL     1      -7.238   5.810  13.508  1.00  0.00    -0.317 N 
HETATM   36  C24 UNL     1      -8.034   5.725  14.636  1.00  0.00     0.274 C 
HETATM   37  O5  UNL     1      -7.745   5.120  15.664  1.00  0.00    -0.266 OA
HETATM   38  H29 UNL     1      -7.634   6.342  12.728  1.00  0.00     0.169 HD
BRANCH  36  39
HETATM   39  C25 UNL     1      -9.312   6.431  14.499  1.00  0.00     0.125 A 
HETATM   40  C26 UNL     1     -10.039   6.678  13.306  1.00  0.00     0.071 A 
HETATM   41  C27 UNL     1     -11.147   7.378  13.714  1.00  0.00     0.075 A 
HETATM   42  C28 UNL     1     -12.296   7.978  13.015  1.00  0.00     0.079 C 
HETATM   43  O6  UNL     1     -11.103   7.537  15.063  1.00  0.00    -0.242 OA
HETATM   44  N5  UNL     1      -9.956   6.945  15.562  1.00  0.00    -0.256 N 
ATOM     45  H5  UNL     1      -9.660   6.905  16.537  1.00  0.00     0.195 HD
ENDBRANCH  36  39
ENDBRANCH  32  35
ENDBRANCH   4  28
ENDBRANCH   3   4
TORSDOF 12
ENDMDL
