MODEL 1
REMARK minimizedAffinity -8.6290741
REMARK  11 active torsions:
REMARK  status: ('A' for Active; 'I' for Inactive)
REMARK    1  A    between atoms: C2_2  and  C3_3 
REMARK    2  A    between atoms: C2_2  and  C4_5 
REMARK    3  A    between atoms: C3_3  and  O1_4 
REMARK    4  A    between atoms: C13_14  and  C14_15 
REMARK    5  A    between atoms: C14_15  and  C16_17 
REMARK    6  A    between atoms: C16_17  and  C17_18 
REMARK    7  A    between atoms: C17_18  and  C18_19 
REMARK    8  A    between atoms: C27_28  and  C28_29 
REMARK    9  A    between atoms: C28_29  and  C29_30 
REMARK   10  A    between atoms: C29_30  and  C30_31 
REMARK   11  A    between atoms: C30_31  and  O3_33 
ROOT
HETATM    1  C4  UNL     1       3.732   7.906  10.810  1.00  0.00     0.025 C 
HETATM    2  C5  UNL     1       3.287   8.783  11.993  1.00  0.00     0.010 C 
HETATM    3  C6  UNL     1       1.789   9.036  11.959  1.00  0.00     0.007 C 
HETATM    4  C7  UNL     1       1.049   7.733  12.280  1.00  0.00     0.004 C 
HETATM    5  C8  UNL     1       1.405   6.620  11.259  1.00  0.00    -0.027 A 
HETATM    6  C9  UNL     1       0.223   5.935  10.543  1.00  0.00     0.011 C 
HETATM    7  C10 UNL     1      -1.107   5.778  11.301  1.00  0.00     0.011 C 
HETATM    8  C11 UNL     1      -1.160   6.511  12.644  1.00  0.00    -0.032 C 
HETATM    9  C12 UNL     1      -0.464   5.611  13.697  1.00  0.00     0.016 C 
HETATM   10  C13 UNL     1      -2.591   6.914  13.122  1.00  0.00    -0.002 C 
HETATM   11  C22 UNL     1      -2.360   8.166  14.002  1.00  0.00     0.006 C 
HETATM   12  C23 UNL     1      -0.905   8.613  13.766  1.00  0.00     0.011 C 
HETATM   13  C24 UNL     1      -0.482   7.916  12.457  1.00  0.00    -0.032 C 
HETATM   14  C25 UNL     1      -1.056   8.776  11.285  1.00  0.00     0.016 C 
HETATM   15  C26 UNL     1       2.548   5.698  11.639  1.00  0.00     0.022 A 
HETATM   16  C27 UNL     1       2.805   6.689  10.533  1.00  0.00    -0.024 A 
ENDROOT
BRANCH  10  17
HETATM   17  C14 UNL     1      -3.622   5.860  13.622  1.00  0.00    -0.014 C 
HETATM   18  C15 UNL     1      -3.802   6.013  15.147  1.00  0.00     0.010 C 
BRANCH  17  19
HETATM   19  C16 UNL     1      -3.487   4.356  13.285  1.00  0.00     0.008 C 
BRANCH  19  20
HETATM   20  C17 UNL     1      -4.584   3.710  12.439  1.00  0.00     0.028 C 
BRANCH  20  21
HETATM   21  C18 UNL     1      -5.887   4.451  12.593  1.00  0.00    -0.025 C 
HETATM   22  C19 UNL     1      -7.119   3.931  12.762  1.00  0.00    -0.091 C 
HETATM   23  C20 UNL     1      -8.321   4.834  12.873  1.00  0.00     0.042 C 
HETATM   24  C21 UNL     1      -7.437   2.466  12.871  1.00  0.00     0.042 C 
ENDBRANCH  20  21
ENDBRANCH  19  20
ENDBRANCH  17  19
ENDBRANCH  10  17
BRANCH  16  25
HETATM   25  C28 UNL     1       2.846   6.210   9.067  1.00  0.00     0.021 C 
BRANCH  25  26
HETATM   26  C29 UNL     1       1.881   6.884   8.099  1.00  0.00     0.111 C 
BRANCH  26  27
HETATM   27  C30 UNL     1       2.094   8.366   8.011  1.00  0.00     0.139 C 
HETATM   28  O2  UNL     1       3.073   8.944   7.570  1.00  0.00    -0.650 OA
BRANCH  27  29
HETATM   29  O3  UNL     1       1.026   9.065   8.453  1.00  0.00    -0.776 OA
HETATM   30  H48 UNL     1       1.316   9.999   8.364  1.00  0.00     0.167 HD
ENDBRANCH  27  29
ENDBRANCH  26  27
ENDBRANCH  25  26
ENDBRANCH  16  25
BRANCH   1  31
HETATM   31  C2  UNL     1       5.241   7.642  10.911  1.00  0.00    -0.061 C 
HETATM   32  C1  UNL     1       6.122   8.587  10.523  1.00  0.00     0.017 C 
BRANCH  31  33
HETATM   33  C3  UNL     1       5.745   6.372  11.553  1.00  0.00     0.198 C 
BRANCH  33  34
HETATM   34  O1  UNL     1       5.996   5.373  10.584  1.00  0.00    -0.397 OA
HETATM   35  H5  UNL     1       6.519   5.783   9.871  1.00  0.00     0.209 HD
ENDBRANCH  33  34
ENDBRANCH  31  33
ENDBRANCH   1  31
TORSDOF 11
ENDMDL
MODEL 2
REMARK minimizedAffinity -8.413764
REMARK  11 active torsions:
REMARK  status: ('A' for Active; 'I' for Inactive)
REMARK    1  A    between atoms: C2_2  and  C3_3 
REMARK    2  A    between atoms: C2_2  and  C4_5 
REMARK    3  A    between atoms: C3_3  and  O1_4 
REMARK    4  A    between atoms: C13_14  and  C14_15 
REMARK    5  A    between atoms: C14_15  and  C16_17 
REMARK    6  A    between atoms: C16_17  and  C17_18 
REMARK    7  A    between atoms: C17_18  and  C18_19 
REMARK    8  A    between atoms: C27_28  and  C28_29 
REMARK    9  A    between atoms: C28_29  and  C29_30 
REMARK   10  A    between atoms: C29_30  and  C30_31 
REMARK   11  A    between atoms: C30_31  and  O3_33 
ROOT
HETATM    1  C4  UNL     1      -4.295   3.880  12.509  1.00  0.00     0.025 C 
HETATM    2  C5  UNL     1      -4.547   5.236  13.190  1.00  0.00     0.010 C 
HETATM    3  C6  UNL     1      -3.338   5.681  13.996  1.00  0.00     0.007 C 
HETATM    4  C7  UNL     1      -2.201   6.054  13.037  1.00  0.00     0.004 C 
HETATM    5  C8  UNL     1      -1.806   4.851  12.142  1.00  0.00    -0.027 A 
HETATM    6  C9  UNL     1      -0.317   4.446  12.145  1.00  0.00     0.011 C 
HETATM    7  C10 UNL     1       0.745   5.544  12.337  1.00  0.00     0.011 C 
HETATM    8  C11 UNL     1       0.176   6.917  12.703  1.00  0.00    -0.032 C 
HETATM    9  C12 UNL     1      -0.280   7.601  11.388  1.00  0.00     0.016 C 
HETATM   10  C13 UNL     1       1.147   7.845  13.499  1.00  0.00    -0.002 C 
HETATM   11  C22 UNL     1       0.210   8.755  14.329  1.00  0.00     0.006 C 
HETATM   12  C23 UNL     1      -1.203   8.148  14.228  1.00  0.00     0.011 C 
HETATM   13  C24 UNL     1      -0.981   6.701  13.745  1.00  0.00    -0.032 C 
HETATM   14  C25 UNL     1      -0.587   5.863  15.004  1.00  0.00     0.016 C 
HETATM   15  C26 UNL     1      -2.494   4.761  10.793  1.00  0.00     0.022 A 
HETATM   16  C27 UNL     1      -2.898   3.753  11.836  1.00  0.00    -0.024 A 
ENDROOT
BRANCH  10  17
HETATM   17  C14 UNL     1       2.391   8.503  12.834  1.00  0.00    -0.014 C 
HETATM   18  C15 UNL     1       2.509   9.964  13.319  1.00  0.00     0.010 C 
BRANCH  17  19
HETATM   19  C16 UNL     1       2.619   8.466  11.304  1.00  0.00     0.008 C 
BRANCH  19  20
HETATM   20  C17 UNL     1       3.644   7.473  10.757  1.00  0.00     0.028 C 
BRANCH  20  21
HETATM   21  C18 UNL     1       3.105   6.757   9.546  1.00  0.00    -0.025 C 
HETATM   22  C19 UNL     1       2.822   7.277   8.335  1.00  0.00    -0.091 C 
HETATM   23  C20 UNL     1       2.258   6.407   7.241  1.00  0.00     0.042 C 
HETATM   24  C21 UNL     1       3.034   8.711   7.934  1.00  0.00     0.042 C 
ENDBRANCH  20  21
ENDBRANCH  19  20
ENDBRANCH  17  19
ENDBRANCH  10  17
BRANCH  16  25
HETATM   25  C28 UNL     1      -2.401   2.296  11.731  1.00  0.00     0.021 C 
BRANCH  25  26
HETATM   26  C29 UNL     1      -0.939   2.097  11.352  1.00  0.00     0.111 C 
BRANCH  26  27
HETATM   27  C30 UNL     1      -0.710   0.835  10.574  1.00  0.00     0.139 C 
HETATM   28  O2  UNL     1      -0.282  -0.224  11.000  1.00  0.00    -0.650 OA
BRANCH  27  29
HETATM   29  O3  UNL     1      -1.076   0.957   9.280  1.00  0.00    -0.776 OA
HETATM   30  H48 UNL     1      -0.846   0.082   8.898  1.00  0.00     0.167 HD
ENDBRANCH  27  29
ENDBRANCH  26  27
ENDBRANCH  25  26
ENDBRANCH  16  25
BRANCH   1  31
HETATM   31  C2  UNL     1      -5.523   3.494  11.673  1.00  0.00    -0.061 C 
HETATM   32  C1  UNL     1      -5.370   2.831  10.509  1.00  0.00     0.017 C 
BRANCH  31  33
HETATM   33  C3  UNL     1      -6.912   3.751  12.206  1.00  0.00     0.198 C 
BRANCH  33  34
HETATM   34  O1  UNL     1      -7.185   2.944  13.335  1.00  0.00    -0.397 OA
HETATM   35  H5  UNL     1      -6.424   3.021  13.940  1.00  0.00     0.209 HD
ENDBRANCH  33  34
ENDBRANCH  31  33
ENDBRANCH   1  31
TORSDOF 11
ENDMDL
MODEL 3
REMARK minimizedAffinity -8.38991547
REMARK  11 active torsions:
REMARK  status: ('A' for Active; 'I' for Inactive)
REMARK    1  A    between atoms: C2_2  and  C3_3 
REMARK    2  A    between atoms: C2_2  and  C4_5 
REMARK    3  A    between atoms: C3_3  and  O1_4 
REMARK    4  A    between atoms: C13_14  and  C14_15 
REMARK    5  A    between atoms: C14_15  and  C16_17 
REMARK    6  A    between atoms: C16_17  and  C17_18 
REMARK    7  A    between atoms: C17_18  and  C18_19 
REMARK    8  A    between atoms: C27_28  and  C28_29 
REMARK    9  A    between atoms: C28_29  and  C29_30 
REMARK   10  A    between atoms: C29_30  and  C30_31 
REMARK   11  A    between atoms: C30_31  and  O3_33 
ROOT
HETATM    1  C4  UNL     1      -2.452   3.680  11.481  1.00  0.00     0.025 C 
HETATM    2  C5  UNL     1      -1.141   4.412  11.818  1.00  0.00     0.010 C 
HETATM    3  C6  UNL     1      -1.360   5.912  11.926  1.00  0.00     0.007 C 
HETATM    4  C7  UNL     1      -2.183   6.215  13.183  1.00  0.00     0.004 C 
HETATM    5  C8  UNL     1      -3.558   5.498  13.137  1.00  0.00    -0.027 A 
HETATM    6  C9  UNL     1      -4.806   6.384  13.331  1.00  0.00     0.011 C 
HETATM    7  C10 UNL     1      -4.699   7.619  14.243  1.00  0.00     0.011 C 
HETATM    8  C11 UNL     1      -3.278   7.938  14.711  1.00  0.00    -0.032 C 
HETATM    9  C12 UNL     1      -2.968   7.026  15.926  1.00  0.00     0.016 C 
HETATM   10  C13 UNL     1      -3.019   9.436  15.067  1.00  0.00    -0.002 C 
HETATM   11  C22 UNL     1      -1.507   9.636  14.800  1.00  0.00     0.006 C 
HETATM   12  C23 UNL     1      -1.023   8.389  14.036  1.00  0.00     0.011 C 
HETATM   13  C24 UNL     1      -2.307   7.730  13.493  1.00  0.00    -0.032 C 
HETATM   14  C25 UNL     1      -2.698   8.511  12.197  1.00  0.00     0.016 C 
HETATM   15  C26 UNL     1      -3.629   4.135  13.799  1.00  0.00     0.022 A 
HETATM   16  C27 UNL     1      -3.684   4.169  12.294  1.00  0.00    -0.024 A 
ENDROOT
BRANCH  10  17
HETATM   17  C14 UNL     1      -3.620  10.099  16.341  1.00  0.00    -0.014 C 
HETATM   18  C15 UNL     1      -3.986  11.564  16.024  1.00  0.00     0.010 C 
BRANCH  17  19
HETATM   19  C16 UNL     1      -2.898  10.050  17.709  1.00  0.00     0.008 C 
BRANCH  19  20
HETATM   20  C17 UNL     1      -2.007  11.233  18.091  1.00  0.00     0.028 C 
BRANCH  20  21
HETATM   21  C18 UNL     1      -0.863  10.784  18.962  1.00  0.00    -0.025 C 
HETATM   22  C19 UNL     1       0.016  11.552  19.636  1.00  0.00    -0.091 C 
HETATM   23  C20 UNL     1       1.122  10.922  20.442  1.00  0.00     0.042 C 
HETATM   24  C21 UNL     1      -0.001  13.054  19.682  1.00  0.00     0.042 C 
ENDBRANCH  20  21
ENDBRANCH  19  20
ENDBRANCH  17  19
ENDBRANCH  10  17
BRANCH  16  25
HETATM   25  C28 UNL     1      -5.026   3.938  11.569  1.00  0.00     0.021 C 
BRANCH  25  26
HETATM   26  C29 UNL     1      -6.181   3.416  12.415  1.00  0.00     0.111 C 
BRANCH  26  27
HETATM   27  C30 UNL     1      -6.717   2.107  11.915  1.00  0.00     0.139 C 
HETATM   28  O2  UNL     1      -6.269   1.427  11.008  1.00  0.00    -0.650 OA
BRANCH  27  29
HETATM   29  O3  UNL     1      -7.789   1.689  12.621  1.00  0.00    -0.776 OA
HETATM   30  H48 UNL     1      -8.043   0.854  12.171  1.00  0.00     0.167 HD
ENDBRANCH  27  29
ENDBRANCH  26  27
ENDBRANCH  25  26
ENDBRANCH  16  25
BRANCH   1  31
HETATM   31  C2  UNL     1      -2.191   2.169  11.427  1.00  0.00    -0.061 C 
HETATM   32  C1  UNL     1      -3.165   1.300  11.766  1.00  0.00     0.017 C 
BRANCH  31  33
HETATM   33  C3  UNL     1      -0.883   1.645  10.883  1.00  0.00     0.198 C 
BRANCH  33  34
HETATM   34  O1  UNL     1      -1.040   1.137   9.572  1.00  0.00    -0.397 OA
HETATM   35  H5  UNL     1      -1.534   1.803   9.059  1.00  0.00     0.209 HD
ENDBRANCH  33  34
ENDBRANCH  31  33
ENDBRANCH   1  31
TORSDOF 11
ENDMDL
MODEL 4
REMARK minimizedAffinity -8.38745689
REMARK  11 active torsions:
REMARK  status: ('A' for Active; 'I' for Inactive)
REMARK    1  A    between atoms: C2_2  and  C3_3 
REMARK    2  A    between atoms: C2_2  and  C4_5 
REMARK    3  A    between atoms: C3_3  and  O1_4 
REMARK    4  A    between atoms: C13_14  and  C14_15 
REMARK    5  A    between atoms: C14_15  and  C16_17 
REMARK    6  A    between atoms: C16_17  and  C17_18 
REMARK    7  A    between atoms: C17_18  and  C18_19 
REMARK    8  A    between atoms: C27_28  and  C28_29 
REMARK    9  A    between atoms: C28_29  and  C29_30 
REMARK   10  A    between atoms: C29_30  and  C30_31 
REMARK   11  A    between atoms: C30_31  and  O3_33 
ROOT
HETATM    1  C4  UNL     1       0.428   7.193  11.895  1.00  0.00     0.025 C 
HETATM    2  C5  UNL     1      -0.492   6.130  11.269  1.00  0.00     0.010 C 
HETATM    3  C6  UNL     1      -1.428   5.532  12.306  1.00  0.00     0.007 C 
HETATM    4  C7  UNL     1      -2.459   6.585  12.724  1.00  0.00     0.004 C 
HETATM    5  C8  UNL     1      -1.769   7.840  13.319  1.00  0.00    -0.027 A 
HETATM    6  C9  UNL     1      -2.236   8.288  14.720  1.00  0.00     0.011 C 
HETATM    7  C10 UNL     1      -3.704   8.052  15.117  1.00  0.00     0.011 C 
HETATM    8  C11 UNL     1      -4.501   7.206  14.121  1.00  0.00    -0.032 C 
HETATM    9  C12 UNL     1      -4.970   8.144  12.980  1.00  0.00     0.016 C 
HETATM   10  C13 UNL     1      -5.712   6.431  14.731  1.00  0.00    -0.002 C 
HETATM   11  C22 UNL     1      -5.873   5.194  13.815  1.00  0.00     0.006 C 
HETATM   12  C23 UNL     1      -4.614   5.131  12.929  1.00  0.00     0.011 C 
HETATM   13  C24 UNL     1      -3.580   6.027  13.640  1.00  0.00    -0.032 C 
HETATM   14  C25 UNL     1      -2.955   5.168  14.786  1.00  0.00     0.016 C 
HETATM   15  C26 UNL     1      -1.471   8.969  12.350  1.00  0.00     0.022 A 
HETATM   16  C27 UNL     1      -0.296   8.175  12.859  1.00  0.00    -0.024 A 
ENDROOT
BRANCH  10  17
HETATM   17  C14 UNL     1      -7.007   7.157  15.197  1.00  0.00    -0.014 C 
HETATM   18  C15 UNL     1      -7.262   6.830  16.684  1.00  0.00     0.010 C 
BRANCH  17  19
HETATM   19  C16 UNL     1      -8.341   7.032  14.423  1.00  0.00     0.008 C 
BRANCH  19  20
HETATM   20  C17 UNL     1      -9.546   7.819  14.940  1.00  0.00     0.028 C 
BRANCH  20  21
HETATM   21  C18 UNL     1     -10.833   7.225  14.431  1.00  0.00    -0.025 C 
HETATM   22  C19 UNL     1     -11.740   7.794  13.611  1.00  0.00    -0.091 C 
HETATM   23  C20 UNL     1     -12.994   7.053  13.226  1.00  0.00     0.042 C 
HETATM   24  C21 UNL     1     -11.619   9.160  12.996  1.00  0.00     0.042 C 
ENDBRANCH  20  21
ENDBRANCH  19  20
ENDBRANCH  17  19
ENDBRANCH  10  17
BRANCH  16  25
HETATM   25  C28 UNL     1       0.638   8.784  13.926  1.00  0.00     0.021 C 
BRANCH  25  26
HETATM   26  C29 UNL     1       1.664   7.848  14.552  1.00  0.00     0.111 C 
BRANCH  26  27
HETATM   27  C30 UNL     1       1.522   7.750  16.043  1.00  0.00     0.139 C 
HETATM   28  O2  UNL     1       2.154   8.367  16.884  1.00  0.00    -0.650 OA
BRANCH  27  29
HETATM   29  O3  UNL     1       0.545   6.894  16.410  1.00  0.00    -0.776 OA
HETATM   30  H48 UNL     1       0.588   6.910  17.391  1.00  0.00     0.167 HD
ENDBRANCH  27  29
ENDBRANCH  26  27
ENDBRANCH  25  26
ENDBRANCH  16  25
BRANCH   1  31
HETATM   31  C2  UNL     1       1.321   7.799  10.803  1.00  0.00    -0.061 C 
HETATM   32  C1  UNL     1       2.571   8.207  11.100  1.00  0.00     0.017 C 
BRANCH  31  33
HETATM   33  C3  UNL     1       0.847   7.833   9.370  1.00  0.00     0.198 C 
BRANCH  33  34
HETATM   34  O1  UNL     1       0.025   8.959   9.129  1.00  0.00    -0.397 OA
HETATM   35  H5  UNL     1       0.483   9.738   9.495  1.00  0.00     0.209 HD
ENDBRANCH  33  34
ENDBRANCH  31  33
ENDBRANCH   1  31
TORSDOF 11
ENDMDL
MODEL 5
REMARK minimizedAffinity -8.23067474
REMARK  11 active torsions:
REMARK  status: ('A' for Active; 'I' for Inactive)
REMARK    1  A    between atoms: C2_2  and  C3_3 
REMARK    2  A    between atoms: C2_2  and  C4_5 
REMARK    3  A    between atoms: C3_3  and  O1_4 
REMARK    4  A    between atoms: C13_14  and  C14_15 
REMARK    5  A    between atoms: C14_15  and  C16_17 
REMARK    6  A    between atoms: C16_17  and  C17_18 
REMARK    7  A    between atoms: C17_18  and  C18_19 
REMARK    8  A    between atoms: C27_28  and  C28_29 
REMARK    9  A    between atoms: C28_29  and  C29_30 
REMARK   10  A    between atoms: C29_30  and  C30_31 
REMARK   11  A    between atoms: C30_31  and  O3_33 
ROOT
HETATM    1  C4  UNL     1       0.509   7.875  13.735  1.00  0.00     0.025 C 
HETATM    2  C5  UNL     1      -0.253   8.947  14.534  1.00  0.00     0.010 C 
HETATM    3  C6  UNL     1      -1.673   9.112  14.019  1.00  0.00     0.007 C 
HETATM    4  C7  UNL     1      -2.488   7.864  14.374  1.00  0.00     0.004 C 
HETATM    5  C8  UNL     1      -1.861   6.590  13.750  1.00  0.00    -0.027 A 
HETATM    6  C9  UNL     1      -2.790   5.717  12.881  1.00  0.00     0.011 C 
HETATM    7  C10 UNL     1      -4.285   5.648  13.240  1.00  0.00     0.011 C 
HETATM    8  C11 UNL     1      -4.720   6.630  14.330  1.00  0.00    -0.032 C 
HETATM    9  C12 UNL     1      -4.371   5.994  15.700  1.00  0.00     0.016 C 
HETATM   10  C13 UNL     1      -6.224   7.048  14.283  1.00  0.00    -0.002 C 
HETATM   11  C22 UNL     1      -6.247   8.461  14.915  1.00  0.00     0.006 C 
HETATM   12  C23 UNL     1      -4.781   8.924  15.021  1.00  0.00     0.011 C 
HETATM   13  C24 UNL     1      -4.002   8.002  14.061  1.00  0.00    -0.032 C 
HETATM   14  C25 UNL     1      -4.200   8.580  12.623  1.00  0.00     0.016 C 
HETATM   15  C26 UNL     1      -0.889   5.820  14.624  1.00  0.00     0.022 A 
HETATM   16  C27 UNL     1      -0.309   6.582  13.460  1.00  0.00    -0.024 A 
ENDROOT
BRANCH  10  17
HETATM   17  C14 UNL     1      -7.367   6.065  14.670  1.00  0.00    -0.014 C 
HETATM   18  C15 UNL     1      -7.710   6.252  16.164  1.00  0.00     0.010 C 
BRANCH  17  19
HETATM   19  C16 UNL     1      -7.285   4.551  14.364  1.00  0.00     0.008 C 
BRANCH  19  20
HETATM   20  C17 UNL     1      -7.781   4.067  13.001  1.00  0.00     0.028 C 
BRANCH  20  21
HETATM   21  C18 UNL     1      -7.208   2.714  12.671  1.00  0.00    -0.025 C 
HETATM   22  C19 UNL     1      -6.312   2.407  11.711  1.00  0.00    -0.091 C 
HETATM   23  C20 UNL     1      -5.869   0.981  11.506  1.00  0.00     0.042 C 
HETATM   24  C21 UNL     1      -5.662   3.393  10.781  1.00  0.00     0.042 C 
ENDBRANCH  20  21
ENDBRANCH  19  20
ENDBRANCH  17  19
ENDBRANCH  10  17
BRANCH  16  25
HETATM   25  C28 UNL     1       0.152   5.823  12.198  1.00  0.00     0.021 C 
BRANCH  25  26
HETATM   26  C29 UNL     1      -0.934   5.153  11.366  1.00  0.00     0.111 C 
BRANCH  26  27
HETATM   27  C30 UNL     1      -0.757   3.666  11.276  1.00  0.00     0.139 C 
HETATM   28  O2  UNL     1      -0.009   2.972  11.944  1.00  0.00    -0.650 OA
BRANCH  27  29
HETATM   29  O3  UNL     1      -1.575   3.107  10.358  1.00  0.00    -0.776 OA
HETATM   30  H48 UNL     1      -1.331   2.156  10.389  1.00  0.00     0.167 HD
ENDBRANCH  27  29
ENDBRANCH  26  27
ENDBRANCH  25  26
ENDBRANCH  16  25
BRANCH   1  31
HETATM   31  C2  UNL     1       1.919   7.712  14.318  1.00  0.00    -0.061 C 
HETATM   32  C1  UNL     1       2.972   7.512  13.500  1.00  0.00     0.017 C 
BRANCH  31  33
HETATM   33  C3  UNL     1       2.151   7.892  15.800  1.00  0.00     0.198 C 
BRANCH  33  34
HETATM   34  O1  UNL     1       1.451   6.919  16.550  1.00  0.00    -0.397 OA
HETATM   35  H5  UNL     1       1.633   6.051  16.144  1.00  0.00     0.209 HD
ENDBRANCH  33  34
ENDBRANCH  31  33
ENDBRANCH   1  31
TORSDOF 11
ENDMDL
MODEL 6
REMARK minimizedAffinity -8.22297955
REMARK  11 active torsions:
REMARK  status: ('A' for Active; 'I' for Inactive)
REMARK    1  A    between atoms: C2_2  and  C3_3 
REMARK    2  A    between atoms: C2_2  and  C4_5 
REMARK    3  A    between atoms: C3_3  and  O1_4 
REMARK    4  A    between atoms: C13_14  and  C14_15 
REMARK    5  A    between atoms: C14_15  and  C16_17 
REMARK    6  A    between atoms: C16_17  and  C17_18 
REMARK    7  A    between atoms: C17_18  and  C18_19 
REMARK    8  A    between atoms: C27_28  and  C28_29 
REMARK    9  A    between atoms: C28_29  and  C29_30 
REMARK   10  A    between atoms: C29_30  and  C30_31 
REMARK   11  A    between atoms: C30_31  and  O3_33 
ROOT
HETATM    1  C4  UNL     1       0.739   7.164  11.548  1.00  0.00     0.025 C 
HETATM    2  C5  UNL     1      -0.262   6.120  11.023  1.00  0.00     0.010 C 
HETATM    3  C6  UNL     1      -1.119   5.563  12.148  1.00  0.00     0.007 C 
HETATM    4  C7  UNL     1      -2.079   6.652  12.638  1.00  0.00     0.004 C 
HETATM    5  C8  UNL     1      -1.304   7.894  13.150  1.00  0.00    -0.027 A 
HETATM    6  C9  UNL     1      -1.632   8.373  14.580  1.00  0.00     0.011 C 
HETATM    7  C10 UNL     1      -3.065   8.185  15.109  1.00  0.00     0.011 C 
HETATM    8  C11 UNL     1      -3.971   7.350  14.200  1.00  0.00    -0.032 C 
HETATM    9  C12 UNL     1      -4.513   8.287  13.090  1.00  0.00     0.016 C 
HETATM   10  C13 UNL     1      -5.144   6.619  14.926  1.00  0.00    -0.002 C 
HETATM   11  C22 UNL     1      -5.420   5.375  14.048  1.00  0.00     0.006 C 
HETATM   12  C23 UNL     1      -4.247   5.263  13.055  1.00  0.00     0.011 C 
HETATM   13  C24 UNL     1      -3.130   6.138  13.659  1.00  0.00    -0.032 C 
HETATM   14  C25 UNL     1      -2.430   5.277  14.759  1.00  0.00     0.016 C 
HETATM   15  C26 UNL     1      -1.062   9.000  12.141  1.00  0.00     0.022 A 
HETATM   16  C27 UNL     1       0.131   8.179  12.557  1.00  0.00    -0.024 A 
ENDROOT
BRANCH  10  17
HETATM   17  C14 UNL     1      -6.372   7.389  15.494  1.00  0.00    -0.014 C 
HETATM   18  C15 UNL     1      -7.000   6.565  16.638  1.00  0.00     0.010 C 
BRANCH  17  19
HETATM   19  C16 UNL     1      -7.504   7.915  14.580  1.00  0.00     0.008 C 
BRANCH  19  20
HETATM   20  C17 UNL     1      -8.809   7.120  14.526  1.00  0.00     0.028 C 
BRANCH  20  21
HETATM   21  C18 UNL     1      -8.552   5.693  14.120  1.00  0.00    -0.025 C 
HETATM   22  C19 UNL     1      -8.596   5.164  12.880  1.00  0.00    -0.091 C 
HETATM   23  C20 UNL     1      -8.334   3.696  12.665  1.00  0.00     0.042 C 
HETATM   24  C21 UNL     1      -8.882   5.930  11.619  1.00  0.00     0.042 C 
ENDBRANCH  20  21
ENDBRANCH  19  20
ENDBRANCH  17  19
ENDBRANCH  10  17
BRANCH  16  25
HETATM   25  C28 UNL     1       1.172   8.775  13.527  1.00  0.00     0.021 C 
BRANCH  25  26
HETATM   26  C29 UNL     1       2.293   7.848  13.982  1.00  0.00     0.111 C 
BRANCH  26  27
HETATM   27  C30 UNL     1       2.184   7.479  15.433  1.00  0.00     0.139 C 
HETATM   28  O2  UNL     1       1.379   7.907  16.242  1.00  0.00    -0.650 OA
BRANCH  27  29
HETATM   29  O3  UNL     1       3.086   6.541  15.792  1.00  0.00    -0.776 OA
HETATM   30  H48 UNL     1       2.918   6.424  16.753  1.00  0.00     0.167 HD
ENDBRANCH  27  29
ENDBRANCH  26  27
ENDBRANCH  25  26
ENDBRANCH  16  25
BRANCH   1  31
HETATM   31  C2  UNL     1       1.548   7.729  10.373  1.00  0.00    -0.061 C 
HETATM   32  C1  UNL     1       2.896   7.704  10.404  1.00  0.00     0.017 C 
BRANCH  31  33
HETATM   33  C3  UNL     1       0.841   8.207   9.127  1.00  0.00     0.198 C 
BRANCH  33  34
HETATM   34  O1  UNL     1       1.767   8.560   8.117  1.00  0.00    -0.397 OA
HETATM   35  H5  UNL     1       2.411   7.832   8.045  1.00  0.00     0.209 HD
ENDBRANCH  33  34
ENDBRANCH  31  33
ENDBRANCH   1  31
TORSDOF 11
ENDMDL
MODEL 7
REMARK minimizedAffinity -8.15616894
REMARK  11 active torsions:
REMARK  status: ('A' for Active; 'I' for Inactive)
REMARK    1  A    between atoms: C2_2  and  C3_3 
REMARK    2  A    between atoms: C2_2  and  C4_5 
REMARK    3  A    between atoms: C3_3  and  O1_4 
REMARK    4  A    between atoms: C13_14  and  C14_15 
REMARK    5  A    between atoms: C14_15  and  C16_17 
REMARK    6  A    between atoms: C16_17  and  C17_18 
REMARK    7  A    between atoms: C17_18  and  C18_19 
REMARK    8  A    between atoms: C27_28  and  C28_29 
REMARK    9  A    between atoms: C28_29  and  C29_30 
REMARK   10  A    between atoms: C29_30  and  C30_31 
REMARK   11  A    between atoms: C30_31  and  O3_33 
ROOT
HETATM    1  C4  UNL     1      -5.212   6.586  15.351  1.00  0.00     0.025 C 
HETATM    2  C5  UNL     1      -4.173   7.563  15.929  1.00  0.00     0.010 C 
HETATM    3  C6  UNL     1      -2.760   7.035  15.749  1.00  0.00     0.007 C 
HETATM    4  C7  UNL     1      -2.389   7.078  14.263  1.00  0.00     0.004 C 
HETATM    5  C8  UNL     1      -3.368   6.222  13.416  1.00  0.00    -0.027 A 
HETATM    6  C9  UNL     1      -2.739   5.147  12.507  1.00  0.00     0.011 C 
HETATM    7  C10 UNL     1      -1.351   5.417  11.897  1.00  0.00     0.011 C 
HETATM    8  C11 UNL     1      -0.659   6.673  12.432  1.00  0.00    -0.032 C 
HETATM    9  C12 UNL     1      -1.228   7.889  11.656  1.00  0.00     0.016 C 
HETATM   10  C13 UNL     1       0.900   6.652  12.358  1.00  0.00    -0.002 C 
HETATM   11  C22 UNL     1       1.350   7.571  13.519  1.00  0.00     0.006 C 
HETATM   12  C23 UNL     1       0.102   7.837  14.384  1.00  0.00     0.011 C 
HETATM   13  C24 UNL     1      -0.901   6.737  13.984  1.00  0.00    -0.032 C 
HETATM   14  C25 UNL     1      -0.492   5.449  14.769  1.00  0.00     0.016 C 
HETATM   15  C26 UNL     1      -4.557   6.952  12.820  1.00  0.00     0.022 A 
HETATM   16  C27 UNL     1      -4.835   6.005  13.958  1.00  0.00    -0.024 A 
ENDROOT
BRANCH  10  17
HETATM   17  C14 UNL     1       1.665   6.769  11.007  1.00  0.00    -0.014 C 
HETATM   18  C15 UNL     1       2.424   5.452  10.740  1.00  0.00     0.010 C 
BRANCH  17  19
HETATM   19  C16 UNL     1       2.606   7.958  10.698  1.00  0.00     0.008 C 
BRANCH  19  20
HETATM   20  C17 UNL     1       3.413   7.914   9.400  1.00  0.00     0.028 C 
BRANCH  20  21
HETATM   21  C18 UNL     1       2.511   8.062   8.203  1.00  0.00    -0.025 C 
HETATM   22  C19 UNL     1       2.210   7.133   7.273  1.00  0.00    -0.091 C 
HETATM   23  C20 UNL     1       1.301   7.471   6.120  1.00  0.00     0.042 C 
HETATM   24  C21 UNL     1       2.702   5.712   7.274  1.00  0.00     0.042 C 
ENDBRANCH  20  21
ENDBRANCH  19  20
ENDBRANCH  17  19
ENDBRANCH  10  17
BRANCH  16  25
HETATM   25  C28 UNL     1      -5.478   4.631  13.675  1.00  0.00     0.021 C 
BRANCH  25  26
HETATM   26  C29 UNL     1      -6.670   4.614  12.727  1.00  0.00     0.111 C 
BRANCH  26  27
HETATM   27  C30 UNL     1      -7.418   3.314  12.763  1.00  0.00     0.139 C 
HETATM   28  O2  UNL     1      -7.044   2.238  12.329  1.00  0.00    -0.650 OA
BRANCH  27  29
HETATM   29  O3  UNL     1      -8.609   3.425  13.390  1.00  0.00    -0.776 OA
HETATM   30  H48 UNL     1      -8.989   2.524  13.312  1.00  0.00     0.167 HD
ENDBRANCH  27  29
ENDBRANCH  26  27
ENDBRANCH  25  26
ENDBRANCH  16  25
BRANCH   1  31
HETATM   31  C2  UNL     1      -6.617   7.181  15.515  1.00  0.00    -0.061 C 
HETATM   32  C1  UNL     1      -6.899   8.400  15.013  1.00  0.00     0.017 C 
BRANCH  31  33
HETATM   33  C3  UNL     1      -7.720   6.358  16.136  1.00  0.00     0.198 C 
BRANCH  33  34
HETATM   34  O1  UNL     1      -8.611   5.870  15.151  1.00  0.00    -0.397 OA
HETATM   35  H5  UNL     1      -8.072   5.480  14.438  1.00  0.00     0.209 HD
ENDBRANCH  33  34
ENDBRANCH  31  33
ENDBRANCH   1  31
TORSDOF 11
ENDMDL
MODEL 8
REMARK minimizedAffinity -8.14720249
REMARK  11 active torsions:
REMARK  status: ('A' for Active; 'I' for Inactive)
REMARK    1  A    between atoms: C2_2  and  C3_3 
REMARK    2  A    between atoms: C2_2  and  C4_5 
REMARK    3  A    between atoms: C3_3  and  O1_4 
REMARK    4  A    between atoms: C13_14  and  C14_15 
REMARK    5  A    between atoms: C14_15  and  C16_17 
REMARK    6  A    between atoms: C16_17  and  C17_18 
REMARK    7  A    between atoms: C17_18  and  C18_19 
REMARK    8  A    between atoms: C27_28  and  C28_29 
REMARK    9  A    between atoms: C28_29  and  C29_30 
REMARK   10  A    between atoms: C29_30  and  C30_31 
REMARK   11  A    between atoms: C30_31  and  O3_33 
ROOT
HETATM    1  C4  UNL     1       1.899   6.396  11.490  1.00  0.00     0.025 C 
HETATM    2  C5  UNL     1       0.820   5.372  11.097  1.00  0.00     0.010 C 
HETATM    3  C6  UNL     1      -0.148   5.124  12.242  1.00  0.00     0.007 C 
HETATM    4  C7  UNL     1      -1.011   6.373  12.453  1.00  0.00     0.004 C 
HETATM    5  C8  UNL     1      -0.134   7.610  12.781  1.00  0.00    -0.027 A 
HETATM    6  C9  UNL     1      -0.482   8.383  14.071  1.00  0.00     0.011 C 
HETATM    7  C10 UNL     1      -1.953   8.438  14.522  1.00  0.00     0.011 C 
HETATM    8  C11 UNL     1      -2.894   7.535  13.721  1.00  0.00    -0.032 C 
HETATM    9  C12 UNL     1      -3.275   8.290  12.422  1.00  0.00     0.016 C 
HETATM   10  C13 UNL     1      -4.176   7.072  14.485  1.00  0.00    -0.002 C 
HETATM   11  C22 UNL     1      -4.538   5.715  13.833  1.00  0.00     0.006 C 
HETATM   12  C23 UNL     1      -3.333   5.304  12.964  1.00  0.00     0.011 C 
HETATM   13  C24 UNL     1      -2.162   6.167  13.474  1.00  0.00    -0.032 C 
HETATM   14  C25 UNL     1      -1.616   5.468  14.761  1.00  0.00     0.016 C 
HETATM   15  C26 UNL     1       0.277   8.476  11.605  1.00  0.00     0.022 A 
HETATM   16  C27 UNL     1       1.352   7.639  12.249  1.00  0.00    -0.024 A 
ENDROOT
BRANCH  10  17
HETATM   17  C14 UNL     1      -5.342   8.050  14.812  1.00  0.00    -0.014 C 
HETATM   18  C15 UNL     1      -4.775   9.282  15.548  1.00  0.00     0.010 C 
BRANCH  17  19
HETATM   19  C16 UNL     1      -6.625   7.582  15.538  1.00  0.00     0.008 C 
BRANCH  19  20
HETATM   20  C17 UNL     1      -7.821   7.164  14.681  1.00  0.00     0.028 C 
BRANCH  20  21
HETATM   21  C18 UNL     1      -7.771   5.690  14.374  1.00  0.00    -0.025 C 
HETATM   22  C19 UNL     1      -8.112   5.072  13.225  1.00  0.00    -0.091 C 
HETATM   23  C20 UNL     1      -8.022   3.573  13.107  1.00  0.00     0.042 C 
HETATM   24  C21 UNL     1      -8.584   5.761  11.975  1.00  0.00     0.042 C 
ENDBRANCH  20  21
ENDBRANCH  19  20
ENDBRANCH  17  19
ENDBRANCH  10  17
BRANCH  16  25
HETATM   25  C28 UNL     1       2.400   8.306  13.164  1.00  0.00     0.021 C 
BRANCH  25  26
HETATM   26  C29 UNL     1       2.165   8.199  14.666  1.00  0.00     0.111 C 
BRANCH  26  27
HETATM   27  C30 UNL     1       3.399   7.790  15.415  1.00  0.00     0.139 C 
HETATM   28  O2  UNL     1       4.356   8.493  15.695  1.00  0.00    -0.650 OA
BRANCH  27  29
HETATM   29  O3  UNL     1       3.351   6.503  15.820  1.00  0.00    -0.776 OA
HETATM   30  H48 UNL     1       4.219   6.373  16.260  1.00  0.00     0.167 HD
ENDBRANCH  27  29
ENDBRANCH  26  27
ENDBRANCH  25  26
ENDBRANCH  16  25
BRANCH   1  31
HETATM   31  C2  UNL     1       2.824   6.646  10.292  1.00  0.00    -0.061 C 
HETATM   32  C1  UNL     1       4.155   6.753  10.474  1.00  0.00     0.017 C 
BRANCH  31  33
HETATM   33  C3  UNL     1       2.261   6.657   8.890  1.00  0.00     0.198 C 
BRANCH  33  34
HETATM   34  O1  UNL     1       2.773   5.582   8.125  1.00  0.00    -0.397 OA
HETATM   35  H5  UNL     1       2.688   4.774   8.664  1.00  0.00     0.209 HD
ENDBRANCH  33  34
ENDBRANCH  31  33
ENDBRANCH   1  31
TORSDOF 11
ENDMDL
MODEL 9
REMARK minimizedAffinity -8.02361774
REMARK  11 active torsions:
REMARK  status: ('A' for Active; 'I' for Inactive)
REMARK    1  A    between atoms: C2_2  and  C3_3 
REMARK    2  A    between atoms: C2_2  and  C4_5 
REMARK    3  A    between atoms: C3_3  and  O1_4 
REMARK    4  A    between atoms: C13_14  and  C14_15 
REMARK    5  A    between atoms: C14_15  and  C16_17 
REMARK    6  A    between atoms: C16_17  and  C17_18 
REMARK    7  A    between atoms: C17_18  and  C18_19 
REMARK    8  A    between atoms: C27_28  and  C28_29 
REMARK    9  A    between atoms: C28_29  and  C29_30 
REMARK   10  A    between atoms: C29_30  and  C30_31 
REMARK   11  A    between atoms: C30_31  and  O3_33 
ROOT
HETATM    1  C4  UNL     1      -2.162   3.712  11.303  1.00  0.00     0.025 C 
HETATM    2  C5  UNL     1      -0.728   4.255  11.434  1.00  0.00     0.010 C 
HETATM    3  C6  UNL     1      -0.712   5.774  11.452  1.00  0.00     0.007 C 
HETATM    4  C7  UNL     1      -1.322   6.270  12.768  1.00  0.00     0.004 C 
HETATM    5  C8  UNL     1      -2.781   5.769  12.933  1.00  0.00    -0.027 A 
HETATM    6  C9  UNL     1      -3.855   6.844  13.200  1.00  0.00     0.011 C 
HETATM    7  C10 UNL     1      -3.460   8.099  13.998  1.00  0.00     0.011 C 
HETATM    8  C11 UNL     1      -1.960   8.225  14.277  1.00  0.00    -0.032 C 
HETATM    9  C12 UNL     1      -1.638   7.347  15.514  1.00  0.00     0.016 C 
HETATM   10  C13 UNL     1      -1.446   9.684  14.488  1.00  0.00    -0.002 C 
HETATM   11  C22 UNL     1       0.034   9.636  14.036  1.00  0.00     0.006 C 
HETATM   12  C23 UNL     1       0.236   8.287  13.319  1.00  0.00     0.011 C 
HETATM   13  C24 UNL     1      -1.187   7.802  12.976  1.00  0.00    -0.032 C 
HETATM   14  C25 UNL     1      -1.618   8.557  11.677  1.00  0.00     0.016 C 
HETATM   15  C26 UNL     1      -2.966   4.473  13.699  1.00  0.00     0.022 A 
HETATM   16  C27 UNL     1      -3.200   4.429  12.212  1.00  0.00    -0.024 A 
ENDROOT
BRANCH  10  17
HETATM   17  C14 UNL     1      -1.783  10.502  15.769  1.00  0.00    -0.014 C 
HETATM   18  C15 UNL     1      -0.500  10.681  16.607  1.00  0.00     0.010 C 
BRANCH  17  19
HETATM   19  C16 UNL     1      -2.944  10.106  16.712  1.00  0.00     0.008 C 
BRANCH  19  20
HETATM   20  C17 UNL     1      -2.704  10.196  18.220  1.00  0.00     0.028 C 
BRANCH  20  21
HETATM   21  C18 UNL     1      -3.757  11.047  18.880  1.00  0.00    -0.025 C 
HETATM   22  C19 UNL     1      -3.740  12.381  19.077  1.00  0.00    -0.091 C 
HETATM   23  C20 UNL     1      -4.881  13.064  19.787  1.00  0.00     0.042 C 
HETATM   24  C21 UNL     1      -2.650  13.312  18.625  1.00  0.00     0.042 C 
ENDBRANCH  20  21
ENDBRANCH  19  20
ENDBRANCH  17  19
ENDBRANCH  10  17
BRANCH  16  25
HETATM   25  C28 UNL     1      -4.641   4.363  11.663  1.00  0.00     0.021 C 
BRANCH  25  26
HETATM   26  C29 UNL     1      -5.745   4.070  12.670  1.00  0.00     0.111 C 
BRANCH  26  27
HETATM   27  C30 UNL     1      -6.552   2.858  12.306  1.00  0.00     0.139 C 
HETATM   28  O2  UNL     1      -6.386   2.126  11.345  1.00  0.00    -0.650 OA
BRANCH  27  29
HETATM   29  O3  UNL     1      -7.522   2.597  13.208  1.00  0.00    -0.776 OA
HETATM   30  H48 UNL     1      -7.975   1.812  12.830  1.00  0.00     0.167 HD
ENDBRANCH  27  29
ENDBRANCH  26  27
ENDBRANCH  25  26
ENDBRANCH  16  25
BRANCH   1  31
HETATM   31  C2  UNL     1      -2.130   2.178  11.334  1.00  0.00    -0.061 C 
HETATM   32  C1  UNL     1      -3.229   1.485  11.694  1.00  0.00     0.017 C 
BRANCH  31  33
HETATM   33  C3  UNL     1      -0.907   1.436  10.850  1.00  0.00     0.198 C 
BRANCH  33  34
HETATM   34  O1  UNL     1      -1.047   1.047   9.497  1.00  0.00    -0.397 OA
HETATM   35  H5  UNL     1      -1.356   1.827   8.999  1.00  0.00     0.209 HD
ENDBRANCH  33  34
ENDBRANCH  31  33
ENDBRANCH   1  31
TORSDOF 11
ENDMDL
