MODEL 1
REMARK minimizedAffinity -7.55981064
REMARK CNNscore 0.541275322
REMARK CNNaffinity 5.85106468
REMARK  6 active torsions:
REMARK  status: ('A' for Active; 'I' for Inactive)
REMARK    1  A    between atoms: C2_2  and  O2_4 
REMARK    2  A    between atoms: O2_4  and  C3_5 
REMARK    3  A    between atoms: C12_15  and  O4_16 
REMARK    4  A    between atoms: C17_22  and  C18_23 
REMARK    5  A    between atoms: C18_23  and  C19_24 
REMARK       I    between atoms: C27_33  and  N3_34 
REMARK    6  A    between atoms: C35_45  and  O5_46 
ROOT
HETATM    1  C3  UNL     1       5.093  59.932  -3.142  1.00  0.00     0.134 C 
HETATM    2  C4  UNL     1       6.591  59.572  -3.182  1.00  0.00     0.037 C 
HETATM    3  C5  UNL     1       7.176  59.299  -4.574  1.00  0.00     0.042 C 
HETATM    4  C6  UNL     1       8.691  59.313  -4.582  1.00  0.00    -0.048 A 
HETATM    5  C7  UNL     1       9.439  60.514  -4.593  1.00  0.00    -0.015 A 
HETATM    6  C8  UNL     1       8.776  61.868  -4.630  1.00  0.00     0.044 C 
HETATM    7  C9  UNL     1       9.764  62.961  -5.007  1.00  0.00     0.031 C 
HETATM    8  C10 UNL     1      11.029  62.766  -4.197  1.00  0.00     0.176 C 
HETATM    9  O3  UNL     1      11.673  61.534  -4.524  1.00  0.00    -0.348 OA
HETATM   10  C11 UNL     1      10.840  60.440  -4.548  1.00  0.00     0.109 A 
HETATM   11  C12 UNL     1      11.488  59.202  -4.558  1.00  0.00     0.107 A 
HETATM   12  C13 UNL     1      10.773  58.006  -4.564  1.00  0.00    -0.004 A 
HETATM   13  C14 UNL     1       9.370  58.078  -4.574  1.00  0.00     0.019 A 
HETATM   14  C15 UNL     1      11.488  56.679  -4.586  1.00  0.00     0.167 C 
HETATM   15  N1  UNL     1      10.970  55.738  -3.600  1.00  0.00    -0.347 N 
HETATM   16  C16 UNL     1      10.482  54.428  -3.955  1.00  0.00     0.136 C 
HETATM   17  C17 UNL     1      10.733  53.574  -2.698  1.00  0.00    -0.011 C 
HETATM   18  C25 UNL     1       9.697  52.437  -2.493  1.00  0.00     0.032 C 
HETATM   19  C26 UNL     1       8.213  52.816  -2.419  1.00  0.00     0.139 C 
HETATM   20  N2  UNL     1       7.566  52.826  -3.747  1.00  0.00    -0.227 N 
HETATM   21  C27 UNL     1       6.761  53.784  -4.254  1.00  0.00     0.668 C 
HETATM   22  N3  UNL     1       6.614  54.968  -3.641  1.00  0.00    -0.235 N 
HETATM   23  N4  UNL     1       6.074  53.584  -5.393  1.00  0.00    -0.217 N 
HETATM   24  C28 UNL     1       6.025  52.338  -6.139  1.00  0.00     0.224 C 
HETATM   25  S1  UNL     1       5.253  52.619  -7.750  1.00  0.00    -0.077 SA
HETATM   26  S2  UNL     1       6.652  53.735  -8.777  1.00  0.00    -0.096 SA
HETATM   27  C29 UNL     1       6.334  55.477  -8.308  1.00  0.00     0.086 C 
HETATM   28  C30 UNL     1       4.860  55.886  -8.312  1.00  0.00     0.011 C 
HETATM   29  C31 UNL     1       4.704  57.341  -7.859  1.00  0.00     0.001 C 
HETATM   30  C32 UNL     1       3.250  57.739  -7.589  1.00  0.00     0.000 C 
HETATM   31  C33 UNL     1       2.577  57.076  -6.380  1.00  0.00     0.002 C 
HETATM   32  C34 UNL     1       2.678  57.868  -5.066  1.00  0.00     0.032 C 
HETATM   33  C35 UNL     1       4.087  57.926  -4.459  1.00  0.00     0.120 C 
HETATM   34  C36 UNL     1       4.139  58.721  -3.144  1.00  0.00     0.064 C 
HETATM   35  C37 UNL     1      10.672  54.634  -1.575  1.00  0.00     0.114 C 
HETATM   36  C38 UNL     1      11.191  55.880  -2.238  1.00  0.00     0.220 C 
HETATM   37  O6  UNL     1      11.667  56.833  -1.650  1.00  0.00    -0.273 OA
HETATM   38  H32 UNL     1       7.698  51.990  -4.297  1.00  0.00     0.177 HD
HETATM   39  H33 UNL     1       7.102  55.211  -2.791  1.00  0.00     0.174 HD
HETATM   40  H34 UNL     1       5.956  55.676  -3.994  1.00  0.00     0.174 HD
HETATM   41  H35 UNL     1       5.525  54.353  -5.752  1.00  0.00     0.178 HD
ENDROOT
BRANCH  17  42
HETATM   42  C18 UNL     1      12.178  52.975  -2.845  1.00  0.00     0.050 C 
BRANCH  42  43
HETATM   43  C19 UNL     1      12.616  52.540  -4.222  1.00  0.00    -0.057 A 
HETATM   44  C20 UNL     1      13.461  53.351  -4.996  1.00  0.00     0.007 A 
HETATM   45  C21 UNL     1      13.854  52.955  -6.274  1.00  0.00     0.001 A 
HETATM   46  C22 UNL     1      13.395  51.751  -6.803  1.00  0.00     0.000 A 
HETATM   47  C23 UNL     1      12.553  50.934  -6.049  1.00  0.00     0.001 A 
HETATM   48  C24 UNL     1      12.163  51.328  -4.767  1.00  0.00     0.007 A 
ENDBRANCH  42  43
ENDBRANCH  17  42
BRANCH  11  49
HETATM   49  O4  UNL     1      12.863  59.175  -4.556  1.00  0.00    -0.357 OA
HETATM   50  H15 UNL     1      13.122  60.077  -4.292  1.00  0.00     0.217 HD
ENDBRANCH  11  49
BRANCH   1  51
HETATM   51  O2  UNL     1       4.723  60.801  -4.226  1.00  0.00    -0.316 OA
BRANCH  51  52
HETATM   52  C2  UNL     1       4.275  62.041  -3.867  1.00  0.00     0.255 C 
HETATM   53  C1  UNL     1       4.257  62.163  -2.375  1.00  0.00     0.126 C 
HETATM   54  O1  UNL     1       3.915  62.916  -4.641  1.00  0.00    -0.266 OA
ENDBRANCH  51  52
ENDBRANCH   1  51
BRANCH  33  55
HETATM   55  O5  UNL     1       4.547  56.581  -4.199  1.00  0.00    -0.395 OA
HETATM   56  H51 UNL     1       3.824  56.181  -3.661  1.00  0.00     0.210 HD
ENDBRANCH  33  55
TORSDOF 6
ENDMDL
MODEL 2
REMARK minimizedAffinity -7.23732328
REMARK CNNscore 0.371218145
REMARK CNNaffinity 5.80416346
REMARK  6 active torsions:
REMARK  status: ('A' for Active; 'I' for Inactive)
REMARK    1  A    between atoms: C2_2  and  O2_4 
REMARK    2  A    between atoms: O2_4  and  C3_5 
REMARK    3  A    between atoms: C12_15  and  O4_16 
REMARK    4  A    between atoms: C17_22  and  C18_23 
REMARK    5  A    between atoms: C18_23  and  C19_24 
REMARK       I    between atoms: C27_33  and  N3_34 
REMARK    6  A    between atoms: C35_45  and  O5_46 
ROOT
HETATM    1  C3  UNL     1       2.249  57.756  -2.395  1.00  0.00     0.134 C 
HETATM    2  C4  UNL     1       3.668  58.322  -2.595  1.00  0.00     0.037 C 
HETATM    3  C5  UNL     1       4.014  58.770  -4.021  1.00  0.00     0.042 C 
HETATM    4  C6  UNL     1       5.257  59.634  -4.075  1.00  0.00    -0.048 A 
HETATM    5  C7  UNL     1       5.243  61.008  -3.735  1.00  0.00    -0.015 A 
HETATM    6  C8  UNL     1       3.977  61.716  -3.324  1.00  0.00     0.044 C 
HETATM    7  C9  UNL     1       4.143  63.227  -3.372  1.00  0.00     0.031 C 
HETATM    8  C10 UNL     1       5.456  63.587  -2.706  1.00  0.00     0.176 C 
HETATM    9  O3  UNL     1       6.568  63.053  -3.424  1.00  0.00    -0.348 OA
HETATM   10  C11 UNL     1       6.450  61.725  -3.761  1.00  0.00     0.109 A 
HETATM   11  C12 UNL     1       7.634  61.112  -4.180  1.00  0.00     0.107 A 
HETATM   12  C13 UNL     1       7.669  59.765  -4.537  1.00  0.00    -0.004 A 
HETATM   13  C14 UNL     1       6.469  59.037  -4.476  1.00  0.00     0.019 A 
HETATM   14  C15 UNL     1       8.951  59.122  -4.996  1.00  0.00     0.167 C 
HETATM   15  N1  UNL     1       9.216  57.848  -4.339  1.00  0.00    -0.347 N 
HETATM   16  C16 UNL     1       9.429  56.623  -5.069  1.00  0.00     0.136 C 
HETATM   17  C17 UNL     1      10.339  55.784  -4.152  1.00  0.00    -0.011 C 
HETATM   18  C25 UNL     1      10.121  54.253  -4.278  1.00  0.00     0.032 C 
HETATM   19  C26 UNL     1       8.710  53.702  -4.041  1.00  0.00     0.139 C 
HETATM   20  N2  UNL     1       7.902  53.667  -5.276  1.00  0.00    -0.227 N 
HETATM   21  C27 UNL     1       6.630  54.096  -5.431  1.00  0.00     0.668 C 
HETATM   22  N3  UNL     1       6.011  54.803  -4.473  1.00  0.00    -0.235 N 
HETATM   23  N4  UNL     1       5.938  53.827  -6.552  1.00  0.00    -0.217 N 
HETATM   24  C28 UNL     1       6.400  52.993  -7.648  1.00  0.00     0.224 C 
HETATM   25  S1  UNL     1       5.289  53.171  -9.064  1.00  0.00    -0.077 SA
HETATM   26  S2  UNL     1       5.652  55.088  -9.736  1.00  0.00    -0.096 SA
HETATM   27  C29 UNL     1       4.569  56.175  -8.735  1.00  0.00     0.086 C 
HETATM   28  C30 UNL     1       3.135  55.672  -8.561  1.00  0.00     0.011 C 
HETATM   29  C31 UNL     1       2.334  56.626  -7.670  1.00  0.00     0.001 C 
HETATM   30  C32 UNL     1       0.977  56.059  -7.241  1.00  0.00     0.000 C 
HETATM   31  C33 UNL     1       1.013  54.865  -6.279  1.00  0.00     0.002 C 
HETATM   32  C34 UNL     1       0.947  55.231  -4.787  1.00  0.00     0.032 C 
HETATM   33  C35 UNL     1       2.204  55.922  -4.240  1.00  0.00     0.120 C 
HETATM   34  C36 UNL     1       2.096  56.263  -2.744  1.00  0.00     0.064 C 
HETATM   35  C37 UNL     1       9.960  56.318  -2.752  1.00  0.00     0.114 C 
HETATM   36  C38 UNL     1       9.601  57.756  -3.009  1.00  0.00     0.220 C 
HETATM   37  O6  UNL     1       9.613  58.635  -2.168  1.00  0.00    -0.273 OA
HETATM   38  H32 UNL     1       8.339  53.213  -6.064  1.00  0.00     0.177 HD
HETATM   39  H33 UNL     1       6.460  55.063  -3.607  1.00  0.00     0.174 HD
HETATM   40  H34 UNL     1       5.024  55.078  -4.565  1.00  0.00     0.174 HD
HETATM   41  H35 UNL     1       5.008  54.213  -6.633  1.00  0.00     0.178 HD
ENDROOT
BRANCH  17  42
HETATM   42  C18 UNL     1      11.819  56.158  -4.527  1.00  0.00     0.050 C 
BRANCH  42  43
HETATM   43  C19 UNL     1      12.803  55.025  -4.694  1.00  0.00    -0.057 A 
HETATM   44  C20 UNL     1      13.172  54.578  -5.972  1.00  0.00     0.007 A 
HETATM   45  C21 UNL     1      14.070  53.523  -6.127  1.00  0.00     0.001 A 
HETATM   46  C22 UNL     1      14.600  52.889  -5.005  1.00  0.00     0.000 A 
HETATM   47  C23 UNL     1      14.242  53.318  -3.727  1.00  0.00     0.001 A 
HETATM   48  C24 UNL     1      13.346  54.378  -3.572  1.00  0.00     0.007 A 
ENDBRANCH  42  43
ENDBRANCH  17  42
BRANCH  11  49
HETATM   49  O4  UNL     1       8.784  61.862  -4.233  1.00  0.00    -0.357 OA
HETATM   50  H15 UNL     1       8.578  62.657  -3.708  1.00  0.00     0.217 HD
ENDBRANCH  11  49
BRANCH   1  51
HETATM   51  O2  UNL     1       1.268  58.498  -3.139  1.00  0.00    -0.316 OA
BRANCH  51  52
HETATM   52  C2  UNL     1       0.043  58.623  -2.547  1.00  0.00     0.255 C 
HETATM   53  C1  UNL     1      -1.030  58.198  -3.502  1.00  0.00     0.126 C 
HETATM   54  O1  UNL     1      -0.159  59.044  -1.417  1.00  0.00    -0.266 OA
ENDBRANCH  51  52
ENDBRANCH   1  51
BRANCH  33  55
HETATM   55  O5  UNL     1       3.343  55.052  -4.429  1.00  0.00    -0.395 OA
HETATM   56  H51 UNL     1       3.064  54.201  -4.020  1.00  0.00     0.210 HD
ENDBRANCH  33  55
TORSDOF 6
ENDMDL
MODEL 3
REMARK minimizedAffinity -7.43354464
REMARK CNNscore 0.156256422
REMARK CNNaffinity 5.49399376
REMARK  6 active torsions:
REMARK  status: ('A' for Active; 'I' for Inactive)
REMARK    1  A    between atoms: C2_2  and  O2_4 
REMARK    2  A    between atoms: O2_4  and  C3_5 
REMARK    3  A    between atoms: C12_15  and  O4_16 
REMARK    4  A    between atoms: C17_22  and  C18_23 
REMARK    5  A    between atoms: C18_23  and  C19_24 
REMARK       I    between atoms: C27_33  and  N3_34 
REMARK    6  A    between atoms: C35_45  and  O5_46 
ROOT
HETATM    1  C3  UNL     1      -6.105  45.095 -20.007  1.00  0.00     0.134 C 
HETATM    2  C4  UNL     1      -6.381  45.319 -21.506  1.00  0.00     0.037 C 
HETATM    3  C5  UNL     1      -7.289  46.508 -21.849  1.00  0.00     0.042 C 
HETATM    4  C6  UNL     1      -7.224  46.888 -23.314  1.00  0.00    -0.048 A 
HETATM    5  C7  UNL     1      -6.161  47.649 -23.855  1.00  0.00    -0.015 A 
HETATM    6  C8  UNL     1      -5.030  48.163 -22.999  1.00  0.00     0.044 C 
HETATM    7  C9  UNL     1      -4.233  49.240 -23.719  1.00  0.00     0.031 C 
HETATM    8  C10 UNL     1      -3.952  48.768 -25.130  1.00  0.00     0.176 C 
HETATM    9  O3  UNL     1      -5.159  48.614 -25.879  1.00  0.00    -0.348 OA
HETATM   10  C11 UNL     1      -6.150  47.913 -25.233  1.00  0.00     0.109 A 
HETATM   11  C12 UNL     1      -7.204  47.490 -26.048  1.00  0.00     0.107 A 
HETATM   12  C13 UNL     1      -8.270  46.754 -25.535  1.00  0.00    -0.004 A 
HETATM   13  C14 UNL     1      -8.264  46.458 -24.161  1.00  0.00     0.019 A 
HETATM   14  C15 UNL     1      -9.404  46.315 -26.425  1.00  0.00     0.167 C 
HETATM   15  N1  UNL     1      -9.748  44.908 -26.254  1.00  0.00    -0.347 N 
HETATM   16  C16 UNL     1     -11.078  44.468 -25.912  1.00  0.00     0.136 C 
HETATM   17  C17 UNL     1     -11.183  43.059 -26.526  1.00  0.00    -0.011 C 
HETATM   18  C25 UNL     1     -12.105  42.095 -25.733  1.00  0.00     0.032 C 
HETATM   19  C26 UNL     1     -11.796  41.854 -24.251  1.00  0.00     0.139 C 
HETATM   20  N2  UNL     1     -12.472  42.826 -23.368  1.00  0.00    -0.227 N 
HETATM   21  C27 UNL     1     -11.924  43.516 -22.344  1.00  0.00     0.668 C 
HETATM   22  N3  UNL     1     -10.598  43.525 -22.140  1.00  0.00    -0.235 N 
HETATM   23  N4  UNL     1     -12.690  44.219 -21.491  1.00  0.00    -0.217 N 
HETATM   24  C28 UNL     1     -14.143  44.246 -21.489  1.00  0.00     0.224 C 
HETATM   25  S1  UNL     1     -14.730  45.556 -20.389  1.00  0.00    -0.077 SA
HETATM   26  S2  UNL     1     -14.221  47.293 -21.380  1.00  0.00    -0.096 SA
HETATM   27  C29 UNL     1     -12.490  47.648 -20.896  1.00  0.00     0.086 C 
HETATM   28  C30 UNL     1     -12.192  47.489 -19.404  1.00  0.00     0.011 C 
HETATM   29  C31 UNL     1     -10.712  47.760 -19.119  1.00  0.00     0.001 C 
HETATM   30  C32 UNL     1     -10.287  47.369 -17.700  1.00  0.00     0.000 C 
HETATM   31  C33 UNL     1     -10.286  45.869 -17.380  1.00  0.00     0.002 C 
HETATM   32  C34 UNL     1      -8.941  45.158 -17.610  1.00  0.00     0.032 C 
HETATM   33  C35 UNL     1      -8.537  45.013 -19.084  1.00  0.00     0.120 C 
HETATM   34  C36 UNL     1      -7.192  44.290 -19.266  1.00  0.00     0.064 C 
HETATM   35  C37 UNL     1      -9.709  42.599 -26.521  1.00  0.00     0.114 C 
HETATM   36  C38 UNL     1      -8.940  43.877 -26.709  1.00  0.00     0.220 C 
HETATM   37  O6  UNL     1      -7.804  43.948 -27.138  1.00  0.00    -0.273 OA
HETATM   38  H32 UNL     1     -13.465  42.926 -23.518  1.00  0.00     0.177 HD
HETATM   39  H33 UNL     1      -9.947  43.039 -22.739  1.00  0.00     0.174 HD
HETATM   40  H34 UNL     1     -10.185  44.001 -21.326  1.00  0.00     0.174 HD
HETATM   41  H35 UNL     1     -12.223  44.755 -20.773  1.00  0.00     0.178 HD
ENDROOT
BRANCH  17  42
HETATM   42  C18 UNL     1     -11.722  43.248 -27.990  1.00  0.00     0.050 C 
BRANCH  42  43
HETATM   43  C19 UNL     1     -13.142  43.733 -28.155  1.00  0.00    -0.057 A 
HETATM   44  C20 UNL     1     -14.217  42.832 -28.119  1.00  0.00     0.007 A 
HETATM   45  C21 UNL     1     -15.528  43.278 -28.285  1.00  0.00     0.001 A 
HETATM   46  C22 UNL     1     -15.780  44.630 -28.506  1.00  0.00     0.000 A 
HETATM   47  C23 UNL     1     -14.724  45.540 -28.548  1.00  0.00     0.001 A 
HETATM   48  C24 UNL     1     -13.412  45.094 -28.377  1.00  0.00     0.007 A 
ENDBRANCH  42  43
ENDBRANCH  17  42
BRANCH  11  49
HETATM   49  O4  UNL     1      -7.175  47.808 -27.385  1.00  0.00    -0.357 OA
HETATM   50  H15 UNL     1      -6.252  48.076 -27.550  1.00  0.00     0.217 HD
ENDBRANCH  11  49
BRANCH   1  51
HETATM   51  O2  UNL     1      -5.906  46.335 -19.309  1.00  0.00    -0.316 OA
BRANCH  51  52
HETATM   52  C2  UNL     1      -4.626  46.816 -19.306  1.00  0.00     0.255 C 
HETATM   53  C1  UNL     1      -4.645  48.313 -19.311  1.00  0.00     0.126 C 
HETATM   54  O1  UNL     1      -3.613  46.133 -19.323  1.00  0.00    -0.266 OA
ENDBRANCH  51  52
ENDBRANCH   1  51
BRANCH  33  55
HETATM   55  O5  UNL     1      -9.556  44.264 -19.784  1.00  0.00    -0.395 OA
HETATM   56  H51 UNL     1      -9.662  43.444 -19.246  1.00  0.00     0.210 HD
ENDBRANCH  33  55
TORSDOF 6
ENDMDL
MODEL 4
REMARK minimizedAffinity -8.12102318
REMARK CNNscore 0.0965556577
REMARK CNNaffinity 5.39904213
REMARK  6 active torsions:
REMARK  status: ('A' for Active; 'I' for Inactive)
REMARK    1  A    between atoms: C2_2  and  O2_4 
REMARK    2  A    between atoms: O2_4  and  C3_5 
REMARK    3  A    between atoms: C12_15  and  O4_16 
REMARK    4  A    between atoms: C17_22  and  C18_23 
REMARK    5  A    between atoms: C18_23  and  C19_24 
REMARK       I    between atoms: C27_33  and  N3_34 
REMARK    6  A    between atoms: C35_45  and  O5_46 
ROOT
HETATM    1  C3  UNL     1       2.871  48.355 -13.399  1.00  0.00     0.134 C 
HETATM    2  C4  UNL     1       3.663  48.890 -12.190  1.00  0.00     0.037 C 
HETATM    3  C5  UNL     1       2.916  48.894 -10.850  1.00  0.00     0.042 C 
HETATM    4  C6  UNL     1       3.843  49.079  -9.666  1.00  0.00    -0.048 A 
HETATM    5  C7  UNL     1       4.619  48.020  -9.137  1.00  0.00    -0.015 A 
HETATM    6  C8  UNL     1       4.551  46.621  -9.698  1.00  0.00     0.044 C 
HETATM    7  C9  UNL     1       5.173  45.610  -8.747  1.00  0.00     0.031 C 
HETATM    8  C10 UNL     1       6.498  46.160  -8.260  1.00  0.00     0.176 C 
HETATM    9  O3  UNL     1       6.317  47.351  -7.492  1.00  0.00    -0.348 OA
HETATM   10  C11 UNL     1       5.493  48.287  -8.071  1.00  0.00     0.109 A 
HETATM   11  C12 UNL     1       5.549  49.561  -7.498  1.00  0.00     0.107 A 
HETATM   12  C13 UNL     1       4.782  50.614  -7.991  1.00  0.00    -0.004 A 
HETATM   13  C14 UNL     1       3.933  50.357  -9.081  1.00  0.00     0.019 A 
HETATM   14  C15 UNL     1       4.845  51.979  -7.355  1.00  0.00     0.167 C 
HETATM   15  N1  UNL     1       5.004  53.053  -8.328  1.00  0.00    -0.347 N 
HETATM   16  C16 UNL     1       4.088  54.163  -8.420  1.00  0.00     0.136 C 
HETATM   17  C17 UNL     1       4.943  55.320  -8.970  1.00  0.00    -0.011 C 
HETATM   18  C25 UNL     1       4.152  56.326  -9.847  1.00  0.00     0.032 C 
HETATM   19  C26 UNL     1       3.399  55.784 -11.067  1.00  0.00     0.139 C 
HETATM   20  N2  UNL     1       2.020  55.369 -10.740  1.00  0.00    -0.227 N 
HETATM   21  C27 UNL     1       1.408  54.218 -11.098  1.00  0.00     0.668 C 
HETATM   22  N3  UNL     1       2.093  53.208 -11.655  1.00  0.00    -0.235 N 
HETATM   23  N4  UNL     1       0.087  54.046 -10.909  1.00  0.00    -0.217 N 
HETATM   24  C28 UNL     1      -0.833  55.057 -10.419  1.00  0.00     0.224 C 
HETATM   25  S1  UNL     1      -2.426  54.296 -10.025  1.00  0.00    -0.077 SA
HETATM   26  S2  UNL     1      -2.027  53.161  -8.349  1.00  0.00    -0.096 SA
HETATM   27  C29 UNL     1      -1.404  51.557  -8.977  1.00  0.00     0.086 C 
HETATM   28  C30 UNL     1      -2.201  50.968 -10.143  1.00  0.00     0.011 C 
HETATM   29  C31 UNL     1      -1.567  49.658 -10.620  1.00  0.00     0.001 C 
HETATM   30  C32 UNL     1      -2.152  49.148 -11.941  1.00  0.00     0.000 C 
HETATM   31  C33 UNL     1      -1.847  49.988 -13.188  1.00  0.00     0.002 C 
HETATM   32  C34 UNL     1      -0.596  49.556 -13.972  1.00  0.00     0.032 C 
HETATM   33  C35 UNL     1       0.734  49.833 -13.257  1.00  0.00     0.120 C 
HETATM   34  C36 UNL     1       1.957  49.393 -14.079  1.00  0.00     0.064 C 
HETATM   35  C37 UNL     1       6.025  54.563  -9.772  1.00  0.00     0.114 C 
HETATM   36  C38 UNL     1       6.189  53.275  -9.015  1.00  0.00     0.220 C 
HETATM   37  O6  UNL     1       7.175  52.563  -9.060  1.00  0.00    -0.273 OA
HETATM   38  H32 UNL     1       1.467  56.057 -10.252  1.00  0.00     0.177 HD
HETATM   39  H33 UNL     1       3.088  53.245 -11.819  1.00  0.00     0.174 HD
HETATM   40  H34 UNL     1       1.618  52.355 -11.982  1.00  0.00     0.174 HD
HETATM   41  H35 UNL     1      -0.307  53.148 -11.150  1.00  0.00     0.178 HD
ENDROOT
BRANCH  17  42
HETATM   42  C18 UNL     1       5.559  56.051  -7.722  1.00  0.00     0.050 C 
BRANCH  42  43
HETATM   43  C19 UNL     1       4.649  56.949  -6.919  1.00  0.00    -0.057 A 
HETATM   44  C20 UNL     1       3.405  57.351  -7.430  1.00  0.00     0.007 A 
HETATM   45  C21 UNL     1       2.570  58.192  -6.694  1.00  0.00     0.001 A 
HETATM   46  C22 UNL     1       2.975  58.655  -5.445  1.00  0.00     0.000 A 
HETATM   47  C23 UNL     1       4.210  58.269  -4.923  1.00  0.00     0.001 A 
HETATM   48  C24 UNL     1       5.044  57.424  -5.658  1.00  0.00     0.007 A 
ENDBRANCH  42  43
ENDBRANCH  17  42
BRANCH  11  49
HETATM   49  O4  UNL     1       6.386  49.768  -6.428  1.00  0.00    -0.357 OA
HETATM   50  H15 UNL     1       6.985  48.999  -6.437  1.00  0.00     0.217 HD
ENDBRANCH  11  49
BRANCH   1  51
HETATM   51  O2  UNL     1       2.075  47.209 -13.052  1.00  0.00    -0.316 OA
BRANCH  51  52
HETATM   52  C2  UNL     1       2.359  46.060 -13.734  1.00  0.00     0.255 C 
HETATM   53  C1  UNL     1       3.203  45.160 -12.886  1.00  0.00     0.126 C 
HETATM   54  O1  UNL     1       2.003  45.807 -14.876  1.00  0.00    -0.266 OA
ENDBRANCH  51  52
ENDBRANCH   1  51
BRANCH  33  55
HETATM   55  O5  UNL     1       0.846  51.250 -12.995  1.00  0.00    -0.395 OA
HETATM   56  H51 UNL     1       0.693  51.668 -13.874  1.00  0.00     0.210 HD
ENDBRANCH  33  55
TORSDOF 6
ENDMDL
MODEL 5
REMARK minimizedAffinity -7.24018002
REMARK CNNscore 0.0883485153
REMARK CNNaffinity 5.1964817
REMARK  6 active torsions:
REMARK  status: ('A' for Active; 'I' for Inactive)
REMARK    1  A    between atoms: C2_2  and  O2_4 
REMARK    2  A    between atoms: O2_4  and  C3_5 
REMARK    3  A    between atoms: C12_15  and  O4_16 
REMARK    4  A    between atoms: C17_22  and  C18_23 
REMARK    5  A    between atoms: C18_23  and  C19_24 
REMARK       I    between atoms: C27_33  and  N3_34 
REMARK    6  A    between atoms: C35_45  and  O5_46 
ROOT
HETATM    1  C3  UNL     1       2.063  56.833  -7.893  1.00  0.00     0.134 C 
HETATM    2  C4  UNL     1       2.428  57.643  -6.633  1.00  0.00     0.037 C 
HETATM    3  C5  UNL     1       2.889  56.822  -5.421  1.00  0.00     0.042 C 
HETATM    4  C6  UNL     1       3.567  57.671  -4.366  1.00  0.00    -0.048 A 
HETATM    5  C7  UNL     1       4.912  58.098  -4.484  1.00  0.00    -0.015 A 
HETATM    6  C8  UNL     1       5.774  57.708  -5.659  1.00  0.00     0.044 C 
HETATM    7  C9  UNL     1       7.246  57.968  -5.379  1.00  0.00     0.031 C 
HETATM    8  C10 UNL     1       7.384  59.349  -4.772  1.00  0.00     0.176 C 
HETATM    9  O3  UNL     1       6.730  59.429  -3.505  1.00  0.00    -0.348 OA
HETATM   10  C11 UNL     1       5.449  58.926  -3.487  1.00  0.00     0.109 A 
HETATM   11  C12 UNL     1       4.694  59.271  -2.363  1.00  0.00     0.107 A 
HETATM   12  C13 UNL     1       3.374  58.848  -2.216  1.00  0.00    -0.004 A 
HETATM   13  C14 UNL     1       2.822  58.048  -3.231  1.00  0.00     0.019 A 
HETATM   14  C15 UNL     1       2.576  59.219  -0.993  1.00  0.00     0.167 C 
HETATM   15  N1  UNL     1       1.248  59.729  -1.313  1.00  0.00    -0.347 N 
HETATM   16  C16 UNL     1       0.041  59.147  -0.782  1.00  0.00     0.136 C 
HETATM   17  C17 UNL     1      -0.961  60.316  -0.740  1.00  0.00    -0.011 C 
HETATM   18  C25 UNL     1      -2.438  59.887  -0.949  1.00  0.00     0.032 C 
HETATM   19  C26 UNL     1      -2.793  59.114  -2.224  1.00  0.00     0.139 C 
HETATM   20  N2  UNL     1      -2.654  57.653  -2.056  1.00  0.00    -0.227 N 
HETATM   21  C27 UNL     1      -2.041  56.790  -2.895  1.00  0.00     0.668 C 
HETATM   22  N3  UNL     1      -1.299  57.226  -3.924  1.00  0.00    -0.235 N 
HETATM   23  N4  UNL     1      -2.156  55.460  -2.730  1.00  0.00    -0.217 N 
HETATM   24  C28 UNL     1      -2.995  54.803  -1.744  1.00  0.00     0.224 C 
HETATM   25  S1  UNL     1      -2.595  53.041  -1.675  1.00  0.00    -0.077 SA
HETATM   26  S2  UNL     1      -0.720  52.996  -0.813  1.00  0.00    -0.096 SA
HETATM   27  C29 UNL     1       0.463  53.223  -2.194  1.00  0.00     0.086 C 
HETATM   28  C30 UNL     1       0.162  52.391  -3.442  1.00  0.00     0.011 C 
HETATM   29  C31 UNL     1       1.178  52.693  -4.547  1.00  0.00     0.001 C 
HETATM   30  C32 UNL     1       0.792  52.099  -5.905  1.00  0.00     0.000 C 
HETATM   31  C33 UNL     1      -0.439  52.708  -6.588  1.00  0.00     0.002 C 
HETATM   32  C34 UNL     1      -0.137  53.859  -7.563  1.00  0.00     0.032 C 
HETATM   33  C35 UNL     1       0.341  55.156  -6.895  1.00  0.00     0.120 C 
HETATM   34  C36 UNL     1       0.624  56.280  -7.906  1.00  0.00     0.064 C 
HETATM   35  C37 UNL     1      -0.444  61.219  -1.882  1.00  0.00     0.114 C 
HETATM   36  C38 UNL     1       1.040  60.980  -1.876  1.00  0.00     0.220 C 
HETATM   37  O6  UNL     1       1.869  61.744  -2.334  1.00  0.00    -0.273 OA
HETATM   38  H32 UNL     1      -3.129  57.264  -1.255  1.00  0.00     0.177 HD
HETATM   39  H33 UNL     1      -1.145  58.206  -4.114  1.00  0.00     0.174 HD
HETATM   40  H34 UNL     1      -0.881  56.571  -4.598  1.00  0.00     0.174 HD
HETATM   41  H35 UNL     1      -1.637  54.863  -3.359  1.00  0.00     0.178 HD
ENDROOT
BRANCH  17  42
HETATM   42  C18 UNL     1      -0.786  61.004   0.662  1.00  0.00     0.050 C 
BRANCH  42  43
HETATM   43  C19 UNL     1      -1.935  61.835   1.180  1.00  0.00    -0.057 A 
HETATM   44  C20 UNL     1      -1.858  62.466   2.431  1.00  0.00     0.007 A 
HETATM   45  C21 UNL     1      -2.925  63.222   2.916  1.00  0.00     0.001 A 
HETATM   46  C22 UNL     1      -4.091  63.343   2.163  1.00  0.00     0.000 A 
HETATM   47  C23 UNL     1      -4.187  62.720   0.919  1.00  0.00     0.001 A 
HETATM   48  C24 UNL     1      -3.117  61.967   0.432  1.00  0.00     0.007 A 
ENDBRANCH  42  43
ENDBRANCH  17  42
BRANCH  11  49
HETATM   49  O4  UNL     1       5.274  60.048  -1.389  1.00  0.00    -0.357 OA
HETATM   50  H15 UNL     1       6.065  60.423  -1.818  1.00  0.00     0.217 HD
ENDBRANCH  11  49
BRANCH   1  51
HETATM   51  O2  UNL     1       2.970  55.740  -8.108  1.00  0.00    -0.316 OA
BRANCH  51  52
HETATM   52  C2  UNL     1       4.023  55.996  -8.941  1.00  0.00     0.255 C 
HETATM   53  C1  UNL     1       3.518  56.347 -10.305  1.00  0.00     0.126 C 
HETATM   54  O1  UNL     1       5.204  55.926  -8.633  1.00  0.00    -0.266 OA
ENDBRANCH  51  52
ENDBRANCH   1  51
BRANCH  33  55
HETATM   55  O5  UNL     1      -0.672  55.616  -5.973  1.00  0.00    -0.395 OA
HETATM   56  H51 UNL     1      -1.494  55.647  -6.517  1.00  0.00     0.210 HD
ENDBRANCH  33  55
TORSDOF 6
ENDMDL
MODEL 6
REMARK minimizedAffinity -7.16202354
REMARK CNNscore 0.0876336023
REMARK CNNaffinity 4.97073603
REMARK  6 active torsions:
REMARK  status: ('A' for Active; 'I' for Inactive)
REMARK    1  A    between atoms: C2_2  and  O2_4 
REMARK    2  A    between atoms: O2_4  and  C3_5 
REMARK    3  A    between atoms: C12_15  and  O4_16 
REMARK    4  A    between atoms: C17_22  and  C18_23 
REMARK    5  A    between atoms: C18_23  and  C19_24 
REMARK       I    between atoms: C27_33  and  N3_34 
REMARK    6  A    between atoms: C35_45  and  O5_46 
ROOT
HETATM    1  C3  UNL     1     -14.560  46.958 -23.272  1.00  0.00     0.134 C 
HETATM    2  C4  UNL     1     -13.140  46.549 -23.710  1.00  0.00     0.037 C 
HETATM    3  C5  UNL     1     -12.605  45.242 -23.110  1.00  0.00     0.042 C 
HETATM    4  C6  UNL     1     -11.387  44.719 -23.844  1.00  0.00    -0.048 A 
HETATM    5  C7  UNL     1     -11.483  44.020 -25.070  1.00  0.00    -0.015 A 
HETATM    6  C8  UNL     1     -12.811  43.720 -25.718  1.00  0.00     0.044 C 
HETATM    7  C9  UNL     1     -12.675  42.662 -26.802  1.00  0.00     0.031 C 
HETATM    8  C10 UNL     1     -11.480  43.010 -27.666  1.00  0.00     0.176 C 
HETATM    9  O3  UNL     1     -10.264  42.956 -26.919  1.00  0.00    -0.348 OA
HETATM   10  C11 UNL     1     -10.302  43.614 -25.712  1.00  0.00     0.109 A 
HETATM   11  C12 UNL     1      -9.056  43.837 -25.119  1.00  0.00     0.107 A 
HETATM   12  C13 UNL     1      -8.939  44.507 -23.903  1.00  0.00    -0.004 A 
HETATM   13  C14 UNL     1     -10.117  44.946 -23.277  1.00  0.00     0.019 A 
HETATM   14  C15 UNL     1      -7.589  44.730 -23.272  1.00  0.00     0.167 C 
HETATM   15  N1  UNL     1      -7.390  46.103 -22.823  1.00  0.00    -0.347 N 
HETATM   16  C16 UNL     1      -7.046  46.435 -21.463  1.00  0.00     0.136 C 
HETATM   17  C17 UNL     1      -6.257  47.753 -21.579  1.00  0.00    -0.011 C 
HETATM   18  C25 UNL     1      -6.419  48.694 -20.356  1.00  0.00     0.032 C 
HETATM   19  C26 UNL     1      -7.835  49.121 -19.954  1.00  0.00     0.139 C 
HETATM   20  N2  UNL     1      -8.458  48.182 -18.999  1.00  0.00    -0.227 N 
HETATM   21  C27 UNL     1      -9.705  47.665 -19.059  1.00  0.00     0.668 C 
HETATM   22  N3  UNL     1     -10.470  47.816 -20.150  1.00  0.00    -0.235 N 
HETATM   23  N4  UNL     1     -10.224  46.980 -18.025  1.00  0.00    -0.217 N 
HETATM   24  C28 UNL     1      -9.591  46.802 -16.729  1.00  0.00     0.224 C 
HETATM   25  S1  UNL     1     -10.492  45.561 -15.772  1.00  0.00    -0.077 SA
HETATM   26  S2  UNL     1     -10.082  43.792 -16.751  1.00  0.00    -0.096 SA
HETATM   27  C29 UNL     1     -11.322  43.673 -18.095  1.00  0.00     0.086 C 
HETATM   28  C30 UNL     1     -12.754  44.018 -17.682  1.00  0.00     0.011 C 
HETATM   29  C31 UNL     1     -13.696  43.935 -18.886  1.00  0.00     0.001 C 
HETATM   30  C32 UNL     1     -15.087  44.515 -18.610  1.00  0.00     0.000 C 
HETATM   31  C33 UNL     1     -15.160  46.033 -18.397  1.00  0.00     0.002 C 
HETATM   32  C34 UNL     1     -15.447  46.852 -19.667  1.00  0.00     0.032 C 
HETATM   33  C35 UNL     1     -14.297  46.882 -20.684  1.00  0.00     0.120 C 
HETATM   34  C36 UNL     1     -14.625  47.718 -21.932  1.00  0.00     0.064 C 
HETATM   35  C37 UNL     1      -6.845  48.363 -22.872  1.00  0.00     0.114 C 
HETATM   36  C38 UNL     1      -7.197  47.159 -23.701  1.00  0.00     0.220 C 
HETATM   37  O6  UNL     1      -7.326  47.163 -24.911  1.00  0.00    -0.273 OA
HETATM   38  H32 UNL     1      -7.903  47.964 -18.185  1.00  0.00     0.177 HD
HETATM   39  H33 UNL     1     -10.156  48.302 -20.978  1.00  0.00     0.174 HD
HETATM   40  H34 UNL     1     -11.441  47.474 -20.175  1.00  0.00     0.174 HD
HETATM   41  H35 UNL     1     -11.141  46.574 -18.144  1.00  0.00     0.178 HD
ENDROOT
BRANCH  17  42
HETATM   42  C18 UNL     1      -4.748  47.356 -21.766  1.00  0.00     0.050 C 
BRANCH  42  43
HETATM   43  C19 UNL     1      -3.816  48.400 -22.331  1.00  0.00    -0.057 A 
HETATM   44  C20 UNL     1      -3.201  49.342 -21.491  1.00  0.00     0.007 A 
HETATM   45  C21 UNL     1      -2.351  50.316 -22.014  1.00  0.00     0.001 A 
HETATM   46  C22 UNL     1      -2.117  50.372 -23.387  1.00  0.00     0.000 A 
HETATM   47  C23 UNL     1      -2.723  49.447 -24.236  1.00  0.00     0.001 A 
HETATM   48  C24 UNL     1      -3.570  48.468 -23.712  1.00  0.00     0.007 A 
ENDBRANCH  42  43
ENDBRANCH  17  42
BRANCH  11  49
HETATM   49  O4  UNL     1      -7.928  43.384 -25.761  1.00  0.00    -0.357 OA
HETATM   50  H15 UNL     1      -8.225  43.199 -26.671  1.00  0.00     0.217 HD
ENDBRANCH  11  49
BRANCH   1  51
HETATM   51  O2  UNL     1     -15.442  45.826 -23.193  1.00  0.00    -0.316 OA
BRANCH  51  52
HETATM   52  C2  UNL     1     -16.512  45.846 -24.042  1.00  0.00     0.255 C 
HETATM   53  C1  UNL     1     -17.148  44.492 -24.093  1.00  0.00     0.126 C 
HETATM   54  O1  UNL     1     -16.886  46.815 -24.688  1.00  0.00    -0.266 OA
ENDBRANCH  51  52
ENDBRANCH   1  51
BRANCH  33  55
HETATM   55  O5  UNL     1     -13.123  47.443 -20.055  1.00  0.00    -0.395 OA
HETATM   56  H51 UNL     1     -13.437  48.299 -19.681  1.00  0.00     0.210 HD
ENDBRANCH  33  55
TORSDOF 6
ENDMDL
MODEL 7
REMARK minimizedAffinity -7.24379826
REMARK CNNscore 0.0826555043
REMARK CNNaffinity 5.2195611
REMARK  6 active torsions:
REMARK  status: ('A' for Active; 'I' for Inactive)
REMARK    1  A    between atoms: C2_2  and  O2_4 
REMARK    2  A    between atoms: O2_4  and  C3_5 
REMARK    3  A    between atoms: C12_15  and  O4_16 
REMARK    4  A    between atoms: C17_22  and  C18_23 
REMARK    5  A    between atoms: C18_23  and  C19_24 
REMARK       I    between atoms: C27_33  and  N3_34 
REMARK    6  A    between atoms: C35_45  and  O5_46 
ROOT
HETATM    1  C3  UNL     1      -6.936  46.096 -18.430  1.00  0.00     0.134 C 
HETATM    2  C4  UNL     1      -5.729  47.029 -18.206  1.00  0.00     0.037 C 
HETATM    3  C5  UNL     1      -4.379  46.334 -17.987  1.00  0.00     0.042 C 
HETATM    4  C6  UNL     1      -3.205  47.280 -18.138  1.00  0.00    -0.048 A 
HETATM    5  C7  UNL     1      -2.705  47.673 -19.402  1.00  0.00    -0.015 A 
HETATM    6  C8  UNL     1      -3.288  47.150 -20.690  1.00  0.00     0.044 C 
HETATM    7  C9  UNL     1      -2.364  47.417 -21.869  1.00  0.00     0.031 C 
HETATM    8  C10 UNL     1      -1.886  48.852 -21.789  1.00  0.00     0.176 C 
HETATM    9  O3  UNL     1      -1.096  49.074 -20.620  1.00  0.00    -0.348 OA
HETATM   10  C11 UNL     1      -1.647  48.595 -19.455  1.00  0.00     0.109 A 
HETATM   11  C12 UNL     1      -1.053  49.066 -18.281  1.00  0.00     0.107 A 
HETATM   12  C13 UNL     1      -1.518  48.680 -17.025  1.00  0.00    -0.004 A 
HETATM   13  C14 UNL     1      -2.600  47.785 -16.970  1.00  0.00     0.019 A 
HETATM   14  C15 UNL     1      -0.860  49.189 -15.769  1.00  0.00     0.167 C 
HETATM   15  N1  UNL     1      -1.817  49.681 -14.785  1.00  0.00    -0.347 N 
HETATM   16  C16 UNL     1      -1.877  49.175 -13.436  1.00  0.00     0.136 C 
HETATM   17  C17 UNL     1      -2.419  50.356 -12.609  1.00  0.00    -0.011 C 
HETATM   18  C25 UNL     1      -3.268  49.928 -11.383  1.00  0.00     0.032 C 
HETATM   19  C26 UNL     1      -4.486  49.030 -11.625  1.00  0.00     0.139 C 
HETATM   20  N2  UNL     1      -4.147  47.593 -11.576  1.00  0.00    -0.227 N 
HETATM   21  C27 UNL     1      -4.515  46.638 -12.457  1.00  0.00     0.668 C 
HETATM   22  N3  UNL     1      -5.099  46.952 -13.624  1.00  0.00    -0.235 N 
HETATM   23  N4  UNL     1      -4.311  45.334 -12.195  1.00  0.00    -0.217 N 
HETATM   24  C28 UNL     1      -3.791  44.797 -10.950  1.00  0.00     0.224 C 
HETATM   25  S1  UNL     1      -3.388  43.046 -11.159  1.00  0.00    -0.077 SA
HETATM   26  S2  UNL     1      -1.737  43.067 -12.397  1.00  0.00    -0.096 SA
HETATM   27  C29 UNL     1      -2.401  43.130 -14.104  1.00  0.00     0.086 C 
HETATM   28  C30 UNL     1      -3.565  42.176 -14.377  1.00  0.00     0.011 C 
HETATM   29  C31 UNL     1      -4.073  42.345 -15.812  1.00  0.00     0.001 C 
HETATM   30  C32 UNL     1      -5.394  41.616 -16.077  1.00  0.00     0.000 C 
HETATM   31  C33 UNL     1      -6.631  42.167 -15.356  1.00  0.00     0.002 C 
HETATM   32  C34 UNL     1      -7.439  43.204 -16.154  1.00  0.00     0.032 C 
HETATM   33  C35 UNL     1      -6.739  44.558 -16.340  1.00  0.00     0.120 C 
HETATM   34  C36 UNL     1      -7.585  45.564 -17.136  1.00  0.00     0.064 C 
HETATM   35  C37 UNL     1      -3.249  51.127 -13.659  1.00  0.00     0.114 C 
HETATM   36  C38 UNL     1      -2.516  50.868 -14.946  1.00  0.00     0.220 C 
HETATM   37  O6  UNL     1      -2.587  51.568 -15.939  1.00  0.00    -0.273 OA
HETATM   38  H32 UNL     1      -3.639  47.298 -10.756  1.00  0.00     0.177 HD
HETATM   39  H33 UNL     1      -5.276  47.905 -13.909  1.00  0.00     0.174 HD
HETATM   40  H34 UNL     1      -5.433  46.224 -14.269  1.00  0.00     0.174 HD
HETATM   41  H35 UNL     1      -4.562  44.667 -12.911  1.00  0.00     0.178 HD
ENDROOT
BRANCH  17  42
HETATM   42  C18 UNL     1      -1.168  51.186 -12.143  1.00  0.00     0.050 C 
BRANCH  42  43
HETATM   43  C19 UNL     1      -1.423  52.503 -11.451  1.00  0.00    -0.057 A 
HETATM   44  C20 UNL     1      -2.718  52.862 -11.047  1.00  0.00     0.007 A 
HETATM   45  C21 UNL     1      -2.956  54.085 -10.420  1.00  0.00     0.001 A 
HETATM   46  C22 UNL     1      -1.904  54.973 -10.203  1.00  0.00     0.000 A 
HETATM   47  C23 UNL     1      -0.611  54.634 -10.601  1.00  0.00     0.001 A 
HETATM   48  C24 UNL     1      -0.372  53.407 -11.225  1.00  0.00     0.007 A 
ENDBRANCH  42  43
ENDBRANCH  17  42
BRANCH  11  49
HETATM   49  O4  UNL     1       0.008  49.934 -18.379  1.00  0.00    -0.357 OA
HETATM   50  H15 UNL     1      -0.022  50.250 -19.301  1.00  0.00     0.217 HD
ENDBRANCH  11  49
BRANCH   1  51
HETATM   51  O2  UNL     1      -6.597  44.974 -19.261  1.00  0.00    -0.316 OA
BRANCH  51  52
HETATM   52  C2  UNL     1      -6.892  45.107 -20.588  1.00  0.00     0.255 C 
HETATM   53  C1  UNL     1      -5.807  44.489 -21.415  1.00  0.00     0.126 C 
HETATM   54  O1  UNL     1      -7.878  45.669 -21.042  1.00  0.00    -0.266 OA
ENDBRANCH  51  52
ENDBRANCH   1  51
BRANCH  33  55
HETATM   55  O5  UNL     1      -6.455  45.127 -15.042  1.00  0.00    -0.395 OA
HETATM   56  H51 UNL     1      -7.324  45.111 -14.579  1.00  0.00     0.210 HD
ENDBRANCH  33  55
TORSDOF 6
ENDMDL
MODEL 8
REMARK minimizedAffinity -7.49279118
REMARK CNNscore 0.0730851293
REMARK CNNaffinity 4.37487411
REMARK  6 active torsions:
REMARK  status: ('A' for Active; 'I' for Inactive)
REMARK    1  A    between atoms: C2_2  and  O2_4 
REMARK    2  A    between atoms: O2_4  and  C3_5 
REMARK    3  A    between atoms: C12_15  and  O4_16 
REMARK    4  A    between atoms: C17_22  and  C18_23 
REMARK    5  A    between atoms: C18_23  and  C19_24 
REMARK       I    between atoms: C27_33  and  N3_34 
REMARK    6  A    between atoms: C35_45  and  O5_46 
ROOT
HETATM    1  C3  UNL     1      -7.534  42.908 -23.076  1.00  0.00     0.134 C 
HETATM    2  C4  UNL     1      -7.760  44.146 -23.966  1.00  0.00     0.037 C 
HETATM    3  C5  UNL     1      -9.137  44.813 -23.848  1.00  0.00     0.042 C 
HETATM    4  C6  UNL     1      -9.166  46.201 -24.454  1.00  0.00    -0.048 A 
HETATM    5  C7  UNL     1      -8.651  47.334 -23.781  1.00  0.00    -0.015 A 
HETATM    6  C8  UNL     1      -8.063  47.242 -22.395  1.00  0.00     0.044 C 
HETATM    7  C9  UNL     1      -7.927  48.615 -21.755  1.00  0.00     0.031 C 
HETATM    8  C10 UNL     1      -7.315  49.559 -22.770  1.00  0.00     0.176 C 
HETATM    9  O3  UNL     1      -8.172  49.741 -23.897  1.00  0.00    -0.348 OA
HETATM   10  C11 UNL     1      -8.670  48.576 -24.434  1.00  0.00     0.109 A 
HETATM   11  C12 UNL     1      -9.246  48.707 -25.700  1.00  0.00     0.107 A 
HETATM   12  C13 UNL     1      -9.776  47.608 -26.375  1.00  0.00    -0.004 A 
HETATM   13  C14 UNL     1      -9.725  46.357 -25.737  1.00  0.00     0.019 A 
HETATM   14  C15 UNL     1     -10.404  47.767 -27.736  1.00  0.00     0.167 C 
HETATM   15  N1  UNL     1      -9.936  46.776 -28.697  1.00  0.00    -0.347 N 
HETATM   16  C16 UNL     1     -10.832  45.902 -29.413  1.00  0.00     0.136 C 
HETATM   17  C17 UNL     1     -10.097  45.599 -30.732  1.00  0.00    -0.011 C 
HETATM   18  C25 UNL     1     -10.405  44.195 -31.316  1.00  0.00     0.032 C 
HETATM   19  C26 UNL     1     -10.141  42.970 -30.431  1.00  0.00     0.139 C 
HETATM   20  N2  UNL     1     -11.311  42.609 -29.605  1.00  0.00    -0.227 N 
HETATM   21  C27 UNL     1     -11.319  42.318 -28.286  1.00  0.00     0.668 C 
HETATM   22  N3  UNL     1     -10.237  42.523 -27.520  1.00  0.00    -0.235 N 
HETATM   23  N4  UNL     1     -12.414  41.809 -27.693  1.00  0.00    -0.217 N 
HETATM   24  C28 UNL     1     -13.638  41.424 -28.373  1.00  0.00     0.224 C 
HETATM   25  S1  UNL     1     -14.937  41.098 -27.158  1.00  0.00    -0.077 SA
HETATM   26  S2  UNL     1     -15.380  42.964 -26.398  1.00  0.00    -0.096 SA
HETATM   27  C29 UNL     1     -14.173  43.246 -25.049  1.00  0.00     0.086 C 
HETATM   28  C30 UNL     1     -13.965  42.056 -24.111  1.00  0.00     0.011 C 
HETATM   29  C31 UNL     1     -12.904  42.381 -23.055  1.00  0.00     0.001 C 
HETATM   30  C32 UNL     1     -12.457  41.158 -22.248  1.00  0.00     0.000 C 
HETATM   31  C33 UNL     1     -11.663  40.092 -23.014  1.00  0.00     0.002 C 
HETATM   32  C34 UNL     1     -10.135  40.259 -22.960  1.00  0.00     0.032 C 
HETATM   33  C35 UNL     1      -9.593  41.463 -23.743  1.00  0.00     0.120 C 
HETATM   34  C36 UNL     1      -8.062  41.586 -23.668  1.00  0.00     0.064 C 
HETATM   35  C37 UNL     1      -8.617  45.751 -30.315  1.00  0.00     0.114 C 
HETATM   36  C38 UNL     1      -8.660  46.802 -29.241  1.00  0.00     0.220 C 
HETATM   37  O6  UNL     1      -7.716  47.493 -28.907  1.00  0.00    -0.273 OA
HETATM   38  H32 UNL     1     -12.180  42.509 -30.108  1.00  0.00     0.177 HD
HETATM   39  H33 UNL     1      -9.378  42.916 -27.878  1.00  0.00     0.174 HD
HETATM   40  H34 UNL     1     -10.222  42.247 -26.529  1.00  0.00     0.174 HD
HETATM   41  H35 UNL     1     -12.379  41.657 -26.695  1.00  0.00     0.178 HD
ENDROOT
BRANCH  17  42
HETATM   42  C18 UNL     1     -10.524  46.718 -31.750  1.00  0.00     0.050 C 
BRANCH  42  43
HETATM   43  C19 UNL     1      -9.894  46.692 -33.121  1.00  0.00    -0.057 A 
HETATM   44  C20 UNL     1     -10.528  46.042 -34.190  1.00  0.00     0.007 A 
HETATM   45  C21 UNL     1      -9.939  46.006 -35.454  1.00  0.00     0.001 A 
HETATM   46  C22 UNL     1      -8.699  46.606 -35.661  1.00  0.00     0.000 A 
HETATM   47  C23 UNL     1      -8.052  47.253 -34.609  1.00  0.00     0.001 A 
HETATM   48  C24 UNL     1      -8.644  47.294 -33.345  1.00  0.00     0.007 A 
ENDBRANCH  42  43
ENDBRANCH  17  42
BRANCH  11  49
HETATM   49  O4  UNL     1      -9.283  49.950 -26.286  1.00  0.00    -0.357 OA
HETATM   50  H15 UNL     1      -8.646  50.478 -25.770  1.00  0.00     0.217 HD
ENDBRANCH  11  49
BRANCH   1  51
HETATM   51  O2  UNL     1      -8.106  43.079 -21.768  1.00  0.00    -0.316 OA
BRANCH  51  52
HETATM   52  C2  UNL     1      -7.317  42.694 -20.720  1.00  0.00     0.255 C 
HETATM   53  C1  UNL     1      -7.975  41.577 -19.972  1.00  0.00     0.126 C 
HETATM   54  O1  UNL     1      -6.246  43.199 -20.417  1.00  0.00    -0.266 OA
ENDBRANCH  51  52
ENDBRANCH   1  51
BRANCH  33  55
HETATM   55  O5  UNL     1      -9.973  41.335 -25.132  1.00  0.00    -0.395 OA
HETATM   56  H51 UNL     1      -9.658  40.436 -25.384  1.00  0.00     0.210 HD
ENDBRANCH  33  55
TORSDOF 6
ENDMDL
MODEL 9
REMARK minimizedAffinity -7.01281118
REMARK CNNscore 0.0724245608
REMARK CNNaffinity 4.48959589
REMARK  6 active torsions:
REMARK  status: ('A' for Active; 'I' for Inactive)
REMARK    1  A    between atoms: C2_2  and  O2_4 
REMARK    2  A    between atoms: O2_4  and  C3_5 
REMARK    3  A    between atoms: C12_15  and  O4_16 
REMARK    4  A    between atoms: C17_22  and  C18_23 
REMARK    5  A    between atoms: C18_23  and  C19_24 
REMARK       I    between atoms: C27_33  and  N3_34 
REMARK    6  A    between atoms: C35_45  and  O5_46 
ROOT
HETATM    1  C3  UNL     1      -7.634  46.020 -22.984  1.00  0.00     0.134 C 
HETATM    2  C4  UNL     1      -8.855  46.426 -22.135  1.00  0.00     0.037 C 
HETATM    3  C5  UNL     1      -9.322  45.394 -21.099  1.00  0.00     0.042 C 
HETATM    4  C6  UNL     1     -10.266  45.986 -20.073  1.00  0.00    -0.048 A 
HETATM    5  C7  UNL     1      -9.811  46.757 -18.978  1.00  0.00    -0.015 A 
HETATM    6  C8  UNL     1      -8.345  47.019 -18.739  1.00  0.00     0.044 C 
HETATM    7  C9  UNL     1      -8.094  47.539 -17.332  1.00  0.00     0.031 C 
HETATM    8  C10 UNL     1      -9.109  48.623 -17.032  1.00  0.00     0.176 C 
HETATM    9  O3  UNL     1     -10.439  48.103 -17.021  1.00  0.00    -0.348 OA
HETATM   10  C11 UNL     1     -10.756  47.313 -18.101  1.00  0.00     0.109 A 
HETATM   11  C12 UNL     1     -12.119  47.054 -18.266  1.00  0.00     0.107 A 
HETATM   12  C13 UNL     1     -12.590  46.283 -19.327  1.00  0.00    -0.004 A 
HETATM   13  C14 UNL     1     -11.648  45.756 -20.227  1.00  0.00     0.019 A 
HETATM   14  C15 UNL     1     -14.063  46.005 -19.486  1.00  0.00     0.167 C 
HETATM   15  N1  UNL     1     -14.542  46.233 -20.844  1.00  0.00    -0.347 N 
HETATM   16  C16 UNL     1     -15.216  45.217 -21.614  1.00  0.00     0.136 C 
HETATM   17  C17 UNL     1     -16.134  46.005 -22.566  1.00  0.00    -0.011 C 
HETATM   18  C25 UNL     1     -16.374  45.307 -23.930  1.00  0.00     0.032 C 
HETATM   19  C26 UNL     1     -15.152  44.942 -24.780  1.00  0.00     0.139 C 
HETATM   20  N2  UNL     1     -14.628  43.597 -24.467  1.00  0.00    -0.227 N 
HETATM   21  C27 UNL     1     -13.339  43.253 -24.255  1.00  0.00     0.668 C 
HETATM   22  N3  UNL     1     -12.383  44.183 -24.116  1.00  0.00    -0.235 N 
HETATM   23  N4  UNL     1     -12.968  41.962 -24.176  1.00  0.00    -0.217 N 
HETATM   24  C28 UNL     1     -13.837  40.820 -24.403  1.00  0.00     0.224 C 
HETATM   25  S1  UNL     1     -13.003  39.303 -23.883  1.00  0.00    -0.077 SA
HETATM   26  S2  UNL     1     -12.942  39.456 -21.826  1.00  0.00    -0.096 SA
HETATM   27  C29 UNL     1     -11.435  40.427 -21.448  1.00  0.00     0.086 C 
HETATM   28  C30 UNL     1     -10.189  40.014 -22.234  1.00  0.00     0.011 C 
HETATM   29  C31 UNL     1      -9.005  40.919 -21.879  1.00  0.00     0.001 C 
HETATM   30  C32 UNL     1      -7.802  40.736 -22.809  1.00  0.00     0.000 C 
HETATM   31  C33 UNL     1      -7.987  41.200 -24.259  1.00  0.00     0.002 C 
HETATM   32  C34 UNL     1      -7.546  42.647 -24.538  1.00  0.00     0.032 C 
HETATM   33  C35 UNL     1      -8.440  43.723 -23.904  1.00  0.00     0.120 C 
HETATM   34  C36 UNL     1      -7.967  45.152 -24.215  1.00  0.00     0.064 C 
HETATM   35  C37 UNL     1     -15.370  47.340 -22.714  1.00  0.00     0.114 C 
HETATM   36  C38 UNL     1     -14.683  47.502 -21.387  1.00  0.00     0.220 C 
HETATM   37  O6  UNL     1     -14.296  48.561 -20.930  1.00  0.00    -0.273 OA
HETATM   38  H32 UNL     1     -15.312  42.854 -24.481  1.00  0.00     0.177 HD
HETATM   39  H33 UNL     1     -12.573  45.175 -24.145  1.00  0.00     0.174 HD
HETATM   40  H34 UNL     1     -11.393  43.922 -24.013  1.00  0.00     0.174 HD
HETATM   41  H35 UNL     1     -12.000  41.765 -23.968  1.00  0.00     0.178 HD
ENDROOT
BRANCH  17  42
HETATM   42  C18 UNL     1     -17.497  46.205 -21.808  1.00  0.00     0.050 C 
BRANCH  42  43
HETATM   43  C19 UNL     1     -18.679  45.389 -22.271  1.00  0.00    -0.057 A 
HETATM   44  C20 UNL     1     -19.110  44.272 -21.538  1.00  0.00     0.007 A 
HETATM   45  C21 UNL     1     -20.193  43.508 -21.973  1.00  0.00     0.001 A 
HETATM   46  C22 UNL     1     -20.850  43.842 -23.155  1.00  0.00     0.000 A 
HETATM   47  C23 UNL     1     -20.434  44.946 -23.898  1.00  0.00     0.001 A 
HETATM   48  C24 UNL     1     -19.352  45.714 -23.460  1.00  0.00     0.007 A 
ENDBRANCH  42  43
ENDBRANCH  17  42
BRANCH  11  49
HETATM   49  O4  UNL     1     -13.008  47.582 -17.360  1.00  0.00    -0.357 OA
HETATM   50  H15 UNL     1     -12.497  48.269 -16.893  1.00  0.00     0.217 HD
ENDBRANCH  11  49
BRANCH   1  51
HETATM   51  O2  UNL     1      -6.643  45.333 -22.202  1.00  0.00    -0.316 OA
BRANCH  51  52
HETATM   52  C2  UNL     1      -5.743  46.130 -21.551  1.00  0.00     0.255 C 
HETATM   53  C1  UNL     1      -5.405  47.315 -22.402  1.00  0.00     0.126 C 
HETATM   54  O1  UNL     1      -5.261  45.904 -20.451  1.00  0.00    -0.266 OA
ENDBRANCH  51  52
ENDBRANCH   1  51
BRANCH  33  55
HETATM   55  O5  UNL     1      -9.789  43.571 -24.400  1.00  0.00    -0.395 OA
HETATM   56  H51 UNL     1      -9.685  43.569 -25.380  1.00  0.00     0.210 HD
ENDBRANCH  33  55
TORSDOF 6
ENDMDL
