MODEL 1
REMARK minimizedAffinity -7.11968708
REMARK CNNscore 0.811490417
REMARK CNNaffinity 7.29492807
REMARK  5 active torsions:
REMARK  status: ('A' for Active; 'I' for Inactive)
REMARK    1  A    between atoms: C2_2  and  C4_4 
REMARK    2  A    between atoms: C7_7  and  C8_8 
REMARK    3  A    between atoms: C8_8  and  O2_10 
REMARK    4  A    between atoms: C21_24  and  C23_26 
REMARK    5  A    between atoms: C23_26  and  O4_27 
ROOT
HETATM    1  C4  UNL     1       2.572  56.344  -8.871  1.00  0.00     0.019 C 
HETATM    2  C5  UNL     1       3.089  57.062  -7.593  1.00  0.00     0.011 C 
HETATM    3  C6  UNL     1       2.287  56.498  -6.395  1.00  0.00     0.021 C 
HETATM    4  C7  UNL     1       1.133  55.695  -7.028  1.00  0.00     0.050 C 
HETATM    5  C9  UNL     1       0.634  54.521  -6.174  1.00  0.00     0.022 C 
HETATM    6  C10 UNL     1      -0.199  53.507  -7.002  1.00  0.00     0.011 C 
HETATM    7  C11 UNL     1       0.481  52.951  -8.313  1.00  0.00    -0.032 C 
HETATM    8  C12 UNL     1       1.693  52.099  -7.813  1.00  0.00     0.016 C 
HETATM    9  C13 UNL     1       0.998  54.189  -9.152  1.00  0.00     0.000 C 
HETATM   10  C14 UNL     1      -0.092  54.961  -9.926  1.00  0.00     0.006 C 
HETATM   11  C15 UNL     1      -1.387  54.195 -10.154  1.00  0.00     0.006 C 
HETATM   12  C16 UNL     1      -1.058  52.745 -10.488  1.00  0.00     0.003 C 
HETATM   13  C17 UNL     1      -2.152  51.993 -11.343  1.00  0.00    -0.031 C 
HETATM   14  C18 UNL     1      -3.579  52.240 -10.786  1.00  0.00     0.016 C 
HETATM   15  C19 UNL     1      -2.119  52.550 -12.792  1.00  0.00     0.036 C 
HETATM   16  C20 UNL     1      -3.088  51.841 -13.733  1.00  0.00     0.169 C 
HETATM   17  O3  UNL     1      -3.437  50.529 -13.307  1.00  0.00    -0.378 OA
HETATM   18  C21 UNL     1      -2.355  49.761 -12.749  1.00  0.00     0.082 C 
HETATM   19  C22 UNL     1      -2.998  48.409 -12.373  1.00  0.00     0.049 C 
HETATM   20  C24 UNL     1      -1.845  50.453 -11.419  1.00  0.00     0.030 C 
HETATM   21  C25 UNL     1      -0.369  50.140 -11.114  1.00  0.00     0.009 C 
HETATM   22  C26 UNL     1       0.227  50.745  -9.829  1.00  0.00     0.011 C 
HETATM   23  C27 UNL     1      -0.511  51.986  -9.225  1.00  0.00    -0.032 C 
HETATM   24  C28 UNL     1      -1.615  51.422  -8.294  1.00  0.00     0.016 C 
HETATM   25  C29 UNL     1       1.855  55.124  -8.269  1.00  0.00     0.017 C 
ENDROOT
BRANCH   4  26
HETATM   26  C8  UNL     1      -0.057  56.657  -7.236  1.00  0.00     0.149 C 
HETATM   27  O1  UNL     1      -0.674  56.845  -8.272  1.00  0.00    -0.649 OA
BRANCH  26  28
HETATM   28  O2  UNL     1      -0.436  57.341  -6.141  1.00  0.00    -0.776 OA
HETATM   29  H11 UNL     1      -1.191  57.881  -6.456  1.00  0.00     0.167 HD
ENDBRANCH  26  28
ENDBRANCH   4  26
BRANCH   1  30
HETATM   30  C2  UNL     1       3.684  56.129  -9.885  1.00  0.00    -0.088 C 
HETATM   31  C1  UNL     1       4.855  55.520  -9.635  1.00  0.00     0.014 C 
HETATM   32  C3  UNL     1       3.391  56.664 -11.265  1.00  0.00     0.043 C 
ENDBRANCH   1  30
BRANCH  18  33
HETATM   33  C23 UNL     1      -1.297  49.504 -13.863  1.00  0.00     0.202 C 
BRANCH  33  34
HETATM   34  O4  UNL     1      -0.157  50.354 -13.800  1.00  0.00    -0.398 OA
HETATM   35  H37 UNL     1       0.393  50.050 -13.056  1.00  0.00     0.209 HD
ENDBRANCH  33  34
ENDBRANCH  18  33
TORSDOF 5
ENDMDL
MODEL 2
REMARK minimizedAffinity -6.23289585
REMARK CNNscore 0.613785863
REMARK CNNaffinity 6.3960762
REMARK  5 active torsions:
REMARK  status: ('A' for Active; 'I' for Inactive)
REMARK    1  A    between atoms: C2_2  and  C4_4 
REMARK    2  A    between atoms: C7_7  and  C8_8 
REMARK    3  A    between atoms: C8_8  and  O2_10 
REMARK    4  A    between atoms: C21_24  and  C23_26 
REMARK    5  A    between atoms: C23_26  and  O4_27 
ROOT
HETATM    1  C4  UNL     1     -17.929  44.112 -22.409  1.00  0.00     0.019 C 
HETATM    2  C5  UNL     1     -19.433  44.169 -22.021  1.00  0.00     0.011 C 
HETATM    3  C6  UNL     1     -20.230  44.458 -23.317  1.00  0.00     0.021 C 
HETATM    4  C7  UNL     1     -19.167  44.853 -24.361  1.00  0.00     0.050 C 
HETATM    5  C9  UNL     1     -19.547  44.521 -25.811  1.00  0.00     0.022 C 
HETATM    6  C10 UNL     1     -18.317  44.532 -26.756  1.00  0.00     0.011 C 
HETATM    7  C11 UNL     1     -17.091  43.639 -26.317  1.00  0.00    -0.032 C 
HETATM    8  C12 UNL     1     -17.606  42.166 -26.412  1.00  0.00     0.016 C 
HETATM    9  C13 UNL     1     -16.746  43.997 -24.815  1.00  0.00     0.000 C 
HETATM   10  C14 UNL     1     -15.980  45.322 -24.613  1.00  0.00     0.006 C 
HETATM   11  C15 UNL     1     -15.275  45.855 -25.853  1.00  0.00     0.006 C 
HETATM   12  C16 UNL     1     -14.652  44.691 -26.614  1.00  0.00     0.003 C 
HETATM   13  C17 UNL     1     -13.408  45.069 -27.508  1.00  0.00    -0.031 C 
HETATM   14  C18 UNL     1     -13.678  46.345 -28.350  1.00  0.00     0.016 C 
HETATM   15  C19 UNL     1     -12.203  45.374 -26.579  1.00  0.00     0.036 C 
HETATM   16  C20 UNL     1     -10.916  45.681 -27.340  1.00  0.00     0.169 C 
HETATM   17  O3  UNL     1     -10.892  45.141 -28.656  1.00  0.00    -0.378 OA
HETATM   18  C21 UNL     1     -11.455  43.822 -28.785  1.00  0.00     0.082 C 
HETATM   19  C22 UNL     1     -11.308  43.486 -30.284  1.00  0.00     0.049 C 
HETATM   20  C24 UNL     1     -12.999  43.868 -28.438  1.00  0.00     0.030 C 
HETATM   21  C25 UNL     1     -13.532  42.522 -27.914  1.00  0.00     0.009 C 
HETATM   22  C26 UNL     1     -15.030  42.447 -27.566  1.00  0.00     0.011 C 
HETATM   23  C27 UNL     1     -15.759  43.803 -27.290  1.00  0.00    -0.032 C 
HETATM   24  C28 UNL     1     -16.238  44.326 -28.669  1.00  0.00     0.016 C 
HETATM   25  C29 UNL     1     -18.012  43.919 -23.933  1.00  0.00     0.017 C 
ENDROOT
BRANCH   4  26
HETATM   26  C8  UNL     1     -18.959  46.381 -24.274  1.00  0.00     0.149 C 
HETATM   27  O1  UNL     1     -18.234  46.978 -23.495  1.00  0.00    -0.649 OA
BRANCH  26  28
HETATM   28  O2  UNL     1     -19.660  47.103 -25.167  1.00  0.00    -0.776 OA
HETATM   29  H11 UNL     1     -19.402  48.028 -24.969  1.00  0.00     0.167 HD
ENDBRANCH  26  28
ENDBRANCH   4  26
BRANCH   1  30
HETATM   30  C2  UNL     1     -17.169  43.098 -21.570  1.00  0.00    -0.088 C 
HETATM   31  C1  UNL     1     -15.843  42.886 -21.622  1.00  0.00     0.014 C 
HETATM   32  C3  UNL     1     -18.025  42.295 -20.622  1.00  0.00     0.043 C 
ENDBRANCH   1  30
BRANCH  18  33
HETATM   33  C23 UNL     1     -10.578  42.822 -27.974  1.00  0.00     0.202 C 
BRANCH  33  34
HETATM   34  O4  UNL     1     -11.139  42.422 -26.728  1.00  0.00    -0.398 OA
HETATM   35  H37 UNL     1     -11.862  41.800 -26.920  1.00  0.00     0.209 HD
ENDBRANCH  33  34
ENDBRANCH  18  33
TORSDOF 5
ENDMDL
MODEL 3
REMARK minimizedAffinity -8.2308197
REMARK CNNscore 0.599270523
REMARK CNNaffinity 6.93825388
REMARK  5 active torsions:
REMARK  status: ('A' for Active; 'I' for Inactive)
REMARK    1  A    between atoms: C2_2  and  C4_4 
REMARK    2  A    between atoms: C7_7  and  C8_8 
REMARK    3  A    between atoms: C8_8  and  O2_10 
REMARK    4  A    between atoms: C21_24  and  C23_26 
REMARK    5  A    between atoms: C23_26  and  O4_27 
ROOT
HETATM    1  C4  UNL     1      -1.157  51.991 -22.314  1.00  0.00     0.019 C 
HETATM    2  C5  UNL     1       0.263  52.540 -22.002  1.00  0.00     0.011 C 
HETATM    3  C6  UNL     1       0.746  51.850 -20.703  1.00  0.00     0.021 C 
HETATM    4  C7  UNL     1      -0.503  51.148 -20.134  1.00  0.00     0.050 C 
HETATM    5  C9  UNL     1      -0.203  49.888 -19.310  1.00  0.00     0.022 C 
HETATM    6  C10 UNL     1      -1.459  48.996 -19.126  1.00  0.00     0.011 C 
HETATM    7  C11 UNL     1      -2.227  48.591 -20.445  1.00  0.00    -0.032 C 
HETATM    8  C12 UNL     1      -1.236  47.664 -21.223  1.00  0.00     0.016 C 
HETATM    9  C13 UNL     1      -2.496  49.912 -21.272  1.00  0.00     0.000 C 
HETATM   10  C14 UNL     1      -3.654  50.790 -20.751  1.00  0.00     0.006 C 
HETATM   11  C15 UNL     1      -4.643  50.078 -19.839  1.00  0.00     0.006 C 
HETATM   12  C16 UNL     1      -4.897  48.675 -20.374  1.00  0.00     0.003 C 
HETATM   13  C17 UNL     1      -6.290  48.050 -19.975  1.00  0.00    -0.031 C 
HETATM   14  C18 UNL     1      -6.593  48.252 -18.465  1.00  0.00     0.016 C 
HETATM   15  C19 UNL     1      -7.407  48.777 -20.771  1.00  0.00     0.036 C 
HETATM   16  C20 UNL     1      -8.798  48.203 -20.520  1.00  0.00     0.169 C 
HETATM   17  O3  UNL     1      -8.784  46.856 -20.064  1.00  0.00    -0.378 OA
HETATM   18  C21 UNL     1      -7.808  46.008 -20.698  1.00  0.00     0.082 C 
HETATM   19  C22 UNL     1      -8.002  44.631 -20.028  1.00  0.00     0.049 C 
HETATM   20  C24 UNL     1      -6.352  46.525 -20.353  1.00  0.00     0.030 C 
HETATM   21  C25 UNL     1      -5.318  46.153 -21.431  1.00  0.00     0.009 C 
HETATM   22  C26 UNL     1      -3.860  46.588 -21.186  1.00  0.00     0.011 C 
HETATM   23  C27 UNL     1      -3.634  47.759 -20.173  1.00  0.00    -0.032 C 
HETATM   24  C28 UNL     1      -3.539  47.106 -18.770  1.00  0.00     0.016 C 
HETATM   25  C29 UNL     1      -1.191  50.719 -21.450  1.00  0.00     0.017 C 
ENDROOT
BRANCH   4  26
HETATM   26  C8  UNL     1      -1.228  52.148 -19.207  1.00  0.00     0.149 C 
HETATM   27  O1  UNL     1      -2.286  51.971 -18.624  1.00  0.00    -0.649 OA
BRANCH  26  28
HETATM   28  O2  UNL     1      -0.601  53.327 -19.038  1.00  0.00    -0.776 OA
HETATM   29  H11 UNL     1      -1.192  53.816 -18.428  1.00  0.00     0.167 HD
ENDBRANCH  26  28
ENDBRANCH   4  26
BRANCH   1  30
HETATM   30  C2  UNL     1      -1.402  51.881 -23.810  1.00  0.00    -0.088 C 
HETATM   31  C1  UNL     1      -0.542  51.359 -24.701  1.00  0.00     0.014 C 
HETATM   32  C3  UNL     1      -2.734  52.418 -24.272  1.00  0.00     0.043 C 
ENDBRANCH   1  30
BRANCH  18  33
HETATM   33  C23 UNL     1      -8.170  45.869 -22.207  1.00  0.00     0.202 C 
BRANCH  33  34
HETATM   34  O4  UNL     1      -7.208  46.424 -23.097  1.00  0.00    -0.398 OA
HETATM   35  H37 UNL     1      -6.444  45.822 -23.113  1.00  0.00     0.209 HD
ENDBRANCH  33  34
ENDBRANCH  18  33
TORSDOF 5
ENDMDL
MODEL 4
REMARK minimizedAffinity -7.76794577
REMARK CNNscore 0.541587114
REMARK CNNaffinity 6.40468597
REMARK  5 active torsions:
REMARK  status: ('A' for Active; 'I' for Inactive)
REMARK    1  A    between atoms: C2_2  and  C4_4 
REMARK    2  A    between atoms: C7_7  and  C8_8 
REMARK    3  A    between atoms: C8_8  and  O2_10 
REMARK    4  A    between atoms: C21_24  and  C23_26 
REMARK    5  A    between atoms: C23_26  and  O4_27 
ROOT
HETATM    1  C4  UNL     1       4.697  56.747  -6.120  1.00  0.00     0.019 C 
HETATM    2  C5  UNL     1       6.187  57.172  -6.006  1.00  0.00     0.011 C 
HETATM    3  C6  UNL     1       6.966  56.411  -7.107  1.00  0.00     0.021 C 
HETATM    4  C7  UNL     1       5.980  55.352  -7.637  1.00  0.00     0.050 C 
HETATM    5  C9  UNL     1       6.198  54.959  -9.104  1.00  0.00     0.022 C 
HETATM    6  C10 UNL     1       4.962  54.241  -9.709  1.00  0.00     0.011 C 
HETATM    7  C11 UNL     1       3.580  54.993  -9.566  1.00  0.00    -0.032 C 
HETATM    8  C12 UNL     1       3.721  56.275 -10.450  1.00  0.00     0.016 C 
HETATM    9  C13 UNL     1       3.405  55.397  -8.047  1.00  0.00     0.000 C 
HETATM   10  C14 UNL     1       2.990  54.248  -7.103  1.00  0.00     0.006 C 
HETATM   11  C15 UNL     1       2.374  53.038  -7.792  1.00  0.00     0.006 C 
HETATM   12  C16 UNL     1       1.454  53.513  -8.909  1.00  0.00     0.003 C 
HETATM   13  C17 UNL     1       0.294  52.512  -9.289  1.00  0.00    -0.031 C 
HETATM   14  C18 UNL     1       0.821  51.059  -9.434  1.00  0.00     0.016 C 
HETATM   15  C19 UNL     1      -0.756  52.511  -8.146  1.00  0.00     0.036 C 
HETATM   16  C20 UNL     1      -1.967  51.630  -8.440  1.00  0.00     0.169 C 
HETATM   17  O3  UNL     1      -2.184  51.406  -9.827  1.00  0.00    -0.378 OA
HETATM   18  C21 UNL     1      -1.961  52.550 -10.672  1.00  0.00     0.082 C 
HETATM   19  C22 UNL     1      -2.257  52.039 -12.098  1.00  0.00     0.049 C 
HETATM   20  C24 UNL     1      -0.436  52.970 -10.604  1.00  0.00     0.030 C 
HETATM   21  C25 UNL     1      -0.217  54.465 -10.898  1.00  0.00     0.009 C 
HETATM   22  C26 UNL     1       1.235  54.979 -10.881  1.00  0.00     0.011 C 
HETATM   23  C27 UNL     1       2.281  54.114 -10.103  1.00  0.00    -0.032 C 
HETATM   24  C28 UNL     1       2.804  53.058 -11.110  1.00  0.00     0.016 C 
HETATM   25  C29 UNL     1       4.657  56.145  -7.536  1.00  0.00     0.017 C 
ENDROOT
BRANCH   4  26
HETATM   26  C8  UNL     1       6.149  54.076  -6.784  1.00  0.00     0.149 C 
HETATM   27  O1  UNL     1       5.839  53.931  -5.612  1.00  0.00    -0.649 OA
BRANCH  26  28
HETATM   28  O2  UNL     1       6.692  53.027  -7.429  1.00  0.00    -0.776 OA
HETATM   29  H11 UNL     1       6.714  52.323  -6.747  1.00  0.00     0.167 HD
ENDBRANCH  26  28
ENDBRANCH   4  26
BRANCH   1  30
HETATM   30  C2  UNL     1       3.757  57.889  -5.770  1.00  0.00    -0.088 C 
HETATM   31  C1  UNL     1       3.723  58.533  -4.591  1.00  0.00     0.014 C 
HETATM   32  C3  UNL     1       2.810  58.288  -6.875  1.00  0.00     0.043 C 
ENDBRANCH   1  30
BRANCH  18  33
HETATM   33  C23 UNL     1      -3.012  53.645 -10.320  1.00  0.00     0.202 C 
BRANCH  33  34
HETATM   34  O4  UNL     1      -3.725  54.159 -11.439  1.00  0.00    -0.398 OA
HETATM   35  H37 UNL     1      -4.365  53.480 -11.714  1.00  0.00     0.209 HD
ENDBRANCH  33  34
ENDBRANCH  18  33
TORSDOF 5
ENDMDL
MODEL 5
REMARK minimizedAffinity -7.01525164
REMARK CNNscore 0.502759695
REMARK CNNaffinity 6.03183413
REMARK  5 active torsions:
REMARK  status: ('A' for Active; 'I' for Inactive)
REMARK    1  A    between atoms: C2_2  and  C4_4 
REMARK    2  A    between atoms: C7_7  and  C8_8 
REMARK    3  A    between atoms: C8_8  and  O2_10 
REMARK    4  A    between atoms: C21_24  and  C23_26 
REMARK    5  A    between atoms: C23_26  and  O4_27 
ROOT
HETATM    1  C4  UNL     1     -17.736  46.287 -22.184  1.00  0.00     0.019 C 
HETATM    2  C5  UNL     1     -19.189  45.834 -21.870  1.00  0.00     0.011 C 
HETATM    3  C6  UNL     1     -19.617  44.857 -22.993  1.00  0.00     0.021 C 
HETATM    4  C7  UNL     1     -18.529  44.991 -24.077  1.00  0.00     0.050 C 
HETATM    5  C9  UNL     1     -18.309  43.724 -24.915  1.00  0.00     0.022 C 
HETATM    6  C10 UNL     1     -16.957  43.753 -25.677  1.00  0.00     0.011 C 
HETATM    7  C11 UNL     1     -15.671  44.036 -24.805  1.00  0.00    -0.032 C 
HETATM    8  C12 UNL     1     -15.533  42.790 -23.869  1.00  0.00     0.016 C 
HETATM    9  C13 UNL     1     -15.947  45.333 -23.943  1.00  0.00     0.000 C 
HETATM   10  C14 UNL     1     -15.841  46.669 -24.711  1.00  0.00     0.006 C 
HETATM   11  C15 UNL     1     -15.062  46.601 -26.018  1.00  0.00     0.006 C 
HETATM   12  C16 UNL     1     -13.849  45.700 -25.831  1.00  0.00     0.003 C 
HETATM   13  C17 UNL     1     -12.639  45.999 -26.799  1.00  0.00    -0.031 C 
HETATM   14  C18 UNL     1     -13.115  46.179 -28.266  1.00  0.00     0.016 C 
HETATM   15  C19 UNL     1     -11.973  47.332 -26.364  1.00  0.00     0.036 C 
HETATM   16  C20 UNL     1     -10.738  47.687 -27.188  1.00  0.00     0.169 C 
HETATM   17  O3  UNL     1     -10.124  46.562 -27.805  1.00  0.00    -0.378 OA
HETATM   18  C21 UNL     1     -10.076  45.373 -26.996  1.00  0.00     0.082 C 
HETATM   19  C22 UNL     1      -9.378  44.327 -27.890  1.00  0.00     0.049 C 
HETATM   20  C24 UNL     1     -11.550  44.870 -26.704  1.00  0.00     0.030 C 
HETATM   21  C25 UNL     1     -11.656  44.070 -25.393  1.00  0.00     0.009 C 
HETATM   22  C26 UNL     1     -13.043  43.512 -25.022  1.00  0.00     0.011 C 
HETATM   23  C27 UNL     1     -14.281  44.194 -25.693  1.00  0.00    -0.032 C 
HETATM   24  C28 UNL     1     -14.495  43.468 -27.046  1.00  0.00     0.016 C 
HETATM   25  C29 UNL     1     -17.286  45.206 -23.183  1.00  0.00     0.017 C 
ENDROOT
BRANCH   4  26
HETATM   26  C8  UNL     1     -18.956  46.119 -25.042  1.00  0.00     0.149 C 
HETATM   27  O1  UNL     1     -19.062  47.306 -24.780  1.00  0.00    -0.649 OA
BRANCH  26  28
HETATM   28  O2  UNL     1     -19.226  45.721 -26.299  1.00  0.00    -0.776 OA
HETATM   29  H11 UNL     1     -19.467  46.554 -26.757  1.00  0.00     0.167 HD
ENDBRANCH  26  28
ENDBRANCH   4  26
BRANCH   1  30
HETATM   30  C2  UNL     1     -16.929  46.509 -20.915  1.00  0.00    -0.088 C 
HETATM   31  C1  UNL     1     -15.603  46.324 -20.796  1.00  0.00     0.014 C 
HETATM   32  C3  UNL     1     -17.736  46.972 -19.728  1.00  0.00     0.043 C 
ENDBRANCH   1  30
BRANCH  18  33
HETATM   33  C23 UNL     1      -9.165  45.643 -25.762  1.00  0.00     0.202 C 
BRANCH  33  34
HETATM   34  O4  UNL     1      -7.816  45.964 -26.084  1.00  0.00    -0.398 OA
HETATM   35  H37 UNL     1      -7.807  46.875 -26.427  1.00  0.00     0.209 HD
ENDBRANCH  33  34
ENDBRANCH  18  33
TORSDOF 5
ENDMDL
MODEL 6
REMARK minimizedAffinity -8.7012949
REMARK CNNscore 0.413754076
REMARK CNNaffinity 6.55605555
REMARK  5 active torsions:
REMARK  status: ('A' for Active; 'I' for Inactive)
REMARK    1  A    between atoms: C2_2  and  C4_4 
REMARK    2  A    between atoms: C7_7  and  C8_8 
REMARK    3  A    between atoms: C8_8  and  O2_10 
REMARK    4  A    between atoms: C21_24  and  C23_26 
REMARK    5  A    between atoms: C23_26  and  O4_27 
ROOT
HETATM    1  C4  UNL     1      -0.224  52.311 -19.183  1.00  0.00     0.019 C 
HETATM    2  C5  UNL     1       0.866  52.319 -18.076  1.00  0.00     0.011 C 
HETATM    3  C6  UNL     1       0.688  51.023 -17.247  1.00  0.00     0.021 C 
HETATM    4  C7  UNL     1      -0.668  50.444 -17.697  1.00  0.00     0.050 C 
HETATM    5  C9  UNL     1      -0.771  48.916 -17.593  1.00  0.00     0.022 C 
HETATM    6  C10 UNL     1      -1.947  48.349 -18.433  1.00  0.00     0.011 C 
HETATM    7  C11 UNL     1      -1.987  48.776 -19.953  1.00  0.00    -0.032 C 
HETATM    8  C12 UNL     1      -0.728  48.108 -20.596  1.00  0.00     0.016 C 
HETATM    9  C13 UNL     1      -1.857  50.351 -20.016  1.00  0.00     0.000 C 
HETATM   10  C14 UNL     1      -3.140  51.132 -19.661  1.00  0.00     0.006 C 
HETATM   11  C15 UNL     1      -4.430  50.329 -19.749  1.00  0.00     0.006 C 
HETATM   12  C16 UNL     1      -4.372  49.422 -20.972  1.00  0.00     0.003 C 
HETATM   13  C17 UNL     1      -5.775  49.019 -21.572  1.00  0.00    -0.031 C 
HETATM   14  C18 UNL     1      -6.763  48.573 -20.460  1.00  0.00     0.016 C 
HETATM   15  C19 UNL     1      -6.393  50.261 -22.268  1.00  0.00     0.036 C 
HETATM   16  C20 UNL     1      -7.725  49.969 -22.953  1.00  0.00     0.169 C 
HETATM   17  O3  UNL     1      -7.903  48.598 -23.289  1.00  0.00    -0.378 OA
HETATM   18  C21 UNL     1      -6.727  47.935 -23.789  1.00  0.00     0.082 C 
HETATM   19  C22 UNL     1      -7.189  46.489 -24.066  1.00  0.00     0.049 C 
HETATM   20  C24 UNL     1      -5.620  47.893 -22.658  1.00  0.00     0.030 C 
HETATM   21  C25 UNL     1      -4.190  47.828 -23.227  1.00  0.00     0.009 C 
HETATM   22  C26 UNL     1      -3.033  47.760 -22.212  1.00  0.00     0.011 C 
HETATM   23  C27 UNL     1      -3.338  48.256 -20.760  1.00  0.00    -0.032 C 
HETATM   24  C28 UNL     1      -3.908  47.033 -19.996  1.00  0.00     0.016 C 
HETATM   25  C29 UNL     1      -0.640  50.830 -19.194  1.00  0.00     0.017 C 
ENDROOT
BRANCH   4  26
HETATM   26  C8  UNL     1      -1.766  51.047 -16.794  1.00  0.00     0.149 C 
HETATM   27  O1  UNL     1      -2.856  51.469 -17.148  1.00  0.00    -0.649 OA
BRANCH  26  28
HETATM   28  O2  UNL     1      -1.465  51.092 -15.484  1.00  0.00    -0.776 OA
HETATM   29  H11 UNL     1      -2.264  51.489 -15.077  1.00  0.00     0.167 HD
ENDBRANCH  26  28
ENDBRANCH   4  26
BRANCH   1  30
HETATM   30  C2  UNL     1       0.274  52.954 -20.468  1.00  0.00    -0.088 C 
HETATM   31  C1  UNL     1       1.037  54.057 -20.538  1.00  0.00     0.014 C 
HETATM   32  C3  UNL     1      -0.157  52.252 -21.732  1.00  0.00     0.043 C 
ENDBRANCH   1  30
BRANCH  18  33
HETATM   33  C23 UNL     1      -6.325  48.586 -25.147  1.00  0.00     0.202 C 
BRANCH  33  34
HETATM   34  O4  UNL     1      -5.275  49.542 -25.055  1.00  0.00    -0.398 OA
HETATM   35  H37 UNL     1      -4.446  49.053 -24.920  1.00  0.00     0.209 HD
ENDBRANCH  33  34
ENDBRANCH  18  33
TORSDOF 5
ENDMDL
MODEL 7
REMARK minimizedAffinity -6.42866611
REMARK CNNscore 0.356824487
REMARK CNNaffinity 5.92424917
REMARK  5 active torsions:
REMARK  status: ('A' for Active; 'I' for Inactive)
REMARK    1  A    between atoms: C2_2  and  C4_4 
REMARK    2  A    between atoms: C7_7  and  C8_8 
REMARK    3  A    between atoms: C8_8  and  O2_10 
REMARK    4  A    between atoms: C21_24  and  C23_26 
REMARK    5  A    between atoms: C23_26  and  O4_27 
ROOT
HETATM    1  C4  UNL     1       6.252  54.517  -7.683  1.00  0.00     0.019 C 
HETATM    2  C5  UNL     1       7.040  54.690  -9.012  1.00  0.00     0.011 C 
HETATM    3  C6  UNL     1       6.041  55.219 -10.071  1.00  0.00     0.021 C 
HETATM    4  C7  UNL     1       4.651  55.062  -9.424  1.00  0.00     0.050 C 
HETATM    5  C9  UNL     1       3.610  56.084  -9.900  1.00  0.00     0.022 C 
HETATM    6  C10 UNL     1       2.392  56.170  -8.943  1.00  0.00     0.011 C 
HETATM    7  C11 UNL     1       2.718  56.425  -7.419  1.00  0.00    -0.032 C 
HETATM    8  C12 UNL     1       3.321  57.867  -7.367  1.00  0.00     0.016 C 
HETATM    9  C13 UNL     1       3.807  55.366  -6.975  1.00  0.00     0.000 C 
HETATM   10  C14 UNL     1       3.274  53.939  -6.724  1.00  0.00     0.006 C 
HETATM   11  C15 UNL     1       1.773  53.843  -6.489  1.00  0.00     0.006 C 
HETATM   12  C16 UNL     1       1.326  55.015  -5.625  1.00  0.00     0.003 C 
HETATM   13  C17 UNL     1       0.018  54.760  -4.780  1.00  0.00    -0.031 C 
HETATM   14  C18 UNL     1      -1.096  54.104  -5.639  1.00  0.00     0.016 C 
HETATM   15  C19 UNL     1       0.354  53.774  -3.629  1.00  0.00     0.036 C 
HETATM   16  C20 UNL     1      -0.824  53.511  -2.696  1.00  0.00     0.169 C 
HETATM   17  O3  UNL     1      -1.798  54.548  -2.704  1.00  0.00    -0.378 OA
HETATM   18  C21 UNL     1      -1.266  55.884  -2.758  1.00  0.00     0.082 C 
HETATM   19  C22 UNL     1      -2.512  56.794  -2.760  1.00  0.00     0.049 C 
HETATM   20  C24 UNL     1      -0.498  56.094  -4.127  1.00  0.00     0.030 C 
HETATM   21  C25 UNL     1       0.609  57.159  -4.031  1.00  0.00     0.009 C 
HETATM   22  C26 UNL     1       1.406  57.461  -5.314  1.00  0.00     0.011 C 
HETATM   23  C27 UNL     1       1.390  56.364  -6.430  1.00  0.00    -0.032 C 
HETATM   24  C28 UNL     1       0.137  56.647  -7.297  1.00  0.00     0.016 C 
HETATM   25  C29 UNL     1       5.005  55.375  -7.952  1.00  0.00     0.017 C 
ENDROOT
BRANCH   4  26
HETATM   26  C8  UNL     1       4.118  53.656  -9.778  1.00  0.00     0.149 C 
HETATM   27  O1  UNL     1       4.357  52.613  -9.192  1.00  0.00    -0.649 OA
BRANCH  26  28
HETATM   28  O2  UNL     1       3.301  53.610 -10.846  1.00  0.00    -0.776 OA
HETATM   29  H11 UNL     1       3.062  52.661 -10.912  1.00  0.00     0.167 HD
ENDBRANCH  26  28
ENDBRANCH   4  26
BRANCH   1  30
HETATM   30  C2  UNL     1       7.119  54.821  -6.472  1.00  0.00    -0.088 C 
HETATM   31  C1  UNL     1       7.784  55.969  -6.263  1.00  0.00     0.014 C 
HETATM   32  C3  UNL     1       7.199  53.707  -5.458  1.00  0.00     0.043 C 
ENDBRANCH   1  30
BRANCH  18  33
HETATM   33  C23 UNL     1      -0.465  56.158  -1.450  1.00  0.00     0.202 C 
BRANCH  33  34
HETATM   34  O4  UNL     1      -0.866  57.329  -0.748  1.00  0.00    -0.398 OA
HETATM   35  H37 UNL     1      -1.715  57.134  -0.316  1.00  0.00     0.209 HD
ENDBRANCH  33  34
ENDBRANCH  18  33
TORSDOF 5
ENDMDL
MODEL 8
REMARK minimizedAffinity -8.58657646
REMARK CNNscore 0.30484581
REMARK CNNaffinity 6.63268709
REMARK  5 active torsions:
REMARK  status: ('A' for Active; 'I' for Inactive)
REMARK    1  A    between atoms: C2_2  and  C4_4 
REMARK    2  A    between atoms: C7_7  and  C8_8 
REMARK    3  A    between atoms: C8_8  and  O2_10 
REMARK    4  A    between atoms: C21_24  and  C23_26 
REMARK    5  A    between atoms: C23_26  and  O4_27 
ROOT
HETATM    1  C4  UNL     1      -0.114  51.244 -26.422  1.00  0.00     0.019 C 
HETATM    2  C5  UNL     1      -0.199  52.185 -27.656  1.00  0.00     0.011 C 
HETATM    3  C6  UNL     1      -1.669  52.655 -27.774  1.00  0.00     0.021 C 
HETATM    4  C7  UNL     1      -2.456  51.756 -26.800  1.00  0.00     0.050 C 
HETATM    5  C9  UNL     1      -3.713  52.410 -26.208  1.00  0.00     0.022 C 
HETATM    6  C10 UNL     1      -4.221  51.666 -24.945  1.00  0.00     0.011 C 
HETATM    7  C11 UNL     1      -3.160  51.433 -23.798  1.00  0.00    -0.032 C 
HETATM    8  C12 UNL     1      -2.820  52.862 -23.263  1.00  0.00     0.016 C 
HETATM    9  C13 UNL     1      -1.877  50.779 -24.453  1.00  0.00     0.000 C 
HETATM   10  C14 UNL     1      -1.999  49.275 -24.781  1.00  0.00     0.006 C 
HETATM   11  C15 UNL     1      -3.109  48.541 -24.041  1.00  0.00     0.006 C 
HETATM   12  C16 UNL     1      -3.167  49.042 -22.603  1.00  0.00     0.003 C 
HETATM   13  C17 UNL     1      -3.766  48.018 -21.563  1.00  0.00    -0.031 C 
HETATM   14  C18 UNL     1      -5.071  47.365 -22.094  1.00  0.00     0.016 C 
HETATM   15  C19 UNL     1      -2.737  46.877 -21.340  1.00  0.00     0.036 C 
HETATM   16  C20 UNL     1      -3.180  45.861 -20.292  1.00  0.00     0.169 C 
HETATM   17  O3  UNL     1      -4.129  46.376 -19.366  1.00  0.00    -0.378 OA
HETATM   18  C21 UNL     1      -3.890  47.729 -18.937  1.00  0.00     0.082 C 
HETATM   19  C22 UNL     1      -5.047  48.032 -17.960  1.00  0.00     0.049 C 
HETATM   20  C24 UNL     1      -4.018  48.709 -20.174  1.00  0.00     0.030 C 
HETATM   21  C25 UNL     1      -3.184  49.992 -20.005  1.00  0.00     0.009 C 
HETATM   22  C26 UNL     1      -3.252  51.029 -21.142  1.00  0.00     0.011 C 
HETATM   23  C27 UNL     1      -3.724  50.511 -22.541  1.00  0.00    -0.032 C 
HETATM   24  C28 UNL     1      -5.271  50.605 -22.538  1.00  0.00     0.016 C 
HETATM   25  C29 UNL     1      -1.409  51.603 -25.673  1.00  0.00     0.017 C 
ENDROOT
BRANCH   4  26
HETATM   26  C8  UNL     1      -2.908  50.498 -27.573  1.00  0.00     0.149 C 
HETATM   27  O1  UNL     1      -2.831  49.340 -27.195  1.00  0.00    -0.649 OA
BRANCH  26  28
HETATM   28  O2  UNL     1      -3.444  50.735 -28.784  1.00  0.00    -0.776 OA
HETATM   29  H11 UNL     1      -3.673  49.840 -29.114  1.00  0.00     0.167 HD
ENDBRANCH  26  28
ENDBRANCH   4  26
BRANCH   1  30
HETATM   30  C2  UNL     1       1.220  51.373 -25.706  1.00  0.00    -0.088 C 
HETATM   31  C1  UNL     1       2.388  50.874 -26.145  1.00  0.00     0.014 C 
HETATM   32  C3  UNL     1       1.166  52.133 -24.404  1.00  0.00     0.043 C 
ENDBRANCH   1  30
BRANCH  18  33
HETATM   33  C23 UNL     1      -2.554  47.771 -18.136  1.00  0.00     0.202 C 
BRANCH  33  34
HETATM   34  O4  UNL     1      -1.402  48.039 -18.927  1.00  0.00    -0.398 OA
HETATM   35  H37 UNL     1      -1.419  48.984 -19.158  1.00  0.00     0.209 HD
ENDBRANCH  33  34
ENDBRANCH  18  33
TORSDOF 5
ENDMDL
MODEL 9
REMARK minimizedAffinity -6.41796446
REMARK CNNscore 0.285163879
REMARK CNNaffinity 6.33222198
REMARK  5 active torsions:
REMARK  status: ('A' for Active; 'I' for Inactive)
REMARK    1  A    between atoms: C2_2  and  C4_4 
REMARK    2  A    between atoms: C7_7  and  C8_8 
REMARK    3  A    between atoms: C8_8  and  O2_10 
REMARK    4  A    between atoms: C21_24  and  C23_26 
REMARK    5  A    between atoms: C23_26  and  O4_27 
ROOT
HETATM    1  C4  UNL     1      -2.201  51.436  -8.799  1.00  0.00     0.019 C 
HETATM    2  C5  UNL     1      -3.284  51.011  -9.829  1.00  0.00     0.011 C 
HETATM    3  C6  UNL     1      -2.888  51.631 -11.191  1.00  0.00     0.021 C 
HETATM    4  C7  UNL     1      -1.763  52.633 -10.864  1.00  0.00     0.050 C 
HETATM    5  C9  UNL     1      -0.757  52.851 -12.003  1.00  0.00     0.022 C 
HETATM    6  C10 UNL     1       0.559  53.507 -11.505  1.00  0.00     0.011 C 
HETATM    7  C11 UNL     1       1.280  52.792 -10.295  1.00  0.00    -0.032 C 
HETATM    8  C12 UNL     1       1.756  51.415 -10.863  1.00  0.00     0.016 C 
HETATM    9  C13 UNL     1       0.206  52.568  -9.156  1.00  0.00     0.000 C 
HETATM   10  C14 UNL     1      -0.150  53.823  -8.330  1.00  0.00     0.006 C 
HETATM   11  C15 UNL     1       0.869  54.951  -8.400  1.00  0.00     0.006 C 
HETATM   12  C16 UNL     1       2.273  54.361  -8.373  1.00  0.00     0.003 C 
HETATM   13  C17 UNL     1       3.391  55.323  -7.813  1.00  0.00    -0.031 C 
HETATM   14  C18 UNL     1       3.280  56.744  -8.428  1.00  0.00     0.016 C 
HETATM   15  C19 UNL     1       3.200  55.468  -6.279  1.00  0.00     0.036 C 
HETATM   16  C20 UNL     1       4.276  56.322  -5.615  1.00  0.00     0.169 C 
HETATM   17  O3  UNL     1       5.489  56.386  -6.355  1.00  0.00    -0.378 OA
HETATM   18  C21 UNL     1       5.894  55.150  -6.971  1.00  0.00     0.082 C 
HETATM   19  C22 UNL     1       7.210  55.496  -7.700  1.00  0.00     0.049 C 
HETATM   20  C24 UNL     1       4.824  54.724  -8.059  1.00  0.00     0.030 C 
HETATM   21  C25 UNL     1       4.784  53.203  -8.290  1.00  0.00     0.009 C 
HETATM   22  C26 UNL     1       3.793  52.678  -9.347  1.00  0.00     0.011 C 
HETATM   23  C27 UNL     1       2.598  53.616  -9.719  1.00  0.00    -0.032 C 
HETATM   24  C28 UNL     1       3.112  54.544 -10.850  1.00  0.00     0.016 C 
HETATM   25  C29 UNL     1      -1.051  51.871  -9.723  1.00  0.00     0.017 C 
ENDROOT
BRANCH   4  26
HETATM   26  C8  UNL     1      -2.416  53.997 -10.554  1.00  0.00     0.149 C 
HETATM   27  O1  UNL     1      -3.511  54.187 -10.047  1.00  0.00    -0.649 OA
BRANCH  26  28
HETATM   28  O2  UNL     1      -1.675  55.071 -10.881  1.00  0.00    -0.776 OA
HETATM   29  H11 UNL     1      -2.236  55.829 -10.610  1.00  0.00     0.167 HD
ENDBRANCH  26  28
ENDBRANCH   4  26
BRANCH   1  30
HETATM   30  C2  UNL     1      -1.954  50.352  -7.762  1.00  0.00    -0.088 C 
HETATM   31  C1  UNL     1      -2.400  49.087  -7.840  1.00  0.00     0.014 C 
HETATM   32  C3  UNL     1      -1.135  50.791  -6.573  1.00  0.00     0.043 C 
ENDBRANCH   1  30
BRANCH  18  33
HETATM   33  C23 UNL     1       6.215  54.114  -5.853  1.00  0.00     0.202 C 
BRANCH  33  34
HETATM   34  O4  UNL     1       7.528  54.218  -5.312  1.00  0.00    -0.398 OA
HETATM   35  H37 UNL     1       7.546  55.005  -4.740  1.00  0.00     0.209 HD
ENDBRANCH  33  34
ENDBRANCH  18  33
TORSDOF 5
ENDMDL
