MODEL 1
REMARK minimizedAffinity -8.18862915
REMARK  5 active torsions:
REMARK  status: ('A' for Active; 'I' for Inactive)
REMARK    1  A    between atoms: C1_2  and  C2_3 
REMARK       I    between atoms: C1_2  and  N3_15 
REMARK    2  A    between atoms: C2_3  and  C3_4 
REMARK    3  A    between atoms: C5_7  and  N1_8 
REMARK    4  A    between atoms: N3_15  and  C10_16 
REMARK    5  A    between atoms: C10_16  and  C11_17 
ROOT
HETATM    1  O1  UNL     1       1.163  55.233 -24.041  1.00  0.00    -0.273 OA
HETATM    2  C1  UNL     1       1.187  54.293 -23.248  1.00  0.00     0.223 C 
HETATM    3  N3  UNL     1       0.726  53.028 -23.557  1.00  0.00    -0.360 N 
HETATM    4  H8  UNL     1       0.682  52.339 -22.810  1.00  0.00     0.162 HD
ENDROOT
BRANCH   2   5
HETATM    5  C2  UNL     1       1.692  54.454 -21.828  1.00  0.00     0.160 C 
BRANCH   5   6
HETATM    6  C3  UNL     1       0.973  53.550 -20.883  1.00  0.00     0.026 A 
HETATM    7  C4  UNL     1      -0.192  52.847 -21.135  1.00  0.00     0.078 A 
HETATM    8  S1  UNL     1      -0.651  51.944 -19.749  1.00  0.00    -0.063 SA
HETATM    9  C5  UNL     1       0.708  52.558 -18.925  1.00  0.00     0.154 A 
HETATM   10  N2  UNL     1       1.480  53.389 -19.595  1.00  0.00    -0.339 N 
ATOM     11  H2  UNL     1       2.316  53.843 -19.229  1.00  0.00     0.168 HD
BRANCH   9  12
HETATM   12  N1  UNL     1       0.960  52.182 -17.596  1.00  0.00    -0.313 N 
HETATM   13  C6  UNL     1       0.185  51.409 -16.743  1.00  0.00     0.098 A 
HETATM   14  C7  UNL     1       0.818  51.294 -15.524  1.00  0.00     0.019 A 
HETATM   15  C8  UNL     1       2.028  52.015 -15.610  1.00  0.00     0.019 A 
HETATM   16  C9  UNL     1       2.094  52.543 -16.880  1.00  0.00     0.098 A 
ENDBRANCH   9  12
ENDBRANCH   5   6
ENDBRANCH   2   5
BRANCH   3  17
HETATM   17  C10 UNL     1       0.123  52.733 -24.842  1.00  0.00     0.129 C 
BRANCH  17  18
HETATM   18  C11 UNL     1       0.679  51.444 -25.479  1.00  0.00     0.037 C 
HETATM   19  C12 UNL     1       1.940  51.718 -26.333  1.00  0.00     0.010 C 
HETATM   20  C13 UNL     1       1.666  51.802 -27.835  1.00  0.00     0.031 C 
HETATM   21  C14 UNL     1       0.237  52.234 -28.140  1.00  0.00     0.273 C 
HETATM   22  N4  UNL     1      -0.732  51.280 -27.601  1.00  0.00     0.093 N 
HETATM   23  C15 UNL     1      -2.108  51.758 -27.685  1.00  0.00     0.273 C 
HETATM   24  C19 UNL     1      -0.370  50.658 -26.315  1.00  0.00     0.228 C 
HETATM   25  C16 UNL     1      -3.099  50.606 -27.479  1.00  0.00     0.030 C 
HETATM   26  C17 UNL     1      -2.671  49.621 -26.389  1.00  0.00     0.004 C 
HETATM   27  C18 UNL     1      -1.604  50.233 -25.487  1.00  0.00     0.036 C 
ENDBRANCH  17  18
ENDBRANCH   3  17
TORSDOF 5
ENDMDL
MODEL 2
REMARK minimizedAffinity -8.02959156
REMARK  5 active torsions:
REMARK  status: ('A' for Active; 'I' for Inactive)
REMARK    1  A    between atoms: C1_2  and  C2_3 
REMARK       I    between atoms: C1_2  and  N3_15 
REMARK    2  A    between atoms: C2_3  and  C3_4 
REMARK    3  A    between atoms: C5_7  and  N1_8 
REMARK    4  A    between atoms: N3_15  and  C10_16 
REMARK    5  A    between atoms: C10_16  and  C11_17 
ROOT
HETATM    1  O1  UNL     1       1.444  54.862 -23.476  1.00  0.00    -0.273 OA
HETATM    2  C1  UNL     1       1.221  53.795 -22.906  1.00  0.00     0.223 C 
HETATM    3  N3  UNL     1       0.734  52.677 -23.555  1.00  0.00    -0.360 N 
HETATM    4  H8  UNL     1       0.475  51.871 -22.992  1.00  0.00     0.162 HD
ENDROOT
BRANCH   2   5
HETATM    5  C2  UNL     1       1.421  53.624 -21.413  1.00  0.00     0.160 C 
BRANCH   5   6
HETATM    6  C3  UNL     1       0.411  52.696 -20.826  1.00  0.00     0.026 A 
HETATM    7  C4  UNL     1      -0.269  52.862 -19.631  1.00  0.00     0.078 A 
HETATM    8  S1  UNL     1      -1.325  51.536 -19.362  1.00  0.00    -0.063 SA
HETATM    9  C5  UNL     1      -0.798  50.844 -20.827  1.00  0.00     0.154 A 
HETATM   10  N2  UNL     1       0.110  51.518 -21.505  1.00  0.00    -0.339 N 
ATOM     11  H2  UNL     1       0.526  51.222 -22.388  1.00  0.00     0.168 HD
BRANCH   9  12
HETATM   12  N1  UNL     1      -1.320  49.615 -21.258  1.00  0.00    -0.313 N 
HETATM   13  C6  UNL     1      -2.334  49.366 -22.171  1.00  0.00     0.098 A 
HETATM   14  C7  UNL     1      -2.522  48.006 -22.290  1.00  0.00     0.019 A 
HETATM   15  C8  UNL     1      -1.600  47.378 -21.427  1.00  0.00     0.019 A 
HETATM   16  C9  UNL     1      -0.878  48.375 -20.812  1.00  0.00     0.098 A 
ENDBRANCH   9  12
ENDBRANCH   5   6
ENDBRANCH   2   5
BRANCH   3  17
HETATM   17  C10 UNL     1       0.399  52.703 -24.965  1.00  0.00     0.129 C 
BRANCH  17  18
HETATM   18  C11 UNL     1       0.851  51.433 -25.711  1.00  0.00     0.037 C 
HETATM   19  C12 UNL     1       2.045  51.710 -26.656  1.00  0.00     0.010 C 
HETATM   20  C13 UNL     1       1.648  51.880 -28.123  1.00  0.00     0.031 C 
HETATM   21  C14 UNL     1       0.215  52.373 -28.281  1.00  0.00     0.273 C 
HETATM   22  N4  UNL     1      -0.739  51.424 -27.709  1.00  0.00     0.093 N 
HETATM   23  C15 UNL     1      -2.099  51.950 -27.650  1.00  0.00     0.273 C 
HETATM   24  C19 UNL     1      -0.293  50.724 -26.490  1.00  0.00     0.228 C 
HETATM   25  C16 UNL     1      -3.110  50.820 -27.416  1.00  0.00     0.030 C 
HETATM   26  C17 UNL     1      -2.627  49.767 -26.416  1.00  0.00     0.004 C 
HETATM   27  C18 UNL     1      -1.466  50.297 -25.581  1.00  0.00     0.036 C 
ENDBRANCH  17  18
ENDBRANCH   3  17
TORSDOF 5
ENDMDL
MODEL 3
REMARK minimizedAffinity -7.8698287
REMARK  5 active torsions:
REMARK  status: ('A' for Active; 'I' for Inactive)
REMARK    1  A    between atoms: C1_2  and  C2_3 
REMARK       I    between atoms: C1_2  and  N3_15 
REMARK    2  A    between atoms: C2_3  and  C3_4 
REMARK    3  A    between atoms: C5_7  and  N1_8 
REMARK    4  A    between atoms: N3_15  and  C10_16 
REMARK    5  A    between atoms: C10_16  and  C11_17 
ROOT
HETATM    1  O1  UNL     1      -3.528  50.122 -22.859  1.00  0.00    -0.273 OA
HETATM    2  C1  UNL     1      -3.176  51.246 -22.505  1.00  0.00     0.223 C 
HETATM    3  N3  UNL     1      -2.705  51.529 -21.238  1.00  0.00    -0.360 N 
HETATM    4  H8  UNL     1      -2.539  52.503 -20.995  1.00  0.00     0.162 HD
ENDROOT
BRANCH   2   5
HETATM    5  C2  UNL     1      -3.270  52.446 -23.428  1.00  0.00     0.160 C 
BRANCH   5   6
HETATM    6  C3  UNL     1      -2.703  52.148 -24.776  1.00  0.00     0.026 A 
HETATM    7  C4  UNL     1      -3.414  51.852 -25.925  1.00  0.00     0.078 A 
HETATM    8  S1  UNL     1      -2.337  51.575 -27.233  1.00  0.00    -0.063 SA
HETATM    9  C5  UNL     1      -1.024  51.855 -26.184  1.00  0.00     0.154 A 
HETATM   10  N2  UNL     1      -1.319  52.134 -24.931  1.00  0.00    -0.339 N 
ATOM     11  H2  UNL     1      -0.640  52.311 -24.190  1.00  0.00     0.168 HD
BRANCH   9  12
HETATM   12  N1  UNL     1       0.293  51.778 -26.662  1.00  0.00    -0.313 N 
HETATM   13  C6  UNL     1       1.479  51.675 -25.950  1.00  0.00     0.098 A 
HETATM   14  C7  UNL     1       2.540  51.630 -26.828  1.00  0.00     0.019 A 
HETATM   15  C8  UNL     1       2.009  51.707 -28.133  1.00  0.00     0.019 A 
HETATM   16  C9  UNL     1       0.641  51.793 -28.007  1.00  0.00     0.098 A 
ENDBRANCH   9  12
ENDBRANCH   5   6
ENDBRANCH   2   5
BRANCH   3  17
HETATM   17  C10 UNL     1      -2.643  50.512 -20.207  1.00  0.00     0.129 C 
BRANCH  17  18
HETATM   18  C11 UNL     1      -1.260  49.839 -20.115  1.00  0.00     0.037 C 
HETATM   19  C12 UNL     1      -1.137  48.937 -18.862  1.00  0.00     0.010 C 
HETATM   20  C13 UNL     1      -0.391  49.592 -17.699  1.00  0.00     0.031 C 
HETATM   21  C14 UNL     1      -0.484  51.113 -17.733  1.00  0.00     0.273 C 
HETATM   22  N4  UNL     1       0.112  51.652 -18.954  1.00  0.00     0.093 N 
HETATM   23  C15 UNL     1      -0.141  53.079 -19.128  1.00  0.00     0.273 C 
HETATM   24  C19 UNL     1      -0.072  50.839 -20.170  1.00  0.00     0.228 C 
HETATM   25  C16 UNL     1       0.800  53.676 -20.182  1.00  0.00     0.030 C 
HETATM   26  C17 UNL     1       1.022  52.761 -21.389  1.00  0.00     0.004 C 
HETATM   27  C18 UNL     1      -0.055  51.684 -21.464  1.00  0.00     0.036 C 
ENDBRANCH  17  18
ENDBRANCH   3  17
TORSDOF 5
ENDMDL
MODEL 4
REMARK minimizedAffinity -7.75676775
REMARK  5 active torsions:
REMARK  status: ('A' for Active; 'I' for Inactive)
REMARK    1  A    between atoms: C1_2  and  C2_3 
REMARK       I    between atoms: C1_2  and  N3_15 
REMARK    2  A    between atoms: C2_3  and  C3_4 
REMARK    3  A    between atoms: C5_7  and  N1_8 
REMARK    4  A    between atoms: N3_15  and  C10_16 
REMARK    5  A    between atoms: C10_16  and  C11_17 
ROOT
HETATM    1  O1  UNL     1       1.376  54.503 -22.823  1.00  0.00    -0.273 OA
HETATM    2  C1  UNL     1       1.053  53.354 -22.524  1.00  0.00     0.223 C 
HETATM    3  N3  UNL     1       0.791  52.373 -23.460  1.00  0.00    -0.360 N 
HETATM    4  H8  UNL     1       0.425  51.483 -23.130  1.00  0.00     0.162 HD
ENDROOT
BRANCH   2   5
HETATM    5  C2  UNL     1       0.871  52.921 -21.083  1.00  0.00     0.160 C 
BRANCH   5   6
HETATM    6  C3  UNL     1      -0.423  52.204 -20.884  1.00  0.00     0.026 A 
HETATM    7  C4  UNL     1      -0.832  51.539 -19.741  1.00  0.00     0.078 A 
HETATM    8  S1  UNL     1      -2.391  50.862 -19.978  1.00  0.00    -0.063 SA
HETATM    9  C5  UNL     1      -2.399  51.485 -21.563  1.00  0.00     0.154 A 
HETATM   10  N2  UNL     1      -1.330  52.156 -21.939  1.00  0.00    -0.339 N 
ATOM     11  H2  UNL     1      -1.189  52.574 -22.859  1.00  0.00     0.168 HD
BRANCH   9  12
HETATM   12  N1  UNL     1      -3.504  51.271 -22.402  1.00  0.00    -0.313 N 
HETATM   13  C6  UNL     1      -4.221  50.104 -22.626  1.00  0.00     0.098 A 
HETATM   14  C7  UNL     1      -5.229  50.351 -23.533  1.00  0.00     0.019 A 
HETATM   15  C8  UNL     1      -5.146  51.712 -23.893  1.00  0.00     0.019 A 
HETATM   16  C9  UNL     1      -4.093  52.252 -23.190  1.00  0.00     0.098 A 
ENDBRANCH   9  12
ENDBRANCH   5   6
ENDBRANCH   2   5
BRANCH   3  17
HETATM   17  C10 UNL     1       0.826  52.651 -24.882  1.00  0.00     0.129 C 
BRANCH  17  18
HETATM   18  C11 UNL     1       1.063  51.387 -25.732  1.00  0.00     0.037 C 
HETATM   19  C12 UNL     1       2.208  51.584 -26.755  1.00  0.00     0.010 C 
HETATM   20  C13 UNL     1       1.726  51.894 -28.172  1.00  0.00     0.031 C 
HETATM   21  C14 UNL     1       0.355  52.561 -28.185  1.00  0.00     0.273 C 
HETATM   22  N4  UNL     1      -0.661  51.695 -27.590  1.00  0.00     0.093 N 
HETATM   23  C15 UNL     1      -1.938  52.371 -27.390  1.00  0.00     0.273 C 
HETATM   24  C19 UNL     1      -0.213  50.870 -26.453  1.00  0.00     0.228 C 
HETATM   25  C16 UNL     1      -3.059  51.355 -27.137  1.00  0.00     0.030 C 
HETATM   26  C17 UNL     1      -2.635  50.190 -26.241  1.00  0.00     0.004 C 
HETATM   27  C18 UNL     1      -1.359  50.524 -25.475  1.00  0.00     0.036 C 
ENDBRANCH  17  18
ENDBRANCH   3  17
TORSDOF 5
ENDMDL
MODEL 5
REMARK minimizedAffinity -7.60262489
REMARK  5 active torsions:
REMARK  status: ('A' for Active; 'I' for Inactive)
REMARK    1  A    between atoms: C1_2  and  C2_3 
REMARK       I    between atoms: C1_2  and  N3_15 
REMARK    2  A    between atoms: C2_3  and  C3_4 
REMARK    3  A    between atoms: C5_7  and  N1_8 
REMARK    4  A    between atoms: N3_15  and  C10_16 
REMARK    5  A    between atoms: C10_16  and  C11_17 
ROOT
HETATM    1  O1  UNL     1      -5.164  50.785 -21.272  1.00  0.00    -0.273 OA
HETATM    2  C1  UNL     1      -4.255  51.289 -21.930  1.00  0.00     0.223 C 
HETATM    3  N3  UNL     1      -2.954  51.387 -21.476  1.00  0.00    -0.360 N 
HETATM    4  H8  UNL     1      -2.290  51.915 -22.037  1.00  0.00     0.162 HD
ENDROOT
BRANCH   2   5
HETATM    5  C2  UNL     1      -4.495  51.894 -23.299  1.00  0.00     0.160 C 
BRANCH   5   6
HETATM    6  C3  UNL     1      -3.727  51.178 -24.360  1.00  0.00     0.026 A 
HETATM    7  C4  UNL     1      -4.073  49.984 -24.968  1.00  0.00     0.078 A 
HETATM    8  S1  UNL     1      -2.883  49.542 -26.124  1.00  0.00    -0.063 SA
HETATM    9  C5  UNL     1      -2.004  50.946 -25.725  1.00  0.00     0.154 A 
HETATM   10  N2  UNL     1      -2.520  51.721 -24.793  1.00  0.00    -0.339 N 
ATOM     11  H2  UNL     1      -2.101  52.583 -24.444  1.00  0.00     0.168 HD
BRANCH   9  12
HETATM   12  N1  UNL     1      -0.791  51.228 -26.371  1.00  0.00    -0.313 N 
HETATM   13  C6  UNL     1       0.493  51.274 -25.845  1.00  0.00     0.098 A 
HETATM   14  C7  UNL     1       1.388  51.594 -26.843  1.00  0.00     0.019 A 
HETATM   15  C8  UNL     1       0.649  51.756 -28.033  1.00  0.00     0.019 A 
HETATM   16  C9  UNL     1      -0.672  51.525 -27.723  1.00  0.00     0.098 A 
ENDBRANCH   9  12
ENDBRANCH   5   6
ENDBRANCH   2   5
BRANCH   3  17
HETATM   17  C10 UNL     1      -2.578  50.943 -20.149  1.00  0.00     0.129 C 
BRANCH  17  18
HETATM   18  C11 UNL     1      -1.213  50.228 -20.123  1.00  0.00     0.037 C 
HETATM   19  C12 UNL     1      -1.038  49.360 -18.853  1.00  0.00     0.010 C 
HETATM   20  C13 UNL     1      -0.201  50.023 -17.759  1.00  0.00     0.031 C 
HETATM   21  C14 UNL     1      -0.250  51.545 -17.834  1.00  0.00     0.273 C 
HETATM   22  N4  UNL     1       0.283  52.030 -19.106  1.00  0.00     0.093 N 
HETATM   23  C15 UNL     1       0.063  53.459 -19.307  1.00  0.00     0.273 C 
HETATM   24  C19 UNL     1      -0.001  51.189 -20.283  1.00  0.00     0.228 C 
HETATM   25  C16 UNL     1       0.953  53.995 -20.435  1.00  0.00     0.030 C 
HETATM   26  C17 UNL     1       1.070  53.040 -21.625  1.00  0.00     0.004 C 
HETATM   27  C18 UNL     1      -0.041  51.995 -21.600  1.00  0.00     0.036 C 
ENDBRANCH  17  18
ENDBRANCH   3  17
TORSDOF 5
ENDMDL
MODEL 6
REMARK minimizedAffinity -7.54365683
REMARK  5 active torsions:
REMARK  status: ('A' for Active; 'I' for Inactive)
REMARK    1  A    between atoms: C1_2  and  C2_3 
REMARK       I    between atoms: C1_2  and  N3_15 
REMARK    2  A    between atoms: C2_3  and  C3_4 
REMARK    3  A    between atoms: C5_7  and  N1_8 
REMARK    4  A    between atoms: N3_15  and  C10_16 
REMARK    5  A    between atoms: C10_16  and  C11_17 
ROOT
HETATM    1  O1  UNL     1      -3.534  50.804 -26.402  1.00  0.00    -0.273 OA
HETATM    2  C1  UNL     1      -3.262  50.008 -25.505  1.00  0.00     0.223 C 
HETATM    3  N3  UNL     1      -2.443  50.320 -24.437  1.00  0.00    -0.360 N 
HETATM    4  H8  UNL     1      -2.182  49.572 -23.799  1.00  0.00     0.162 HD
ENDROOT
BRANCH   2   5
HETATM    5  C2  UNL     1      -3.773  48.580 -25.515  1.00  0.00     0.160 C 
BRANCH   5   6
HETATM    6  C3  UNL     1      -4.592  48.298 -26.730  1.00  0.00     0.026 A 
HETATM    7  C4  UNL     1      -4.149  48.282 -28.041  1.00  0.00     0.078 A 
HETATM    8  S1  UNL     1      -5.449  47.916 -29.101  1.00  0.00    -0.063 SA
HETATM    9  C5  UNL     1      -6.491  47.820 -27.756  1.00  0.00     0.154 A 
HETATM   10  N2  UNL     1      -5.953  48.044 -26.575  1.00  0.00    -0.339 N 
ATOM     11  H2  UNL     1      -6.454  48.033 -25.687  1.00  0.00     0.168 HD
BRANCH   9  12
HETATM   12  N1  UNL     1      -7.851  47.520 -27.934  1.00  0.00    -0.313 N 
HETATM   13  C6  UNL     1      -8.566  46.409 -27.511  1.00  0.00     0.098 A 
HETATM   14  C7  UNL     1      -9.880  46.529 -27.908  1.00  0.00     0.019 A 
HETATM   15  C8  UNL     1      -9.999  47.751 -28.603  1.00  0.00     0.019 A 
HETATM   16  C9  UNL     1      -8.753  48.338 -28.603  1.00  0.00     0.098 A 
ENDBRANCH   9  12
ENDBRANCH   5   6
ENDBRANCH   2   5
BRANCH   3  17
HETATM   17  C10 UNL     1      -1.797  51.613 -24.329  1.00  0.00     0.129 C 
BRANCH  17  18
HETATM   18  C11 UNL     1      -0.264  51.506 -24.220  1.00  0.00     0.037 C 
HETATM   19  C12 UNL     1       0.294  52.353 -23.050  1.00  0.00     0.010 C 
HETATM   20  C13 UNL     1       0.873  53.701 -23.481  1.00  0.00     0.031 C 
HETATM   21  C14 UNL     1       0.246  54.214 -24.772  1.00  0.00     0.273 C 
HETATM   22  N4  UNL     1       0.489  53.293 -25.882  1.00  0.00     0.093 N 
HETATM   23  C15 UNL     1      -0.268  53.637 -27.081  1.00  0.00     0.273 C 
HETATM   24  C19 UNL     1       0.483  51.860 -25.537  1.00  0.00     0.228 C 
HETATM   25  C16 UNL     1       0.292  52.905 -28.308  1.00  0.00     0.030 C 
HETATM   26  C17 UNL     1       0.700  51.459 -28.020  1.00  0.00     0.004 C 
HETATM   27  C18 UNL     1       0.071  50.960 -26.723  1.00  0.00     0.036 C 
ENDBRANCH  17  18
ENDBRANCH   3  17
TORSDOF 5
ENDMDL
MODEL 7
REMARK minimizedAffinity -7.53495121
REMARK  5 active torsions:
REMARK  status: ('A' for Active; 'I' for Inactive)
REMARK    1  A    between atoms: C1_2  and  C2_3 
REMARK       I    between atoms: C1_2  and  N3_15 
REMARK    2  A    between atoms: C2_3  and  C3_4 
REMARK    3  A    between atoms: C5_7  and  N1_8 
REMARK    4  A    between atoms: N3_15  and  C10_16 
REMARK    5  A    between atoms: C10_16  and  C11_17 
ROOT
HETATM    1  O1  UNL     1       1.360  54.050 -22.874  1.00  0.00    -0.273 OA
HETATM    2  C1  UNL     1       0.767  53.599 -21.895  1.00  0.00     0.223 C 
HETATM    3  N3  UNL     1      -0.066  52.499 -21.954  1.00  0.00    -0.360 N 
HETATM    4  H8  UNL     1      -0.601  52.258 -21.124  1.00  0.00     0.162 HD
ENDROOT
BRANCH   2   5
HETATM    5  C2  UNL     1       0.866  54.245 -20.528  1.00  0.00     0.160 C 
BRANCH   5   6
HETATM    6  C3  UNL     1       0.580  53.269 -19.436  1.00  0.00     0.026 A 
HETATM    7  C4  UNL     1      -0.549  52.480 -19.306  1.00  0.00     0.078 A 
HETATM    8  S1  UNL     1      -0.440  51.518 -17.889  1.00  0.00    -0.063 SA
HETATM    9  C5  UNL     1       1.075  52.222 -17.552  1.00  0.00     0.154 A 
HETATM   10  N2  UNL     1       1.509  53.125 -18.408  1.00  0.00    -0.339 N 
ATOM     11  H2  UNL     1       2.388  53.637 -18.330  1.00  0.00     0.168 HD
BRANCH   9  12
HETATM   12  N1  UNL     1       1.794  51.842 -16.409  1.00  0.00    -0.313 N 
HETATM   13  C6  UNL     1       3.037  52.276 -15.971  1.00  0.00     0.098 A 
HETATM   14  C7  UNL     1       3.361  51.633 -14.796  1.00  0.00     0.019 A 
HETATM   15  C8  UNL     1       2.292  50.767 -14.482  1.00  0.00     0.019 A 
HETATM   16  C9  UNL     1       1.349  50.914 -15.475  1.00  0.00     0.098 A 
ENDBRANCH   9  12
ENDBRANCH   5   6
ENDBRANCH   2   5
BRANCH   3  17
HETATM   17  C10 UNL     1      -0.344  51.823 -23.207  1.00  0.00     0.129 C 
BRANCH  17  18
HETATM   18  C11 UNL     1      -1.511  52.462 -23.984  1.00  0.00     0.037 C 
HETATM   19  C12 UNL     1      -2.864  51.786 -23.654  1.00  0.00     0.010 C 
HETATM   20  C13 UNL     1      -3.321  50.770 -24.701  1.00  0.00     0.031 C 
HETATM   21  C14 UNL     1      -2.152  50.163 -25.468  1.00  0.00     0.273 C 
HETATM   22  N4  UNL     1      -1.406  51.189 -26.195  1.00  0.00     0.093 N 
HETATM   23  C15 UNL     1      -0.162  50.688 -26.769  1.00  0.00     0.273 C 
HETATM   24  C19 UNL     1      -1.294  52.497 -25.523  1.00  0.00     0.228 C 
HETATM   25  C16 UNL     1       0.384  51.660 -27.823  1.00  0.00     0.030 C 
HETATM   26  C17 UNL     1       0.233  53.131 -27.431  1.00  0.00     0.004 C 
HETATM   27  C18 UNL     1      -0.024  53.275 -25.934  1.00  0.00     0.036 C 
ENDBRANCH  17  18
ENDBRANCH   3  17
TORSDOF 5
ENDMDL
MODEL 8
REMARK minimizedAffinity -7.4639883
REMARK  5 active torsions:
REMARK  status: ('A' for Active; 'I' for Inactive)
REMARK    1  A    between atoms: C1_2  and  C2_3 
REMARK       I    between atoms: C1_2  and  N3_15 
REMARK    2  A    between atoms: C2_3  and  C3_4 
REMARK    3  A    between atoms: C5_7  and  N1_8 
REMARK    4  A    between atoms: N3_15  and  C10_16 
REMARK    5  A    between atoms: C10_16  and  C11_17 
ROOT
HETATM    1  O1  UNL     1       4.029  66.798 -37.452  1.00  0.00    -0.273 OA
HETATM    2  C1  UNL     1       3.579  66.006 -36.625  1.00  0.00     0.223 C 
HETATM    3  N3  UNL     1       4.318  64.971 -36.086  1.00  0.00    -0.360 N 
HETATM    4  H8  UNL     1       3.838  64.298 -35.494  1.00  0.00     0.162 HD
ENDROOT
BRANCH   2   5
HETATM    5  C2  UNL     1       2.141  66.072 -36.150  1.00  0.00     0.160 C 
BRANCH   5   6
HETATM    6  C3  UNL     1       1.376  67.139 -36.858  1.00  0.00     0.026 A 
HETATM    7  C4  UNL     1       0.990  68.364 -36.340  1.00  0.00     0.078 A 
HETATM    8  S1  UNL     1       0.124  69.260 -37.520  1.00  0.00    -0.063 SA
HETATM    9  C5  UNL     1       0.313  67.965 -38.612  1.00  0.00     0.154 A 
HETATM   10  N2  UNL     1       0.967  66.911 -38.170  1.00  0.00    -0.339 N 
ATOM     11  H2  UNL     1       1.145  66.060 -38.704  1.00  0.00     0.168 HD
BRANCH   9  12
HETATM   12  N1  UNL     1      -0.219  68.049 -39.908  1.00  0.00    -0.313 N 
HETATM   13  C6  UNL     1       0.013  67.232 -41.005  1.00  0.00     0.098 A 
HETATM   14  C7  UNL     1      -0.721  67.685 -42.080  1.00  0.00     0.019 A 
HETATM   15  C8  UNL     1      -1.436  68.822 -41.650  1.00  0.00     0.019 A 
HETATM   16  C9  UNL     1      -1.119  69.022 -40.325  1.00  0.00     0.098 A 
ENDBRANCH   9  12
ENDBRANCH   5   6
ENDBRANCH   2   5
BRANCH   3  17
HETATM   17  C10 UNL     1       5.680  64.711 -36.507  1.00  0.00     0.129 C 
BRANCH  17  18
HETATM   18  C11 UNL     1       6.700  64.878 -35.365  1.00  0.00     0.037 C 
HETATM   19  C12 UNL     1       8.056  64.209 -35.696  1.00  0.00     0.010 C 
HETATM   20  C13 UNL     1       8.243  62.835 -35.052  1.00  0.00     0.031 C 
HETATM   21  C14 UNL     1       6.915  62.139 -34.777  1.00  0.00     0.273 C 
HETATM   22  N4  UNL     1       6.092  62.915 -33.850  1.00  0.00     0.093 N 
HETATM   23  C15 UNL     1       4.734  62.394 -33.724  1.00  0.00     0.273 C 
HETATM   24  C19 UNL     1       6.182  64.380 -33.986  1.00  0.00     0.228 C 
HETATM   25  C16 UNL     1       4.040  62.978 -32.487  1.00  0.00     0.030 C 
HETATM   26  C17 UNL     1       4.340  64.461 -32.262  1.00  0.00     0.004 C 
HETATM   27  C18 UNL     1       4.898  65.105 -33.527  1.00  0.00     0.036 C 
ENDBRANCH  17  18
ENDBRANCH   3  17
TORSDOF 5
ENDMDL
MODEL 9
REMARK minimizedAffinity -7.45538855
REMARK  5 active torsions:
REMARK  status: ('A' for Active; 'I' for Inactive)
REMARK    1  A    between atoms: C1_2  and  C2_3 
REMARK       I    between atoms: C1_2  and  N3_15 
REMARK    2  A    between atoms: C2_3  and  C3_4 
REMARK    3  A    between atoms: C5_7  and  N1_8 
REMARK    4  A    between atoms: N3_15  and  C10_16 
REMARK    5  A    between atoms: C10_16  and  C11_17 
ROOT
HETATM    1  O1  UNL     1      -4.637  51.818 -23.758  1.00  0.00    -0.273 OA
HETATM    2  C1  UNL     1      -3.795  51.856 -22.861  1.00  0.00     0.223 C 
HETATM    3  N3  UNL     1      -2.460  52.130 -23.085  1.00  0.00    -0.360 N 
HETATM    4  H8  UNL     1      -1.814  52.035 -22.306  1.00  0.00     0.162 HD
ENDROOT
BRANCH   2   5
HETATM    5  C2  UNL     1      -4.147  51.559 -21.417  1.00  0.00     0.160 C 
BRANCH   5   6
HETATM    6  C3  UNL     1      -3.054  50.813 -20.727  1.00  0.00     0.026 A 
HETATM    7  C4  UNL     1      -2.735  49.476 -20.888  1.00  0.00     0.078 A 
HETATM    8  S1  UNL     1      -1.408  49.059 -19.883  1.00  0.00    -0.063 SA
HETATM    9  C5  UNL     1      -1.365  50.662 -19.308  1.00  0.00     0.154 A 
HETATM   10  N2  UNL     1      -2.265  51.489 -19.799  1.00  0.00    -0.339 N 
ATOM     11  H2  UNL     1      -2.368  52.470 -19.541  1.00  0.00     0.168 HD
BRANCH   9  12
HETATM   12  N1  UNL     1      -0.410  51.047 -18.355  1.00  0.00    -0.313 N 
HETATM   13  C6  UNL     1       0.007  50.378 -17.213  1.00  0.00     0.098 A 
HETATM   14  C7  UNL     1       0.966  51.127 -16.565  1.00  0.00     0.019 A 
HETATM   15  C8  UNL     1       1.159  52.303 -17.319  1.00  0.00     0.019 A 
HETATM   16  C9  UNL     1       0.315  52.231 -18.404  1.00  0.00     0.098 A 
ENDBRANCH   9  12
ENDBRANCH   5   6
ENDBRANCH   2   5
BRANCH   3  17
HETATM   17  C10 UNL     1      -1.943  52.343 -24.423  1.00  0.00     0.129 C 
BRANCH  17  18
HETATM   18  C11 UNL     1      -0.885  51.298 -24.827  1.00  0.00     0.037 C 
HETATM   19  C12 UNL     1       0.408  51.960 -25.361  1.00  0.00     0.010 C 
HETATM   20  C13 UNL     1       0.508  51.983 -26.886  1.00  0.00     0.031 C 
HETATM   21  C14 UNL     1      -0.860  51.963 -27.557  1.00  0.00     0.273 C 
HETATM   22  N4  UNL     1      -1.600  50.749 -27.216  1.00  0.00     0.093 N 
HETATM   23  C15 UNL     1      -2.989  50.785 -27.662  1.00  0.00     0.273 C 
HETATM   24  C19 UNL     1      -1.404  50.243 -25.845  1.00  0.00     0.228 C 
HETATM   25  C16 UNL     1      -3.607  49.381 -27.636  1.00  0.00     0.030 C 
HETATM   26  C17 UNL     1      -3.191  48.555 -26.417  1.00  0.00     0.004 C 
HETATM   27  C18 UNL     1      -2.619  49.447 -25.320  1.00  0.00     0.036 C 
ENDBRANCH  17  18
ENDBRANCH   3  17
TORSDOF 5
ENDMDL
