MODEL 1
REMARK minimizedAffinity -9.72912502
REMARK CNNscore 0.622662008
REMARK CNNaffinity 7.47110128
REMARK  13 active torsions:
REMARK  status: ('A' for Active; 'I' for Inactive)
REMARK    1  A    between atoms: C19_21  and  O3_22 
REMARK    2  A    between atoms: C19_21  and  C20_23 
REMARK    3  A    between atoms: C20_23  and  C21_25 
REMARK    4  A    between atoms: C21_25  and  O5_26 
REMARK    5  A    between atoms: O5_26  and  C22_27 
REMARK    6  A    between atoms: C22_27  and  C23_29 
REMARK    7  A    between atoms: C23_29  and  C24_30 
REMARK    8  A    between atoms: C24_30  and  C25_31 
REMARK       I    between atoms: C25_31  and  N1_33 
REMARK    9  A    between atoms: N1_33  and  C26_34 
REMARK   10  A    between atoms: C26_34  and  C27_35 
REMARK   11  A    between atoms: C26_34  and  C34_42 
REMARK   12  A    between atoms: C27_35  and  C28_36 
REMARK   13  A    between atoms: C34_42  and  O9_44 
ROOT
HETATM    1  C20 UNL     1      -7.069  47.845 -21.590  1.00  0.00     0.185 C 
HETATM    2  O4  UNL     1      -6.999  46.673 -21.203  1.00  0.00    -0.292 OA
ENDROOT
BRANCH   1   3
HETATM    3  C19 UNL     1      -6.424  48.992 -20.775  1.00  0.00     0.128 C 
HETATM    4  C14 UNL     1      -4.881  49.101 -20.996  1.00  0.00     0.005 C 
HETATM    5  C13 UNL     1      -4.430  49.754 -22.310  1.00  0.00     0.091 C 
HETATM    6  C15 UNL     1      -4.204  47.706 -20.861  1.00  0.00     0.019 C 
HETATM    7  C16 UNL     1      -4.506  50.072 -19.847  1.00  0.00     0.002 C 
HETATM    8  C12 UNL     1      -2.937  50.047 -22.246  1.00  0.00     0.133 C 
HETATM    9  C11 UNL     1      -2.450  50.897 -21.053  1.00  0.00     0.072 C 
HETATM   10  O2  UNL     1      -2.195  49.658 -23.144  1.00  0.00    -0.297 OA
HETATM   11  C2  UNL     1      -0.903  51.181 -21.013  1.00  0.00    -0.009 C 
HETATM   12  C10 UNL     1      -2.994  50.306 -19.720  1.00  0.00     0.003 C 
HETATM   13  C1  UNL     1      -0.063  49.882 -20.981  1.00  0.00     0.021 C 
HETATM   14  C3  UNL     1      -0.518  52.026 -22.266  1.00  0.00     0.022 C 
HETATM   15  C7  UNL     1      -0.567  51.977 -19.738  1.00  0.00    -0.067 C 
HETATM   16  C4  UNL     1       0.856  52.675 -22.175  1.00  0.00     0.084 C 
HETATM   17  C5  UNL     1       0.960  53.512 -20.930  1.00  0.00     0.149 C 
HETATM   18  O1  UNL     1       1.670  54.513 -20.865  1.00  0.00    -0.293 OA
HETATM   19  C6  UNL     1       0.242  53.052 -19.721  1.00  0.00     0.053 C 
HETATM   20  C8  UNL     1      -1.167  51.480 -18.444  1.00  0.00     0.035 C 
HETATM   21  C9  UNL     1      -2.668  51.253 -18.558  1.00  0.00     0.010 C 
HETATM   22  C17 UNL     1      -5.248  49.500 -18.644  1.00  0.00     0.009 C 
HETATM   23  C18 UNL     1      -6.530  48.877 -19.232  1.00  0.00     0.047 C 
BRANCH   3  24
HETATM   24  O3  UNL     1      -7.037  50.234 -21.153  1.00  0.00    -0.381 OA
HETATM   25  H25 UNL     1      -7.941  50.042 -21.485  1.00  0.00     0.211 HD
ENDBRANCH   3  24
ENDBRANCH   1   3
BRANCH   1  26
HETATM   26  C21 UNL     1      -7.814  48.167 -22.889  1.00  0.00     0.260 C 
BRANCH  26  27
HETATM   27  O5  UNL     1      -7.160  48.832 -23.962  1.00  0.00    -0.314 OA
BRANCH  27  28
HETATM   28  C22 UNL     1      -7.245  48.233 -25.176  1.00  0.00     0.259 C 
HETATM   29  O6  UNL     1      -8.270  48.200 -25.848  1.00  0.00    -0.265 OA
BRANCH  28  30
HETATM   30  C23 UNL     1      -5.950  47.582 -25.609  1.00  0.00     0.120 C 
BRANCH  30  31
HETATM   31  C24 UNL     1      -5.237  48.283 -26.760  1.00  0.00     0.112 C 
BRANCH  31  32
HETATM   32  C25 UNL     1      -3.911  48.883 -26.328  1.00  0.00     0.218 C 
HETATM   33  O7  UNL     1      -3.009  48.228 -25.821  1.00  0.00    -0.274 OA
HETATM   34  N1  UNL     1      -3.824  50.234 -26.581  1.00  0.00    -0.346 N 
HETATM   35  H32 UNL     1      -4.697  50.742 -26.661  1.00  0.00     0.163 HD
BRANCH  34  36
HETATM   36  C26 UNL     1      -2.665  51.019 -26.127  1.00  0.00     0.186 C 
BRANCH  36  37
HETATM   37  C27 UNL     1      -1.904  51.562 -27.342  1.00  0.00     0.074 C 
BRANCH  37  38
HETATM   38  C28 UNL     1      -0.404  51.570 -27.180  1.00  0.00    -0.056 A 
HETATM   39  C29 UNL     1       0.178  51.347 -25.925  1.00  0.00     0.007 A 
HETATM   40  C30 UNL     1       1.567  51.364 -25.777  1.00  0.00     0.001 A 
HETATM   41  C31 UNL     1       2.384  51.601 -26.880  1.00  0.00     0.000 A 
HETATM   42  C32 UNL     1       1.815  51.824 -28.132  1.00  0.00     0.001 A 
HETATM   43  C33 UNL     1       0.428  51.808 -28.283  1.00  0.00     0.007 A 
ENDBRANCH  37  38
ENDBRANCH  36  37
BRANCH  36  44
HETATM   44  C34 UNL     1      -3.208  52.174 -25.289  1.00  0.00     0.163 C 
HETATM   45  O8  UNL     1      -2.558  53.135 -24.901  1.00  0.00    -0.648 OA
BRANCH  44  46
HETATM   46  O9  UNL     1      -4.511  52.049 -24.975  1.00  0.00    -0.775 OA
HETATM   47  H41 UNL     1      -4.726  52.842 -24.442  1.00  0.00     0.167 HD
ENDBRANCH  44  46
ENDBRANCH  36  44
ENDBRANCH  34  36
ENDBRANCH  31  32
ENDBRANCH  30  31
ENDBRANCH  28  30
ENDBRANCH  27  28
ENDBRANCH  26  27
ENDBRANCH   1  26
TORSDOF 13
ENDMDL
MODEL 2
REMARK minimizedAffinity -8.24635029
REMARK CNNscore 0.551039159
REMARK CNNaffinity 6.99079084
REMARK  13 active torsions:
REMARK  status: ('A' for Active; 'I' for Inactive)
REMARK    1  A    between atoms: C19_21  and  O3_22 
REMARK    2  A    between atoms: C19_21  and  C20_23 
REMARK    3  A    between atoms: C20_23  and  C21_25 
REMARK    4  A    between atoms: C21_25  and  O5_26 
REMARK    5  A    between atoms: O5_26  and  C22_27 
REMARK    6  A    between atoms: C22_27  and  C23_29 
REMARK    7  A    between atoms: C23_29  and  C24_30 
REMARK    8  A    between atoms: C24_30  and  C25_31 
REMARK       I    between atoms: C25_31  and  N1_33 
REMARK    9  A    between atoms: N1_33  and  C26_34 
REMARK   10  A    between atoms: C26_34  and  C27_35 
REMARK   11  A    between atoms: C26_34  and  C34_42 
REMARK   12  A    between atoms: C27_35  and  C28_36 
REMARK   13  A    between atoms: C34_42  and  O9_44 
ROOT
HETATM    1  C20 UNL     1      -2.838  50.577 -13.494  1.00  0.00     0.185 C 
HETATM    2  O4  UNL     1      -3.453  49.560 -13.152  1.00  0.00    -0.292 OA
ENDROOT
BRANCH   1   3
HETATM    3  C19 UNL     1      -2.789  51.822 -12.577  1.00  0.00     0.128 C 
HETATM    4  C14 UNL     1      -1.416  51.987 -11.849  1.00  0.00     0.005 C 
HETATM    5  C13 UNL     1      -0.263  52.540 -12.696  1.00  0.00     0.091 C 
HETATM    6  C15 UNL     1      -0.973  50.645 -11.197  1.00  0.00     0.019 C 
HETATM    7  C16 UNL     1      -1.785  53.074 -10.807  1.00  0.00     0.002 C 
HETATM    8  C12 UNL     1       0.903  52.911 -11.789  1.00  0.00     0.133 C 
HETATM    9  C11 UNL     1       0.596  53.888 -10.634  1.00  0.00     0.072 C 
HETATM   10  O2  UNL     1       2.028  52.479 -12.027  1.00  0.00    -0.297 OA
HETATM   11  C2  UNL     1       1.820  54.249  -9.713  1.00  0.00    -0.009 C 
HETATM   12  C10 UNL     1      -0.643  53.393  -9.832  1.00  0.00     0.003 C 
HETATM   13  C1  UNL     1       2.457  53.002  -9.057  1.00  0.00     0.021 C 
HETATM   14  C3  UNL     1       2.887  54.996 -10.571  1.00  0.00     0.022 C 
HETATM   15  C7  UNL     1       1.342  55.172  -8.576  1.00  0.00    -0.067 C 
HETATM   16  C4  UNL     1       3.946  55.717  -9.748  1.00  0.00     0.084 C 
HETATM   17  C5  UNL     1       3.300  56.667  -8.776  1.00  0.00     0.149 C 
HETATM   18  O1  UNL     1       3.845  57.703  -8.405  1.00  0.00    -0.293 OA
HETATM   19  C6  UNL     1       1.996  56.283  -8.191  1.00  0.00     0.053 C 
HETATM   20  C8  UNL     1       0.082  54.765  -7.848  1.00  0.00     0.035 C 
HETATM   21  C9  UNL     1      -1.059  54.455  -8.807  1.00  0.00     0.010 C 
HETATM   22  C17 UNL     1      -3.105  52.577 -10.229  1.00  0.00     0.009 C 
HETATM   23  C18 UNL     1      -3.794  51.842 -11.396  1.00  0.00     0.047 C 
BRANCH   3  24
HETATM   24  O3  UNL     1      -3.039  52.994 -13.368  1.00  0.00    -0.381 OA
HETATM   25  H25 UNL     1      -3.571  52.729 -14.150  1.00  0.00     0.211 HD
ENDBRANCH   3  24
ENDBRANCH   1   3
BRANCH   1  26
HETATM   26  C21 UNL     1      -2.125  50.608 -14.849  1.00  0.00     0.260 C 
BRANCH  26  27
HETATM   27  O5  UNL     1      -2.802  51.036 -16.023  1.00  0.00    -0.314 OA
BRANCH  27  28
HETATM   28  C22 UNL     1      -2.438  50.426 -17.179  1.00  0.00     0.259 C 
HETATM   29  O6  UNL     1      -1.856  49.348 -17.225  1.00  0.00    -0.265 OA
BRANCH  28  30
HETATM   30  C23 UNL     1      -2.798  51.227 -18.411  1.00  0.00     0.120 C 
BRANCH  30  31
HETATM   31  C24 UNL     1      -3.822  50.564 -19.325  1.00  0.00     0.112 C 
BRANCH  31  32
HETATM   32  C25 UNL     1      -3.242  50.237 -20.689  1.00  0.00     0.218 C 
HETATM   33  O7  UNL     1      -3.150  49.097 -21.125  1.00  0.00    -0.274 OA
HETATM   34  N1  UNL     1      -2.845  51.355 -21.388  1.00  0.00    -0.346 N 
HETATM   35  H32 UNL     1      -2.628  52.183 -20.843  1.00  0.00     0.163 HD
BRANCH  34  36
HETATM   36  C26 UNL     1      -2.148  51.239 -22.678  1.00  0.00     0.186 C 
BRANCH  36  37
HETATM   37  C27 UNL     1      -3.083  51.681 -23.809  1.00  0.00     0.074 C 
BRANCH  37  38
HETATM   38  C28 UNL     1      -3.153  50.717 -24.968  1.00  0.00    -0.056 A 
HETATM   39  C29 UNL     1      -3.118  51.185 -26.288  1.00  0.00     0.007 A 
HETATM   40  C30 UNL     1      -3.192  50.290 -27.358  1.00  0.00     0.001 A 
HETATM   41  C31 UNL     1      -3.297  48.922 -27.118  1.00  0.00     0.000 A 
HETATM   42  C32 UNL     1      -3.331  48.446 -25.809  1.00  0.00     0.001 A 
HETATM   43  C33 UNL     1      -3.258  49.338 -24.738  1.00  0.00     0.007 A 
ENDBRANCH  37  38
ENDBRANCH  36  37
BRANCH  36  44
HETATM   44  C34 UNL     1      -0.931  52.158 -22.615  1.00  0.00     0.163 C 
HETATM   45  O8  UNL     1      -0.298  52.564 -23.579  1.00  0.00    -0.648 OA
BRANCH  44  46
HETATM   46  O9  UNL     1      -0.571  52.494 -21.362  1.00  0.00    -0.775 OA
HETATM   47  H41 UNL     1       0.212  53.074 -21.464  1.00  0.00     0.167 HD
ENDBRANCH  44  46
ENDBRANCH  36  44
ENDBRANCH  34  36
ENDBRANCH  31  32
ENDBRANCH  30  31
ENDBRANCH  28  30
ENDBRANCH  27  28
ENDBRANCH  26  27
ENDBRANCH   1  26
TORSDOF 13
ENDMDL
MODEL 3
REMARK minimizedAffinity -9.21446323
REMARK CNNscore 0.547990799
REMARK CNNaffinity 7.11479187
REMARK  13 active torsions:
REMARK  status: ('A' for Active; 'I' for Inactive)
REMARK    1  A    between atoms: C19_21  and  O3_22 
REMARK    2  A    between atoms: C19_21  and  C20_23 
REMARK    3  A    between atoms: C20_23  and  C21_25 
REMARK    4  A    between atoms: C21_25  and  O5_26 
REMARK    5  A    between atoms: O5_26  and  C22_27 
REMARK    6  A    between atoms: C22_27  and  C23_29 
REMARK    7  A    between atoms: C23_29  and  C24_30 
REMARK    8  A    between atoms: C24_30  and  C25_31 
REMARK       I    between atoms: C25_31  and  N1_33 
REMARK    9  A    between atoms: N1_33  and  C26_34 
REMARK   10  A    between atoms: C26_34  and  C27_35 
REMARK   11  A    between atoms: C26_34  and  C34_42 
REMARK   12  A    between atoms: C27_35  and  C28_36 
REMARK   13  A    between atoms: C34_42  and  O9_44 
ROOT
HETATM    1  C20 UNL     1      -2.495  49.075 -18.139  1.00  0.00     0.185 C 
HETATM    2  O4  UNL     1      -3.597  49.392 -17.676  1.00  0.00    -0.292 OA
ENDROOT
BRANCH   1   3
HETATM    3  C19 UNL     1      -2.362  48.549 -19.587  1.00  0.00     0.128 C 
HETATM    4  C14 UNL     1      -2.261  49.697 -20.644  1.00  0.00     0.005 C 
HETATM    5  C13 UNL     1      -0.901  50.399 -20.752  1.00  0.00     0.091 C 
HETATM    6  C15 UNL     1      -3.369  50.764 -20.407  1.00  0.00     0.019 C 
HETATM    7  C16 UNL     1      -2.467  48.888 -21.950  1.00  0.00     0.002 C 
HETATM    8  C12 UNL     1      -0.878  51.273 -21.999  1.00  0.00     0.133 C 
HETATM    9  C11 UNL     1      -1.208  50.577 -23.337  1.00  0.00     0.072 C 
HETATM   10  O2  UNL     1      -0.554  52.455 -21.915  1.00  0.00    -0.297 OA
HETATM   11  C2  UNL     1      -1.178  51.506 -24.606  1.00  0.00    -0.009 C 
HETATM   12  C10 UNL     1      -2.532  49.769 -23.205  1.00  0.00     0.003 C 
HETATM   13  C1  UNL     1      -2.159  52.696 -24.493  1.00  0.00     0.021 C 
HETATM   14  C3  UNL     1       0.275  52.038 -24.802  1.00  0.00     0.022 C 
HETATM   15  C7  UNL     1      -1.591  50.687 -25.843  1.00  0.00    -0.067 C 
HETATM   16  C4  UNL     1       0.531  52.645 -26.174  1.00  0.00     0.084 C 
HETATM   17  C5  UNL     1       0.187  51.659 -27.257  1.00  0.00     0.149 C 
HETATM   18  O1  UNL     1       0.760  51.645 -28.343  1.00  0.00    -0.293 OA
HETATM   19  C6  UNL     1      -0.942  50.732 -27.020  1.00  0.00     0.053 C 
HETATM   20  C8  UNL     1      -2.818  49.816 -25.707  1.00  0.00     0.035 C 
HETATM   21  C9  UNL     1      -2.759  48.931 -24.469  1.00  0.00     0.010 C 
HETATM   22  C17 UNL     1      -3.667  48.002 -21.632  1.00  0.00     0.009 C 
HETATM   23  C18 UNL     1      -3.552  47.711 -20.123  1.00  0.00     0.047 C 
BRANCH   3  24
HETATM   24  O3  UNL     1      -1.188  47.729 -19.680  1.00  0.00    -0.381 OA
HETATM   25  H25 UNL     1      -0.999  47.362 -18.788  1.00  0.00     0.211 HD
ENDBRANCH   3  24
ENDBRANCH   1   3
BRANCH   1  26
HETATM   26  C21 UNL     1      -1.246  49.194 -17.260  1.00  0.00     0.260 C 
BRANCH  26  27
HETATM   27  O5  UNL     1      -0.071  49.834 -17.741  1.00  0.00    -0.314 OA
BRANCH  27  28
HETATM   28  C22 UNL     1       0.513  50.721 -16.897  1.00  0.00     0.259 C 
HETATM   29  O6  UNL     1       0.861  51.849 -17.229  1.00  0.00    -0.265 OA
BRANCH  28  30
HETATM   30  C23 UNL     1       0.721  50.167 -15.505  1.00  0.00     0.120 C 
BRANCH  30  31
HETATM   31  C24 UNL     1       0.796  51.219 -14.404  1.00  0.00     0.112 C 
BRANCH  31  32
HETATM   32  C25 UNL     1       2.219  51.439 -13.922  1.00  0.00     0.218 C 
HETATM   33  O7  UNL     1       3.140  51.754 -14.664  1.00  0.00    -0.274 OA
HETATM   34  N1  UNL     1       2.360  51.263 -12.563  1.00  0.00    -0.346 N 
HETATM   35  H32 UNL     1       1.670  50.680 -12.103  1.00  0.00     0.163 HD
BRANCH  34  36
HETATM   36  C26 UNL     1       3.684  51.314 -11.923  1.00  0.00     0.186 C 
BRANCH  36  37
HETATM   37  C27 UNL     1       3.532  51.762 -10.464  1.00  0.00     0.074 C 
BRANCH  37  38
HETATM   38  C28 UNL     1       4.507  52.833 -10.041  1.00  0.00    -0.056 A 
HETATM   39  C29 UNL     1       4.212  54.187 -10.249  1.00  0.00     0.007 A 
HETATM   40  C30 UNL     1       5.121  55.176  -9.865  1.00  0.00     0.001 A 
HETATM   41  C31 UNL     1       6.328  54.821  -9.268  1.00  0.00     0.000 A 
HETATM   42  C32 UNL     1       6.630  53.477  -9.056  1.00  0.00     0.001 A 
HETATM   43  C33 UNL     1       5.725  52.487  -9.440  1.00  0.00     0.007 A 
ENDBRANCH  37  38
ENDBRANCH  36  37
BRANCH  36  44
HETATM   44  C34 UNL     1       4.264  49.904 -11.981  1.00  0.00     0.163 C 
HETATM   45  O8  UNL     1       4.140  49.050 -11.114  1.00  0.00    -0.648 OA
BRANCH  44  46
HETATM   46  O9  UNL     1       4.973  49.655 -13.098  1.00  0.00    -0.775 OA
HETATM   47  H41 UNL     1       5.287  48.732 -13.005  1.00  0.00     0.167 HD
ENDBRANCH  44  46
ENDBRANCH  36  44
ENDBRANCH  34  36
ENDBRANCH  31  32
ENDBRANCH  30  31
ENDBRANCH  28  30
ENDBRANCH  27  28
ENDBRANCH  26  27
ENDBRANCH   1  26
TORSDOF 13
ENDMDL
MODEL 4
REMARK minimizedAffinity -8.65200615
REMARK CNNscore 0.480455667
REMARK CNNaffinity 7.16651535
REMARK  13 active torsions:
REMARK  status: ('A' for Active; 'I' for Inactive)
REMARK    1  A    between atoms: C19_21  and  O3_22 
REMARK    2  A    between atoms: C19_21  and  C20_23 
REMARK    3  A    between atoms: C20_23  and  C21_25 
REMARK    4  A    between atoms: C21_25  and  O5_26 
REMARK    5  A    between atoms: O5_26  and  C22_27 
REMARK    6  A    between atoms: C22_27  and  C23_29 
REMARK    7  A    between atoms: C23_29  and  C24_30 
REMARK    8  A    between atoms: C24_30  and  C25_31 
REMARK       I    between atoms: C25_31  and  N1_33 
REMARK    9  A    between atoms: N1_33  and  C26_34 
REMARK   10  A    between atoms: C26_34  and  C27_35 
REMARK   11  A    between atoms: C26_34  and  C34_42 
REMARK   12  A    between atoms: C27_35  and  C28_36 
REMARK   13  A    between atoms: C34_42  and  O9_44 
ROOT
HETATM    1  C20 UNL     1      -2.705  50.574 -13.320  1.00  0.00     0.185 C 
HETATM    2  O4  UNL     1      -3.436  49.612 -13.057  1.00  0.00    -0.292 OA
ENDROOT
BRANCH   1   3
HETATM    3  C19 UNL     1      -2.653  51.811 -12.392  1.00  0.00     0.128 C 
HETATM    4  C14 UNL     1      -1.261  51.999 -11.707  1.00  0.00     0.005 C 
HETATM    5  C13 UNL     1      -0.148  52.586 -12.585  1.00  0.00     0.091 C 
HETATM    6  C15 UNL     1      -0.768  50.661 -11.084  1.00  0.00     0.019 C 
HETATM    7  C16 UNL     1      -1.620  53.068 -10.643  1.00  0.00     0.002 C 
HETATM    8  C12 UNL     1       1.038  52.973 -11.711  1.00  0.00     0.133 C 
HETATM    9  C11 UNL     1       0.747  53.932 -10.537  1.00  0.00     0.072 C 
HETATM   10  O2  UNL     1       2.164  52.569 -11.990  1.00  0.00    -0.297 OA
HETATM   11  C2  UNL     1       1.992  54.311  -9.652  1.00  0.00    -0.009 C 
HETATM   12  C10 UNL     1      -0.455  53.401  -9.701  1.00  0.00     0.003 C 
HETATM   13  C1  UNL     1       2.676  53.071  -9.029  1.00  0.00     0.021 C 
HETATM   14  C3  UNL     1       3.014  55.089 -10.535  1.00  0.00     0.022 C 
HETATM   15  C7  UNL     1       1.531  55.212  -8.491  1.00  0.00    -0.067 C 
HETATM   16  C4  UNL     1       4.083  55.825  -9.740  1.00  0.00     0.084 C 
HETATM   17  C5  UNL     1       3.448  56.751  -8.738  1.00  0.00     0.149 C 
HETATM   18  O1  UNL     1       3.983  57.796  -8.374  1.00  0.00    -0.293 OA
HETATM   19  C6  UNL     1       2.173  56.333  -8.115  1.00  0.00     0.053 C 
HETATM   20  C8  UNL     1       0.305  54.770  -7.727  1.00  0.00     0.035 C 
HETATM   21  C9  UNL     1      -0.860  54.444  -8.653  1.00  0.00     0.010 C 
HETATM   22  C17 UNL     1      -2.910  52.536 -10.028  1.00  0.00     0.009 C 
HETATM   23  C18 UNL     1      -3.620  51.797 -11.180  1.00  0.00     0.047 C 
BRANCH   3  24
HETATM   24  O3  UNL     1      -2.953  52.985 -13.163  1.00  0.00    -0.381 OA
HETATM   25  H25 UNL     1      -3.504  52.716 -13.931  1.00  0.00     0.211 HD
ENDBRANCH   3  24
ENDBRANCH   1   3
BRANCH   1  26
HETATM   26  C21 UNL     1      -1.847  50.545 -14.589  1.00  0.00     0.260 C 
BRANCH  26  27
HETATM   27  O5  UNL     1      -2.436  50.695 -15.874  1.00  0.00    -0.314 OA
BRANCH  27  28
HETATM   28  C22 UNL     1      -2.074  49.780 -16.808  1.00  0.00     0.259 C 
HETATM   29  O6  UNL     1      -2.483  48.624 -16.822  1.00  0.00    -0.265 OA
BRANCH  28  30
HETATM   30  C23 UNL     1      -1.088  50.322 -17.818  1.00  0.00     0.120 C 
BRANCH  30  31
HETATM   31  C24 UNL     1      -1.713  50.812 -19.120  1.00  0.00     0.112 C 
BRANCH  31  32
HETATM   32  C25 UNL     1      -0.676  51.014 -20.210  1.00  0.00     0.218 C 
HETATM   33  O7  UNL     1       0.042  50.116 -20.631  1.00  0.00    -0.274 OA
HETATM   34  N1  UNL     1      -0.639  52.306 -20.685  1.00  0.00    -0.346 N 
HETATM   35  H32 UNL     1      -0.987  53.031 -20.067  1.00  0.00     0.163 HD
BRANCH  34  36
HETATM   36  C26 UNL     1       0.380  52.731 -21.658  1.00  0.00     0.186 C 
BRANCH  36  37
HETATM   37  C27 UNL     1      -0.306  53.242 -22.930  1.00  0.00     0.074 C 
BRANCH  37  38
HETATM   38  C28 UNL     1      -0.088  52.371 -24.143  1.00  0.00    -0.056 A 
HETATM   39  C29 UNL     1       1.024  52.570 -24.973  1.00  0.00     0.007 A 
HETATM   40  C30 UNL     1       1.217  51.768 -26.099  1.00  0.00     0.001 A 
HETATM   41  C31 UNL     1       0.305  50.761 -26.406  1.00  0.00     0.000 A 
HETATM   42  C32 UNL     1      -0.804  50.555 -25.587  1.00  0.00     0.001 A 
HETATM   43  C33 UNL     1      -1.000  51.355 -24.460  1.00  0.00     0.007 A 
ENDBRANCH  37  38
ENDBRANCH  36  37
BRANCH  36  44
HETATM   44  C34 UNL     1       1.181  53.855 -21.006  1.00  0.00     0.163 C 
HETATM   45  O8  UNL     1       2.086  54.481 -21.539  1.00  0.00    -0.648 OA
BRANCH  44  46
HETATM   46  O9  UNL     1       0.820  54.110 -19.735  1.00  0.00    -0.775 OA
HETATM   47  H41 UNL     1       1.406  54.838 -19.440  1.00  0.00     0.167 HD
ENDBRANCH  44  46
ENDBRANCH  36  44
ENDBRANCH  34  36
ENDBRANCH  31  32
ENDBRANCH  30  31
ENDBRANCH  28  30
ENDBRANCH  27  28
ENDBRANCH  26  27
ENDBRANCH   1  26
TORSDOF 13
ENDMDL
MODEL 5
REMARK minimizedAffinity -9.72319221
REMARK CNNscore 0.466278166
REMARK CNNaffinity 6.90987396
REMARK  13 active torsions:
REMARK  status: ('A' for Active; 'I' for Inactive)
REMARK    1  A    between atoms: C19_21  and  O3_22 
REMARK    2  A    between atoms: C19_21  and  C20_23 
REMARK    3  A    between atoms: C20_23  and  C21_25 
REMARK    4  A    between atoms: C21_25  and  O5_26 
REMARK    5  A    between atoms: O5_26  and  C22_27 
REMARK    6  A    between atoms: C22_27  and  C23_29 
REMARK    7  A    between atoms: C23_29  and  C24_30 
REMARK    8  A    between atoms: C24_30  and  C25_31 
REMARK       I    between atoms: C25_31  and  N1_33 
REMARK    9  A    between atoms: N1_33  and  C26_34 
REMARK   10  A    between atoms: C26_34  and  C27_35 
REMARK   11  A    between atoms: C26_34  and  C34_42 
REMARK   12  A    between atoms: C27_35  and  C28_36 
REMARK   13  A    between atoms: C34_42  and  O9_44 
ROOT
HETATM    1  C20 UNL     1      -7.111  48.305 -23.176  1.00  0.00     0.185 C 
HETATM    2  O4  UNL     1      -6.970  47.112 -22.883  1.00  0.00    -0.292 OA
ENDROOT
BRANCH   1   3
HETATM    3  C19 UNL     1      -6.606  49.422 -22.233  1.00  0.00     0.128 C 
HETATM    4  C14 UNL     1      -5.054  49.399 -22.040  1.00  0.00     0.005 C 
HETATM    5  C13 UNL     1      -4.221  49.970 -23.196  1.00  0.00     0.091 C 
HETATM    6  C15 UNL     1      -4.560  47.959 -21.717  1.00  0.00     0.019 C 
HETATM    7  C16 UNL     1      -4.911  50.373 -20.843  1.00  0.00     0.002 C 
HETATM    8  C12 UNL     1      -2.777  50.144 -22.743  1.00  0.00     0.133 C 
HETATM    9  C11 UNL     1      -2.547  50.990 -21.473  1.00  0.00     0.072 C 
HETATM   10  O2  UNL     1      -1.863  49.667 -23.411  1.00  0.00    -0.297 OA
HETATM   11  C2  UNL     1      -1.046  51.149 -21.030  1.00  0.00    -0.009 C 
HETATM   12  C10 UNL     1      -3.471  50.489 -20.324  1.00  0.00     0.003 C 
HETATM   13  C1  UNL     1      -0.360  49.789 -20.764  1.00  0.00     0.021 C 
HETATM   14  C3  UNL     1      -0.275  51.919 -22.146  1.00  0.00     0.022 C 
HETATM   15  C7  UNL     1      -0.988  51.957 -19.720  1.00  0.00    -0.067 C 
HETATM   16  C4  UNL     1       1.078  52.457 -21.703  1.00  0.00     0.084 C 
HETATM   17  C5  UNL     1       0.924  53.323 -20.482  1.00  0.00     0.149 C 
HETATM   18  O1  UNL     1       1.676  54.266 -20.243  1.00  0.00    -0.293 OA
HETATM   19  C6  UNL     1      -0.123  52.963 -19.501  1.00  0.00     0.053 C 
HETATM   20  C8  UNL     1      -1.946  51.552 -18.625  1.00  0.00     0.035 C 
HETATM   21  C9  UNL     1      -3.379  51.444 -19.128  1.00  0.00     0.010 C 
HETATM   22  C17 UNL     1      -5.988  49.903 -19.872  1.00  0.00     0.009 C 
HETATM   23  C18 UNL     1      -7.120  49.367 -20.771  1.00  0.00     0.047 C 
BRANCH   3  24
HETATM   24  O3  UNL     1      -6.988  50.697 -22.771  1.00  0.00    -0.381 OA
HETATM   25  H25 UNL     1      -7.787  50.567 -23.328  1.00  0.00     0.211 HD
ENDBRANCH   3  24
ENDBRANCH   1   3
BRANCH   1  26
HETATM   26  C21 UNL     1      -7.806  48.682 -24.489  1.00  0.00     0.260 C 
BRANCH  26  27
HETATM   27  O5  UNL     1      -9.217  48.839 -24.551  1.00  0.00    -0.314 OA
BRANCH  27  28
HETATM   28  C22 UNL     1      -9.807  48.481 -25.719  1.00  0.00     0.259 C 
HETATM   29  O6  UNL     1     -10.828  49.004 -26.154  1.00  0.00    -0.265 OA
BRANCH  28  30
HETATM   30  C23 UNL     1      -9.093  47.348 -26.421  1.00  0.00     0.120 C 
BRANCH  30  31
HETATM   31  C24 UNL     1      -9.003  47.491 -27.936  1.00  0.00     0.112 C 
BRANCH  31  32
HETATM   32  C25 UNL     1      -7.582  47.319 -28.442  1.00  0.00     0.218 C 
HETATM   33  O7  UNL     1      -6.971  46.259 -28.385  1.00  0.00    -0.274 OA
HETATM   34  N1  UNL     1      -7.061  48.472 -28.985  1.00  0.00    -0.346 N 
HETATM   35  H32 UNL     1      -7.471  49.348 -28.680  1.00  0.00     0.163 HD
BRANCH  34  36
HETATM   36  C26 UNL     1      -5.657  48.541 -29.420  1.00  0.00     0.186 C 
BRANCH  36  37
HETATM   37  C27 UNL     1      -4.753  47.944 -28.336  1.00  0.00     0.074 C 
BRANCH  37  38
HETATM   38  C28 UNL     1      -3.729  48.906 -27.785  1.00  0.00    -0.056 A 
HETATM   39  C29 UNL     1      -2.883  48.522 -26.736  1.00  0.00     0.007 A 
HETATM   40  C30 UNL     1      -1.943  49.419 -26.222  1.00  0.00     0.001 A 
HETATM   41  C31 UNL     1      -1.839  50.702 -26.753  1.00  0.00     0.000 A 
HETATM   42  C32 UNL     1      -2.675  51.093 -27.797  1.00  0.00     0.001 A 
HETATM   43  C33 UNL     1      -3.615  50.200 -28.312  1.00  0.00     0.007 A 
ENDBRANCH  37  38
ENDBRANCH  36  37
BRANCH  36  44
HETATM   44  C34 UNL     1      -5.546  47.723 -30.705  1.00  0.00     0.163 C 
HETATM   45  O8  UNL     1      -4.629  46.965 -30.985  1.00  0.00    -0.648 OA
BRANCH  44  46
HETATM   46  O9  UNL     1      -6.568  47.917 -31.560  1.00  0.00    -0.775 OA
HETATM   47  H41 UNL     1      -6.373  47.345 -32.330  1.00  0.00     0.167 HD
ENDBRANCH  44  46
ENDBRANCH  36  44
ENDBRANCH  34  36
ENDBRANCH  31  32
ENDBRANCH  30  31
ENDBRANCH  28  30
ENDBRANCH  27  28
ENDBRANCH  26  27
ENDBRANCH   1  26
TORSDOF 13
ENDMDL
MODEL 6
REMARK minimizedAffinity -8.66513252
REMARK CNNscore 0.443242341
REMARK CNNaffinity 7.15229225
REMARK  13 active torsions:
REMARK  status: ('A' for Active; 'I' for Inactive)
REMARK    1  A    between atoms: C19_21  and  O3_22 
REMARK    2  A    between atoms: C19_21  and  C20_23 
REMARK    3  A    between atoms: C20_23  and  C21_25 
REMARK    4  A    between atoms: C21_25  and  O5_26 
REMARK    5  A    between atoms: O5_26  and  C22_27 
REMARK    6  A    between atoms: C22_27  and  C23_29 
REMARK    7  A    between atoms: C23_29  and  C24_30 
REMARK    8  A    between atoms: C24_30  and  C25_31 
REMARK       I    between atoms: C25_31  and  N1_33 
REMARK    9  A    between atoms: N1_33  and  C26_34 
REMARK   10  A    between atoms: C26_34  and  C27_35 
REMARK   11  A    between atoms: C26_34  and  C34_42 
REMARK   12  A    between atoms: C27_35  and  C28_36 
REMARK   13  A    between atoms: C34_42  and  O9_44 
ROOT
HETATM    1  C20 UNL     1      -2.904  50.591 -13.443  1.00  0.00     0.185 C 
HETATM    2  O4  UNL     1      -3.432  49.539 -13.064  1.00  0.00    -0.292 OA
ENDROOT
BRANCH   1   3
HETATM    3  C19 UNL     1      -2.836  51.826 -12.514  1.00  0.00     0.128 C 
HETATM    4  C14 UNL     1      -1.445  51.989 -11.820  1.00  0.00     0.005 C 
HETATM    5  C13 UNL     1      -0.316  52.555 -12.691  1.00  0.00     0.091 C 
HETATM    6  C15 UNL     1      -0.980  50.641 -11.195  1.00  0.00     0.019 C 
HETATM    7  C16 UNL     1      -1.791  53.063 -10.758  1.00  0.00     0.002 C 
HETATM    8  C12 UNL     1       0.872  52.920 -11.810  1.00  0.00     0.133 C 
HETATM    9  C11 UNL     1       0.592  53.884 -10.637  1.00  0.00     0.072 C 
HETATM   10  O2  UNL     1       1.992  52.496 -12.082  1.00  0.00    -0.297 OA
HETATM   11  C2  UNL     1       1.837  54.240  -9.744  1.00  0.00    -0.009 C 
HETATM   12  C10 UNL     1      -0.625  53.375  -9.809  1.00  0.00     0.003 C 
HETATM   13  C1  UNL     1       2.495  52.988  -9.118  1.00  0.00     0.021 C 
HETATM   14  C3  UNL     1       2.879  55.000 -10.621  1.00  0.00     0.022 C 
HETATM   15  C7  UNL     1       1.386  55.149  -8.585  1.00  0.00    -0.067 C 
HETATM   16  C4  UNL     1       3.957  55.716  -9.818  1.00  0.00     0.084 C 
HETATM   17  C5  UNL     1       3.333  56.653  -8.820  1.00  0.00     0.149 C 
HETATM   18  O1  UNL     1       3.884  57.687  -8.452  1.00  0.00    -0.293 OA
HETATM   19  C6  UNL     1       2.046  56.258  -8.206  1.00  0.00     0.053 C 
HETATM   20  C8  UNL     1       0.147  54.729  -7.830  1.00  0.00     0.035 C 
HETATM   21  C9  UNL     1      -1.018  54.425  -8.763  1.00  0.00     0.010 C 
HETATM   22  C17 UNL     1      -3.093  52.555 -10.151  1.00  0.00     0.009 C 
HETATM   23  C18 UNL     1      -3.810  51.830 -11.308  1.00  0.00     0.047 C 
BRANCH   3  24
HETATM   24  O3  UNL     1      -3.109  53.006 -13.286  1.00  0.00    -0.381 OA
HETATM   25  H25 UNL     1      -3.660  52.747 -14.058  1.00  0.00     0.211 HD
ENDBRANCH   3  24
ENDBRANCH   1   3
BRANCH   1  26
HETATM   26  C21 UNL     1      -2.320  50.675 -14.857  1.00  0.00     0.260 C 
BRANCH  26  27
HETATM   27  O5  UNL     1      -3.078  51.213 -15.932  1.00  0.00    -0.314 OA
BRANCH  27  28
HETATM   28  C22 UNL     1      -2.998  50.548 -17.111  1.00  0.00     0.259 C 
HETATM   29  O6  UNL     1      -3.293  49.365 -17.247  1.00  0.00    -0.265 OA
BRANCH  28  30
HETATM   30  C23 UNL     1      -2.477  51.407 -18.242  1.00  0.00     0.120 C 
BRANCH  30  31
HETATM   31  C24 UNL     1      -1.426  50.737 -19.120  1.00  0.00     0.112 C 
BRANCH  31  32
HETATM   32  C25 UNL     1      -1.355  51.362 -20.502  1.00  0.00     0.218 C 
HETATM   33  O7  UNL     1      -0.412  52.041 -20.886  1.00  0.00    -0.274 OA
HETATM   34  N1  UNL     1      -2.454  51.071 -21.280  1.00  0.00    -0.346 N 
HETATM   35  H32 UNL     1      -3.308  50.824 -20.793  1.00  0.00     0.163 HD
BRANCH  34  36
HETATM   36  C26 UNL     1      -2.629  51.682 -22.607  1.00  0.00     0.186 C 
BRANCH  36  37
HETATM   37  C27 UNL     1      -2.184  50.693 -23.691  1.00  0.00     0.074 C 
BRANCH  37  38
HETATM   38  C28 UNL     1      -1.069  51.199 -24.572  1.00  0.00    -0.056 A 
HETATM   39  C29 UNL     1      -0.356  52.355 -24.225  1.00  0.00     0.007 A 
HETATM   40  C30 UNL     1       0.670  52.825 -25.048  1.00  0.00     0.001 A 
HETATM   41  C31 UNL     1       0.994  52.146 -26.220  1.00  0.00     0.000 A 
HETATM   42  C32 UNL     1       0.291  50.995 -26.573  1.00  0.00     0.001 A 
HETATM   43  C33 UNL     1      -0.735  50.522 -25.753  1.00  0.00     0.007 A 
ENDBRANCH  37  38
ENDBRANCH  36  37
BRANCH  36  44
HETATM   44  C34 UNL     1      -4.114  51.998 -22.763  1.00  0.00     0.163 C 
HETATM   45  O8  UNL     1      -4.703  52.131 -23.826  1.00  0.00    -0.648 OA
BRANCH  44  46
HETATM   46  O9  UNL     1      -4.761  52.146 -21.592  1.00  0.00    -0.775 OA
HETATM   47  H41 UNL     1      -5.689  52.346 -21.833  1.00  0.00     0.167 HD
ENDBRANCH  44  46
ENDBRANCH  36  44
ENDBRANCH  34  36
ENDBRANCH  31  32
ENDBRANCH  30  31
ENDBRANCH  28  30
ENDBRANCH  27  28
ENDBRANCH  26  27
ENDBRANCH   1  26
TORSDOF 13
ENDMDL
MODEL 7
REMARK minimizedAffinity -8.43386459
REMARK CNNscore 0.390103668
REMARK CNNaffinity 6.22050476
REMARK  13 active torsions:
REMARK  status: ('A' for Active; 'I' for Inactive)
REMARK    1  A    between atoms: C19_21  and  O3_22 
REMARK    2  A    between atoms: C19_21  and  C20_23 
REMARK    3  A    between atoms: C20_23  and  C21_25 
REMARK    4  A    between atoms: C21_25  and  O5_26 
REMARK    5  A    between atoms: O5_26  and  C22_27 
REMARK    6  A    between atoms: C22_27  and  C23_29 
REMARK    7  A    between atoms: C23_29  and  C24_30 
REMARK    8  A    between atoms: C24_30  and  C25_31 
REMARK       I    between atoms: C25_31  and  N1_33 
REMARK    9  A    between atoms: N1_33  and  C26_34 
REMARK   10  A    between atoms: C26_34  and  C27_35 
REMARK   11  A    between atoms: C26_34  and  C34_42 
REMARK   12  A    between atoms: C27_35  and  C28_36 
REMARK   13  A    between atoms: C34_42  and  O9_44 
ROOT
HETATM    1  C20 UNL     1      -7.139  48.154 -23.056  1.00  0.00     0.185 C 
HETATM    2  O4  UNL     1      -7.439  47.042 -22.605  1.00  0.00    -0.292 OA
ENDROOT
BRANCH   1   3
HETATM    3  C19 UNL     1      -6.610  49.272 -22.128  1.00  0.00     0.128 C 
HETATM    4  C14 UNL     1      -5.050  49.304 -22.043  1.00  0.00     0.005 C 
HETATM    5  C13 UNL     1      -4.319  49.925 -23.241  1.00  0.00     0.091 C 
HETATM    6  C15 UNL     1      -4.482  47.879 -21.781  1.00  0.00     0.019 C 
HETATM    7  C16 UNL     1      -4.860  50.264 -20.840  1.00  0.00     0.002 C 
HETATM    8  C12 UNL     1      -2.855  50.145 -22.885  1.00  0.00     0.133 C 
HETATM    9  C11 UNL     1      -2.569  50.978 -21.618  1.00  0.00     0.072 C 
HETATM   10  O2  UNL     1      -1.972  49.713 -23.622  1.00  0.00    -0.297 OA
HETATM   11  C2  UNL     1      -1.047  51.186 -21.275  1.00  0.00    -0.009 C 
HETATM   12  C10 UNL     1      -3.392  50.424 -20.418  1.00  0.00     0.003 C 
HETATM   13  C1  UNL     1      -0.295  49.848 -21.082  1.00  0.00     0.021 C 
HETATM   14  C3  UNL     1      -0.383  52.002 -22.426  1.00  0.00     0.022 C 
HETATM   15  C7  UNL     1      -0.928  51.973 -19.957  1.00  0.00    -0.067 C 
HETATM   16  C4  UNL     1       0.977  52.583 -22.066  1.00  0.00     0.084 C 
HETATM   17  C5  UNL     1       0.877  53.423 -20.822  1.00  0.00     0.149 C 
HETATM   18  O1  UNL     1       1.609  54.388 -20.617  1.00  0.00    -0.293 OA
HETATM   19  C6  UNL     1      -0.086  53.007 -19.778  1.00  0.00     0.053 C 
HETATM   20  C8  UNL     1      -1.794  51.516 -18.806  1.00  0.00     0.035 C 
HETATM   21  C9  UNL     1      -3.253  51.362 -19.213  1.00  0.00     0.010 C 
HETATM   22  C17 UNL     1      -5.850  49.737 -19.807  1.00  0.00     0.009 C 
HETATM   23  C18 UNL     1      -7.021  49.174 -20.636  1.00  0.00     0.047 C 
BRANCH   3  24
HETATM   24  O3  UNL     1      -7.074  50.541 -22.616  1.00  0.00    -0.381 OA
HETATM   25  H25 UNL     1      -7.905  50.391 -23.119  1.00  0.00     0.211 HD
ENDBRANCH   3  24
ENDBRANCH   1   3
BRANCH   1  26
HETATM   26  C21 UNL     1      -7.304  48.429 -24.554  1.00  0.00     0.260 C 
BRANCH  26  27
HETATM   27  O5  UNL     1      -8.534  48.162 -25.216  1.00  0.00    -0.314 OA
BRANCH  27  28
HETATM   28  C22 UNL     1      -8.488  48.132 -26.572  1.00  0.00     0.259 C 
HETATM   29  O6  UNL     1      -9.080  48.930 -27.290  1.00  0.00    -0.265 OA
BRANCH  28  30
HETATM   30  C23 UNL     1      -7.653  46.993 -27.112  1.00  0.00     0.120 C 
BRANCH  30  31
HETATM   31  C24 UNL     1      -8.441  45.923 -27.860  1.00  0.00     0.112 C 
BRANCH  31  32
HETATM   32  C25 UNL     1      -9.615  46.509 -28.623  1.00  0.00     0.218 C 
HETATM   33  O7  UNL     1      -9.525  46.957 -29.759  1.00  0.00    -0.274 OA
HETATM   34  N1  UNL     1     -10.793  46.470 -27.910  1.00  0.00    -0.346 N 
HETATM   35  H32 UNL     1     -10.716  46.424 -26.900  1.00  0.00     0.163 HD
BRANCH  34  36
HETATM   36  C26 UNL     1     -12.018  47.098 -28.430  1.00  0.00     0.186 C 
BRANCH  36  37
HETATM   37  C27 UNL     1     -12.978  46.014 -28.934  1.00  0.00     0.074 C 
BRANCH  37  38
HETATM   38  C28 UNL     1     -12.506  44.603 -28.680  1.00  0.00    -0.056 A 
HETATM   39  C29 UNL     1     -12.783  43.968 -27.462  1.00  0.00     0.007 A 
HETATM   40  C30 UNL     1     -12.338  42.665 -27.227  1.00  0.00     0.001 A 
HETATM   41  C31 UNL     1     -11.615  41.987 -28.206  1.00  0.00     0.000 A 
HETATM   42  C32 UNL     1     -11.335  42.610 -29.421  1.00  0.00     0.001 A 
HETATM   43  C33 UNL     1     -11.779  43.911 -29.658  1.00  0.00     0.007 A 
ENDBRANCH  37  38
ENDBRANCH  36  37
BRANCH  36  44
HETATM   44  C34 UNL     1     -12.654  47.864 -27.273  1.00  0.00     0.163 C 
HETATM   45  O8  UNL     1     -13.661  47.525 -26.667  1.00  0.00    -0.648 OA
BRANCH  44  46
HETATM   46  O9  UNL     1     -12.011  49.005 -26.960  1.00  0.00    -0.775 OA
HETATM   47  H41 UNL     1     -12.518  49.393 -26.217  1.00  0.00     0.167 HD
ENDBRANCH  44  46
ENDBRANCH  36  44
ENDBRANCH  34  36
ENDBRANCH  31  32
ENDBRANCH  30  31
ENDBRANCH  28  30
ENDBRANCH  27  28
ENDBRANCH  26  27
ENDBRANCH   1  26
TORSDOF 13
ENDMDL
MODEL 8
REMARK minimizedAffinity -8.9156847
REMARK CNNscore 0.348602265
REMARK CNNaffinity 6.44906998
REMARK  13 active torsions:
REMARK  status: ('A' for Active; 'I' for Inactive)
REMARK    1  A    between atoms: C19_21  and  O3_22 
REMARK    2  A    between atoms: C19_21  and  C20_23 
REMARK    3  A    between atoms: C20_23  and  C21_25 
REMARK    4  A    between atoms: C21_25  and  O5_26 
REMARK    5  A    between atoms: O5_26  and  C22_27 
REMARK    6  A    between atoms: C22_27  and  C23_29 
REMARK    7  A    between atoms: C23_29  and  C24_30 
REMARK    8  A    between atoms: C24_30  and  C25_31 
REMARK       I    between atoms: C25_31  and  N1_33 
REMARK    9  A    between atoms: N1_33  and  C26_34 
REMARK   10  A    between atoms: C26_34  and  C27_35 
REMARK   11  A    between atoms: C26_34  and  C34_42 
REMARK   12  A    between atoms: C27_35  and  C28_36 
REMARK   13  A    between atoms: C34_42  and  O9_44 
ROOT
HETATM    1  C20 UNL     1      -1.621  51.389 -22.193  1.00  0.00     0.185 C 
HETATM    2  O4  UNL     1      -2.435  52.275 -22.477  1.00  0.00    -0.292 OA
ENDROOT
BRANCH   1   3
HETATM    3  C19 UNL     1      -0.462  51.659 -21.206  1.00  0.00     0.128 C 
HETATM    4  C14 UNL     1      -0.771  51.165 -19.756  1.00  0.00     0.005 C 
HETATM    5  C13 UNL     1      -0.650  49.655 -19.515  1.00  0.00     0.091 C 
HETATM    6  C15 UNL     1      -2.179  51.644 -19.298  1.00  0.00     0.019 C 
HETATM    7  C16 UNL     1       0.384  51.849 -18.980  1.00  0.00     0.002 C 
HETATM    8  C12 UNL     1      -0.694  49.373 -18.019  1.00  0.00     0.133 C 
HETATM    9  C11 UNL     1       0.337  50.119 -17.145  1.00  0.00     0.072 C 
HETATM   10  O2  UNL     1      -1.485  48.547 -17.572  1.00  0.00    -0.297 OA
HETATM   11  C2  UNL     1       0.265  49.809 -15.604  1.00  0.00    -0.009 C 
HETATM   12  C10 UNL     1       0.300  51.643 -17.461  1.00  0.00     0.003 C 
HETATM   13  C1  UNL     1      -1.120  50.134 -14.998  1.00  0.00     0.021 C 
HETATM   14  C3  UNL     1       0.597  48.301 -15.382  1.00  0.00     0.022 C 
HETATM   15  C7  UNL     1       1.303  50.674 -14.865  1.00  0.00    -0.067 C 
HETATM   16  C4  UNL     1       0.919  47.946 -13.937  1.00  0.00     0.084 C 
HETATM   17  C5  UNL     1       2.039  48.808 -13.421  1.00  0.00     0.149 C 
HETATM   18  O1  UNL     1       2.829  48.420 -12.565  1.00  0.00    -0.293 OA
HETATM   19  C6  UNL     1       2.127  50.201 -13.912  1.00  0.00     0.053 C 
HETATM   20  C8  UNL     1       1.356  52.139 -15.229  1.00  0.00     0.035 C 
HETATM   21  C9  UNL     1       1.448  52.354 -16.733  1.00  0.00     0.010 C 
HETATM   22  C17 UNL     1       0.371  53.278 -19.512  1.00  0.00     0.009 C 
HETATM   23  C18 UNL     1      -0.092  53.147 -20.977  1.00  0.00     0.047 C 
BRANCH   3  24
HETATM   24  O3  UNL     1       0.719  50.995 -21.681  1.00  0.00    -0.381 OA
HETATM   25  H25 UNL     1       0.646  50.898 -22.656  1.00  0.00     0.211 HD
ENDBRANCH   3  24
ENDBRANCH   1   3
BRANCH   1  26
HETATM   26  C21 UNL     1      -1.758  50.006 -22.838  1.00  0.00     0.260 C 
BRANCH  26  27
HETATM   27  O5  UNL     1      -2.870  49.691 -23.666  1.00  0.00    -0.314 OA
BRANCH  27  28
HETATM   28  C22 UNL     1      -2.670  49.807 -25.003  1.00  0.00     0.259 C 
HETATM   29  O6  UNL     1      -1.641  50.249 -25.502  1.00  0.00    -0.265 OA
BRANCH  28  30
HETATM   30  C23 UNL     1      -3.861  49.360 -25.822  1.00  0.00     0.120 C 
BRANCH  30  31
HETATM   31  C24 UNL     1      -3.532  48.387 -26.949  1.00  0.00     0.112 C 
BRANCH  31  32
HETATM   32  C25 UNL     1      -4.564  48.433 -28.061  1.00  0.00     0.218 C 
HETATM   33  O7  UNL     1      -4.326  48.860 -29.184  1.00  0.00    -0.274 OA
HETATM   34  N1  UNL     1      -5.788  47.931 -27.680  1.00  0.00    -0.346 N 
HETATM   35  H32 UNL     1      -5.997  47.937 -26.687  1.00  0.00     0.163 HD
BRANCH  34  36
HETATM   36  C26 UNL     1      -6.952  47.999 -28.578  1.00  0.00     0.186 C 
BRANCH  36  37
HETATM   37  C27 UNL     1      -6.973  46.763 -29.486  1.00  0.00     0.074 C 
BRANCH  37  38
HETATM   38  C28 UNL     1      -7.441  47.038 -30.894  1.00  0.00    -0.056 A 
HETATM   39  C29 UNL     1      -8.795  46.910 -31.232  1.00  0.00     0.007 A 
HETATM   40  C30 UNL     1      -9.223  47.156 -32.538  1.00  0.00     0.001 A 
HETATM   41  C31 UNL     1      -8.305  47.534 -33.515  1.00  0.00     0.000 A 
HETATM   42  C32 UNL     1      -6.956  47.664 -33.188  1.00  0.00     0.001 A 
HETATM   43  C33 UNL     1      -6.526  47.419 -31.884  1.00  0.00     0.007 A 
ENDBRANCH  37  38
ENDBRANCH  36  37
BRANCH  36  44
HETATM   44  C34 UNL     1      -8.197  48.023 -27.696  1.00  0.00     0.163 C 
HETATM   45  O8  UNL     1      -8.488  47.182 -26.856  1.00  0.00    -0.648 OA
BRANCH  44  46
HETATM   46  O9  UNL     1      -9.005  49.074 -27.928  1.00  0.00    -0.775 OA
HETATM   47  H41 UNL     1      -9.755  48.967 -27.308  1.00  0.00     0.167 HD
ENDBRANCH  44  46
ENDBRANCH  36  44
ENDBRANCH  34  36
ENDBRANCH  31  32
ENDBRANCH  30  31
ENDBRANCH  28  30
ENDBRANCH  27  28
ENDBRANCH  26  27
ENDBRANCH   1  26
TORSDOF 13
ENDMDL
MODEL 9
REMARK minimizedAffinity -8.63038445
REMARK CNNscore 0.30721733
REMARK CNNaffinity 6.45578337
REMARK  13 active torsions:
REMARK  status: ('A' for Active; 'I' for Inactive)
REMARK    1  A    between atoms: C19_21  and  O3_22 
REMARK    2  A    between atoms: C19_21  and  C20_23 
REMARK    3  A    between atoms: C20_23  and  C21_25 
REMARK    4  A    between atoms: C21_25  and  O5_26 
REMARK    5  A    between atoms: O5_26  and  C22_27 
REMARK    6  A    between atoms: C22_27  and  C23_29 
REMARK    7  A    between atoms: C23_29  and  C24_30 
REMARK    8  A    between atoms: C24_30  and  C25_31 
REMARK       I    between atoms: C25_31  and  N1_33 
REMARK    9  A    between atoms: N1_33  and  C26_34 
REMARK   10  A    between atoms: C26_34  and  C27_35 
REMARK   11  A    between atoms: C26_34  and  C34_42 
REMARK   12  A    between atoms: C27_35  and  C28_36 
REMARK   13  A    between atoms: C34_42  and  O9_44 
ROOT
HETATM    1  C20 UNL     1      -7.169  48.655 -23.532  1.00  0.00     0.185 C 
HETATM    2  O4  UNL     1      -6.906  48.753 -24.736  1.00  0.00    -0.292 OA
ENDROOT
BRANCH   1   3
HETATM    3  C19 UNL     1      -6.638  49.691 -22.514  1.00  0.00     0.128 C 
HETATM    4  C14 UNL     1      -5.083  49.648 -22.359  1.00  0.00     0.005 C 
HETATM    5  C13 UNL     1      -4.272  50.306 -23.483  1.00  0.00     0.091 C 
HETATM    6  C15 UNL     1      -4.589  48.186 -22.161  1.00  0.00     0.019 C 
HETATM    7  C16 UNL     1      -4.909  50.524 -21.092  1.00  0.00     0.002 C 
HETATM    8  C12 UNL     1      -2.818  50.438 -23.050  1.00  0.00     0.133 C 
HETATM    9  C11 UNL     1      -2.556  51.181 -21.723  1.00  0.00     0.072 C 
HETATM   10  O2  UNL     1      -1.920  50.012 -23.773  1.00  0.00    -0.297 OA
HETATM   11  C2  UNL     1      -1.045  51.299 -21.302  1.00  0.00    -0.009 C 
HETATM   12  C10 UNL     1      -3.457  50.593 -20.597  1.00  0.00     0.003 C 
HETATM   13  C1  UNL     1      -0.360  49.919 -21.159  1.00  0.00     0.021 C 
HETATM   14  C3  UNL     1      -0.294  52.152 -22.370  1.00  0.00     0.022 C 
HETATM   15  C7  UNL     1      -0.954  52.000 -19.933  1.00  0.00    -0.067 C 
HETATM   16  C4  UNL     1       1.071  52.649 -21.915  1.00  0.00     0.084 C 
HETATM   17  C5  UNL     1       0.949  53.416 -20.627  1.00  0.00     0.149 C 
HETATM   18  O1  UNL     1       1.710  54.334 -20.331  1.00  0.00    -0.293 OA
HETATM   19  C6  UNL     1      -0.079  52.983 -19.654  1.00  0.00     0.053 C 
HETATM   20  C8  UNL     1      -1.891  51.514 -18.852  1.00  0.00     0.035 C 
HETATM   21  C9  UNL     1      -3.335  51.450 -19.331  1.00  0.00     0.010 C 
HETATM   22  C17 UNL     1      -5.967  49.982 -20.138  1.00  0.00     0.009 C 
HETATM   23  C18 UNL     1      -7.121  49.522 -21.051  1.00  0.00     0.047 C 
BRANCH   3  24
HETATM   24  O3  UNL     1      -7.025  51.006 -22.942  1.00  0.00    -0.381 OA
HETATM   25  H25 UNL     1      -7.837  50.924 -23.490  1.00  0.00     0.211 HD
ENDBRANCH   3  24
ENDBRANCH   1   3
BRANCH   1  26
HETATM   26  C21 UNL     1      -8.025  47.483 -23.041  1.00  0.00     0.260 C 
BRANCH  26  27
HETATM   27  O5  UNL     1      -7.572  46.142 -23.169  1.00  0.00    -0.314 OA
BRANCH  27  28
HETATM   28  C22 UNL     1      -8.341  45.322 -23.928  1.00  0.00     0.259 C 
HETATM   29  O6  UNL     1      -9.014  44.403 -23.472  1.00  0.00    -0.265 OA
BRANCH  28  30
HETATM   30  C23 UNL     1      -8.265  45.636 -25.406  1.00  0.00     0.120 C 
BRANCH  30  31
HETATM   31  C24 UNL     1      -9.599  45.991 -26.053  1.00  0.00     0.112 C 
BRANCH  31  32
HETATM   32  C25 UNL     1      -9.491  46.096 -27.563  1.00  0.00     0.218 C 
HETATM   33  O7  UNL     1     -10.462  46.179 -28.304  1.00  0.00    -0.274 OA
HETATM   34  N1  UNL     1      -8.188  46.103 -28.010  1.00  0.00    -0.346 N 
HETATM   35  H32 UNL     1      -7.493  45.686 -27.401  1.00  0.00     0.163 HD
BRANCH  34  36
HETATM   36  C26 UNL     1      -7.876  46.078 -29.447  1.00  0.00     0.186 C 
BRANCH  36  37
HETATM   37  C27 UNL     1      -6.559  46.821 -29.701  1.00  0.00     0.074 C 
BRANCH  37  38
HETATM   38  C28 UNL     1      -6.283  47.113 -31.156  1.00  0.00    -0.056 A 
HETATM   39  C29 UNL     1      -7.323  47.486 -32.017  1.00  0.00     0.007 A 
HETATM   40  C30 UNL     1      -7.065  47.747 -33.365  1.00  0.00     0.001 A 
HETATM   41  C31 UNL     1      -5.768  47.639 -33.862  1.00  0.00     0.000 A 
HETATM   42  C32 UNL     1      -4.727  47.269 -33.012  1.00  0.00     0.001 A 
HETATM   43  C33 UNL     1      -4.982  47.007 -31.666  1.00  0.00     0.007 A 
ENDBRANCH  37  38
ENDBRANCH  36  37
BRANCH  36  44
HETATM   44  C34 UNL     1      -7.738  44.612 -29.850  1.00  0.00     0.163 C 
HETATM   45  O8  UNL     1      -6.982  43.803 -29.331  1.00  0.00    -0.648 OA
BRANCH  44  46
HETATM   46  O9  UNL     1      -8.529  44.257 -30.880  1.00  0.00    -0.775 OA
HETATM   47  H41 UNL     1      -8.341  43.308 -31.035  1.00  0.00     0.167 HD
ENDBRANCH  44  46
ENDBRANCH  36  44
ENDBRANCH  34  36
ENDBRANCH  31  32
ENDBRANCH  30  31
ENDBRANCH  28  30
ENDBRANCH  27  28
ENDBRANCH  26  27
ENDBRANCH   1  26
TORSDOF 13
ENDMDL
