MODEL 1
REMARK minimizedAffinity -7.30635738
REMARK CNNscore 0.553941548
REMARK CNNaffinity 6.75614309
REMARK  13 active torsions:
REMARK  status: ('A' for Active; 'I' for Inactive)
REMARK    1  A    between atoms: C3_3  and  O1_4 
REMARK    2  A    between atoms: N1_14  and  O2_16 
REMARK    3  A    between atoms: O2_16  and  C13_17 
REMARK    4  A    between atoms: C13_17  and  C14_18 
REMARK       I    between atoms: C14_18  and  N2_20 
REMARK    5  A    between atoms: N2_20  and  C15_21 
REMARK    6  A    between atoms: C15_21  and  C16_22 
REMARK    7  A    between atoms: C15_21  and  C21_32 
REMARK       I    between atoms: C16_22  and  N3_24 
REMARK    8  A    between atoms: N3_24  and  C17_25 
REMARK    9  A    between atoms: C17_25  and  C18_26 
REMARK   10  A    between atoms: C17_25  and  C19_28 
REMARK   11  A    between atoms: C18_26  and  S1_27 
REMARK   12  A    between atoms: C19_28  and  C20_29 
REMARK   13  A    between atoms: C20_29  and  O6_31 
ROOT
HETATM    1  C1  UNL     1       1.898   6.998   6.453  1.00  0.00     0.015 C 
HETATM    2  C2  UNL     1       2.160   6.760   7.600  1.00  0.00    -0.078 C 
HETATM    3  C3  UNL     1       2.416   6.422   9.011  1.00  0.00     0.128 C 
HETATM    4  C4  UNL     1       3.626   5.505   9.182  1.00  0.00     0.052 C 
HETATM    5  C5  UNL     1       3.981   5.614  10.666  1.00  0.00     0.010 C 
HETATM    6  C6  UNL     1       3.423   6.964  11.160  1.00  0.00     0.002 C 
HETATM    7  C7  UNL     1       2.605   6.893  12.467  1.00  0.00    -0.004 C 
HETATM    8  C8  UNL     1       1.412   5.929  12.532  1.00  0.00     0.010 C 
HETATM    9  C9  UNL     1       0.783   5.926  13.927  1.00  0.00     0.035 C 
HETATM   10  C10 UNL     1       0.459   7.307  14.463  1.00  0.00    -0.069 C 
HETATM   11  C11 UNL     1      -0.707   7.522  15.101  1.00  0.00     0.030 C 
HETATM   12  C12 UNL     1      -1.025   8.823  15.753  1.00  0.00     0.032 C 
HETATM   13  N1  UNL     1      -2.192   8.965  16.312  1.00  0.00    -0.271 N 
ATOM     14  H1  UNL     1      -2.915   8.246  16.341  1.00  0.00     0.194 HD
HETATM   15  C24 UNL     1       0.072   9.876  15.790  1.00  0.00     0.060 C 
HETATM   16  C25 UNL     1       0.912   9.798  14.526  1.00  0.00     0.020 C 
HETATM   17  C26 UNL     1       1.524   8.389  14.271  1.00  0.00    -0.016 C 
HETATM   18  C27 UNL     1       2.646   8.158  15.314  1.00  0.00     0.020 C 
HETATM   19  C28 UNL     1       2.140   8.323  12.816  1.00  0.00     0.002 C 
HETATM   20  C29 UNL     1       1.181   8.838  11.721  1.00  0.00     0.007 C 
HETATM   21  C30 UNL     1       1.521   8.522  10.254  1.00  0.00     0.014 C 
HETATM   22  C31 UNL     1       2.746   7.638   9.934  1.00  0.00     0.003 C 
HETATM   23  C32 UNL     1       3.817   8.560   9.270  1.00  0.00     0.020 C 
ENDROOT
BRANCH   3  24
HETATM   24  O1  UNL     1       1.289   5.689   9.490  1.00  0.00    -0.377 OA
HETATM   25  H2  UNL     1       0.490   6.130   9.172  1.00  0.00     0.211 HD
ENDBRANCH   3  24
BRANCH  13  26
HETATM   26  O2  UNL     1      -2.318  10.243  16.869  1.00  0.00    -0.271 OA
BRANCH  26  27
HETATM   27  C13 UNL     1      -2.393  10.152  18.284  1.00  0.00     0.303 C 
BRANCH  27  28
HETATM   28  C14 UNL     1      -1.481  11.230  18.853  1.00  0.00     0.244 C 
HETATM   29  O3  UNL     1      -1.847  12.380  19.089  1.00  0.00    -0.271 OA
HETATM   30  N2  UNL     1      -0.180  10.832  19.086  1.00  0.00    -0.346 N 
HETATM   31  H16 UNL     1       0.077   9.855  19.024  1.00  0.00     0.163 HD
BRANCH  30  32
HETATM   32  C15 UNL     1       0.832  11.763  19.619  1.00  0.00     0.180 C 
BRANCH  32  33
HETATM   33  C16 UNL     1       1.949  10.912  20.286  1.00  0.00     0.241 C 
HETATM   34  O4  UNL     1       2.330   9.829  19.842  1.00  0.00    -0.271 OA
HETATM   35  N3  UNL     1       2.527  11.517  21.394  1.00  0.00    -0.353 N 
HETATM   36  H18 UNL     1       2.185  12.439  21.656  1.00  0.00     0.163 HD
BRANCH  35  37
HETATM   37  C17 UNL     1       3.579  10.876  22.180  1.00  0.00     0.103 C 
BRANCH  37  38
HETATM   38  C18 UNL     1       3.001  10.062  23.367  1.00  0.00     0.096 C 
BRANCH  38  39
HETATM   39  S1  UNL     1       2.534   8.342  22.994  1.00  0.00    -0.180 SA
HETATM   40  H22 UNL     1       2.552   7.899  24.262  1.00  0.00     0.101 HD
ENDBRANCH  38  39
ENDBRANCH  37  38
BRANCH  37  41
HETATM   41  C19 UNL     1       4.546  11.934  22.746  1.00  0.00     0.136 C 
BRANCH  41  42
HETATM   42  C20 UNL     1       3.922  13.300  22.877  1.00  0.00     0.141 C 
HETATM   43  O5  UNL     1       3.112  13.691  23.698  1.00  0.00    -0.650 OA
BRANCH  42  44
HETATM   44  O6  UNL     1       4.390  14.140  21.927  1.00  0.00    -0.776 OA
HETATM   45  H25 UNL     1       3.965  14.999  22.135  1.00  0.00     0.167 HD
ENDBRANCH  42  44
ENDBRANCH  41  42
ENDBRANCH  37  41
ENDBRANCH  35  37
ENDBRANCH  32  33
BRANCH  32  46
HETATM   46  C21 UNL     1       1.377  12.703  18.516  1.00  0.00     0.009 C 
HETATM   47  C22 UNL     1       2.481  12.018  17.700  1.00  0.00     0.012 C 
HETATM   48  C23 UNL     1       1.943  14.011  19.089  1.00  0.00     0.012 C 
ENDBRANCH  32  46
ENDBRANCH  30  32
ENDBRANCH  27  28
ENDBRANCH  26  27
ENDBRANCH  13  26
TORSDOF 13
ENDMDL
MODEL 2
REMARK minimizedAffinity -6.84948778
REMARK CNNscore 0.36871475
REMARK CNNaffinity 6.91212273
REMARK  13 active torsions:
REMARK  status: ('A' for Active; 'I' for Inactive)
REMARK    1  A    between atoms: C3_3  and  O1_4 
REMARK    2  A    between atoms: N1_14  and  O2_16 
REMARK    3  A    between atoms: O2_16  and  C13_17 
REMARK    4  A    between atoms: C13_17  and  C14_18 
REMARK       I    between atoms: C14_18  and  N2_20 
REMARK    5  A    between atoms: N2_20  and  C15_21 
REMARK    6  A    between atoms: C15_21  and  C16_22 
REMARK    7  A    between atoms: C15_21  and  C21_32 
REMARK       I    between atoms: C16_22  and  N3_24 
REMARK    8  A    between atoms: N3_24  and  C17_25 
REMARK    9  A    between atoms: C17_25  and  C18_26 
REMARK   10  A    between atoms: C17_25  and  C19_28 
REMARK   11  A    between atoms: C18_26  and  S1_27 
REMARK   12  A    between atoms: C19_28  and  C20_29 
REMARK   13  A    between atoms: C20_29  and  O6_31 
ROOT
HETATM    1  C1  UNL     1     -12.221  15.912  17.430  1.00  0.00     0.015 C 
HETATM    2  C2  UNL     1     -12.779  14.898  17.112  1.00  0.00    -0.078 C 
HETATM    3  C3  UNL     1     -13.430  13.618  16.785  1.00  0.00     0.128 C 
HETATM    4  C4  UNL     1     -14.934  13.639  17.054  1.00  0.00     0.052 C 
HETATM    5  C5  UNL     1     -15.477  12.436  16.282  1.00  0.00     0.010 C 
HETATM    6  C6  UNL     1     -14.467  12.134  15.157  1.00  0.00     0.002 C 
HETATM    7  C7  UNL     1     -14.044  10.655  15.039  1.00  0.00    -0.004 C 
HETATM    8  C8  UNL     1     -13.467   9.958  16.279  1.00  0.00     0.010 C 
HETATM    9  C9  UNL     1     -13.193   8.479  16.001  1.00  0.00     0.035 C 
HETATM   10  C10 UNL     1     -12.380   8.225  14.747  1.00  0.00    -0.069 C 
HETATM   11  C11 UNL     1     -11.394   7.307  14.761  1.00  0.00     0.030 C 
HETATM   12  C12 UNL     1     -10.645   6.931  13.530  1.00  0.00     0.032 C 
HETATM   13  N1  UNL     1      -9.676   6.067  13.636  1.00  0.00    -0.271 N 
ATOM     14  H1  UNL     1      -9.388   5.621  14.507  1.00  0.00     0.194 HD
HETATM   15  C24 UNL     1     -11.118   7.525  12.212  1.00  0.00     0.060 C 
HETATM   16  C25 UNL     1     -11.636   8.936  12.433  1.00  0.00     0.020 C 
HETATM   17  C26 UNL     1     -12.767   9.024  13.500  1.00  0.00    -0.016 C 
HETATM   18  C27 UNL     1     -14.047   8.393  12.896  1.00  0.00     0.020 C 
HETATM   19  C28 UNL     1     -13.050  10.536  13.864  1.00  0.00     0.002 C 
HETATM   20  C29 UNL     1     -11.771  11.338  14.185  1.00  0.00     0.007 C 
HETATM   21  C30 UNL     1     -11.927  12.708  14.869  1.00  0.00     0.014 C 
HETATM   22  C31 UNL     1     -13.334  13.190  15.285  1.00  0.00     0.003 C 
HETATM   23  C32 UNL     1     -13.708  14.380  14.347  1.00  0.00     0.020 C 
ENDROOT
BRANCH   3  24
HETATM   24  O1  UNL     1     -12.884  12.623  17.651  1.00  0.00    -0.377 OA
HETATM   25  H2  UNL     1     -11.927  12.754  17.689  1.00  0.00     0.211 HD
ENDBRANCH   3  24
BRANCH  13  26
HETATM   26  O2  UNL     1      -9.086   5.835  12.388  1.00  0.00    -0.271 OA
BRANCH  26  27
HETATM   27  C13 UNL     1      -8.324   4.638  12.426  1.00  0.00     0.303 C 
BRANCH  27  28
HETATM   28  C14 UNL     1      -7.399   4.730  13.632  1.00  0.00     0.244 C 
HETATM   29  O3  UNL     1      -7.441   3.955  14.586  1.00  0.00    -0.271 OA
HETATM   30  N2  UNL     1      -6.493   5.771  13.596  1.00  0.00    -0.346 N 
HETATM   31  H16 UNL     1      -6.369   6.315  12.751  1.00  0.00     0.163 HD
BRANCH  30  32
HETATM   32  C15 UNL     1      -5.540   6.006  14.696  1.00  0.00     0.180 C 
BRANCH  32  33
HETATM   33  C16 UNL     1      -4.126   6.158  14.069  1.00  0.00     0.241 C 
HETATM   34  O4  UNL     1      -3.888   5.949  12.878  1.00  0.00    -0.271 OA
HETATM   35  N3  UNL     1      -3.164   6.615  14.960  1.00  0.00    -0.353 N 
HETATM   36  H18 UNL     1      -3.464   6.814  15.912  1.00  0.00     0.163 HD
BRANCH  35  37
HETATM   37  C17 UNL     1      -1.766   6.803  14.579  1.00  0.00     0.103 C 
BRANCH  37  38
HETATM   38  C18 UNL     1      -1.627   7.406  13.157  1.00  0.00     0.096 C 
BRANCH  38  39
HETATM   39  S1  UNL     1      -1.723   9.221  13.055  1.00  0.00    -0.180 SA
HETATM   40  H22 UNL     1      -1.121   9.340  11.859  1.00  0.00     0.101 HD
ENDBRANCH  38  39
ENDBRANCH  37  38
BRANCH  37  41
HETATM   41  C19 UNL     1      -1.017   5.456  14.608  1.00  0.00     0.136 C 
BRANCH  41  42
HETATM   42  C20 UNL     1       0.072   5.360  13.571  1.00  0.00     0.141 C 
HETATM   43  O5  UNL     1       0.004   4.928  12.433  1.00  0.00    -0.650 OA
BRANCH  42  44
HETATM   44  O6  UNL     1       1.239   5.850  14.044  1.00  0.00    -0.776 OA
HETATM   45  H25 UNL     1       1.853   5.788  13.282  1.00  0.00     0.167 HD
ENDBRANCH  42  44
ENDBRANCH  41  42
ENDBRANCH  37  41
ENDBRANCH  35  37
ENDBRANCH  32  33
BRANCH  32  46
HETATM   46  C21 UNL     1      -5.948   7.234  15.548  1.00  0.00     0.009 C 
HETATM   47  C22 UNL     1      -7.145   6.909  16.450  1.00  0.00     0.012 C 
HETATM   48  C23 UNL     1      -6.311   8.450  14.684  1.00  0.00     0.012 C 
ENDBRANCH  32  46
ENDBRANCH  30  32
ENDBRANCH  27  28
ENDBRANCH  26  27
ENDBRANCH  13  26
TORSDOF 13
ENDMDL
MODEL 3
REMARK minimizedAffinity -7.65510035
REMARK CNNscore 0.366872907
REMARK CNNaffinity 6.28509331
REMARK  13 active torsions:
REMARK  status: ('A' for Active; 'I' for Inactive)
REMARK    1  A    between atoms: C3_3  and  O1_4 
REMARK    2  A    between atoms: N1_14  and  O2_16 
REMARK    3  A    between atoms: O2_16  and  C13_17 
REMARK    4  A    between atoms: C13_17  and  C14_18 
REMARK       I    between atoms: C14_18  and  N2_20 
REMARK    5  A    between atoms: N2_20  and  C15_21 
REMARK    6  A    between atoms: C15_21  and  C16_22 
REMARK    7  A    between atoms: C15_21  and  C21_32 
REMARK       I    between atoms: C16_22  and  N3_24 
REMARK    8  A    between atoms: N3_24  and  C17_25 
REMARK    9  A    between atoms: C17_25  and  C18_26 
REMARK   10  A    between atoms: C17_25  and  C19_28 
REMARK   11  A    between atoms: C18_26  and  S1_27 
REMARK   12  A    between atoms: C19_28  and  C20_29 
REMARK   13  A    between atoms: C20_29  and  O6_31 
ROOT
HETATM    1  C1  UNL     1      -6.795   6.243  15.958  1.00  0.00     0.015 C 
HETATM    2  C2  UNL     1      -5.709   6.255  15.448  1.00  0.00    -0.078 C 
HETATM    3  C3  UNL     1      -4.346   6.230  14.887  1.00  0.00     0.128 C 
HETATM    4  C4  UNL     1      -4.220   5.280  13.698  1.00  0.00     0.052 C 
HETATM    5  C5  UNL     1      -2.919   5.698  13.011  1.00  0.00     0.010 C 
HETATM    6  C6  UNL     1      -2.660   7.167  13.402  1.00  0.00     0.002 C 
HETATM    7  C7  UNL     1      -1.232   7.467  13.902  1.00  0.00    -0.004 C 
HETATM    8  C8  UNL     1      -0.680   6.647  15.077  1.00  0.00     0.010 C 
HETATM    9  C9  UNL     1       0.775   7.018  15.371  1.00  0.00     0.035 C 
HETATM   10  C10 UNL     1       1.016   8.507  15.524  1.00  0.00    -0.069 C 
HETATM   11  C11 UNL     1       1.817   8.960  16.506  1.00  0.00     0.030 C 
HETATM   12  C12 UNL     1       2.185  10.398  16.628  1.00  0.00     0.032 C 
HETATM   13  N1  UNL     1       2.930  10.762  17.633  1.00  0.00    -0.271 N 
ATOM     14  H1  UNL     1       3.287  10.131  18.351  1.00  0.00     0.194 HD
HETATM   15  C24 UNL     1       1.730  11.336  15.521  1.00  0.00     0.060 C 
HETATM   16  C25 UNL     1       0.373  10.899  14.994  1.00  0.00     0.020 C 
HETATM   17  C26 UNL     1       0.343   9.423  14.498  1.00  0.00    -0.016 C 
HETATM   18  C27 UNL     1       1.146   9.346  13.175  1.00  0.00     0.020 C 
HETATM   19  C28 UNL     1      -1.149   8.973  14.232  1.00  0.00     0.002 C 
HETATM   20  C29 UNL     1      -2.105   9.300  15.400  1.00  0.00     0.007 C 
HETATM   21  C30 UNL     1      -3.489   8.628  15.413  1.00  0.00     0.014 C 
HETATM   22  C31 UNL     1      -3.839   7.595  14.319  1.00  0.00     0.003 C 
HETATM   23  C32 UNL     1      -4.921   8.246  13.401  1.00  0.00     0.020 C 
ENDROOT
BRANCH   3  24
HETATM   24  O1  UNL     1      -3.473   5.724  15.897  1.00  0.00    -0.377 OA
HETATM   25  H2  UNL     1      -3.710   6.145  16.734  1.00  0.00     0.211 HD
ENDBRANCH   3  24
BRANCH  13  26
HETATM   26  O2  UNL     1       3.173  12.140  17.591  1.00  0.00    -0.271 OA
BRANCH  26  27
HETATM   27  C13 UNL     1       4.551  12.398  17.817  1.00  0.00     0.303 C 
BRANCH  27  28
HETATM   28  C14 UNL     1       4.924  11.727  19.132  1.00  0.00     0.244 C 
HETATM   29  O3  UNL     1       5.831  10.903  19.246  1.00  0.00    -0.271 OA
HETATM   30  N2  UNL     1       4.157  12.099  20.218  1.00  0.00    -0.346 N 
HETATM   31  H16 UNL     1       3.512  12.876  20.148  1.00  0.00     0.163 HD
BRANCH  30  32
HETATM   32  C15 UNL     1       4.382  11.528  21.558  1.00  0.00     0.180 C 
BRANCH  32  33
HETATM   33  C16 UNL     1       4.940  12.659  22.465  1.00  0.00     0.241 C 
HETATM   34  O4  UNL     1       4.239  13.318  23.234  1.00  0.00    -0.271 OA
HETATM   35  N3  UNL     1       6.317  12.817  22.380  1.00  0.00    -0.353 N 
HETATM   36  H18 UNL     1       6.823  12.190  21.757  1.00  0.00     0.163 HD
BRANCH  35  37
HETATM   37  C17 UNL     1       7.040  13.841  23.131  1.00  0.00     0.103 C 
BRANCH  37  38
HETATM   38  C18 UNL     1       7.073  15.197  22.380  1.00  0.00     0.096 C 
BRANCH  38  39
HETATM   39  S1  UNL     1       6.030  16.515  23.080  1.00  0.00    -0.180 SA
HETATM   40  H22 UNL     1       6.667  17.543  22.494  1.00  0.00     0.101 HD
ENDBRANCH  38  39
ENDBRANCH  37  38
BRANCH  37  41
HETATM   41  C19 UNL     1       8.493  13.394  23.386  1.00  0.00     0.136 C 
BRANCH  41  42
HETATM   42  C20 UNL     1       8.914  12.227  22.531  1.00  0.00     0.141 C 
HETATM   43  O5  UNL     1       9.315  12.231  21.381  1.00  0.00    -0.650 OA
BRANCH  42  44
HETATM   44  O6  UNL     1       8.816  11.065  23.214  1.00  0.00    -0.776 OA
HETATM   45  H25 UNL     1       9.159  10.390  22.591  1.00  0.00     0.167 HD
ENDBRANCH  42  44
ENDBRANCH  41  42
ENDBRANCH  37  41
ENDBRANCH  35  37
ENDBRANCH  32  33
BRANCH  32  46
HETATM   46  C21 UNL     1       3.090  10.891  22.128  1.00  0.00     0.009 C 
HETATM   47  C22 UNL     1       3.363  10.174  23.456  1.00  0.00     0.012 C 
HETATM   48  C23 UNL     1       2.458   9.882  21.157  1.00  0.00     0.012 C 
ENDBRANCH  32  46
ENDBRANCH  30  32
ENDBRANCH  27  28
ENDBRANCH  26  27
ENDBRANCH  13  26
TORSDOF 13
ENDMDL
MODEL 4
REMARK minimizedAffinity -7.65833712
REMARK CNNscore 0.328814596
REMARK CNNaffinity 6.42627525
REMARK  13 active torsions:
REMARK  status: ('A' for Active; 'I' for Inactive)
REMARK    1  A    between atoms: C3_3  and  O1_4 
REMARK    2  A    between atoms: N1_14  and  O2_16 
REMARK    3  A    between atoms: O2_16  and  C13_17 
REMARK    4  A    between atoms: C13_17  and  C14_18 
REMARK       I    between atoms: C14_18  and  N2_20 
REMARK    5  A    between atoms: N2_20  and  C15_21 
REMARK    6  A    between atoms: C15_21  and  C16_22 
REMARK    7  A    between atoms: C15_21  and  C21_32 
REMARK       I    between atoms: C16_22  and  N3_24 
REMARK    8  A    between atoms: N3_24  and  C17_25 
REMARK    9  A    between atoms: C17_25  and  C18_26 
REMARK   10  A    between atoms: C17_25  and  C19_28 
REMARK   11  A    between atoms: C18_26  and  S1_27 
REMARK   12  A    between atoms: C19_28  and  C20_29 
REMARK   13  A    between atoms: C20_29  and  O6_31 
ROOT
HETATM    1  C1  UNL     1      -3.028   4.982  12.417  1.00  0.00     0.015 C 
HETATM    2  C2  UNL     1      -3.468   5.947  12.979  1.00  0.00    -0.078 C 
HETATM    3  C3  UNL     1      -3.976   7.177  13.611  1.00  0.00     0.128 C 
HETATM    4  C4  UNL     1      -5.495   7.303  13.510  1.00  0.00     0.052 C 
HETATM    5  C5  UNL     1      -5.861   8.363  14.550  1.00  0.00     0.010 C 
HETATM    6  C6  UNL     1      -4.726   8.374  15.594  1.00  0.00     0.002 C 
HETATM    7  C7  UNL     1      -4.173   9.771  15.941  1.00  0.00    -0.004 C 
HETATM    8  C8  UNL     1      -3.662  10.661  14.800  1.00  0.00     0.010 C 
HETATM    9  C9  UNL     1      -3.241  12.037  15.320  1.00  0.00     0.035 C 
HETATM   10  C10 UNL     1      -2.293  11.988  16.502  1.00  0.00    -0.069 C 
HETATM   11  C11 UNL     1      -1.241  12.827  16.554  1.00  0.00     0.030 C 
HETATM   12  C12 UNL     1      -0.349  12.907  17.744  1.00  0.00     0.032 C 
HETATM   13  N1  UNL     1       0.673  13.712  17.697  1.00  0.00    -0.271 N 
ATOM     14  H1  UNL     1       0.913  14.301  16.900  1.00  0.00     0.194 HD
HETATM   15  C24 UNL     1      -0.741  12.096  18.970  1.00  0.00     0.060 C 
HETATM   16  C25 UNL     1      -1.394  10.791  18.545  1.00  0.00     0.020 C 
HETATM   17  C26 UNL     1      -2.624  10.986  17.611  1.00  0.00    -0.016 C 
HETATM   18  C27 UNL     1      -3.784  11.565  18.461  1.00  0.00     0.020 C 
HETATM   19  C28 UNL     1      -3.065   9.595  17.002  1.00  0.00     0.002 C 
HETATM   20  C29 UNL     1      -1.893   8.793  16.397  1.00  0.00     0.007 C 
HETATM   21  C30 UNL     1      -2.226   7.597  15.488  1.00  0.00     0.014 C 
HETATM   22  C31 UNL     1      -3.702   7.295  15.145  1.00  0.00     0.003 C 
HETATM   23  C32 UNL     1      -4.082   5.969  15.877  1.00  0.00     0.020 C 
ENDROOT
BRANCH   3  24
HETATM   24  O1  UNL     1      -3.435   8.286  12.894  1.00  0.00    -0.377 OA
HETATM   25  H2  UNL     1      -2.500   8.105  12.727  1.00  0.00     0.211 HD
ENDBRANCH   3  24
BRANCH  13  26
HETATM   26  O2  UNL     1       1.397  13.657  18.894  1.00  0.00    -0.271 OA
BRANCH  26  27
HETATM   27  C13 UNL     1       2.756  13.348  18.626  1.00  0.00     0.303 C 
BRANCH  27  28
HETATM   28  C14 UNL     1       3.356  12.801  19.915  1.00  0.00     0.244 C 
HETATM   29  O3  UNL     1       3.458  13.455  20.952  1.00  0.00    -0.271 OA
HETATM   30  N2  UNL     1       3.800  11.496  19.846  1.00  0.00    -0.346 N 
HETATM   31  H16 UNL     1       3.586  10.923  19.040  1.00  0.00     0.163 HD
BRANCH  30  32
HETATM   32  C15 UNL     1       4.421  10.827  21.004  1.00  0.00     0.180 C 
BRANCH  32  33
HETATM   33  C16 UNL     1       5.509  11.780  21.571  1.00  0.00     0.241 C 
HETATM   34  O4  UNL     1       5.527  12.166  22.741  1.00  0.00    -0.271 OA
HETATM   35  N3  UNL     1       6.500  12.107  20.655  1.00  0.00    -0.353 N 
HETATM   36  H18 UNL     1       6.432  11.698  19.726  1.00  0.00     0.163 HD
BRANCH  35  37
HETATM   37  C17 UNL     1       7.603  13.010  20.978  1.00  0.00     0.103 C 
BRANCH  37  38
HETATM   38  C18 UNL     1       8.967  12.457  20.490  1.00  0.00     0.096 C 
BRANCH  38  39
HETATM   39  S1  UNL     1      10.076  13.668  19.704  1.00  0.00    -0.180 SA
HETATM   40  H22 UNL     1      11.211  12.967  19.868  1.00  0.00     0.101 HD
ENDBRANCH  38  39
ENDBRANCH  37  38
BRANCH  37  41
HETATM   41  C19 UNL     1       7.688  13.229  22.502  1.00  0.00     0.136 C 
BRANCH  41  42
HETATM   42  C20 UNL     1       8.629  12.273  23.188  1.00  0.00     0.141 C 
HETATM   43  O5  UNL     1       8.726  11.067  23.047  1.00  0.00    -0.650 OA
BRANCH  42  44
HETATM   44  O6  UNL     1       9.445  12.927  24.044  1.00  0.00    -0.776 OA
HETATM   45  H25 UNL     1      10.040  12.228  24.390  1.00  0.00     0.167 HD
ENDBRANCH  42  44
ENDBRANCH  41  42
ENDBRANCH  37  41
ENDBRANCH  35  37
ENDBRANCH  32  33
BRANCH  32  46
HETATM   46  C21 UNL     1       3.364  10.430  22.065  1.00  0.00     0.009 C 
HETATM   47  C22 UNL     1       3.950   9.455  23.094  1.00  0.00     0.012 C 
HETATM   48  C23 UNL     1       2.122   9.780  21.438  1.00  0.00     0.012 C 
ENDBRANCH  32  46
ENDBRANCH  30  32
ENDBRANCH  27  28
ENDBRANCH  26  27
ENDBRANCH  13  26
TORSDOF 13
ENDMDL
MODEL 5
REMARK minimizedAffinity -8.01211262
REMARK CNNscore 0.29591161
REMARK CNNaffinity 6.61408854
REMARK  13 active torsions:
REMARK  status: ('A' for Active; 'I' for Inactive)
REMARK    1  A    between atoms: C3_3  and  O1_4 
REMARK    2  A    between atoms: N1_14  and  O2_16 
REMARK    3  A    between atoms: O2_16  and  C13_17 
REMARK    4  A    between atoms: C13_17  and  C14_18 
REMARK       I    between atoms: C14_18  and  N2_20 
REMARK    5  A    between atoms: N2_20  and  C15_21 
REMARK    6  A    between atoms: C15_21  and  C16_22 
REMARK    7  A    between atoms: C15_21  and  C21_32 
REMARK       I    between atoms: C16_22  and  N3_24 
REMARK    8  A    between atoms: N3_24  and  C17_25 
REMARK    9  A    between atoms: C17_25  and  C18_26 
REMARK   10  A    between atoms: C17_25  and  C19_28 
REMARK   11  A    between atoms: C18_26  and  S1_27 
REMARK   12  A    between atoms: C19_28  and  C20_29 
REMARK   13  A    between atoms: C20_29  and  O6_31 
ROOT
HETATM    1  C1  UNL     1      -7.056   7.758  16.217  1.00  0.00     0.015 C 
HETATM    2  C2  UNL     1      -6.205   7.218  15.565  1.00  0.00    -0.078 C 
HETATM    3  C3  UNL     1      -5.129   6.527  14.834  1.00  0.00     0.128 C 
HETATM    4  C4  UNL     1      -5.636   5.316  14.052  1.00  0.00     0.052 C 
HETATM    5  C5  UNL     1      -4.515   5.005  13.059  1.00  0.00     0.010 C 
HETATM    6  C6  UNL     1      -3.722   6.312  12.858  1.00  0.00     0.002 C 
HETATM    7  C7  UNL     1      -2.191   6.171  12.979  1.00  0.00    -0.004 C 
HETATM    8  C8  UNL     1      -1.611   5.555  14.260  1.00  0.00     0.010 C 
HETATM    9  C9  UNL     1      -0.091   5.410  14.162  1.00  0.00     0.035 C 
HETATM   10  C10 UNL     1       0.626   6.677  13.738  1.00  0.00    -0.069 C 
HETATM   11  C11 UNL     1       1.768   7.039  14.352  1.00  0.00     0.030 C 
HETATM   12  C12 UNL     1       2.576   8.205  13.897  1.00  0.00     0.032 C 
HETATM   13  N1  UNL     1       3.646   8.517  14.572  1.00  0.00    -0.271 N 
ATOM     14  H1  UNL     1       3.978   8.018  15.398  1.00  0.00     0.194 HD
HETATM   15  C24 UNL     1       2.139   8.907  12.621  1.00  0.00     0.060 C 
HETATM   16  C25 UNL     1       0.623   8.894  12.512  1.00  0.00     0.020 C 
HETATM   17  C26 UNL     1       0.007   7.465  12.580  1.00  0.00    -0.016 C 
HETATM   18  C27 UNL     1       0.346   6.734  11.257  1.00  0.00     0.020 C 
HETATM   19  C28 UNL     1      -1.564   7.561  12.739  1.00  0.00     0.002 C 
HETATM   20  C29 UNL     1      -2.008   8.530  13.856  1.00  0.00     0.007 C 
HETATM   21  C30 UNL     1      -3.470   8.465  14.332  1.00  0.00     0.014 C 
HETATM   22  C31 UNL     1      -4.409   7.387  13.746  1.00  0.00     0.003 C 
HETATM   23  C32 UNL     1      -5.451   8.125  12.848  1.00  0.00     0.020 C 
ENDROOT
BRANCH   3  24
HETATM   24  O1  UNL     1      -4.207   6.021  15.799  1.00  0.00    -0.377 OA
HETATM   25  H2  UNL     1      -4.061   6.710  16.460  1.00  0.00     0.211 HD
ENDBRANCH   3  24
BRANCH  13  26
HETATM   26  O2  UNL     1       4.276   9.631  14.008  1.00  0.00    -0.271 OA
BRANCH  26  27
HETATM   27  C13 UNL     1       4.724  10.507  15.031  1.00  0.00     0.303 C 
BRANCH  27  28
HETATM   28  C14 UNL     1       6.242  10.573  14.935  1.00  0.00     0.244 C 
HETATM   29  O3  UNL     1       6.861  11.569  14.563  1.00  0.00    -0.271 OA
HETATM   30  N2  UNL     1       6.902   9.413  15.289  1.00  0.00    -0.346 N 
HETATM   31  H16 UNL     1       6.400   8.650  15.726  1.00  0.00     0.163 HD
BRANCH  30  32
HETATM   32  C15 UNL     1       8.371   9.310  15.233  1.00  0.00     0.180 C 
BRANCH  32  33
HETATM   33  C16 UNL     1       8.906   9.419  16.688  1.00  0.00     0.241 C 
HETATM   34  O4  UNL     1       9.420   8.477  17.293  1.00  0.00    -0.271 OA
HETATM   35  N3  UNL     1       8.813  10.697  17.225  1.00  0.00    -0.353 N 
HETATM   36  H18 UNL     1       8.424  11.427  16.631  1.00  0.00     0.163 HD
BRANCH  35  37
HETATM   37  C17 UNL     1       9.237  11.010  18.587  1.00  0.00     0.103 C 
BRANCH  37  38
HETATM   38  C18 UNL     1       8.225  11.937  19.311  1.00  0.00     0.096 C 
BRANCH  38  39
HETATM   39  S1  UNL     1       6.475  11.453  19.177  1.00  0.00    -0.180 SA
HETATM   40  H22 UNL     1       6.041  12.153  20.239  1.00  0.00     0.101 HD
ENDBRANCH  38  39
ENDBRANCH  37  38
BRANCH  37  41
HETATM   41  C19 UNL     1      10.610  11.712  18.574  1.00  0.00     0.136 C 
BRANCH  41  42
HETATM   42  C20 UNL     1      11.324  11.645  19.899  1.00  0.00     0.141 C 
HETATM   43  O5  UNL     1      12.108  10.804  20.300  1.00  0.00    -0.650 OA
BRANCH  42  44
HETATM   44  O6  UNL     1      11.004  12.704  20.676  1.00  0.00    -0.776 OA
HETATM   45  H25 UNL     1      11.556  12.589  21.478  1.00  0.00     0.167 HD
ENDBRANCH  42  44
ENDBRANCH  41  42
ENDBRANCH  37  41
ENDBRANCH  35  37
ENDBRANCH  32  33
BRANCH  32  46
HETATM   46  C21 UNL     1       8.823   8.006  14.529  1.00  0.00     0.009 C 
HETATM   47  C22 UNL     1      10.229   8.155  13.934  1.00  0.00     0.012 C 
HETATM   48  C23 UNL     1       7.865   7.588  13.404  1.00  0.00     0.012 C 
ENDBRANCH  32  46
ENDBRANCH  30  32
ENDBRANCH  27  28
ENDBRANCH  26  27
ENDBRANCH  13  26
TORSDOF 13
ENDMDL
MODEL 6
REMARK minimizedAffinity -7.77419949
REMARK CNNscore 0.239297286
REMARK CNNaffinity 7.04384184
REMARK  13 active torsions:
REMARK  status: ('A' for Active; 'I' for Inactive)
REMARK    1  A    between atoms: C3_3  and  O1_4 
REMARK    2  A    between atoms: N1_14  and  O2_16 
REMARK    3  A    between atoms: O2_16  and  C13_17 
REMARK    4  A    between atoms: C13_17  and  C14_18 
REMARK       I    between atoms: C14_18  and  N2_20 
REMARK    5  A    between atoms: N2_20  and  C15_21 
REMARK    6  A    between atoms: C15_21  and  C16_22 
REMARK    7  A    between atoms: C15_21  and  C21_32 
REMARK       I    between atoms: C16_22  and  N3_24 
REMARK    8  A    between atoms: N3_24  and  C17_25 
REMARK    9  A    between atoms: C17_25  and  C18_26 
REMARK   10  A    between atoms: C17_25  and  C19_28 
REMARK   11  A    between atoms: C18_26  and  S1_27 
REMARK   12  A    between atoms: C19_28  and  C20_29 
REMARK   13  A    between atoms: C20_29  and  O6_31 
ROOT
HETATM    1  C1  UNL     1       2.113   8.676   8.032  1.00  0.00     0.015 C 
HETATM    2  C2  UNL     1       1.767   7.935   8.909  1.00  0.00    -0.078 C 
HETATM    3  C3  UNL     1       1.296   6.984   9.932  1.00  0.00     0.128 C 
HETATM    4  C4  UNL     1       2.388   6.012  10.375  1.00  0.00     0.052 C 
HETATM    5  C5  UNL     1       1.867   5.422  11.686  1.00  0.00     0.010 C 
HETATM    6  C6  UNL     1       0.865   6.441  12.266  1.00  0.00     0.002 C 
HETATM    7  C7  UNL     1      -0.486   5.846  12.712  1.00  0.00    -0.004 C 
HETATM    8  C8  UNL     1      -1.300   5.034  11.694  1.00  0.00     0.010 C 
HETATM    9  C9  UNL     1      -2.558   4.448  12.338  1.00  0.00     0.035 C 
HETATM   10  C10 UNL     1      -3.397   5.460  13.093  1.00  0.00    -0.069 C 
HETATM   11  C11 UNL     1      -4.738   5.440  12.976  1.00  0.00     0.030 C 
HETATM   12  C12 UNL     1      -5.616   6.330  13.786  1.00  0.00     0.032 C 
HETATM   13  N1  UNL     1      -6.902   6.282  13.582  1.00  0.00    -0.271 N 
ATOM     14  H1  UNL     1      -7.360   5.674  12.903  1.00  0.00     0.194 HD
HETATM   15  C24 UNL     1      -4.955   7.182  14.859  1.00  0.00     0.060 C 
HETATM   16  C25 UNL     1      -3.576   7.624  14.396  1.00  0.00     0.020 C 
HETATM   17  C26 UNL     1      -2.645   6.442  13.995  1.00  0.00    -0.016 C 
HETATM   18  C27 UNL     1      -2.232   5.697  15.289  1.00  0.00     0.020 C 
HETATM   19  C28 UNL     1      -1.352   6.995  13.273  1.00  0.00     0.002 C 
HETATM   20  C29 UNL     1      -1.663   8.006  12.149  1.00  0.00     0.007 C 
HETATM   21  C30 UNL     1      -0.537   8.359  11.161  1.00  0.00     0.014 C 
HETATM   22  C31 UNL     1       0.822   7.635  11.272  1.00  0.00     0.003 C 
HETATM   23  C32 UNL     1       1.863   8.685  11.773  1.00  0.00     0.020 C 
ENDROOT
BRANCH   3  24
HETATM   24  O1  UNL     1       0.269   6.189   9.343  1.00  0.00    -0.377 OA
HETATM   25  H2  UNL     1      -0.310   6.776   8.837  1.00  0.00     0.211 HD
ENDBRANCH   3  24
BRANCH  13  26
HETATM   26  O2  UNL     1      -7.567   7.180  14.424  1.00  0.00    -0.271 OA
BRANCH  26  27
HETATM   27  C13 UNL     1      -8.809   6.630  14.838  1.00  0.00     0.303 C 
BRANCH  27  28
HETATM   28  C14 UNL     1      -9.814   6.900  13.726  1.00  0.00     0.244 C 
HETATM   29  O3  UNL     1      -9.727   6.422  12.596  1.00  0.00    -0.271 OA
HETATM   30  N2  UNL     1     -10.850   7.746  14.067  1.00  0.00    -0.346 N 
HETATM   31  H16 UNL     1     -10.993   8.021  15.031  1.00  0.00     0.163 HD
BRANCH  30  32
HETATM   32  C15 UNL     1     -11.896   8.120  13.097  1.00  0.00     0.180 C 
BRANCH  32  33
HETATM   33  C16 UNL     1     -13.223   7.455  13.557  1.00  0.00     0.241 C 
HETATM   34  O4  UNL     1     -13.347   6.242  13.733  1.00  0.00    -0.271 OA
HETATM   35  N3  UNL     1     -14.243   8.361  13.816  1.00  0.00    -0.353 N 
HETATM   36  H18 UNL     1     -14.033   9.350  13.695  1.00  0.00     0.163 HD
BRANCH  35  37
HETATM   37  C17 UNL     1     -15.579   7.943  14.236  1.00  0.00     0.103 C 
BRANCH  37  38
HETATM   38  C18 UNL     1     -15.572   7.319  15.656  1.00  0.00     0.096 C 
BRANCH  38  39
HETATM   39  S1  UNL     1     -17.170   7.320  16.528  1.00  0.00    -0.180 SA
HETATM   40  H22 UNL     1     -16.866   6.350  17.407  1.00  0.00     0.101 HD
ENDBRANCH  38  39
ENDBRANCH  37  38
BRANCH  37  41
HETATM   41  C19 UNL     1     -16.148   6.901  13.253  1.00  0.00     0.136 C 
BRANCH  41  42
HETATM   42  C20 UNL     1     -16.598   7.500  11.946  1.00  0.00     0.141 C 
HETATM   43  O5  UNL     1     -15.923   8.015  11.073  1.00  0.00    -0.650 OA
BRANCH  42  44
HETATM   44  O6  UNL     1     -17.938   7.397  11.801  1.00  0.00    -0.776 OA
HETATM   45  H25 UNL     1     -18.112   7.764  10.909  1.00  0.00     0.167 HD
ENDBRANCH  42  44
ENDBRANCH  41  42
ENDBRANCH  37  41
ENDBRANCH  35  37
ENDBRANCH  32  33
BRANCH  32  46
HETATM   46  C21 UNL     1     -12.017   9.657  12.957  1.00  0.00     0.009 C 
HETATM   47  C22 UNL     1     -12.097  10.335  14.331  1.00  0.00     0.012 C 
HETATM   48  C23 UNL     1     -13.250  10.074  12.142  1.00  0.00     0.012 C 
ENDBRANCH  32  46
ENDBRANCH  30  32
ENDBRANCH  27  28
ENDBRANCH  26  27
ENDBRANCH  13  26
TORSDOF 13
ENDMDL
MODEL 7
REMARK minimizedAffinity -7.69619083
REMARK CNNscore 0.229339898
REMARK CNNaffinity 7.07833529
REMARK  13 active torsions:
REMARK  status: ('A' for Active; 'I' for Inactive)
REMARK    1  A    between atoms: C3_3  and  O1_4 
REMARK    2  A    between atoms: N1_14  and  O2_16 
REMARK    3  A    between atoms: O2_16  and  C13_17 
REMARK    4  A    between atoms: C13_17  and  C14_18 
REMARK       I    between atoms: C14_18  and  N2_20 
REMARK    5  A    between atoms: N2_20  and  C15_21 
REMARK    6  A    between atoms: C15_21  and  C16_22 
REMARK    7  A    between atoms: C15_21  and  C21_32 
REMARK       I    between atoms: C16_22  and  N3_24 
REMARK    8  A    between atoms: N3_24  and  C17_25 
REMARK    9  A    between atoms: C17_25  and  C18_26 
REMARK   10  A    between atoms: C17_25  and  C19_28 
REMARK   11  A    between atoms: C18_26  and  S1_27 
REMARK   12  A    between atoms: C19_28  and  C20_29 
REMARK   13  A    between atoms: C20_29  and  O6_31 
ROOT
HETATM    1  C1  UNL     1       1.595   8.106   9.133  1.00  0.00     0.015 C 
HETATM    2  C2  UNL     1       1.121   7.517  10.064  1.00  0.00    -0.078 C 
HETATM    3  C3  UNL     1       0.505   6.742  11.155  1.00  0.00     0.128 C 
HETATM    4  C4  UNL     1       1.528   5.931  11.948  1.00  0.00     0.052 C 
HETATM    5  C5  UNL     1       0.801   5.559  13.241  1.00  0.00     0.010 C 
HETATM    6  C6  UNL     1      -0.313   6.606  13.445  1.00  0.00     0.002 C 
HETATM    7  C7  UNL     1      -1.705   6.023  13.763  1.00  0.00    -0.004 C 
HETATM    8  C8  UNL     1      -2.307   4.995  12.795  1.00  0.00     0.010 C 
HETATM    9  C9  UNL     1      -3.642   4.462  13.320  1.00  0.00     0.035 C 
HETATM   10  C10 UNL     1      -4.626   5.543  13.721  1.00  0.00    -0.069 C 
HETATM   11  C11 UNL     1      -5.925   5.426  13.388  1.00  0.00     0.030 C 
HETATM   12  C12 UNL     1      -6.954   6.395  13.859  1.00  0.00     0.032 C 
HETATM   13  N1  UNL     1      -8.183   6.235  13.456  1.00  0.00    -0.271 N 
ATOM     14  H1  UNL     1      -8.500   5.489  12.838  1.00  0.00     0.194 HD
HETATM   15  C24 UNL     1      -6.512   7.463  14.847  1.00  0.00     0.060 C 
HETATM   16  C25 UNL     1      -5.087   7.894  14.545  1.00  0.00     0.020 C 
HETATM   17  C26 UNL     1      -4.069   6.715  14.534  1.00  0.00    -0.016 C 
HETATM   18  C27 UNL     1      -3.869   6.242  15.996  1.00  0.00     0.020 C 
HETATM   19  C28 UNL     1      -2.684   7.202  13.946  1.00  0.00     0.002 C 
HETATM   20  C29 UNL     1      -2.821   7.973  12.616  1.00  0.00     0.007 C 
HETATM   21  C30 UNL     1      -1.550   8.207  11.781  1.00  0.00     0.014 C 
HETATM   22  C31 UNL     1      -0.212   7.595  12.251  1.00  0.00     0.003 C 
HETATM   23  C32 UNL     1       0.698   8.778  12.711  1.00  0.00     0.020 C 
ENDROOT
BRANCH   3  24
HETATM   24  O1  UNL     1      -0.384   5.794  10.563  1.00  0.00    -0.377 OA
HETATM   25  H2  UNL     1      -0.880   6.246   9.867  1.00  0.00     0.211 HD
ENDBRANCH   3  24
BRANCH  13  26
HETATM   26  O2  UNL     1      -9.008   7.231  13.991  1.00  0.00    -0.271 OA
BRANCH  26  27
HETATM   27  C13 UNL     1     -10.367   6.826  13.921  1.00  0.00     0.303 C 
BRANCH  27  28
HETATM   28  C14 UNL     1     -11.218   8.056  14.208  1.00  0.00     0.244 C 
HETATM   29  O3  UNL     1     -11.455   8.932  13.377  1.00  0.00    -0.271 OA
HETATM   30  N2  UNL     1     -11.713   8.138  15.494  1.00  0.00    -0.346 N 
HETATM   31  H16 UNL     1     -11.634   7.351  16.126  1.00  0.00     0.163 HD
BRANCH  30  32
HETATM   32  C15 UNL     1     -12.541   9.276  15.934  1.00  0.00     0.180 C 
BRANCH  32  33
HETATM   33  C16 UNL     1     -14.025   8.920  15.641  1.00  0.00     0.241 C 
HETATM   34  O4  UNL     1     -14.697   8.177  16.357  1.00  0.00    -0.271 OA
HETATM   35  N3  UNL     1     -14.548   9.569  14.531  1.00  0.00    -0.353 N 
HETATM   36  H18 UNL     1     -13.934  10.209  14.030  1.00  0.00     0.163 HD
BRANCH  35  37
HETATM   37  C17 UNL     1     -15.917   9.356  14.067  1.00  0.00     0.103 C 
BRANCH  37  38
HETATM   38  C18 UNL     1     -16.954   9.574  15.200  1.00  0.00     0.096 C 
BRANCH  38  39
HETATM   39  S1  UNL     1     -18.612   8.887  14.897  1.00  0.00    -0.180 SA
HETATM   40  H22 UNL     1     -19.004   8.858  16.182  1.00  0.00     0.101 HD
ENDBRANCH  38  39
ENDBRANCH  37  38
BRANCH  37  41
HETATM   41  C19 UNL     1     -16.084   7.921  13.529  1.00  0.00     0.136 C 
BRANCH  41  42
HETATM   42  C20 UNL     1     -15.402   7.700  12.205  1.00  0.00     0.141 C 
HETATM   43  O5  UNL     1     -15.897   7.644  11.093  1.00  0.00    -0.650 OA
BRANCH  42  44
HETATM   44  O6  UNL     1     -14.066   7.571  12.362  1.00  0.00    -0.776 OA
HETATM   45  H25 UNL     1     -13.723   7.486  11.448  1.00  0.00     0.167 HD
ENDBRANCH  42  44
ENDBRANCH  41  42
ENDBRANCH  37  41
ENDBRANCH  35  37
ENDBRANCH  32  33
BRANCH  32  46
HETATM   46  C21 UNL     1     -12.293   9.615  17.425  1.00  0.00     0.009 C 
HETATM   47  C22 UNL     1     -12.869  10.991  17.784  1.00  0.00     0.012 C 
HETATM   48  C23 UNL     1     -10.800   9.609  17.785  1.00  0.00     0.012 C 
ENDBRANCH  32  46
ENDBRANCH  30  32
ENDBRANCH  27  28
ENDBRANCH  26  27
ENDBRANCH  13  26
TORSDOF 13
ENDMDL
MODEL 8
REMARK minimizedAffinity -7.63398266
REMARK CNNscore 0.190993637
REMARK CNNaffinity 6.02380753
REMARK  13 active torsions:
REMARK  status: ('A' for Active; 'I' for Inactive)
REMARK    1  A    between atoms: C3_3  and  O1_4 
REMARK    2  A    between atoms: N1_14  and  O2_16 
REMARK    3  A    between atoms: O2_16  and  C13_17 
REMARK    4  A    between atoms: C13_17  and  C14_18 
REMARK       I    between atoms: C14_18  and  N2_20 
REMARK    5  A    between atoms: N2_20  and  C15_21 
REMARK    6  A    between atoms: C15_21  and  C16_22 
REMARK    7  A    between atoms: C15_21  and  C21_32 
REMARK       I    between atoms: C16_22  and  N3_24 
REMARK    8  A    between atoms: N3_24  and  C17_25 
REMARK    9  A    between atoms: C17_25  and  C18_26 
REMARK   10  A    between atoms: C17_25  and  C19_28 
REMARK   11  A    between atoms: C18_26  and  S1_27 
REMARK   12  A    between atoms: C19_28  and  C20_29 
REMARK   13  A    between atoms: C20_29  and  O6_31 
ROOT
HETATM    1  C1  UNL     1      -3.141   4.811  12.405  1.00  0.00     0.015 C 
HETATM    2  C2  UNL     1      -3.510   5.828  12.924  1.00  0.00    -0.078 C 
HETATM    3  C3  UNL     1      -3.920   7.119  13.504  1.00  0.00     0.128 C 
HETATM    4  C4  UNL     1      -5.396   7.427  13.260  1.00  0.00     0.052 C 
HETATM    5  C5  UNL     1      -5.726   8.537  14.260  1.00  0.00     0.010 C 
HETATM    6  C6  UNL     1      -4.702   8.422  15.407  1.00  0.00     0.002 C 
HETATM    7  C7  UNL     1      -4.017   9.745  15.805  1.00  0.00    -0.004 C 
HETATM    8  C8  UNL     1      -3.295  10.552  14.716  1.00  0.00     0.010 C 
HETATM    9  C9  UNL     1      -2.760  11.873  15.274  1.00  0.00     0.035 C 
HETATM   10  C10 UNL     1      -1.940  11.723  16.540  1.00  0.00    -0.069 C 
HETATM   11  C11 UNL     1      -0.803  12.428  16.691  1.00  0.00     0.030 C 
HETATM   12  C12 UNL     1      -0.024  12.412  17.960  1.00  0.00     0.032 C 
HETATM   13  N1  UNL     1       1.090  13.087  18.010  1.00  0.00    -0.271 N 
ATOM     14  H1  UNL     1       1.473  13.633  17.239  1.00  0.00     0.194 HD
HETATM   15  C24 UNL     1      -0.625  11.671  19.144  1.00  0.00     0.060 C 
HETATM   16  C25 UNL     1      -1.390  10.450  18.659  1.00  0.00     0.020 C 
HETATM   17  C26 UNL     1      -2.494  10.782  17.613  1.00  0.00    -0.016 C 
HETATM   18  C27 UNL     1      -3.649  11.508  18.349  1.00  0.00     0.020 C 
HETATM   19  C28 UNL     1      -3.042   9.448  16.965  1.00  0.00     0.002 C 
HETATM   20  C29 UNL     1      -1.926   8.502  16.474  1.00  0.00     0.007 C 
HETATM   21  C30 UNL     1      -2.317   7.344  15.538  1.00  0.00     0.014 C 
HETATM   22  C31 UNL     1      -3.779   7.221  15.057  1.00  0.00     0.003 C 
HETATM   23  C32 UNL     1      -4.386   5.960  15.750  1.00  0.00     0.020 C 
ENDROOT
BRANCH   3  24
HETATM   24  O1  UNL     1      -3.183   8.145  12.841  1.00  0.00    -0.377 OA
HETATM   25  H2  UNL     1      -2.266   7.850  12.763  1.00  0.00     0.211 HD
ENDBRANCH   3  24
BRANCH  13  26
HETATM   26  O2  UNL     1       1.686  12.958  19.270  1.00  0.00    -0.271 OA
BRANCH  26  27
HETATM   27  C13 UNL     1       2.960  13.584  19.271  1.00  0.00     0.303 C 
BRANCH  27  28
HETATM   28  C14 UNL     1       3.966  12.556  19.770  1.00  0.00     0.244 C 
HETATM   29  O3  UNL     1       3.813  11.340  19.656  1.00  0.00    -0.271 OA
HETATM   30  N2  UNL     1       5.085  13.080  20.384  1.00  0.00    -0.346 N 
HETATM   31  H16 UNL     1       5.271  14.075  20.348  1.00  0.00     0.163 HD
BRANCH  30  32
HETATM   32  C15 UNL     1       6.144  12.216  20.936  1.00  0.00     0.180 C 
BRANCH  32  33
HETATM   33  C16 UNL     1       7.507  12.753  20.419  1.00  0.00     0.241 C 
HETATM   34  O4  UNL     1       7.655  13.267  19.309  1.00  0.00    -0.271 OA
HETATM   35  N3  UNL     1       8.534  12.663  21.349  1.00  0.00    -0.353 N 
HETATM   36  H18 UNL     1       8.307  12.274  22.261  1.00  0.00     0.163 HD
BRANCH  35  37
HETATM   37  C17 UNL     1       9.901  13.089  21.055  1.00  0.00     0.103 C 
BRANCH  37  38
HETATM   38  C18 UNL     1       9.985  14.612  20.772  1.00  0.00     0.096 C 
BRANCH  38  39
HETATM   39  S1  UNL     1       9.163  15.689  21.988  1.00  0.00    -0.180 SA
HETATM   40  H22 UNL     1       9.830  16.813  21.674  1.00  0.00     0.101 HD
ENDBRANCH  38  39
ENDBRANCH  37  38
BRANCH  37  41
HETATM   41  C19 UNL     1      10.444  12.338  19.824  1.00  0.00     0.136 C 
BRANCH  41  42
HETATM   42  C20 UNL     1      11.871  11.883  19.988  1.00  0.00     0.141 C 
HETATM   43  O5  UNL     1      12.885  12.557  20.032  1.00  0.00    -0.650 OA
BRANCH  42  44
HETATM   44  O6  UNL     1      11.941  10.539  20.108  1.00  0.00    -0.776 OA
HETATM   45  H25 UNL     1      12.893  10.360  20.260  1.00  0.00     0.167 HD
ENDBRANCH  42  44
ENDBRANCH  41  42
ENDBRANCH  37  41
ENDBRANCH  35  37
ENDBRANCH  32  33
BRANCH  32  46
HETATM   46  C21 UNL     1       6.077  12.153  22.482  1.00  0.00     0.009 C 
HETATM   47  C22 UNL     1       5.143  11.029  22.951  1.00  0.00     0.012 C 
HETATM   48  C23 UNL     1       5.592  13.472  23.101  1.00  0.00     0.012 C 
ENDBRANCH  32  46
ENDBRANCH  30  32
ENDBRANCH  27  28
ENDBRANCH  26  27
ENDBRANCH  13  26
TORSDOF 13
ENDMDL
MODEL 9
REMARK minimizedAffinity -7.95398808
REMARK CNNscore 0.190884113
REMARK CNNaffinity 5.51605654
REMARK  13 active torsions:
REMARK  status: ('A' for Active; 'I' for Inactive)
REMARK    1  A    between atoms: C3_3  and  O1_4 
REMARK    2  A    between atoms: N1_14  and  O2_16 
REMARK    3  A    between atoms: O2_16  and  C13_17 
REMARK    4  A    between atoms: C13_17  and  C14_18 
REMARK       I    between atoms: C14_18  and  N2_20 
REMARK    5  A    between atoms: N2_20  and  C15_21 
REMARK    6  A    between atoms: C15_21  and  C16_22 
REMARK    7  A    between atoms: C15_21  and  C21_32 
REMARK       I    between atoms: C16_22  and  N3_24 
REMARK    8  A    between atoms: N3_24  and  C17_25 
REMARK    9  A    between atoms: C17_25  and  C18_26 
REMARK   10  A    between atoms: C17_25  and  C19_28 
REMARK   11  A    between atoms: C18_26  and  S1_27 
REMARK   12  A    between atoms: C19_28  and  C20_29 
REMARK   13  A    between atoms: C20_29  and  O6_31 
ROOT
HETATM    1  C1  UNL     1      -0.712   5.051  11.138  1.00  0.00     0.015 C 
HETATM    2  C2  UNL     1       0.349   5.557  10.899  1.00  0.00    -0.078 C 
HETATM    3  C3  UNL     1       1.688   6.108  10.625  1.00  0.00     0.128 C 
HETATM    4  C4  UNL     1       1.938   6.323   9.133  1.00  0.00     0.052 C 
HETATM    5  C5  UNL     1       3.145   7.260   9.079  1.00  0.00     0.010 C 
HETATM    6  C6  UNL     1       3.180   8.021  10.420  1.00  0.00     0.002 C 
HETATM    7  C7  UNL     1       4.553   8.043  11.123  1.00  0.00    -0.004 C 
HETATM    8  C8  UNL     1       5.247   6.705  11.415  1.00  0.00     0.010 C 
HETATM    9  C9  UNL     1       6.632   6.927  12.028  1.00  0.00     0.035 C 
HETATM   10  C10 UNL     1       6.641   7.870  13.214  1.00  0.00    -0.069 C 
HETATM   11  C11 UNL     1       7.380   7.574  14.300  1.00  0.00     0.030 C 
HETATM   12  C12 UNL     1       7.522   8.520  15.443  1.00  0.00     0.032 C 
HETATM   13  N1  UNL     1       8.219   8.141  16.475  1.00  0.00    -0.271 N 
ATOM     14  H1  UNL     1       8.683   7.237  16.563  1.00  0.00     0.194 HD
HETATM   15  C24 UNL     1       6.905   9.902  15.291  1.00  0.00     0.060 C 
HETATM   16  C25 UNL     1       5.623   9.814  14.479  1.00  0.00     0.020 C 
HETATM   17  C26 UNL     1       5.814   9.152  13.083  1.00  0.00    -0.016 C 
HETATM   18  C27 UNL     1       6.595  10.144  12.185  1.00  0.00     0.020 C 
HETATM   19  C28 UNL     1       4.406   8.851  12.430  1.00  0.00     0.002 C 
HETATM   20  C29 UNL     1       3.433   8.123  13.382  1.00  0.00     0.007 C 
HETATM   21  C30 UNL     1       2.171   7.483  12.778  1.00  0.00     0.014 C 
HETATM   22  C31 UNL     1       1.966   7.514  11.247  1.00  0.00     0.003 C 
HETATM   23  C32 UNL     1       0.778   8.487  10.962  1.00  0.00     0.020 C 
ENDROOT
BRANCH   3  24
HETATM   24  O1  UNL     1       2.648   5.144  11.056  1.00  0.00    -0.377 OA
HETATM   25  H2  UNL     1       2.364   4.804  11.915  1.00  0.00     0.211 HD
ENDBRANCH   3  24
BRANCH  13  26
HETATM   26  O2  UNL     1       8.244   9.147  17.448  1.00  0.00    -0.271 OA
BRANCH  26  27
HETATM   27  C13 UNL     1       9.541   9.719  17.523  1.00  0.00     0.303 C 
BRANCH  27  28
HETATM   28  C14 UNL     1       9.471  10.862  18.527  1.00  0.00     0.244 C 
HETATM   29  O3  UNL     1       9.498  10.701  19.747  1.00  0.00    -0.271 OA
HETATM   30  N2  UNL     1       9.362  12.121  17.975  1.00  0.00    -0.346 N 
HETATM   31  H16 UNL     1       9.482  12.258  16.979  1.00  0.00     0.163 HD
BRANCH  30  32
HETATM   32  C15 UNL     1       9.267  13.330  18.814  1.00  0.00     0.180 C 
BRANCH  32  33
HETATM   33  C16 UNL     1       7.950  13.232  19.633  1.00  0.00     0.241 C 
HETATM   34  O4  UNL     1       6.840  13.485  19.163  1.00  0.00    -0.271 OA
HETATM   35  N3  UNL     1       8.130  12.769  20.930  1.00  0.00    -0.353 N 
HETATM   36  H18 UNL     1       9.078  12.533  21.215  1.00  0.00     0.163 HD
BRANCH  35  37
HETATM   37  C17 UNL     1       7.025  12.627  21.875  1.00  0.00     0.103 C 
BRANCH  37  38
HETATM   38  C18 UNL     1       5.645  12.732  21.174  1.00  0.00     0.096 C 
BRANCH  38  39
HETATM   39  S1  UNL     1       4.618  11.229  21.221  1.00  0.00    -0.180 SA
HETATM   40  H22 UNL     1       3.446  11.836  20.972  1.00  0.00     0.101 HD
ENDBRANCH  38  39
ENDBRANCH  37  38
BRANCH  37  41
HETATM   41  C19 UNL     1       7.100  13.721  22.958  1.00  0.00     0.136 C 
BRANCH  41  42
HETATM   42  C20 UNL     1       8.490  14.269  23.153  1.00  0.00     0.141 C 
HETATM   43  O5  UNL     1       8.962  15.313  22.739  1.00  0.00    -0.650 OA
BRANCH  42  44
HETATM   44  O6  UNL     1       9.238  13.435  23.909  1.00  0.00    -0.776 OA
HETATM   45  H25 UNL     1      10.092  13.907  24.015  1.00  0.00     0.167 HD
ENDBRANCH  42  44
ENDBRANCH  41  42
ENDBRANCH  37  41
ENDBRANCH  35  37
ENDBRANCH  32  33
BRANCH  32  46
HETATM   46  C21 UNL     1      10.517  13.498  19.713  1.00  0.00     0.009 C 
HETATM   47  C22 UNL     1      11.802  13.535  18.876  1.00  0.00     0.012 C 
HETATM   48  C23 UNL     1      10.648  12.370  20.747  1.00  0.00     0.012 C 
ENDBRANCH  32  46
ENDBRANCH  30  32
ENDBRANCH  27  28
ENDBRANCH  26  27
ENDBRANCH  13  26
TORSDOF 13
ENDMDL
