MODEL 1
REMARK minimizedAffinity -7.51487446
REMARK CNNscore 0.796990633
REMARK CNNaffinity 7.03305292
REMARK  4 active torsions:
REMARK  status: ('A' for Active; 'I' for Inactive)
REMARK    1  A    between atoms: C2_2  and  C3_3 
REMARK    2  A    between atoms: C2_2  and  C9_9 
REMARK    3  A    between atoms: C4_4  and  C5_5 
REMARK    4  A    between atoms: C23_23  and  O1_24 
ROOT
HETATM    1  C9  UNL     1       4.106  55.112  -8.130  1.00  0.00     0.001 C 
HETATM    2  C10 UNL     1       3.384  56.159  -7.227  1.00  0.00     0.006 C 
HETATM    3  C11 UNL     1       1.874  55.973  -7.434  1.00  0.00     0.009 C 
HETATM    4  C12 UNL     1       1.777  54.718  -8.292  1.00  0.00     0.036 C 
HETATM    5  C13 UNL     1       3.026  54.774  -9.209  1.00  0.00    -0.033 C 
HETATM    6  C14 UNL     1       2.979  55.872 -10.295  1.00  0.00     0.016 C 
HETATM    7  C15 UNL     1       3.153  53.385  -9.866  1.00  0.00     0.010 C 
HETATM    8  C16 UNL     1       1.880  52.985 -10.635  1.00  0.00     0.010 C 
HETATM    9  C17 UNL     1       0.604  53.043  -9.772  1.00  0.00     0.039 C 
HETATM   10  C18 UNL     1       0.446  54.382  -8.976  1.00  0.00     0.123 C 
HETATM   11  C19 UNL     1      -0.211  55.472  -9.784  1.00  0.00     0.014 C 
HETATM   12  C20 UNL     1      -1.421  55.135 -10.249  1.00  0.00     0.014 C 
HETATM   13  C21 UNL     1      -1.820  53.705  -9.939  1.00  0.00     0.124 C 
HETATM   14  C22 UNL     1      -3.255  53.404 -10.389  1.00  0.00     0.078 C 
HETATM   15  C23 UNL     1      -3.612  51.913 -10.353  1.00  0.00     0.121 C 
HETATM   16  C24 UNL     1      -2.566  51.031  -9.682  1.00  0.00     0.033 C 
HETATM   17  C25 UNL     1      -1.163  51.222 -10.265  1.00  0.00     0.015 C 
HETATM   18  C26 UNL     1      -0.757  52.711 -10.523  1.00  0.00     0.001 C 
HETATM   19  C27 UNL     1      -0.641  52.889 -12.063  1.00  0.00     0.019 C 
HETATM   20  O2  UNL     1      -1.785  53.563  -8.490  1.00  0.00    -0.223 OA
HETATM   21  O3  UNL     1      -0.515  54.106  -7.919  1.00  0.00    -0.224 OA
ENDROOT
BRANCH   1  22
HETATM   22  C2  UNL     1       5.514  55.593  -8.579  1.00  0.00     0.008 C 
HETATM   23  C1  UNL     1       6.253  54.568  -9.448  1.00  0.00     0.014 C 
BRANCH  22  24
HETATM   24  C3  UNL     1       6.337  56.016  -7.372  1.00  0.00    -0.026 C 
HETATM   25  C4  UNL     1       7.237  55.276  -6.705  1.00  0.00    -0.025 C 
BRANCH  25  26
HETATM   26  C5  UNL     1       8.020  55.726  -5.549  1.00  0.00     0.012 A 
HETATM   27  C6  UNL     1       8.243  57.208  -5.372  1.00  0.00     0.013 A 
HETATM   28  C7  UNL     1       9.391  56.321  -5.768  1.00  0.00    -0.010 A 
HETATM   29  C8  UNL     1      10.490  56.039  -4.801  1.00  0.00     0.010 C 
ENDBRANCH  25  26
ENDBRANCH  22  24
ENDBRANCH   1  22
BRANCH  15  30
HETATM   30  O1  UNL     1      -3.800  51.466 -11.698  1.00  0.00    -0.395 OA
HETATM   31  H33 UNL     1      -4.113  50.545 -11.659  1.00  0.00     0.210 HD
ENDBRANCH  15  30
TORSDOF 4
ENDMDL
MODEL 2
REMARK minimizedAffinity -7.2185483
REMARK CNNscore 0.571382284
REMARK CNNaffinity 6.04183626
REMARK  4 active torsions:
REMARK  status: ('A' for Active; 'I' for Inactive)
REMARK    1  A    between atoms: C2_2  and  C3_3 
REMARK    2  A    between atoms: C2_2  and  C9_9 
REMARK    3  A    between atoms: C4_4  and  C5_5 
REMARK    4  A    between atoms: C23_23  and  O1_24 
ROOT
HETATM    1  C9  UNL     1     -12.586  45.766 -28.166  1.00  0.00     0.001 C 
HETATM    2  C10 UNL     1     -12.788  44.530 -29.095  1.00  0.00     0.006 C 
HETATM    3  C11 UNL     1     -11.605  44.496 -30.072  1.00  0.00     0.009 C 
HETATM    4  C12 UNL     1     -10.677  45.588 -29.556  1.00  0.00     0.036 C 
HETATM    5  C13 UNL     1     -11.629  46.679 -29.000  1.00  0.00    -0.033 C 
HETATM    6  C14 UNL     1     -12.419  47.455 -30.078  1.00  0.00     0.016 C 
HETATM    7  C15 UNL     1     -10.756  47.652 -28.182  1.00  0.00     0.010 C 
HETATM    8  C16 UNL     1      -9.608  48.247 -29.017  1.00  0.00     0.010 C 
HETATM    9  C17 UNL     1      -8.720  47.178 -29.684  1.00  0.00     0.039 C 
HETATM   10  C18 UNL     1      -9.531  46.078 -30.449  1.00  0.00     0.123 C 
HETATM   11  C19 UNL     1      -9.876  46.479 -31.861  1.00  0.00     0.014 C 
HETATM   12  C20 UNL     1      -8.805  46.782 -32.605  1.00  0.00     0.014 C 
HETATM   13  C21 UNL     1      -7.496  46.743 -31.841  1.00  0.00     0.124 C 
HETATM   14  C22 UNL     1      -6.292  46.983 -32.762  1.00  0.00     0.078 C 
HETATM   15  C23 UNL     1      -4.980  47.228 -32.006  1.00  0.00     0.121 C 
HETATM   16  C24 UNL     1      -5.060  46.981 -30.505  1.00  0.00     0.033 C 
HETATM   17  C25 UNL     1      -6.204  47.749 -29.835  1.00  0.00     0.015 C 
HETATM   18  C26 UNL     1      -7.557  47.725 -30.620  1.00  0.00     0.001 C 
HETATM   19  C27 UNL     1      -7.825  49.176 -31.107  1.00  0.00     0.019 C 
HETATM   20  O2  UNL     1      -7.364  45.398 -31.300  1.00  0.00    -0.223 OA
HETATM   21  O3  UNL     1      -8.619  44.957 -30.619  1.00  0.00    -0.224 OA
ENDROOT
BRANCH   1  22
HETATM   22  C2  UNL     1     -13.933  46.340 -27.647  1.00  0.00     0.008 C 
HETATM   23  C1  UNL     1     -13.940  46.589 -26.134  1.00  0.00     0.014 C 
BRANCH  22  24
HETATM   24  C3  UNL     1     -15.088  45.451 -28.083  1.00  0.00    -0.026 C 
HETATM   25  C4  UNL     1     -16.144  45.073 -27.344  1.00  0.00    -0.025 C 
BRANCH  25  26
HETATM   26  C5  UNL     1     -17.246  44.222 -27.805  1.00  0.00     0.012 A 
HETATM   27  C6  UNL     1     -17.031  42.728 -27.830  1.00  0.00     0.013 A 
HETATM   28  C7  UNL     1     -17.120  43.494 -29.122  1.00  0.00    -0.010 A 
HETATM   29  C8  UNL     1     -18.309  43.338 -30.006  1.00  0.00     0.010 C 
ENDBRANCH  25  26
ENDBRANCH  22  24
ENDBRANCH   1  22
BRANCH  15  30
HETATM   30  O1  UNL     1      -4.582  48.583 -32.232  1.00  0.00    -0.395 OA
HETATM   31  H33 UNL     1      -3.706  48.702 -31.824  1.00  0.00     0.210 HD
ENDBRANCH  15  30
TORSDOF 4
ENDMDL
MODEL 3
REMARK minimizedAffinity -7.14209652
REMARK CNNscore 0.425858915
REMARK CNNaffinity 6.30705881
REMARK  4 active torsions:
REMARK  status: ('A' for Active; 'I' for Inactive)
REMARK    1  A    between atoms: C2_2  and  C3_3 
REMARK    2  A    between atoms: C2_2  and  C9_9 
REMARK    3  A    between atoms: C4_4  and  C5_5 
REMARK    4  A    between atoms: C23_23  and  O1_24 
ROOT
HETATM    1  C9  UNL     1      -3.396  51.145 -11.109  1.00  0.00     0.001 C 
HETATM    2  C10 UNL     1      -4.323  52.371 -10.841  1.00  0.00     0.006 C 
HETATM    3  C11 UNL     1      -3.426  53.525 -10.373  1.00  0.00     0.009 C 
HETATM    4  C12 UNL     1      -2.013  52.989 -10.566  1.00  0.00     0.036 C 
HETATM    5  C13 UNL     1      -2.125  51.474 -10.259  1.00  0.00    -0.033 C 
HETATM    6  C14 UNL     1      -2.363  51.134  -8.770  1.00  0.00     0.016 C 
HETATM    7  C15 UNL     1      -0.813  50.827 -10.746  1.00  0.00     0.010 C 
HETATM    8  C16 UNL     1       0.428  51.466 -10.096  1.00  0.00     0.010 C 
HETATM    9  C17 UNL     1       0.495  52.995 -10.283  1.00  0.00     0.039 C 
HETATM   10  C18 UNL     1      -0.838  53.729  -9.917  1.00  0.00     0.123 C 
HETATM   11  C19 UNL     1      -0.948  54.048  -8.448  1.00  0.00     0.014 C 
HETATM   12  C20 UNL     1       0.064  54.795  -7.987  1.00  0.00     0.014 C 
HETATM   13  C21 UNL     1       1.138  55.076  -9.020  1.00  0.00     0.124 C 
HETATM   14  C22 UNL     1       2.213  56.027  -8.479  1.00  0.00     0.078 C 
HETATM   15  C23 UNL     1       3.454  56.125  -9.375  1.00  0.00     0.121 C 
HETATM   16  C24 UNL     1       3.313  55.438 -10.727  1.00  0.00     0.033 C 
HETATM   17  C25 UNL     1       2.863  53.979 -10.610  1.00  0.00     0.015 C 
HETATM   18  C26 UNL     1       1.715  53.727  -9.576  1.00  0.00     0.001 C 
HETATM   19  C27 UNL     1       2.322  52.884  -8.420  1.00  0.00     0.019 C 
HETATM   20  O2  UNL     1       0.485  55.751 -10.133  1.00  0.00    -0.223 OA
HETATM   21  O3  UNL     1      -0.759  55.037 -10.551  1.00  0.00    -0.224 OA
ENDROOT
BRANCH   1  22
HETATM   22  C2  UNL     1      -4.131  49.793 -10.896  1.00  0.00     0.008 C 
HETATM   23  C1  UNL     1      -4.017  48.849 -12.098  1.00  0.00     0.014 C 
BRANCH  22  24
HETATM   24  C3  UNL     1      -5.579  50.036 -10.498  1.00  0.00    -0.026 C 
HETATM   25  C4  UNL     1      -6.619  49.205 -10.674  1.00  0.00    -0.025 C 
BRANCH  25  26
HETATM   26  C5  UNL     1      -8.002  49.473 -10.265  1.00  0.00     0.012 A 
HETATM   27  C6  UNL     1      -8.289  49.650  -8.794  1.00  0.00     0.013 A 
HETATM   28  C7  UNL     1      -8.770  48.416  -9.507  1.00  0.00    -0.010 A 
HETATM   29  C8  UNL     1     -10.224  48.218  -9.768  1.00  0.00     0.010 C 
ENDBRANCH  25  26
ENDBRANCH  22  24
ENDBRANCH   1  22
BRANCH  15  30
HETATM   30  O1  UNL     1       4.557  55.544  -8.673  1.00  0.00    -0.395 OA
HETATM   31  H33 UNL     1       5.355  55.691  -9.210  1.00  0.00     0.210 HD
ENDBRANCH  15  30
TORSDOF 4
ENDMDL
MODEL 4
REMARK minimizedAffinity -7.99396324
REMARK CNNscore 0.393939048
REMARK CNNaffinity 6.173491
REMARK  4 active torsions:
REMARK  status: ('A' for Active; 'I' for Inactive)
REMARK    1  A    between atoms: C2_2  and  C3_3 
REMARK    2  A    between atoms: C2_2  and  C9_9 
REMARK    3  A    between atoms: C4_4  and  C5_5 
REMARK    4  A    between atoms: C23_23  and  O1_24 
ROOT
HETATM    1  C9  UNL     1       3.180  56.632  -9.239  1.00  0.00     0.001 C 
HETATM    2  C10 UNL     1       4.029  55.874 -10.305  1.00  0.00     0.006 C 
HETATM    3  C11 UNL     1       3.141  54.768 -10.891  1.00  0.00     0.009 C 
HETATM    4  C12 UNL     1       1.770  55.044 -10.286  1.00  0.00     0.036 C 
HETATM    5  C13 UNL     1       2.072  55.593  -8.868  1.00  0.00    -0.033 C 
HETATM    6  C14 UNL     1       2.621  54.544  -7.875  1.00  0.00     0.016 C 
HETATM    7  C15 UNL     1       0.753  56.187  -8.334  1.00  0.00     0.010 C 
HETATM    8  C16 UNL     1      -0.391  55.157  -8.332  1.00  0.00     0.010 C 
HETATM    9  C17 UNL     1      -0.627  54.505  -9.709  1.00  0.00     0.039 C 
HETATM   10  C18 UNL     1       0.681  53.969 -10.381  1.00  0.00     0.123 C 
HETATM   11  C19 UNL     1       1.044  52.576  -9.933  1.00  0.00     0.014 C 
HETATM   12  C20 UNL     1       0.077  51.676 -10.157  1.00  0.00     0.014 C 
HETATM   13  C21 UNL     1      -1.196  52.272 -10.725  1.00  0.00     0.124 C 
HETATM   14  C22 UNL     1      -2.227  51.190 -11.071  1.00  0.00     0.078 C 
HETATM   15  C23 UNL     1      -3.621  51.746 -11.385  1.00  0.00     0.121 C 
HETATM   16  C24 UNL     1      -3.682  53.264 -11.507  1.00  0.00     0.033 C 
HETATM   17  C25 UNL     1      -3.091  53.983 -10.291  1.00  0.00     0.015 C 
HETATM   18  C26 UNL     1      -1.748  53.379  -9.760  1.00  0.00     0.001 C 
HETATM   19  C27 UNL     1      -2.044  52.775  -8.360  1.00  0.00     0.019 C 
HETATM   20  O2  UNL     1      -0.832  52.934 -11.970  1.00  0.00    -0.223 OA
HETATM   21  O3  UNL     1       0.367  53.809 -11.793  1.00  0.00    -0.224 OA
ENDROOT
BRANCH   1  22
HETATM   22  C2  UNL     1       4.059  57.250  -8.116  1.00  0.00     0.008 C 
HETATM   23  C1  UNL     1       5.079  56.262  -7.537  1.00  0.00     0.014 C 
BRANCH  22  24
HETATM   24  C3  UNL     1       3.182  57.862  -7.035  1.00  0.00    -0.026 C 
HETATM   25  C4  UNL     1       3.147  57.529  -5.734  1.00  0.00    -0.025 C 
BRANCH  25  26
HETATM   26  C5  UNL     1       2.292  58.153  -4.718  1.00  0.00     0.012 A 
HETATM   27  C6  UNL     1       2.484  57.747  -3.278  1.00  0.00     0.013 A 
HETATM   28  C7  UNL     1       1.246  57.321  -4.017  1.00  0.00    -0.010 A 
HETATM   29  C8  UNL     1      -0.076  57.917  -3.673  1.00  0.00     0.010 C 
ENDBRANCH  25  26
ENDBRANCH  22  24
ENDBRANCH   1  22
BRANCH  15  30
HETATM   30  O1  UNL     1      -4.512  51.328 -10.347  1.00  0.00    -0.395 OA
HETATM   31  H33 UNL     1      -5.408  51.609 -10.602  1.00  0.00     0.210 HD
ENDBRANCH  15  30
TORSDOF 4
ENDMDL
MODEL 5
REMARK minimizedAffinity -7.3167634
REMARK CNNscore 0.388937354
REMARK CNNaffinity 5.66224146
REMARK  4 active torsions:
REMARK  status: ('A' for Active; 'I' for Inactive)
REMARK    1  A    between atoms: C2_2  and  C3_3 
REMARK    2  A    between atoms: C2_2  and  C9_9 
REMARK    3  A    between atoms: C4_4  and  C5_5 
REMARK    4  A    between atoms: C23_23  and  O1_24 
ROOT
HETATM    1  C9  UNL     1     -13.023  46.077 -26.385  1.00  0.00     0.001 C 
HETATM    2  C10 UNL     1     -13.916  45.353 -27.439  1.00  0.00     0.006 C 
HETATM    3  C11 UNL     1     -13.109  45.277 -28.742  1.00  0.00     0.009 C 
HETATM    4  C12 UNL     1     -11.729  45.782 -28.345  1.00  0.00     0.036 C 
HETATM    5  C13 UNL     1     -12.003  46.865 -27.270  1.00  0.00    -0.033 C 
HETATM    6  C14 UNL     1     -12.643  48.163 -27.812  1.00  0.00     0.016 C 
HETATM    7  C15 UNL     1     -10.648  47.180 -26.605  1.00  0.00     0.010 C 
HETATM    8  C16 UNL     1      -9.587  47.627 -27.627  1.00  0.00     0.010 C 
HETATM    9  C17 UNL     1      -9.386  46.619 -28.777  1.00  0.00     0.039 C 
HETATM   10  C18 UNL     1     -10.725  46.154 -29.443  1.00  0.00     0.123 C 
HETATM   11  C19 UNL     1     -11.199  47.091 -30.525  1.00  0.00     0.014 C 
HETATM   12  C20 UNL     1     -10.302  47.271 -31.504  1.00  0.00     0.014 C 
HETATM   13  C21 UNL     1      -8.980  46.569 -31.262  1.00  0.00     0.124 C 
HETATM   14  C22 UNL     1      -8.033  46.710 -32.460  1.00  0.00     0.078 C 
HETATM   15  C23 UNL     1      -6.597  46.261 -32.164  1.00  0.00     0.121 C 
HETATM   16  C24 UNL     1      -6.417  45.565 -30.820  1.00  0.00     0.033 C 
HETATM   17  C25 UNL     1      -6.964  46.384 -29.647  1.00  0.00     0.015 C 
HETATM   18  C26 UNL     1      -8.355  47.052 -29.907  1.00  0.00     0.001 C 
HETATM   19  C27 UNL     1      -8.122  48.588 -29.938  1.00  0.00     0.019 C 
HETATM   20  O2  UNL     1      -9.278  45.151 -31.112  1.00  0.00    -0.223 OA
HETATM   21  O3  UNL     1     -10.407  44.928 -30.159  1.00  0.00    -0.224 OA
ENDROOT
BRANCH   1  22
HETATM   22  C2  UNL     1     -13.864  46.838 -25.323  1.00  0.00     0.008 C 
HETATM   23  C1  UNL     1     -13.296  46.717 -23.904  1.00  0.00     0.014 C 
BRANCH  22  24
HETATM   24  C3  UNL     1     -15.320  46.403 -25.392  1.00  0.00    -0.026 C 
HETATM   25  C4  UNL     1     -16.261  46.564 -24.447  1.00  0.00    -0.025 C 
BRANCH  25  26
HETATM   26  C5  UNL     1     -17.660  46.139 -24.557  1.00  0.00     0.012 A 
HETATM   27  C6  UNL     1     -18.732  47.201 -24.522  1.00  0.00     0.013 A 
HETATM   28  C7  UNL     1     -18.569  46.262 -23.358  1.00  0.00    -0.010 A 
HETATM   29  C8  UNL     1     -19.596  45.216 -23.089  1.00  0.00     0.010 C 
ENDBRANCH  25  26
ENDBRANCH  22  24
ENDBRANCH   1  22
BRANCH  15  30
HETATM   30  O1  UNL     1      -5.752  47.415 -32.204  1.00  0.00    -0.395 OA
HETATM   31  H33 UNL     1      -4.833  47.108 -32.105  1.00  0.00     0.210 HD
ENDBRANCH  15  30
TORSDOF 4
ENDMDL
MODEL 6
REMARK minimizedAffinity -8.07505226
REMARK CNNscore 0.361651123
REMARK CNNaffinity 6.14054823
REMARK  4 active torsions:
REMARK  status: ('A' for Active; 'I' for Inactive)
REMARK    1  A    between atoms: C2_2  and  C3_3 
REMARK    2  A    between atoms: C2_2  and  C9_9 
REMARK    3  A    between atoms: C4_4  and  C5_5 
REMARK    4  A    between atoms: C23_23  and  O1_24 
ROOT
HETATM    1  C9  UNL     1      -2.710  50.423 -23.038  1.00  0.00     0.001 C 
HETATM    2  C10 UNL     1      -2.912  49.433 -24.226  1.00  0.00     0.006 C 
HETATM    3  C11 UNL     1      -4.043  48.473 -23.832  1.00  0.00     0.009 C 
HETATM    4  C12 UNL     1      -4.574  49.054 -22.528  1.00  0.00     0.036 C 
HETATM    5  C13 UNL     1      -3.325  49.648 -21.827  1.00  0.00    -0.033 C 
HETATM    6  C14 UNL     1      -2.326  48.597 -21.291  1.00  0.00     0.016 C 
HETATM    7  C15 UNL     1      -3.843  50.524 -20.668  1.00  0.00     0.010 C 
HETATM    8  C16 UNL     1      -4.739  49.734 -19.697  1.00  0.00     0.010 C 
HETATM    9  C17 UNL     1      -5.921  49.030 -20.393  1.00  0.00     0.039 C 
HETATM   10  C18 UNL     1      -5.502  48.202 -21.654  1.00  0.00     0.123 C 
HETATM   11  C19 UNL     1      -5.045  46.806 -21.315  1.00  0.00     0.014 C 
HETATM   12  C20 UNL     1      -5.962  46.092 -20.649  1.00  0.00     0.014 C 
HETATM   13  C21 UNL     1      -7.216  46.873 -20.306  1.00  0.00     0.124 C 
HETATM   14  C22 UNL     1      -8.279  45.982 -19.649  1.00  0.00     0.078 C 
HETATM   15  C23 UNL     1      -9.445  46.767 -19.037  1.00  0.00     0.121 C 
HETATM   16  C24 UNL     1      -9.450  48.254 -19.371  1.00  0.00     0.033 C 
HETATM   17  C25 UNL     1      -8.122  48.943 -19.042  1.00  0.00     0.015 C 
HETATM   18  C26 UNL     1      -6.846  48.139 -19.457  1.00  0.00     0.001 C 
HETATM   19  C27 UNL     1      -6.128  47.717 -18.145  1.00  0.00     0.019 C 
HETATM   20  O2  UNL     1      -7.772  47.351 -21.565  1.00  0.00    -0.223 OA
HETATM   21  O3  UNL     1      -6.724  47.992 -22.416  1.00  0.00    -0.224 OA
ENDROOT
BRANCH   1  22
HETATM   22  C2  UNL     1      -1.251  50.950 -22.951  1.00  0.00     0.008 C 
HETATM   23  C1  UNL     1      -1.094  52.134 -21.989  1.00  0.00     0.014 C 
BRANCH  22  24
HETATM   24  C3  UNL     1      -0.721  51.270 -24.340  1.00  0.00    -0.026 C 
HETATM   25  C4  UNL     1       0.355  52.012 -24.647  1.00  0.00    -0.025 C 
BRANCH  25  26
HETATM   26  C5  UNL     1       0.841  52.289 -26.003  1.00  0.00     0.012 A 
HETATM   27  C6  UNL     1       0.319  51.438 -27.135  1.00  0.00     0.013 A 
HETATM   28  C7  UNL     1       1.746  51.291 -26.684  1.00  0.00    -0.010 A 
HETATM   29  C8  UNL     1       2.860  51.765 -27.554  1.00  0.00     0.010 C 
ENDBRANCH  25  26
ENDBRANCH  22  24
ENDBRANCH   1  22
BRANCH  15  30
HETATM   30  O1  UNL     1      -9.389  46.612 -17.616  1.00  0.00    -0.395 OA
HETATM   31  H33 UNL     1     -10.182  47.038 -17.244  1.00  0.00     0.210 HD
ENDBRANCH  15  30
TORSDOF 4
ENDMDL
MODEL 7
REMARK minimizedAffinity -7.01659679
REMARK CNNscore 0.35022223
REMARK CNNaffinity 5.70593023
REMARK  4 active torsions:
REMARK  status: ('A' for Active; 'I' for Inactive)
REMARK    1  A    between atoms: C2_2  and  C3_3 
REMARK    2  A    between atoms: C2_2  and  C9_9 
REMARK    3  A    between atoms: C4_4  and  C5_5 
REMARK    4  A    between atoms: C23_23  and  O1_24 
ROOT
HETATM    1  C9  UNL     1      -7.400  46.733 -24.496  1.00  0.00     0.001 C 
HETATM    2  C10 UNL     1      -8.607  45.772 -24.268  1.00  0.00     0.006 C 
HETATM    3  C11 UNL     1      -9.049  45.263 -25.646  1.00  0.00     0.009 C 
HETATM    4  C12 UNL     1      -7.977  45.791 -26.590  1.00  0.00     0.036 C 
HETATM    5  C13 UNL     1      -7.570  47.161 -25.990  1.00  0.00    -0.033 C 
HETATM    6  C14 UNL     1      -8.642  48.267 -26.120  1.00  0.00     0.016 C 
HETATM    7  C15 UNL     1      -6.276  47.592 -26.710  1.00  0.00     0.010 C 
HETATM    8  C16 UNL     1      -6.453  47.652 -28.238  1.00  0.00     0.010 C 
HETATM    9  C17 UNL     1      -6.978  46.334 -28.844  1.00  0.00     0.039 C 
HETATM   10  C18 UNL     1      -8.232  45.760 -28.102  1.00  0.00     0.123 C 
HETATM   11  C19 UNL     1      -9.528  46.349 -28.597  1.00  0.00     0.014 C 
HETATM   12  C20 UNL     1      -9.723  46.178 -29.912  1.00  0.00     0.014 C 
HETATM   13  C21 UNL     1      -8.560  45.513 -30.622  1.00  0.00     0.124 C 
HETATM   14  C22 UNL     1      -8.878  45.235 -32.097  1.00  0.00     0.078 C 
HETATM   15  C23 UNL     1      -7.653  44.822 -32.923  1.00  0.00     0.121 C 
HETATM   16  C24 UNL     1      -6.398  44.557 -32.101  1.00  0.00     0.033 C 
HETATM   17  C25 UNL     1      -6.038  45.720 -31.171  1.00  0.00     0.015 C 
HETATM   18  C26 UNL     1      -7.251  46.350 -30.410  1.00  0.00     0.001 C 
HETATM   19  C27 UNL     1      -7.435  47.790 -30.963  1.00  0.00     0.019 C 
HETATM   20  O2  UNL     1      -8.352  44.225 -29.976  1.00  0.00    -0.223 OA
HETATM   21  O3  UNL     1      -8.316  44.360 -28.488  1.00  0.00    -0.224 OA
ENDROOT
BRANCH   1  22
HETATM   22  C2  UNL     1      -7.298  47.823 -23.393  1.00  0.00     0.008 C 
HETATM   23  C1  UNL     1      -7.627  49.230 -23.903  1.00  0.00     0.014 C 
BRANCH  22  24
HETATM   24  C3  UNL     1      -5.936  47.765 -22.718  1.00  0.00    -0.026 C 
HETATM   25  C4  UNL     1      -5.261  48.785 -22.164  1.00  0.00    -0.025 C 
BRANCH  25  26
HETATM   26  C5  UNL     1      -3.951  48.686 -21.512  1.00  0.00     0.012 A 
HETATM   27  C6  UNL     1      -2.879  49.670 -21.912  1.00  0.00     0.013 A 
HETATM   28  C7  UNL     1      -2.757  48.226 -22.312  1.00  0.00    -0.010 A 
HETATM   29  C8  UNL     1      -1.724  47.357 -21.680  1.00  0.00     0.010 C 
ENDBRANCH  25  26
ENDBRANCH  22  24
ENDBRANCH   1  22
BRANCH  15  30
HETATM   30  O1  UNL     1      -7.379  45.864 -33.865  1.00  0.00    -0.395 OA
HETATM   31  H33 UNL     1      -6.658  45.553 -34.441  1.00  0.00     0.210 HD
ENDBRANCH  15  30
TORSDOF 4
ENDMDL
MODEL 8
REMARK minimizedAffinity -8.18199921
REMARK CNNscore 0.328182578
REMARK CNNaffinity 5.98751879
REMARK  4 active torsions:
REMARK  status: ('A' for Active; 'I' for Inactive)
REMARK    1  A    between atoms: C2_2  and  C3_3 
REMARK    2  A    between atoms: C2_2  and  C9_9 
REMARK    3  A    between atoms: C4_4  and  C5_5 
REMARK    4  A    between atoms: C23_23  and  O1_24 
ROOT
HETATM    1  C9  UNL     1      -3.396  48.652 -24.840  1.00  0.00     0.001 C 
HETATM    2  C10 UNL     1      -2.292  49.088 -23.828  1.00  0.00     0.006 C 
HETATM    3  C11 UNL     1      -2.858  48.874 -22.417  1.00  0.00     0.009 C 
HETATM    4  C12 UNL     1      -4.178  48.155 -22.661  1.00  0.00     0.036 C 
HETATM    5  C13 UNL     1      -4.706  48.748 -23.992  1.00  0.00    -0.033 C 
HETATM    6  C14 UNL     1      -5.187  50.214 -23.899  1.00  0.00     0.016 C 
HETATM    7  C15 UNL     1      -5.865  47.840 -24.452  1.00  0.00     0.010 C 
HETATM    8  C16 UNL     1      -6.969  47.721 -23.386  1.00  0.00     0.010 C 
HETATM    9  C17 UNL     1      -6.445  47.250 -22.014  1.00  0.00     0.039 C 
HETATM   10  C18 UNL     1      -5.192  48.047 -21.516  1.00  0.00     0.123 C 
HETATM   11  C19 UNL     1      -5.555  49.317 -20.791  1.00  0.00     0.014 C 
HETATM   12  C20 UNL     1      -6.354  49.118 -19.734  1.00  0.00     0.014 C 
HETATM   13  C21 UNL     1      -6.788  47.676 -19.557  1.00  0.00     0.124 C 
HETATM   14  C22 UNL     1      -7.604  47.481 -18.272  1.00  0.00     0.078 C 
HETATM   15  C23 UNL     1      -8.295  46.115 -18.184  1.00  0.00     0.121 C 
HETATM   16  C24 UNL     1      -7.883  45.128 -19.270  1.00  0.00     0.033 C 
HETATM   17  C25 UNL     1      -8.028  45.702 -20.683  1.00  0.00     0.015 C 
HETATM   18  C26 UNL     1      -7.522  47.173 -20.848  1.00  0.00     0.001 C 
HETATM   19  C27 UNL     1      -8.770  48.053 -21.138  1.00  0.00     0.019 C 
HETATM   20  O2  UNL     1      -5.573  46.885 -19.420  1.00  0.00    -0.223 OA
HETATM   21  O3  UNL     1      -4.580  47.221 -20.485  1.00  0.00    -0.224 OA
ENDROOT
BRANCH   1  22
HETATM   22  C2  UNL     1      -3.296  49.419 -26.187  1.00  0.00     0.008 C 
HETATM   23  C1  UNL     1      -3.608  48.543 -27.405  1.00  0.00     0.014 C 
BRANCH  22  24
HETATM   24  C3  UNL     1      -1.941  50.101 -26.307  1.00  0.00    -0.026 C 
HETATM   25  C4  UNL     1      -1.688  51.321 -26.808  1.00  0.00    -0.025 C 
BRANCH  25  26
HETATM   26  C5  UNL     1      -0.366  51.948 -26.897  1.00  0.00     0.012 A 
HETATM   27  C6  UNL     1       0.359  51.901 -28.220  1.00  0.00     0.013 A 
HETATM   28  C7  UNL     1       0.858  51.080 -27.063  1.00  0.00    -0.010 A 
HETATM   29  C8  UNL     1       2.131  51.444 -26.378  1.00  0.00     0.010 C 
ENDBRANCH  25  26
ENDBRANCH  22  24
ENDBRANCH   1  22
BRANCH  15  30
HETATM   30  O1  UNL     1      -9.708  46.325 -18.262  1.00  0.00    -0.395 OA
HETATM   31  H33 UNL     1     -10.139  45.465 -18.115  1.00  0.00     0.210 HD
ENDBRANCH  15  30
TORSDOF 4
ENDMDL
MODEL 9
REMARK minimizedAffinity -8.08862686
REMARK CNNscore 0.288048208
REMARK CNNaffinity 6.38468504
REMARK  4 active torsions:
REMARK  status: ('A' for Active; 'I' for Inactive)
REMARK    1  A    between atoms: C2_2  and  C3_3 
REMARK    2  A    between atoms: C2_2  and  C9_9 
REMARK    3  A    between atoms: C4_4  and  C5_5 
REMARK    4  A    between atoms: C23_23  and  O1_24 
ROOT
HETATM    1  C9  UNL     1      -0.590  51.098 -21.381  1.00  0.00     0.001 C 
HETATM    2  C10 UNL     1      -0.397  52.582 -20.942  1.00  0.00     0.006 C 
HETATM    3  C11 UNL     1      -0.356  52.600 -19.408  1.00  0.00     0.009 C 
HETATM    4  C12 UNL     1      -0.337  51.126 -19.027  1.00  0.00     0.036 C 
HETATM    5  C13 UNL     1      -1.207  50.433 -20.108  1.00  0.00    -0.033 C 
HETATM    6  C14 UNL     1      -2.719  50.738 -20.012  1.00  0.00     0.016 C 
HETATM    7  C15 UNL     1      -0.964  48.917 -19.964  1.00  0.00     0.010 C 
HETATM    8  C16 UNL     1      -1.278  48.408 -18.546  1.00  0.00     0.010 C 
HETATM    9  C17 UNL     1      -0.516  49.169 -17.442  1.00  0.00     0.039 C 
HETATM   10  C18 UNL     1      -0.614  50.726 -17.573  1.00  0.00     0.123 C 
HETATM   11  C19 UNL     1      -1.851  51.293 -16.923  1.00  0.00     0.014 C 
HETATM   12  C20 UNL     1      -1.956  50.989 -15.623  1.00  0.00     0.014 C 
HETATM   13  C21 UNL     1      -0.861  50.071 -15.117  1.00  0.00     0.124 C 
HETATM   14  C22 UNL     1      -0.960  49.848 -13.602  1.00  0.00     0.078 C 
HETATM   15  C23 UNL     1      -0.056  48.721 -13.087  1.00  0.00     0.121 C 
HETATM   16  C24 UNL     1       0.924  48.175 -14.119  1.00  0.00     0.033 C 
HETATM   17  C25 UNL     1       0.240  47.747 -15.421  1.00  0.00     0.015 C 
HETATM   18  C26 UNL     1      -0.848  48.741 -15.948  1.00  0.00     0.001 C 
HETATM   19  C27 UNL     1      -2.218  48.018 -15.831  1.00  0.00     0.019 C 
HETATM   20  O2  UNL     1       0.405  50.745 -15.372  1.00  0.00    -0.223 OA
HETATM   21  O3  UNL     1       0.476  51.262 -16.772  1.00  0.00    -0.224 OA
ENDROOT
BRANCH   1  22
HETATM   22  C2  UNL     1      -1.330  50.978 -22.743  1.00  0.00     0.008 C 
HETATM   23  C1  UNL     1      -1.943  49.593 -22.976  1.00  0.00     0.014 C 
BRANCH  22  24
HETATM   24  C3  UNL     1      -0.410  51.394 -23.881  1.00  0.00    -0.026 C 
HETATM   25  C4  UNL     1      -0.765  51.704 -25.139  1.00  0.00    -0.025 C 
BRANCH  25  26
HETATM   26  C5  UNL     1       0.153  52.111 -26.207  1.00  0.00     0.012 A 
HETATM   27  C6  UNL     1       0.034  51.430 -27.549  1.00  0.00     0.013 A 
HETATM   28  C7  UNL     1       1.223  51.153 -26.671  1.00  0.00    -0.010 A 
HETATM   29  C8  UNL     1       2.571  51.664 -27.051  1.00  0.00     0.010 C 
ENDBRANCH  25  26
ENDBRANCH  22  24
ENDBRANCH   1  22
BRANCH  15  30
HETATM   30  O1  UNL     1      -0.891  47.653 -12.631  1.00  0.00    -0.395 OA
HETATM   31  H33 UNL     1      -0.313  46.984 -12.225  1.00  0.00     0.210 HD
ENDBRANCH  15  30
TORSDOF 4
ENDMDL
