MODEL 1
REMARK minimizedAffinity -8.31518173
REMARK  13 active torsions:
REMARK  status: ('A' for Active; 'I' for Inactive)
REMARK    1  A    between atoms: C2_2  and  C3_3 
REMARK    2  A    between atoms: C2_2  and  C14_14 
REMARK    3  A    between atoms: C4_4  and  C5_5 
REMARK    4  A    between atoms: C6_6  and  C8_8 
REMARK    5  A    between atoms: C8_8  and  C9_9 
REMARK    6  A    between atoms: C9_9  and  C10_10 
REMARK    7  A    between atoms: C18_18  and  C19_19 
REMARK    8  A    between atoms: C19_19  and  C20_20 
REMARK    9  A    between atoms: C20_20  and  C21_21 
REMARK   10  A    between atoms: C21_21  and  O1_22 
REMARK   11  A    between atoms: C23_24  and  C25_26 
REMARK   12  A    between atoms: C28_30  and  O3_32 
REMARK   13  A    between atoms: C30_33  and  O4_34 
ROOT
HETATM    1  C14 UNL     1      -0.916   6.000  13.569  1.00  0.00     0.047 C 
HETATM    2  C15 UNL     1      -1.407   7.340  13.005  1.00  0.00     0.013 C 
HETATM    3  C16 UNL     1      -0.558   8.340  13.781  1.00  0.00     0.017 C 
HETATM    4  C17 UNL     1       0.875   7.715  13.888  1.00  0.00     0.024 C 
HETATM    5  C18 UNL     1       1.937   8.459  12.966  1.00  0.00     0.029 C 
HETATM    6  C22 UNL     1       3.364   7.874  13.178  1.00  0.00    -0.066 C 
HETATM    7  C23 UNL     1       4.219   7.279  12.303  1.00  0.00    -0.021 C 
HETATM    8  C24 UNL     1       5.656   6.932  12.622  1.00  0.00     0.052 C 
HETATM    9  C26 UNL     1       3.780   8.045  14.636  1.00  0.00     0.038 C 
HETATM   10  C27 UNL     1       2.808   7.314  15.553  1.00  0.00     0.042 C 
HETATM   11  C28 UNL     1       1.357   7.808  15.401  1.00  0.00     0.065 C 
HETATM   12  C29 UNL     1       1.236   9.223  16.015  1.00  0.00     0.047 C 
HETATM   13  C30 UNL     1       0.623   6.204  13.496  1.00  0.00     0.138 C 
ENDROOT
BRANCH   5  14
HETATM   14  C19 UNL     1       1.461   8.800  11.523  1.00  0.00     0.012 C 
BRANCH  14  15
HETATM   15  C20 UNL     1       1.039   7.566  10.706  1.00  0.00     0.027 C 
BRANCH  15  16
HETATM   16  C21 UNL     1       0.578   7.930   9.298  1.00  0.00     0.164 C 
BRANCH  16  17
HETATM   17  O1  UNL     1      -0.367   8.991   9.309  1.00  0.00    -0.401 OA
HETATM   18  H32 UNL     1       0.079   9.771   9.675  1.00  0.00     0.209 HD
ENDBRANCH  16  17
ENDBRANCH  15  16
ENDBRANCH  14  15
ENDBRANCH   5  14
BRANCH  11  19
HETATM   19  O3  UNL     1       0.534   6.957  16.219  1.00  0.00    -0.389 OA
HETATM   20  H44 UNL     1       0.881   6.991  17.129  1.00  0.00     0.210 HD
ENDBRANCH  11  19
BRANCH  13  21
HETATM   21  O4  UNL     1       1.100   5.910  12.185  1.00  0.00    -0.394 OA
HETATM   22  H46 UNL     1       0.769   5.024  11.949  1.00  0.00     0.210 HD
ENDBRANCH  13  21
BRANCH   1  23
HETATM   23  C2  UNL     1      -1.462   4.725  12.928  1.00  0.00    -0.061 C 
HETATM   24  C1  UNL     1      -0.719   3.928  12.138  1.00  0.00     0.019 C 
BRANCH  23  25
HETATM   25  C3  UNL     1      -2.855   4.345  13.160  1.00  0.00     0.007 C 
HETATM   26  C4  UNL     1      -3.945   4.845  12.555  1.00  0.00     0.001 C 
BRANCH  26  27
HETATM   27  C5  UNL     1      -5.288   4.433  12.917  1.00  0.00     0.002 C 
HETATM   28  C6  UNL     1      -6.017   3.464  12.331  1.00  0.00    -0.084 C 
HETATM   29  C7  UNL     1      -5.535   2.575  11.214  1.00  0.00     0.043 C 
BRANCH  28  30
HETATM   30  C8  UNL     1      -7.438   3.197  12.800  1.00  0.00     0.037 C 
BRANCH  30  31
HETATM   31  C9  UNL     1      -8.347   4.421  12.657  1.00  0.00     0.031 C 
BRANCH  31  32
HETATM   32  C10 UNL     1      -8.108   5.427  13.753  1.00  0.00    -0.024 C 
HETATM   33  C11 UNL     1      -8.889   6.477  14.073  1.00  0.00    -0.091 C 
HETATM   34  C12 UNL     1     -10.198   6.807  13.408  1.00  0.00     0.042 C 
HETATM   35  C13 UNL     1      -8.497   7.422  15.174  1.00  0.00     0.042 C 
ENDBRANCH  31  32
ENDBRANCH  30  31
ENDBRANCH  28  30
ENDBRANCH  26  27
ENDBRANCH  23  25
ENDBRANCH   1  23
BRANCH   7  36
HETATM   36  C25 UNL     1       3.855   6.865  10.915  1.00  0.00     0.265 C 
HETATM   37  O2  UNL     1       4.520   7.163   9.927  1.00  0.00    -0.302 OA
ENDBRANCH   7  36
TORSDOF 13
ENDMDL
MODEL 2
REMARK minimizedAffinity -7.94088268
REMARK  13 active torsions:
REMARK  status: ('A' for Active; 'I' for Inactive)
REMARK    1  A    between atoms: C2_2  and  C3_3 
REMARK    2  A    between atoms: C2_2  and  C14_14 
REMARK    3  A    between atoms: C4_4  and  C5_5 
REMARK    4  A    between atoms: C6_6  and  C8_8 
REMARK    5  A    between atoms: C8_8  and  C9_9 
REMARK    6  A    between atoms: C9_9  and  C10_10 
REMARK    7  A    between atoms: C18_18  and  C19_19 
REMARK    8  A    between atoms: C19_19  and  C20_20 
REMARK    9  A    between atoms: C20_20  and  C21_21 
REMARK   10  A    between atoms: C21_21  and  O1_22 
REMARK   11  A    between atoms: C23_24  and  C25_26 
REMARK   12  A    between atoms: C28_30  and  O3_32 
REMARK   13  A    between atoms: C30_33  and  O4_34 
ROOT
HETATM    1  C14 UNL     1      -0.660   4.575  11.599  1.00  0.00     0.047 C 
HETATM    2  C15 UNL     1       0.596   4.504  12.477  1.00  0.00     0.013 C 
HETATM    3  C16 UNL     1       1.071   5.953  12.468  1.00  0.00     0.017 C 
HETATM    4  C17 UNL     1      -0.217   6.841  12.558  1.00  0.00     0.024 C 
HETATM    5  C18 UNL     1      -0.376   7.545  13.977  1.00  0.00     0.029 C 
HETATM    6  C22 UNL     1      -1.610   8.495  13.990  1.00  0.00    -0.066 C 
HETATM    7  C23 UNL     1      -2.728   8.487  14.765  1.00  0.00    -0.021 C 
HETATM    8  C24 UNL     1      -3.755   9.598  14.785  1.00  0.00     0.052 C 
HETATM    9  C26 UNL     1      -1.440   9.575  12.926  1.00  0.00     0.038 C 
HETATM   10  C27 UNL     1      -1.321   8.944  11.545  1.00  0.00     0.042 C 
HETATM   11  C28 UNL     1      -0.138   7.965  11.435  1.00  0.00     0.065 C 
HETATM   12  C29 UNL     1       1.186   8.767  11.439  1.00  0.00     0.047 C 
HETATM   13  C30 UNL     1      -1.369   5.815  12.211  1.00  0.00     0.138 C 
ENDROOT
BRANCH   5  14
HETATM   14  C19 UNL     1      -0.095   6.644  15.215  1.00  0.00     0.012 C 
BRANCH  14  15
HETATM   15  C20 UNL     1       0.832   7.299  16.255  1.00  0.00     0.027 C 
BRANCH  15  16
HETATM   16  C21 UNL     1       2.191   7.671  15.670  1.00  0.00     0.164 C 
BRANCH  16  17
HETATM   17  O1  UNL     1       3.125   6.606  15.783  1.00  0.00    -0.401 OA
HETATM   18  H32 UNL     1       2.782   5.863  15.261  1.00  0.00     0.209 HD
ENDBRANCH  16  17
ENDBRANCH  15  16
ENDBRANCH  14  15
ENDBRANCH   5  14
BRANCH  11  19
HETATM   19  O3  UNL     1      -0.217   7.351  10.136  1.00  0.00    -0.389 OA
HETATM   20  H44 UNL     1      -0.218   8.061   9.469  1.00  0.00     0.210 HD
ENDBRANCH  11  19
BRANCH  13  21
HETATM   21  O4  UNL     1      -2.112   5.440  13.369  1.00  0.00    -0.394 OA
HETATM   22  H46 UNL     1      -2.686   4.694  13.115  1.00  0.00     0.210 HD
ENDBRANCH  13  21
BRANCH   1  23
HETATM   23  C2  UNL     1      -1.502   3.306  11.473  1.00  0.00    -0.061 C 
HETATM   24  C1  UNL     1      -1.027   2.164  10.942  1.00  0.00     0.019 C 
BRANCH  23  25
HETATM   25  C3  UNL     1      -2.890   3.317  11.932  1.00  0.00     0.007 C 
HETATM   26  C4  UNL     1      -3.997   3.350  11.172  1.00  0.00     0.001 C 
BRANCH  26  27
HETATM   27  C5  UNL     1      -5.328   3.424  11.745  1.00  0.00     0.002 C 
HETATM   28  C6  UNL     1      -6.217   2.418  11.844  1.00  0.00    -0.084 C 
HETATM   29  C7  UNL     1      -5.961   0.993  11.426  1.00  0.00     0.043 C 
BRANCH  28  30
HETATM   30  C8  UNL     1      -7.597   2.681  12.424  1.00  0.00     0.037 C 
BRANCH  30  31
HETATM   31  C9  UNL     1      -7.844   4.164  12.712  1.00  0.00     0.031 C 
BRANCH  31  32
HETATM   32  C10 UNL     1      -7.334   4.565  14.071  1.00  0.00    -0.024 C 
HETATM   33  C11 UNL     1      -7.575   5.721  14.719  1.00  0.00    -0.091 C 
HETATM   34  C12 UNL     1      -8.460   6.824  14.205  1.00  0.00     0.042 C 
HETATM   35  C13 UNL     1      -6.960   5.995  16.063  1.00  0.00     0.042 C 
ENDBRANCH  31  32
ENDBRANCH  30  31
ENDBRANCH  28  30
ENDBRANCH  26  27
ENDBRANCH  23  25
ENDBRANCH   1  23
BRANCH   7  36
HETATM   36  C25 UNL     1      -3.110   7.375  15.685  1.00  0.00     0.265 C 
HETATM   37  O2  UNL     1      -3.479   6.272  15.291  1.00  0.00    -0.302 OA
ENDBRANCH   7  36
TORSDOF 13
ENDMDL
MODEL 3
REMARK minimizedAffinity -7.89122725
REMARK  13 active torsions:
REMARK  status: ('A' for Active; 'I' for Inactive)
REMARK    1  A    between atoms: C2_2  and  C3_3 
REMARK    2  A    between atoms: C2_2  and  C14_14 
REMARK    3  A    between atoms: C4_4  and  C5_5 
REMARK    4  A    between atoms: C6_6  and  C8_8 
REMARK    5  A    between atoms: C8_8  and  C9_9 
REMARK    6  A    between atoms: C9_9  and  C10_10 
REMARK    7  A    between atoms: C18_18  and  C19_19 
REMARK    8  A    between atoms: C19_19  and  C20_20 
REMARK    9  A    between atoms: C20_20  and  C21_21 
REMARK   10  A    between atoms: C21_21  and  O1_22 
REMARK   11  A    between atoms: C23_24  and  C25_26 
REMARK   12  A    between atoms: C28_30  and  O3_32 
REMARK   13  A    between atoms: C30_33  and  O4_34 
ROOT
HETATM    1  C14 UNL     1       0.438   6.372  12.162  1.00  0.00     0.047 C 
HETATM    2  C15 UNL     1       0.239   7.311  10.965  1.00  0.00     0.013 C 
HETATM    3  C16 UNL     1       0.988   8.560  11.414  1.00  0.00     0.017 C 
HETATM    4  C17 UNL     1       2.280   8.062  12.147  1.00  0.00     0.024 C 
HETATM    5  C18 UNL     1       3.602   8.320  11.299  1.00  0.00     0.029 C 
HETATM    6  C22 UNL     1       4.868   7.905  12.104  1.00  0.00    -0.066 C 
HETATM    7  C23 UNL     1       5.834   6.987  11.828  1.00  0.00    -0.021 C 
HETATM    8  C24 UNL     1       7.111   6.832  12.623  1.00  0.00     0.052 C 
HETATM    9  C26 UNL     1       4.950   8.717  13.392  1.00  0.00     0.038 C 
HETATM   10  C27 UNL     1       3.718   8.469  14.253  1.00  0.00     0.042 C 
HETATM   11  C28 UNL     1       2.404   8.830  13.535  1.00  0.00     0.065 C 
HETATM   12  C29 UNL     1       2.298  10.369  13.415  1.00  0.00     0.047 C 
HETATM   13  C30 UNL     1       1.964   6.535  12.404  1.00  0.00     0.138 C 
ENDROOT
BRANCH   5  14
HETATM   14  C19 UNL     1       3.513   7.972   9.784  1.00  0.00     0.012 C 
BRANCH  14  15
HETATM   15  C20 UNL     1       2.428   6.931   9.454  1.00  0.00     0.027 C 
BRANCH  15  16
HETATM   16  C21 UNL     1       2.733   6.158   8.175  1.00  0.00     0.164 C 
BRANCH  16  17
HETATM   17  O1  UNL     1       3.396   4.930   8.445  1.00  0.00    -0.401 OA
HETATM   18  H32 UNL     1       2.791   4.384   8.972  1.00  0.00     0.209 HD
ENDBRANCH  16  17
ENDBRANCH  15  16
ENDBRANCH  14  15
ENDBRANCH   5  14
BRANCH  11  19
HETATM   19  O3  UNL     1       1.326   8.432  14.401  1.00  0.00    -0.389 OA
HETATM   20  H44 UNL     1       1.454   8.875  15.260  1.00  0.00     0.210 HD
ENDBRANCH  11  19
BRANCH  13  21
HETATM   21  O4  UNL     1       2.698   5.685  11.525  1.00  0.00    -0.394 OA
HETATM   22  H46 UNL     1       2.337   4.786  11.624  1.00  0.00     0.210 HD
ENDBRANCH  13  21
BRANCH   1  23
HETATM   23  C2  UNL     1      -0.079   4.941  12.026  1.00  0.00    -0.061 C 
HETATM   24  C1  UNL     1       0.619   3.967  11.413  1.00  0.00     0.019 C 
BRANCH  23  25
HETATM   25  C3  UNL     1      -1.393   4.598  12.570  1.00  0.00     0.007 C 
HETATM   26  C4  UNL     1      -2.586   4.771  11.979  1.00  0.00     0.001 C 
BRANCH  26  27
HETATM   27  C5  UNL     1      -3.835   4.451  12.646  1.00  0.00     0.002 C 
HETATM   28  C6  UNL     1      -4.887   3.800  12.113  1.00  0.00    -0.084 C 
HETATM   29  C7  UNL     1      -4.933   3.223  10.722  1.00  0.00     0.043 C 
BRANCH  28  30
HETATM   30  C8  UNL     1      -6.147   3.594  12.938  1.00  0.00     0.037 C 
BRANCH  30  31
HETATM   31  C9  UNL     1      -6.549   4.846  13.722  1.00  0.00     0.031 C 
BRANCH  31  32
HETATM   32  C10 UNL     1      -7.872   5.397  13.259  1.00  0.00    -0.024 C 
HETATM   33  C11 UNL     1      -8.715   6.179  13.961  1.00  0.00    -0.091 C 
HETATM   34  C12 UNL     1      -8.452   6.694  15.350  1.00  0.00     0.042 C 
HETATM   35  C13 UNL     1     -10.027   6.622  13.374  1.00  0.00     0.042 C 
ENDBRANCH  31  32
ENDBRANCH  30  31
ENDBRANCH  28  30
ENDBRANCH  26  27
ENDBRANCH  23  25
ENDBRANCH   1  23
BRANCH   7  36
HETATM   36  C25 UNL     1       5.759   5.989  10.719  1.00  0.00     0.265 C 
HETATM   37  O2  UNL     1       6.580   5.089  10.567  1.00  0.00    -0.302 OA
ENDBRANCH   7  36
TORSDOF 13
ENDMDL
MODEL 4
REMARK minimizedAffinity -7.82406998
REMARK  13 active torsions:
REMARK  status: ('A' for Active; 'I' for Inactive)
REMARK    1  A    between atoms: C2_2  and  C3_3 
REMARK    2  A    between atoms: C2_2  and  C14_14 
REMARK    3  A    between atoms: C4_4  and  C5_5 
REMARK    4  A    between atoms: C6_6  and  C8_8 
REMARK    5  A    between atoms: C8_8  and  C9_9 
REMARK    6  A    between atoms: C9_9  and  C10_10 
REMARK    7  A    between atoms: C18_18  and  C19_19 
REMARK    8  A    between atoms: C19_19  and  C20_20 
REMARK    9  A    between atoms: C20_20  and  C21_21 
REMARK   10  A    between atoms: C21_21  and  O1_22 
REMARK   11  A    between atoms: C23_24  and  C25_26 
REMARK   12  A    between atoms: C28_30  and  O3_32 
REMARK   13  A    between atoms: C30_33  and  O4_34 
ROOT
HETATM    1  C14 UNL     1      -2.253   7.947  14.837  1.00  0.00     0.047 C 
HETATM    2  C15 UNL     1      -1.952   9.024  13.786  1.00  0.00     0.013 C 
HETATM    3  C16 UNL     1      -2.509  10.278  14.450  1.00  0.00     0.017 C 
HETATM    4  C17 UNL     1      -2.146  10.172  15.971  1.00  0.00     0.024 C 
HETATM    5  C18 UNL     1      -1.004  11.196  16.399  1.00  0.00     0.029 C 
HETATM    6  C22 UNL     1      -0.747  11.129  17.933  1.00  0.00    -0.066 C 
HETATM    7  C23 UNL     1       0.380  10.823  18.631  1.00  0.00    -0.021 C 
HETATM    8  C24 UNL     1       0.523  10.988  20.128  1.00  0.00     0.052 C 
HETATM    9  C26 UNL     1      -2.025  11.482  18.687  1.00  0.00     0.038 C 
HETATM   10  C27 UNL     1      -3.136  10.501  18.333  1.00  0.00     0.042 C 
HETATM   11  C28 UNL     1      -3.453  10.475  16.826  1.00  0.00     0.065 C 
HETATM   12  C29 UNL     1      -4.170  11.790  16.437  1.00  0.00     0.047 C 
HETATM   13  C30 UNL     1      -1.744   8.651  16.124  1.00  0.00     0.138 C 
ENDROOT
BRANCH   5  14
HETATM   14  C19 UNL     1       0.206  11.305  15.427  1.00  0.00     0.012 C 
BRANCH  14  15
HETATM   15  C20 UNL     1       1.051  10.020  15.347  1.00  0.00     0.027 C 
BRANCH  15  16
HETATM   16  C21 UNL     1       2.024  10.036  14.172  1.00  0.00     0.164 C 
BRANCH  16  17
HETATM   17  O1  UNL     1       1.361   9.825  12.934  1.00  0.00    -0.401 OA
HETATM   18  H32 UNL     1       0.745  10.564  12.805  1.00  0.00     0.209 HD
ENDBRANCH  16  17
ENDBRANCH  15  16
ENDBRANCH  14  15
ENDBRANCH   5  14
BRANCH  11  19
HETATM   19  O3  UNL     1      -4.417   9.429  16.615  1.00  0.00    -0.389 OA
HETATM   20  H44 UNL     1      -5.184   9.610  17.188  1.00  0.00     0.210 HD
ENDBRANCH  11  19
BRANCH  13  21
HETATM   21  O4  UNL     1      -0.334   8.486  16.255  1.00  0.00    -0.394 OA
HETATM   22  H46 UNL     1      -0.146   7.533  16.179  1.00  0.00     0.210 HD
ENDBRANCH  13  21
BRANCH   1  23
HETATM   23  C2  UNL     1      -1.716   6.541  14.575  1.00  0.00    -0.061 C 
HETATM   24  C1  UNL     1      -0.406   6.237  14.626  1.00  0.00     0.019 C 
BRANCH  23  25
HETATM   25  C3  UNL     1      -2.651   5.467  14.240  1.00  0.00     0.007 C 
HETATM   26  C4  UNL     1      -3.430   5.379  13.150  1.00  0.00     0.001 C 
BRANCH  26  27
HETATM   27  C5  UNL     1      -4.371   4.291  12.956  1.00  0.00     0.002 C 
HETATM   28  C6  UNL     1      -4.548   3.573  11.831  1.00  0.00    -0.084 C 
HETATM   29  C7  UNL     1      -3.743   3.732  10.567  1.00  0.00     0.043 C 
BRANCH  28  30
HETATM   30  C8  UNL     1      -5.622   2.499  11.779  1.00  0.00     0.037 C 
BRANCH  30  31
HETATM   31  C9  UNL     1      -6.725   2.717  12.819  1.00  0.00     0.031 C 
BRANCH  31  32
HETATM   32  C10 UNL     1      -7.635   3.856  12.441  1.00  0.00    -0.024 C 
HETATM   33  C11 UNL     1      -8.005   4.890  13.220  1.00  0.00    -0.091 C 
HETATM   34  C12 UNL     1      -7.521   5.121  14.626  1.00  0.00     0.042 C 
HETATM   35  C13 UNL     1      -8.957   5.937  12.713  1.00  0.00     0.042 C 
ENDBRANCH  31  32
ENDBRANCH  30  31
ENDBRANCH  28  30
ENDBRANCH  26  27
ENDBRANCH  23  25
ENDBRANCH   1  23
BRANCH   7  36
HETATM   36  C25 UNL     1       1.624  10.261  18.024  1.00  0.00     0.265 C 
HETATM   37  O2  UNL     1       2.474   9.654  18.671  1.00  0.00    -0.302 OA
ENDBRANCH   7  36
TORSDOF 13
ENDMDL
MODEL 5
REMARK minimizedAffinity -7.82155037
REMARK  13 active torsions:
REMARK  status: ('A' for Active; 'I' for Inactive)
REMARK    1  A    between atoms: C2_2  and  C3_3 
REMARK    2  A    between atoms: C2_2  and  C14_14 
REMARK    3  A    between atoms: C4_4  and  C5_5 
REMARK    4  A    between atoms: C6_6  and  C8_8 
REMARK    5  A    between atoms: C8_8  and  C9_9 
REMARK    6  A    between atoms: C9_9  and  C10_10 
REMARK    7  A    between atoms: C18_18  and  C19_19 
REMARK    8  A    between atoms: C19_19  and  C20_20 
REMARK    9  A    between atoms: C20_20  and  C21_21 
REMARK   10  A    between atoms: C21_21  and  O1_22 
REMARK   11  A    between atoms: C23_24  and  C25_26 
REMARK   12  A    between atoms: C28_30  and  O3_32 
REMARK   13  A    between atoms: C30_33  and  O4_34 
ROOT
HETATM    1  C14 UNL     1       0.376   6.591  12.610  1.00  0.00     0.047 C 
HETATM    2  C15 UNL     1       0.209   7.649  11.512  1.00  0.00     0.013 C 
HETATM    3  C16 UNL     1       0.905   8.857  12.128  1.00  0.00     0.017 C 
HETATM    4  C17 UNL     1       2.175   8.308  12.865  1.00  0.00     0.024 C 
HETATM    5  C18 UNL     1       3.527   8.682  12.114  1.00  0.00     0.029 C 
HETATM    6  C22 UNL     1       4.765   8.207  12.930  1.00  0.00    -0.066 C 
HETATM    7  C23 UNL     1       5.764   7.343  12.605  1.00  0.00    -0.021 C 
HETATM    8  C24 UNL     1       7.007   7.129  13.440  1.00  0.00     0.052 C 
HETATM    9  C26 UNL     1       4.767   8.877  14.301  1.00  0.00     0.038 C 
HETATM   10  C27 UNL     1       3.504   8.513  15.070  1.00  0.00     0.042 C 
HETATM   11  C28 UNL     1       2.216   8.924  14.331  1.00  0.00     0.065 C 
HETATM   12  C29 UNL     1       2.077  10.464  14.372  1.00  0.00     0.047 C 
HETATM   13  C30 UNL     1       1.884   6.756  12.942  1.00  0.00     0.138 C 
ENDROOT
BRANCH   5  14
HETATM   14  C19 UNL     1       3.517   8.498  10.568  1.00  0.00     0.012 C 
BRANCH  14  15
HETATM   15  C20 UNL     1       3.197   7.060  10.122  1.00  0.00     0.027 C 
BRANCH  15  16
HETATM   16  C21 UNL     1       2.894   6.968   8.630  1.00  0.00     0.164 C 
BRANCH  16  17
HETATM   17  O1  UNL     1       2.771   5.620   8.197  1.00  0.00    -0.401 OA
HETATM   18  H32 UNL     1       2.014   5.233   8.667  1.00  0.00     0.209 HD
ENDBRANCH  16  17
ENDBRANCH  15  16
ENDBRANCH  14  15
ENDBRANCH   5  14
BRANCH  11  19
HETATM   19  O3  UNL     1       1.110   8.413  15.097  1.00  0.00    -0.389 OA
HETATM   20  H44 UNL     1       1.186   8.763  16.003  1.00  0.00     0.210 HD
ENDBRANCH  11  19
BRANCH  13  21
HETATM   21  O4  UNL     1       2.679   6.021  12.013  1.00  0.00    -0.394 OA
HETATM   22  H46 UNL     1       2.336   5.109  11.998  1.00  0.00     0.210 HD
ENDBRANCH  13  21
BRANCH   1  23
HETATM   23  C2  UNL     1      -0.099   5.172  12.297  1.00  0.00    -0.061 C 
HETATM   24  C1  UNL     1       0.673   4.264  11.672  1.00  0.00     0.019 C 
BRANCH  23  25
HETATM   25  C3  UNL     1      -1.454   4.770  12.674  1.00  0.00     0.007 C 
HETATM   26  C4  UNL     1      -2.556   5.537  12.683  1.00  0.00     0.001 C 
BRANCH  26  27
HETATM   27  C5  UNL     1      -3.840   5.041  13.142  1.00  0.00     0.002 C 
HETATM   28  C6  UNL     1      -4.936   5.776  13.414  1.00  0.00    -0.084 C 
HETATM   29  C7  UNL     1      -5.044   7.267  13.228  1.00  0.00     0.043 C 
BRANCH  28  30
HETATM   30  C8  UNL     1      -6.190   5.100  13.941  1.00  0.00     0.037 C 
BRANCH  30  31
HETATM   31  C9  UNL     1      -7.092   4.574  12.821  1.00  0.00     0.031 C 
BRANCH  31  32
HETATM   32  C10 UNL     1      -6.865   3.108  12.560  1.00  0.00    -0.024 C 
HETATM   33  C11 UNL     1      -6.145   2.565  11.560  1.00  0.00    -0.091 C 
HETATM   34  C12 UNL     1      -5.379   3.351  10.530  1.00  0.00     0.042 C 
HETATM   35  C13 UNL     1      -6.041   1.074  11.405  1.00  0.00     0.042 C 
ENDBRANCH  31  32
ENDBRANCH  30  31
ENDBRANCH  28  30
ENDBRANCH  26  27
ENDBRANCH  23  25
ENDBRANCH   1  23
BRANCH   7  36
HETATM   36  C25 UNL     1       5.765   6.470  11.393  1.00  0.00     0.265 C 
HETATM   37  O2  UNL     1       6.735   6.354  10.648  1.00  0.00    -0.302 OA
ENDBRANCH   7  36
TORSDOF 13
ENDMDL
MODEL 6
REMARK minimizedAffinity -7.80059671
REMARK  13 active torsions:
REMARK  status: ('A' for Active; 'I' for Inactive)
REMARK    1  A    between atoms: C2_2  and  C3_3 
REMARK    2  A    between atoms: C2_2  and  C14_14 
REMARK    3  A    between atoms: C4_4  and  C5_5 
REMARK    4  A    between atoms: C6_6  and  C8_8 
REMARK    5  A    between atoms: C8_8  and  C9_9 
REMARK    6  A    between atoms: C9_9  and  C10_10 
REMARK    7  A    between atoms: C18_18  and  C19_19 
REMARK    8  A    between atoms: C19_19  and  C20_20 
REMARK    9  A    between atoms: C20_20  and  C21_21 
REMARK   10  A    between atoms: C21_21  and  O1_22 
REMARK   11  A    between atoms: C23_24  and  C25_26 
REMARK   12  A    between atoms: C28_30  and  O3_32 
REMARK   13  A    between atoms: C30_33  and  O4_34 
ROOT
HETATM    1  C14 UNL     1       4.690   6.793  10.516  1.00  0.00     0.047 C 
HETATM    2  C15 UNL     1       6.052   6.273  10.995  1.00  0.00     0.013 C 
HETATM    3  C16 UNL     1       6.799   7.569  11.292  1.00  0.00     0.017 C 
HETATM    4  C17 UNL     1       5.758   8.538  11.953  1.00  0.00     0.024 C 
HETATM    5  C18 UNL     1       6.022   8.748  13.508  1.00  0.00     0.029 C 
HETATM    6  C22 UNL     1       5.033   9.793  14.102  1.00  0.00    -0.066 C 
HETATM    7  C23 UNL     1       4.108   9.676  15.093  1.00  0.00    -0.021 C 
HETATM    8  C24 UNL     1       3.350  10.841  15.689  1.00  0.00     0.052 C 
HETATM    9  C26 UNL     1       5.208  11.132  13.392  1.00  0.00     0.038 C 
HETATM   10  C27 UNL     1       4.927  10.982  11.903  1.00  0.00     0.042 C 
HETATM   11  C28 UNL     1       5.845   9.948  11.223  1.00  0.00     0.065 C 
HETATM   12  C29 UNL     1       7.278  10.525  11.132  1.00  0.00     0.047 C 
HETATM   13  C30 UNL     1       4.379   7.842  11.618  1.00  0.00     0.138 C 
ENDROOT
BRANCH   5  14
HETATM   14  C19 UNL     1       6.350   7.461  14.320  1.00  0.00     0.012 C 
BRANCH  14  15
HETATM   15  C20 UNL     1       7.802   7.407  14.828  1.00  0.00     0.027 C 
BRANCH  15  16
HETATM   16  C21 UNL     1       8.016   8.268  16.070  1.00  0.00     0.164 C 
BRANCH  16  17
HETATM   17  O1  UNL     1       8.909   7.656  16.990  1.00  0.00    -0.401 OA
HETATM   18  H32 UNL     1       9.769   7.572  16.548  1.00  0.00     0.209 HD
ENDBRANCH  16  17
ENDBRANCH  15  16
ENDBRANCH  14  15
ENDBRANCH   5  14
BRANCH  11  19
HETATM   19  O3  UNL     1       5.393   9.813   9.863  1.00  0.00    -0.389 OA
HETATM   20  H44 UNL     1       5.406  10.697   9.454  1.00  0.00     0.210 HD
ENDBRANCH  11  19
BRANCH  13  21
HETATM   21  O4  UNL     1       3.814   7.207  12.763  1.00  0.00    -0.394 OA
HETATM   22  H46 UNL     1       3.063   6.668  12.453  1.00  0.00     0.210 HD
ENDBRANCH  13  21
BRANCH   1  23
HETATM   23  C2  UNL     1       3.601   5.757  10.238  1.00  0.00    -0.061 C 
HETATM   24  C1  UNL     1       3.808   4.665   9.479  1.00  0.00     0.019 C 
BRANCH  23  25
HETATM   25  C3  UNL     1       2.266   5.951  10.802  1.00  0.00     0.007 C 
HETATM   26  C4  UNL     1       1.421   5.000  11.233  1.00  0.00     0.001 C 
BRANCH  26  27
HETATM   27  C5  UNL     1       0.088   5.310  11.716  1.00  0.00     0.002 C 
HETATM   28  C6  UNL     1      -0.940   4.450  11.848  1.00  0.00    -0.084 C 
HETATM   29  C7  UNL     1      -0.870   2.970  11.571  1.00  0.00     0.043 C 
BRANCH  28  30
HETATM   30  C8  UNL     1      -2.294   4.953  12.318  1.00  0.00     0.037 C 
BRANCH  30  31
HETATM   31  C9  UNL     1      -3.360   3.854  12.334  1.00  0.00     0.031 C 
BRANCH  31  32
HETATM   32  C10 UNL     1      -4.729   4.404  12.635  1.00  0.00    -0.024 C 
HETATM   33  C11 UNL     1      -5.913   3.820  12.368  1.00  0.00    -0.091 C 
HETATM   34  C12 UNL     1      -6.078   2.457  11.753  1.00  0.00     0.042 C 
HETATM   35  C13 UNL     1      -7.207   4.514  12.694  1.00  0.00     0.042 C 
ENDBRANCH  31  32
ENDBRANCH  30  31
ENDBRANCH  28  30
ENDBRANCH  26  27
ENDBRANCH  23  25
ENDBRANCH   1  23
BRANCH   7  36
HETATM   36  C25 UNL     1       3.694   8.382  15.714  1.00  0.00     0.265 C 
HETATM   37  O2  UNL     1       2.730   8.275  16.468  1.00  0.00    -0.302 OA
ENDBRANCH   7  36
TORSDOF 13
ENDMDL
MODEL 7
REMARK minimizedAffinity -7.75953388
REMARK  13 active torsions:
REMARK  status: ('A' for Active; 'I' for Inactive)
REMARK    1  A    between atoms: C2_2  and  C3_3 
REMARK    2  A    between atoms: C2_2  and  C14_14 
REMARK    3  A    between atoms: C4_4  and  C5_5 
REMARK    4  A    between atoms: C6_6  and  C8_8 
REMARK    5  A    between atoms: C8_8  and  C9_9 
REMARK    6  A    between atoms: C9_9  and  C10_10 
REMARK    7  A    between atoms: C18_18  and  C19_19 
REMARK    8  A    between atoms: C19_19  and  C20_20 
REMARK    9  A    between atoms: C20_20  and  C21_21 
REMARK   10  A    between atoms: C21_21  and  O1_22 
REMARK   11  A    between atoms: C23_24  and  C25_26 
REMARK   12  A    between atoms: C28_30  and  O3_32 
REMARK   13  A    between atoms: C30_33  and  O4_34 
ROOT
HETATM    1  C14 UNL     1      -3.162   8.526  14.144  1.00  0.00     0.047 C 
HETATM    2  C15 UNL     1      -2.611   7.729  15.334  1.00  0.00     0.013 C 
HETATM    3  C16 UNL     1      -3.780   6.808  15.667  1.00  0.00     0.017 C 
HETATM    4  C17 UNL     1      -4.388   6.353  14.296  1.00  0.00     0.024 C 
HETATM    5  C18 UNL     1      -4.077   4.827  13.967  1.00  0.00     0.029 C 
HETATM    6  C22 UNL     1      -4.784   4.389  12.650  1.00  0.00    -0.066 C 
HETATM    7  C23 UNL     1      -4.270   3.911  11.484  1.00  0.00    -0.021 C 
HETATM    8  C24 UNL     1      -5.105   3.347  10.357  1.00  0.00     0.052 C 
HETATM    9  C26 UNL     1      -6.293   4.558  12.793  1.00  0.00     0.038 C 
HETATM   10  C27 UNL     1      -6.637   6.016  13.072  1.00  0.00     0.042 C 
HETATM   11  C28 UNL     1      -5.965   6.554  14.350  1.00  0.00     0.065 C 
HETATM   12  C29 UNL     1      -6.641   5.914  15.586  1.00  0.00     0.047 C 
HETATM   13  C30 UNL     1      -3.750   7.379  13.277  1.00  0.00     0.138 C 
ENDROOT
BRANCH   5  14
HETATM   14  C19 UNL     1      -2.619   4.358  14.241  1.00  0.00     0.012 C 
BRANCH  14  15
HETATM   15  C20 UNL     1      -1.574   5.035  13.335  1.00  0.00     0.027 C 
BRANCH  15  16
HETATM   16  C21 UNL     1      -0.239   5.247  14.044  1.00  0.00     0.164 C 
BRANCH  16  17
HETATM   17  O1  UNL     1      -0.416   5.603  15.408  1.00  0.00    -0.401 OA
HETATM   18  H32 UNL     1      -0.858   4.859  15.847  1.00  0.00     0.209 HD
ENDBRANCH  16  17
ENDBRANCH  15  16
ENDBRANCH  14  15
ENDBRANCH   5  14
BRANCH  11  19
HETATM   19  O3  UNL     1      -6.267   7.959  14.426  1.00  0.00    -0.389 OA
HETATM   20  H44 UNL     1      -7.236   8.058  14.404  1.00  0.00     0.210 HD
ENDBRANCH  11  19
BRANCH  13  21
HETATM   21  O4  UNL     1      -2.724   6.777  12.491  1.00  0.00    -0.394 OA
HETATM   22  H46 UNL     1      -2.269   7.493  12.011  1.00  0.00     0.210 HD
ENDBRANCH  13  21
BRANCH   1  23
HETATM   23  C2  UNL     1      -2.206   9.488  13.440  1.00  0.00    -0.061 C 
HETATM   24  C1  UNL     1      -1.799  10.647  13.990  1.00  0.00     0.019 C 
BRANCH  23  25
HETATM   25  C3  UNL     1      -1.710   9.157  12.104  1.00  0.00     0.007 C 
HETATM   26  C4  UNL     1      -0.453   8.833  11.762  1.00  0.00     0.001 C 
BRANCH  26  27
HETATM   27  C5  UNL     1      -0.065   8.587  10.386  1.00  0.00     0.002 C 
HETATM   28  C6  UNL     1       0.451   7.447   9.887  1.00  0.00    -0.084 C 
HETATM   29  C7  UNL     1       0.663   6.179  10.672  1.00  0.00     0.043 C 
BRANCH  28  30
HETATM   30  C8  UNL     1       0.858   7.375   8.425  1.00  0.00     0.037 C 
BRANCH  30  31
HETATM   31  C9  UNL     1       2.321   6.963   8.239  1.00  0.00     0.031 C 
BRANCH  31  32
HETATM   32  C10 UNL     1       3.269   7.989   8.805  1.00  0.00    -0.024 C 
HETATM   33  C11 UNL     1       4.136   7.817   9.821  1.00  0.00    -0.091 C 
HETATM   34  C12 UNL     1       4.352   6.522  10.555  1.00  0.00     0.042 C 
HETATM   35  C13 UNL     1       4.995   8.953  10.302  1.00  0.00     0.042 C 
ENDBRANCH  31  32
ENDBRANCH  30  31
ENDBRANCH  28  30
ENDBRANCH  26  27
ENDBRANCH  23  25
ENDBRANCH   1  23
BRANCH   7  36
HETATM   36  C25 UNL     1      -2.816   3.898  11.144  1.00  0.00     0.265 C 
HETATM   37  O2  UNL     1      -2.341   3.206  10.247  1.00  0.00    -0.302 OA
ENDBRANCH   7  36
TORSDOF 13
ENDMDL
MODEL 8
REMARK minimizedAffinity -7.49050713
REMARK  13 active torsions:
REMARK  status: ('A' for Active; 'I' for Inactive)
REMARK    1  A    between atoms: C2_2  and  C3_3 
REMARK    2  A    between atoms: C2_2  and  C14_14 
REMARK    3  A    between atoms: C4_4  and  C5_5 
REMARK    4  A    between atoms: C6_6  and  C8_8 
REMARK    5  A    between atoms: C8_8  and  C9_9 
REMARK    6  A    between atoms: C9_9  and  C10_10 
REMARK    7  A    between atoms: C18_18  and  C19_19 
REMARK    8  A    between atoms: C19_19  and  C20_20 
REMARK    9  A    between atoms: C20_20  and  C21_21 
REMARK   10  A    between atoms: C21_21  and  O1_22 
REMARK   11  A    between atoms: C23_24  and  C25_26 
REMARK   12  A    between atoms: C28_30  and  O3_32 
REMARK   13  A    between atoms: C30_33  and  O4_34 
ROOT
HETATM    1  C14 UNL     1      -0.061   7.864  12.154  1.00  0.00     0.047 C 
HETATM    2  C15 UNL     1       0.418   6.718  13.054  1.00  0.00     0.013 C 
HETATM    3  C16 UNL     1       1.588   6.155  12.255  1.00  0.00     0.017 C 
HETATM    4  C17 UNL     1       2.340   7.387  11.644  1.00  0.00     0.024 C 
HETATM    5  C18 UNL     1       3.744   7.654  12.346  1.00  0.00     0.029 C 
HETATM    6  C22 UNL     1       4.501   8.820  11.644  1.00  0.00    -0.066 C 
HETATM    7  C23 UNL     1       4.938  10.014  12.129  1.00  0.00    -0.021 C 
HETATM    8  C24 UNL     1       5.831  10.965  11.364  1.00  0.00     0.052 C 
HETATM    9  C26 UNL     1       4.747   8.468  10.180  1.00  0.00     0.038 C 
HETATM   10  C27 UNL     1       3.423   8.240   9.461  1.00  0.00     0.042 C 
HETATM   11  C28 UNL     1       2.584   7.115  10.096  1.00  0.00     0.065 C 
HETATM   12  C29 UNL     1       3.251   5.752   9.793  1.00  0.00     0.047 C 
HETATM   13  C30 UNL     1       1.291   8.556  11.826  1.00  0.00     0.138 C 
ENDROOT
BRANCH   5  14
HETATM   14  C19 UNL     1       3.752   7.566  13.900  1.00  0.00     0.012 C 
BRANCH  14  15
HETATM   15  C20 UNL     1       2.345   7.485  14.520  1.00  0.00     0.027 C 
BRANCH  15  16
HETATM   16  C21 UNL     1       2.350   7.790  16.014  1.00  0.00     0.164 C 
BRANCH  16  17
HETATM   17  O1  UNL     1       1.382   7.020  16.714  1.00  0.00    -0.401 OA
HETATM   18  H32 UNL     1       1.626   6.086  16.612  1.00  0.00     0.209 HD
ENDBRANCH  16  17
ENDBRANCH  15  16
ENDBRANCH  14  15
ENDBRANCH   5  14
BRANCH  11  19
HETATM   19  O3  UNL     1       1.320   7.091   9.409  1.00  0.00    -0.389 OA
HETATM   20  H44 UNL     1       1.500   6.976   8.458  1.00  0.00     0.210 HD
ENDBRANCH  11  19
BRANCH  13  21
HETATM   21  O4  UNL     1       1.663   9.442  12.880  1.00  0.00    -0.394 OA
HETATM   22  H46 UNL     1       0.904  10.031  13.044  1.00  0.00     0.210 HD
ENDBRANCH  13  21
BRANCH   1  23
HETATM   23  C2  UNL     1      -1.171   8.765  12.694  1.00  0.00    -0.061 C 
HETATM   24  C1  UNL     1      -0.927   9.947  13.291  1.00  0.00     0.019 C 
BRANCH  23  25
HETATM   25  C3  UNL     1      -2.564   8.336  12.578  1.00  0.00     0.007 C 
HETATM   26  C4  UNL     1      -3.228   7.505  13.398  1.00  0.00     0.001 C 
BRANCH  26  27
HETATM   27  C5  UNL     1      -4.598   7.099  13.144  1.00  0.00     0.002 C 
HETATM   28  C6  UNL     1      -5.470   6.606  14.044  1.00  0.00    -0.084 C 
HETATM   29  C7  UNL     1      -5.195   6.443  15.516  1.00  0.00     0.043 C 
BRANCH  28  30
HETATM   30  C8  UNL     1      -6.857   6.173  13.596  1.00  0.00     0.037 C 
BRANCH  30  31
HETATM   31  C9  UNL     1      -7.040   4.653  13.628  1.00  0.00     0.031 C 
BRANCH  31  32
HETATM   32  C10 UNL     1      -6.738   4.024  12.294  1.00  0.00    -0.024 C 
HETATM   33  C11 UNL     1      -5.556   3.529  11.880  1.00  0.00    -0.091 C 
HETATM   34  C12 UNL     1      -4.309   3.470  12.720  1.00  0.00     0.042 C 
HETATM   35  C13 UNL     1      -5.398   2.963  10.496  1.00  0.00     0.042 C 
ENDBRANCH  31  32
ENDBRANCH  30  31
ENDBRANCH  28  30
ENDBRANCH  26  27
ENDBRANCH  23  25
ENDBRANCH   1  23
BRANCH   7  36
HETATM   36  C25 UNL     1       4.579  10.563  13.470  1.00  0.00     0.265 C 
HETATM   37  O2  UNL     1       5.414  10.847  14.326  1.00  0.00    -0.302 OA
ENDBRANCH   7  36
TORSDOF 13
ENDMDL
MODEL 9
REMARK minimizedAffinity -7.43877125
REMARK  13 active torsions:
REMARK  status: ('A' for Active; 'I' for Inactive)
REMARK    1  A    between atoms: C2_2  and  C3_3 
REMARK    2  A    between atoms: C2_2  and  C14_14 
REMARK    3  A    between atoms: C4_4  and  C5_5 
REMARK    4  A    between atoms: C6_6  and  C8_8 
REMARK    5  A    between atoms: C8_8  and  C9_9 
REMARK    6  A    between atoms: C9_9  and  C10_10 
REMARK    7  A    between atoms: C18_18  and  C19_19 
REMARK    8  A    between atoms: C19_19  and  C20_20 
REMARK    9  A    between atoms: C20_20  and  C21_21 
REMARK   10  A    between atoms: C21_21  and  O1_22 
REMARK   11  A    between atoms: C23_24  and  C25_26 
REMARK   12  A    between atoms: C28_30  and  O3_32 
REMARK   13  A    between atoms: C30_33  and  O4_34 
ROOT
HETATM    1  C14 UNL     1      -1.548   8.118  14.560  1.00  0.00     0.047 C 
HETATM    2  C15 UNL     1      -1.379   9.332  13.639  1.00  0.00     0.013 C 
HETATM    3  C16 UNL     1      -2.118  10.421  14.409  1.00  0.00     0.017 C 
HETATM    4  C17 UNL     1      -1.774  10.202  15.922  1.00  0.00     0.024 C 
HETATM    5  C18 UNL     1      -0.794  11.319  16.493  1.00  0.00     0.029 C 
HETATM    6  C22 UNL     1      -0.560  11.124  18.020  1.00  0.00    -0.066 C 
HETATM    7  C23 UNL     1       0.584  10.900  18.721  1.00  0.00    -0.021 C 
HETATM    8  C24 UNL     1       0.673  10.922  20.231  1.00  0.00     0.052 C 
HETATM    9  C26 UNL     1      -1.890  11.216  18.762  1.00  0.00     0.038 C 
HETATM   10  C27 UNL     1      -2.846  10.137  18.271  1.00  0.00     0.042 C 
HETATM   11  C28 UNL     1      -3.127  10.231  16.759  1.00  0.00     0.065 C 
HETATM   12  C29 UNL     1      -4.012  11.470  16.483  1.00  0.00     0.047 C 
HETATM   13  C30 UNL     1      -1.168   8.742  15.931  1.00  0.00     0.138 C 
ENDROOT
BRANCH   5  14
HETATM   14  C19 UNL     1       0.408  11.696  15.580  1.00  0.00     0.012 C 
BRANCH  14  15
HETATM   15  C20 UNL     1       0.486  13.199  15.255  1.00  0.00     0.027 C 
BRANCH  15  16
HETATM   16  C21 UNL     1      -0.877  13.791  14.911  1.00  0.00     0.164 C 
BRANCH  16  17
HETATM   17  O1  UNL     1      -1.121  13.779  13.511  1.00  0.00    -0.401 OA
HETATM   18  H32 UNL     1      -1.132  12.851  13.227  1.00  0.00     0.209 HD
ENDBRANCH  16  17
ENDBRANCH  15  16
ENDBRANCH  14  15
ENDBRANCH   5  14
BRANCH  11  19
HETATM   19  O3  UNL     1      -3.932   9.091  16.407  1.00  0.00    -0.389 OA
HETATM   20  H44 UNL     1      -4.728   9.103  16.969  1.00  0.00     0.210 HD
ENDBRANCH  11  19
BRANCH  13  21
HETATM   21  O4  UNL     1       0.249   8.758  16.092  1.00  0.00    -0.394 OA
HETATM   22  H46 UNL     1       0.569   7.852  15.925  1.00  0.00     0.210 HD
ENDBRANCH  13  21
BRANCH   1  23
HETATM   23  C2  UNL     1      -0.816   6.834  14.173  1.00  0.00    -0.061 C 
HETATM   24  C1  UNL     1      -1.104   5.636  14.715  1.00  0.00     0.019 C 
BRANCH  23  25
HETATM   25  C3  UNL     1       0.256   6.891  13.180  1.00  0.00     0.007 C 
HETATM   26  C4  UNL     1       1.578   6.831  13.408  1.00  0.00     0.001 C 
BRANCH  26  27
HETATM   27  C5  UNL     1       2.555   6.964  12.342  1.00  0.00     0.002 C 
HETATM   28  C6  UNL     1       2.695   6.154  11.275  1.00  0.00    -0.084 C 
HETATM   29  C7  UNL     1       1.808   4.978  10.959  1.00  0.00     0.043 C 
BRANCH  28  30
HETATM   30  C8  UNL     1       3.812   6.405  10.276  1.00  0.00     0.037 C 
BRANCH  30  31
HETATM   31  C9  UNL     1       3.614   7.700   9.482  1.00  0.00     0.031 C 
BRANCH  31  32
HETATM   32  C10 UNL     1       2.158   8.064   9.358  1.00  0.00    -0.024 C 
HETATM   33  C11 UNL     1       1.373   7.910   8.275  1.00  0.00    -0.091 C 
HETATM   34  C12 UNL     1       1.812   7.282   6.980  1.00  0.00     0.042 C 
HETATM   35  C13 UNL     1      -0.061   8.360   8.291  1.00  0.00     0.042 C 
ENDBRANCH  31  32
ENDBRANCH  30  31
ENDBRANCH  28  30
ENDBRANCH  26  27
ENDBRANCH  23  25
ENDBRANCH   1  23
BRANCH   7  36
HETATM   36  C25 UNL     1       1.905  10.581  18.102  1.00  0.00     0.265 C 
HETATM   37  O2  UNL     1       2.283   9.435  17.875  1.00  0.00    -0.302 OA
ENDBRANCH   7  36
TORSDOF 13
ENDMDL
