MODEL 1
REMARK minimizedAffinity -11.0225153
REMARK  1 active torsions:
REMARK  status: ('A' for Active; 'I' for Inactive)
REMARK    1  A    between atoms: C22_26  and  O5_27 
ROOT
HETATM    1  C1  UNL     1       1.244  52.196 -16.303  1.00  0.00     0.014 C 
HETATM    2  C2  UNL     1       0.604  51.198 -16.936  1.00  0.00    -0.085 C 
HETATM    3  C3  UNL     1       0.068  50.022 -16.143  1.00  0.00     0.035 C 
HETATM    4  C4  UNL     1      -1.439  49.870 -16.353  1.00  0.00     0.025 C 
HETATM    5  C5  UNL     1      -1.799  49.811 -17.839  1.00  0.00     0.055 C 
HETATM    6  C6  UNL     1      -1.449  48.451 -18.486  1.00  0.00     0.021 C 
HETATM    7  C7  UNL     1      -1.965  48.307 -19.933  1.00  0.00     0.014 C 
HETATM    8  C8  UNL     1      -1.738  49.586 -20.804  1.00  0.00    -0.001 C 
HETATM    9  C9  UNL     1      -0.242  49.509 -21.244  1.00  0.00     0.019 C 
HETATM   10  C10 UNL     1      -2.011  50.879 -19.915  1.00  0.00     0.112 C 
HETATM   11  O1  UNL     1      -3.349  50.706 -19.318  1.00  0.00    -0.305 OA
HETATM   12  C11 UNL     1      -3.257  50.073 -18.104  1.00  0.00     0.269 C 
HETATM   13  O2  UNL     1      -4.207  49.753 -17.414  1.00  0.00    -0.264 OA
HETATM   14  C12 UNL     1      -1.217  51.017 -18.603  1.00  0.00     0.050 C 
HETATM   15  C13 UNL     1       0.314  51.132 -18.446  1.00  0.00     0.018 C 
HETATM   16  C14 UNL     1       0.911  52.297 -19.238  1.00  0.00     0.015 C 
HETATM   17  C15 UNL     1      -2.126  52.156 -20.704  1.00  0.00     0.187 A 
HETATM   18  O3  UNL     1      -1.114  52.491 -21.647  1.00  0.00    -0.372 OA
HETATM   19  C16 UNL     1      -2.388  52.119 -22.200  1.00  0.00     0.160 A 
HETATM   20  C17 UNL     1      -2.314  50.835 -23.006  1.00  0.00     0.035 C 
HETATM   21  C18 UNL     1      -2.950  50.930 -24.444  1.00  0.00    -0.023 C 
HETATM   22  C19 UNL     1      -4.463  51.280 -24.424  1.00  0.00     0.016 C 
HETATM   23  C20 UNL     1      -2.217  52.044 -25.245  1.00  0.00     0.096 C 
HETATM   24  C21 UNL     1      -2.558  52.031 -26.718  1.00  0.00     0.183 C 
HETATM   25  O4  UNL     1      -2.439  53.026 -27.435  1.00  0.00    -0.290 OA
HETATM   26  C22 UNL     1      -3.024  50.761 -27.352  1.00  0.00     0.114 C 
HETATM   27  C23 UNL     1      -3.086  49.614 -26.650  1.00  0.00    -0.042 C 
HETATM   28  C24 UNL     1      -3.493  48.322 -27.309  1.00  0.00     0.047 C 
HETATM   29  C25 UNL     1      -2.668  49.574 -25.181  1.00  0.00     0.026 C 
HETATM   30  C26 UNL     1      -3.196  48.370 -24.373  1.00  0.00     0.011 C 
HETATM   31  C27 UNL     1      -2.579  48.301 -22.968  1.00  0.00     0.011 C 
HETATM   32  C28 UNL     1      -2.724  49.601 -22.122  1.00  0.00    -0.027 C 
HETATM   33  C29 UNL     1      -4.226  49.688 -21.714  1.00  0.00     0.016 C 
ENDROOT
BRANCH  26  34
HETATM   34  O5  UNL     1      -3.355  50.827 -28.692  1.00  0.00    -0.357 OA
HETATM   35  H27 UNL     1      -3.179  51.758 -28.949  1.00  0.00     0.218 HD
ENDBRANCH  26  34
TORSDOF 1
ENDMDL
MODEL 2
REMARK minimizedAffinity -10.9150629
REMARK  1 active torsions:
REMARK  status: ('A' for Active; 'I' for Inactive)
REMARK    1  A    between atoms: C22_26  and  O5_27 
ROOT
HETATM    1  C1  UNL     1       0.678  53.796 -23.789  1.00  0.00     0.014 C 
HETATM    2  C2  UNL     1       0.326  52.673 -23.139  1.00  0.00    -0.085 C 
HETATM    3  C3  UNL     1       1.150  52.191 -21.962  1.00  0.00     0.035 C 
HETATM    4  C4  UNL     1       0.286  52.076 -20.706  1.00  0.00     0.025 C 
HETATM    5  C5  UNL     1      -0.963  51.228 -20.956  1.00  0.00     0.055 C 
HETATM    6  C6  UNL     1      -0.653  49.715 -21.029  1.00  0.00     0.021 C 
HETATM    7  C7  UNL     1      -1.917  48.831 -21.102  1.00  0.00     0.014 C 
HETATM    8  C8  UNL     1      -3.005  49.381 -22.082  1.00  0.00    -0.001 C 
HETATM    9  C9  UNL     1      -2.520  48.945 -23.501  1.00  0.00     0.019 C 
HETATM   10  C10 UNL     1      -3.066  50.967 -21.957  1.00  0.00     0.112 C 
HETATM   11  O1  UNL     1      -3.243  51.271 -20.525  1.00  0.00    -0.305 OA
HETATM   12  C11 UNL     1      -2.027  51.420 -19.909  1.00  0.00     0.269 C 
HETATM   13  O2  UNL     1      -1.870  51.621 -18.720  1.00  0.00    -0.264 OA
HETATM   14  C12 UNL     1      -1.756  51.747 -22.172  1.00  0.00     0.050 C 
HETATM   15  C13 UNL     1      -0.901  51.800 -23.456  1.00  0.00     0.018 C 
HETATM   16  C14 UNL     1      -1.689  52.268 -24.681  1.00  0.00     0.015 C 
HETATM   17  C15 UNL     1      -4.269  51.590 -22.614  1.00  0.00     0.187 A 
HETATM   18  O3  UNL     1      -4.587  51.253 -23.960  1.00  0.00    -0.372 OA
HETATM   19  C16 UNL     1      -5.485  50.746 -22.959  1.00  0.00     0.160 A 
HETATM   20  C17 UNL     1      -5.469  49.230 -22.885  1.00  0.00     0.035 C 
HETATM   21  C18 UNL     1      -6.892  48.559 -22.935  1.00  0.00    -0.023 C 
HETATM   22  C19 UNL     1      -7.815  48.988 -21.761  1.00  0.00     0.016 C 
HETATM   23  C20 UNL     1      -7.595  48.969 -24.262  1.00  0.00     0.096 C 
HETATM   24  C21 UNL     1      -8.844  48.164 -24.539  1.00  0.00     0.183 C 
HETATM   25  O4  UNL     1      -9.749  48.574 -25.269  1.00  0.00    -0.290 OA
HETATM   26  C22 UNL     1      -8.987  46.801 -23.944  1.00  0.00     0.114 C 
HETATM   27  C23 UNL     1      -7.997  46.253 -23.215  1.00  0.00    -0.042 C 
HETATM   28  C24 UNL     1      -8.117  44.853 -22.672  1.00  0.00     0.047 C 
HETATM   29  C25 UNL     1      -6.687  47.005 -22.987  1.00  0.00     0.026 C 
HETATM   30  C26 UNL     1      -5.834  46.507 -21.801  1.00  0.00     0.011 C 
HETATM   31  C27 UNL     1      -4.455  47.183 -21.755  1.00  0.00     0.011 C 
HETATM   32  C28 UNL     1      -4.486  48.740 -21.759  1.00  0.00    -0.027 C 
HETATM   33  C29 UNL     1      -5.001  49.167 -20.352  1.00  0.00     0.016 C 
ENDROOT
BRANCH  26  34
HETATM   34  O5  UNL     1     -10.169  46.135 -24.206  1.00  0.00    -0.357 OA
HETATM   35  H27 UNL     1     -10.680  46.745 -24.782  1.00  0.00     0.218 HD
ENDBRANCH  26  34
TORSDOF 1
ENDMDL
MODEL 3
REMARK minimizedAffinity -10.7886314
REMARK  1 active torsions:
REMARK  status: ('A' for Active; 'I' for Inactive)
REMARK    1  A    between atoms: C22_26  and  O5_27 
ROOT
HETATM    1  C1  UNL     1      -2.718  47.443 -15.525  1.00  0.00     0.014 C 
HETATM    2  C2  UNL     1      -3.074  47.249 -16.807  1.00  0.00    -0.085 C 
HETATM    3  C3  UNL     1      -4.231  46.326 -17.138  1.00  0.00     0.035 C 
HETATM    4  C4  UNL     1      -5.308  47.071 -17.926  1.00  0.00     0.025 C 
HETATM    5  C5  UNL     1      -4.726  47.773 -19.155  1.00  0.00     0.055 C 
HETATM    6  C6  UNL     1      -4.392  46.792 -20.302  1.00  0.00     0.021 C 
HETATM    7  C7  UNL     1      -3.972  47.495 -21.610  1.00  0.00     0.014 C 
HETATM    8  C8  UNL     1      -2.984  48.687 -21.386  1.00  0.00    -0.001 C 
HETATM    9  C9  UNL     1      -1.587  48.016 -21.203  1.00  0.00     0.019 C 
HETATM   10  C10 UNL     1      -3.417  49.484 -20.078  1.00  0.00     0.112 C 
HETATM   11  O1  UNL     1      -4.843  49.822 -20.240  1.00  0.00    -0.305 OA
HETATM   12  C11 UNL     1      -5.636  48.832 -19.717  1.00  0.00     0.269 C 
HETATM   13  O2  UNL     1      -6.851  48.819 -19.760  1.00  0.00    -0.264 OA
HETATM   14  C12 UNL     1      -3.543  48.683 -18.769  1.00  0.00     0.050 C 
HETATM   15  C13 UNL     1      -2.424  47.918 -18.031  1.00  0.00     0.018 C 
HETATM   16  C14 UNL     1      -1.223  48.799 -17.684  1.00  0.00     0.015 C 
HETATM   17  C15 UNL     1      -2.742  50.821 -19.920  1.00  0.00     0.187 A 
HETATM   18  O3  UNL     1      -1.325  50.908 -20.027  1.00  0.00    -0.372 OA
HETATM   19  C16 UNL     1      -2.072  51.493 -21.107  1.00  0.00     0.160 A 
HETATM   20  C17 UNL     1      -1.840  50.774 -22.424  1.00  0.00     0.035 C 
HETATM   21  C18 UNL     1      -1.464  51.718 -23.626  1.00  0.00    -0.023 C 
HETATM   22  C19 UNL     1      -2.563  52.765 -23.952  1.00  0.00     0.016 C 
HETATM   23  C20 UNL     1      -0.164  52.495 -23.266  1.00  0.00     0.096 C 
HETATM   24  C21 UNL     1       0.437  53.217 -24.451  1.00  0.00     0.183 C 
HETATM   25  O4  UNL     1       1.186  54.189 -24.326  1.00  0.00    -0.290 OA
HETATM   26  C22 UNL     1       0.153  52.724 -25.833  1.00  0.00     0.114 C 
HETATM   27  C23 UNL     1      -0.578  51.612 -26.038  1.00  0.00    -0.042 C 
HETATM   28  C24 UNL     1      -0.807  51.081 -27.429  1.00  0.00     0.047 C 
HETATM   29  C25 UNL     1      -1.128  50.810 -24.860  1.00  0.00     0.026 C 
HETATM   30  C26 UNL     1      -2.294  49.856 -25.194  1.00  0.00     0.011 C 
HETATM   31  C27 UNL     1      -2.662  48.953 -24.007  1.00  0.00     0.011 C 
HETATM   32  C28 UNL     1      -2.968  49.707 -22.678  1.00  0.00    -0.027 C 
HETATM   33  C29 UNL     1      -4.349  50.400 -22.880  1.00  0.00     0.016 C 
ENDROOT
BRANCH  26  34
HETATM   34  O5  UNL     1       0.702  53.451 -26.871  1.00  0.00    -0.357 OA
HETATM   35  H27 UNL     1       1.207  54.171 -26.435  1.00  0.00     0.218 HD
ENDBRANCH  26  34
TORSDOF 1
ENDMDL
MODEL 4
REMARK minimizedAffinity -10.1123381
REMARK  1 active torsions:
REMARK  status: ('A' for Active; 'I' for Inactive)
REMARK    1  A    between atoms: C22_26  and  O5_27 
ROOT
HETATM    1  C1  UNL     1       1.562  52.214 -25.433  1.00  0.00     0.014 C 
HETATM    2  C2  UNL     1       0.221  52.133 -25.456  1.00  0.00    -0.085 C 
HETATM    3  C3  UNL     1      -0.531  52.407 -26.743  1.00  0.00     0.035 C 
HETATM    4  C4  UNL     1      -1.383  51.202 -27.140  1.00  0.00     0.025 C 
HETATM    5  C5  UNL     1      -2.292  50.750 -25.995  1.00  0.00     0.055 C 
HETATM    6  C6  UNL     1      -3.502  51.690 -25.787  1.00  0.00     0.021 C 
HETATM    7  C7  UNL     1      -4.523  51.159 -24.759  1.00  0.00     0.014 C 
HETATM    8  C8  UNL     1      -3.860  50.561 -23.475  1.00  0.00    -0.001 C 
HETATM    9  C9  UNL     1      -3.501  51.802 -22.598  1.00  0.00     0.019 C 
HETATM   10  C10 UNL     1      -2.553  49.752 -23.891  1.00  0.00     0.112 C 
HETATM   11  O1  UNL     1      -2.963  48.796 -24.937  1.00  0.00    -0.305 OA
HETATM   12  C11 UNL     1      -2.830  49.357 -26.181  1.00  0.00     0.269 C 
HETATM   13  O2  UNL     1      -3.146  48.817 -27.225  1.00  0.00    -0.264 OA
HETATM   14  C12 UNL     1      -1.484  50.503 -24.706  1.00  0.00     0.050 C 
HETATM   15  C13 UNL     1      -0.676  51.742 -24.267  1.00  0.00     0.018 C 
HETATM   16  C14 UNL     1       0.093  51.526 -22.962  1.00  0.00     0.015 C 
HETATM   17  C15 UNL     1      -1.996  48.879 -22.798  1.00  0.00     0.187 A 
HETATM   18  O3  UNL     1      -1.764  49.433 -21.507  1.00  0.00    -0.372 OA
HETATM   19  C16 UNL     1      -2.851  48.497 -21.602  1.00  0.00     0.160 A 
HETATM   20  C17 UNL     1      -4.196  49.146 -21.324  1.00  0.00     0.035 C 
HETATM   21  C18 UNL     1      -5.080  48.388 -20.264  1.00  0.00    -0.023 C 
HETATM   22  C19 UNL     1      -5.436  46.937 -20.686  1.00  0.00     0.016 C 
HETATM   23  C20 UNL     1      -4.297  48.310 -18.921  1.00  0.00     0.096 C 
HETATM   24  C21 UNL     1      -5.156  47.853 -17.764  1.00  0.00     0.183 C 
HETATM   25  O4  UNL     1      -4.683  47.335 -16.750  1.00  0.00    -0.290 OA
HETATM   26  C22 UNL     1      -6.634  48.063 -17.820  1.00  0.00     0.114 C 
HETATM   27  C23 UNL     1      -7.207  48.707 -18.854  1.00  0.00    -0.042 C 
HETATM   28  C24 UNL     1      -8.689  48.975 -18.876  1.00  0.00     0.047 C 
HETATM   29  C25 UNL     1      -6.358  49.257 -19.999  1.00  0.00     0.026 C 
HETATM   30  C26 UNL     1      -7.121  49.555 -21.307  1.00  0.00     0.011 C 
HETATM   31  C27 UNL     1      -6.241  50.279 -22.338  1.00  0.00     0.011 C 
HETATM   32  C28 UNL     1      -4.896  49.568 -22.668  1.00  0.00    -0.027 C 
HETATM   33  C29 UNL     1      -5.265  48.313 -23.516  1.00  0.00     0.016 C 
ENDROOT
BRANCH  26  34
HETATM   34  O5  UNL     1      -7.364  47.588 -16.748  1.00  0.00    -0.357 OA
HETATM   35  H27 UNL     1      -6.697  47.207 -16.137  1.00  0.00     0.218 HD
ENDBRANCH  26  34
TORSDOF 1
ENDMDL
MODEL 5
REMARK minimizedAffinity -9.70392704
REMARK  1 active torsions:
REMARK  status: ('A' for Active; 'I' for Inactive)
REMARK    1  A    between atoms: C22_26  and  O5_27 
ROOT
HETATM    1  C1  UNL     1       1.769  52.593 -21.396  1.00  0.00     0.014 C 
HETATM    2  C2  UNL     1       0.537  52.596 -21.934  1.00  0.00    -0.085 C 
HETATM    3  C3  UNL     1       0.274  53.363 -23.215  1.00  0.00     0.035 C 
HETATM    4  C4  UNL     1      -0.269  52.434 -24.300  1.00  0.00     0.025 C 
HETATM    5  C5  UNL     1      -1.484  51.643 -23.811  1.00  0.00     0.055 C 
HETATM    6  C6  UNL     1      -2.766  52.503 -23.734  1.00  0.00     0.021 C 
HETATM    7  C7  UNL     1      -4.037  51.686 -23.415  1.00  0.00     0.014 C 
HETATM    8  C8  UNL     1      -3.827  50.625 -22.286  1.00  0.00    -0.001 C 
HETATM    9  C9  UNL     1      -3.916  51.436 -20.955  1.00  0.00     0.019 C 
HETATM   10  C10 UNL     1      -2.391  49.957 -22.458  1.00  0.00     0.112 C 
HETATM   11  O1  UNL     1      -2.313  49.475 -23.850  1.00  0.00    -0.305 OA
HETATM   12  C11 UNL     1      -1.795  50.446 -24.668  1.00  0.00     0.269 C 
HETATM   13  O2  UNL     1      -1.667  50.344 -25.874  1.00  0.00    -0.264 OA
HETATM   14  C12 UNL     1      -1.172  50.897 -22.498  1.00  0.00     0.050 C 
HETATM   15  C13 UNL     1      -0.687  51.845 -21.381  1.00  0.00     0.018 C 
HETATM   16  C14 UNL     1      -0.420  51.124 -20.058  1.00  0.00     0.015 C 
HETATM   17  C15 UNL     1      -2.187  48.716 -21.631  1.00  0.00     0.187 A 
HETATM   18  O3  UNL     1      -2.482  48.745 -20.239  1.00  0.00    -0.372 OA
HETATM   19  C16 UNL     1      -3.376  47.968 -21.053  1.00  0.00     0.160 A 
HETATM   20  C17 UNL     1      -4.782  48.539 -21.071  1.00  0.00     0.035 C 
HETATM   21  C18 UNL     1      -5.916  47.493 -20.756  1.00  0.00    -0.023 C 
HETATM   22  C19 UNL     1      -5.968  46.319 -21.771  1.00  0.00     0.016 C 
HETATM   23  C20 UNL     1      -5.661  46.887 -19.345  1.00  0.00     0.096 C 
HETATM   24  C21 UNL     1      -6.834  46.083 -18.830  1.00  0.00     0.183 C 
HETATM   25  O4  UNL     1      -6.710  45.205 -17.973  1.00  0.00    -0.290 OA
HETATM   26  C22 UNL     1      -8.206  46.376 -19.341  1.00  0.00     0.114 C 
HETATM   27  C23 UNL     1      -8.426  47.384 -20.206  1.00  0.00    -0.042 C 
HETATM   28  C24 UNL     1      -9.820  47.718 -20.668  1.00  0.00     0.047 C 
HETATM   29  C25 UNL     1      -7.276  48.270 -20.681  1.00  0.00     0.026 C 
HETATM   30  C26 UNL     1      -7.544  49.067 -21.975  1.00  0.00     0.011 C 
HETATM   31  C27 UNL     1      -6.422  50.071 -22.279  1.00  0.00     0.011 C 
HETATM   32  C28 UNL     1      -4.989  49.461 -22.329  1.00  0.00    -0.027 C 
HETATM   33  C29 UNL     1      -4.919  48.627 -23.643  1.00  0.00     0.016 C 
ENDROOT
BRANCH  26  34
HETATM   34  O5  UNL     1      -9.227  45.580 -18.857  1.00  0.00    -0.357 OA
HETATM   35  H27 UNL     1      -8.791  44.967 -18.226  1.00  0.00     0.218 HD
ENDBRANCH  26  34
TORSDOF 1
ENDMDL
MODEL 6
REMARK minimizedAffinity -9.61356258
REMARK  1 active torsions:
REMARK  status: ('A' for Active; 'I' for Inactive)
REMARK    1  A    between atoms: C22_26  and  O5_27 
ROOT
HETATM    1  C1  UNL     1      -9.319  47.690 -20.499  1.00  0.00     0.014 C 
HETATM    2  C2  UNL     1      -8.081  48.065 -20.133  1.00  0.00    -0.085 C 
HETATM    3  C3  UNL     1      -7.473  47.519 -18.857  1.00  0.00     0.035 C 
HETATM    4  C4  UNL     1      -6.158  46.796 -19.149  1.00  0.00     0.025 C 
HETATM    5  C5  UNL     1      -5.195  47.677 -19.948  1.00  0.00     0.055 C 
HETATM    6  C6  UNL     1      -4.538  48.779 -19.085  1.00  0.00     0.021 C 
HETATM    7  C7  UNL     1      -3.433  49.563 -19.826  1.00  0.00     0.014 C 
HETATM    8  C8  UNL     1      -3.819  49.946 -21.292  1.00  0.00    -0.001 C 
HETATM    9  C9  UNL     1      -4.729  51.205 -21.149  1.00  0.00     0.019 C 
HETATM   10  C10 UNL     1      -4.611  48.735 -21.957  1.00  0.00     0.112 C 
HETATM   11  O1  UNL     1      -3.774  47.533 -21.778  1.00  0.00    -0.305 OA
HETATM   12  C11 UNL     1      -4.087  46.898 -20.604  1.00  0.00     0.269 C 
HETATM   13  O2  UNL     1      -3.519  45.911 -20.174  1.00  0.00    -0.264 OA
HETATM   14  C12 UNL     1      -5.865  48.222 -21.225  1.00  0.00     0.050 C 
HETATM   15  C13 UNL     1      -7.158  49.009 -20.924  1.00  0.00     0.018 C 
HETATM   16  C14 UNL     1      -7.808  49.596 -22.178  1.00  0.00     0.015 C 
HETATM   17  C15 UNL     1      -4.771  48.849 -23.449  1.00  0.00     0.187 A 
HETATM   18  O3  UNL     1      -5.281  50.054 -24.010  1.00  0.00    -0.372 OA
HETATM   19  C16 UNL     1      -3.889  49.791 -24.251  1.00  0.00     0.160 A 
HETATM   20  C17 UNL     1      -2.985  50.817 -23.592  1.00  0.00     0.035 C 
HETATM   21  C18 UNL     1      -1.905  51.447 -24.549  1.00  0.00    -0.023 C 
HETATM   22  C19 UNL     1      -0.923  50.399 -25.140  1.00  0.00     0.016 C 
HETATM   23  C20 UNL     1      -2.631  52.139 -25.738  1.00  0.00     0.096 C 
HETATM   24  C21 UNL     1      -1.710  53.008 -26.564  1.00  0.00     0.183 C 
HETATM   25  O4  UNL     1      -1.949  53.300 -27.738  1.00  0.00    -0.290 OA
HETATM   26  C22 UNL     1      -0.477  53.574 -25.937  1.00  0.00     0.114 C 
HETATM   27  C23 UNL     1      -0.205  53.374 -24.635  1.00  0.00    -0.042 C 
HETATM   28  C24 UNL     1       1.004  54.001 -23.990  1.00  0.00     0.047 C 
HETATM   29  C25 UNL     1      -1.158  52.572 -23.751  1.00  0.00     0.026 C 
HETATM   30  C26 UNL     1      -0.550  52.028 -22.441  1.00  0.00     0.011 C 
HETATM   31  C27 UNL     1      -1.612  51.402 -21.525  1.00  0.00     0.011 C 
HETATM   32  C28 UNL     1      -2.487  50.299 -22.193  1.00  0.00    -0.027 C 
HETATM   33  C29 UNL     1      -1.562  49.055 -22.362  1.00  0.00     0.016 C 
ENDROOT
BRANCH  26  34
HETATM   34  O5  UNL     1       0.339  54.329 -26.758  1.00  0.00    -0.357 OA
HETATM   35  H27 UNL     1      -0.116  54.339 -27.627  1.00  0.00     0.218 HD
ENDBRANCH  26  34
TORSDOF 1
ENDMDL
MODEL 7
REMARK minimizedAffinity -9.54395103
REMARK  1 active torsions:
REMARK  status: ('A' for Active; 'I' for Inactive)
REMARK    1  A    between atoms: C22_26  and  O5_27 
ROOT
HETATM    1  C1  UNL     1      -3.178  47.293 -15.933  1.00  0.00     0.014 C 
HETATM    2  C2  UNL     1      -3.725  47.032 -17.134  1.00  0.00    -0.085 C 
HETATM    3  C3  UNL     1      -4.901  46.082 -17.238  1.00  0.00     0.035 C 
HETATM    4  C4  UNL     1      -6.101  46.775 -17.883  1.00  0.00     0.025 C 
HETATM    5  C5  UNL     1      -5.729  47.423 -19.218  1.00  0.00     0.055 C 
HETATM    6  C6  UNL     1      -5.559  46.391 -20.356  1.00  0.00     0.021 C 
HETATM    7  C7  UNL     1      -5.359  47.034 -21.745  1.00  0.00     0.014 C 
HETATM    8  C8  UNL     1      -4.370  48.246 -21.733  1.00  0.00    -0.001 C 
HETATM    9  C9  UNL     1      -2.949  47.601 -21.738  1.00  0.00     0.019 C 
HETATM   10  C10 UNL     1      -4.610  49.102 -20.412  1.00  0.00     0.112 C 
HETATM   11  O1  UNL     1      -6.051  49.415 -20.366  1.00  0.00    -0.305 OA
HETATM   12  C11 UNL     1      -6.734  48.443 -19.681  1.00  0.00     0.269 C 
HETATM   13  O2  UNL     1      -7.942  48.415 -19.534  1.00  0.00    -0.264 OA
HETATM   14  C12 UNL     1      -4.518  48.364 -19.063  1.00  0.00     0.050 C 
HETATM   15  C13 UNL     1      -3.284  47.648 -18.473  1.00  0.00     0.018 C 
HETATM   16  C14 UNL     1      -2.060  48.558 -18.359  1.00  0.00     0.015 C 
HETATM   17  C15 UNL     1      -3.944  50.452 -20.424  1.00  0.00     0.187 A 
HETATM   18  O3  UNL     1      -2.562  50.549 -20.753  1.00  0.00    -0.372 OA
HETATM   19  C16 UNL     1      -3.478  51.072 -21.730  1.00  0.00     0.160 A 
HETATM   20  C17 UNL     1      -3.439  50.292 -23.032  1.00  0.00     0.035 C 
HETATM   21  C18 UNL     1      -3.271  51.181 -24.321  1.00  0.00    -0.023 C 
HETATM   22  C19 UNL     1      -4.427  52.199 -24.520  1.00  0.00     0.016 C 
HETATM   23  C20 UNL     1      -1.945  51.988 -24.204  1.00  0.00     0.096 C 
HETATM   24  C21 UNL     1      -1.548  52.658 -25.500  1.00  0.00     0.183 C 
HETATM   25  O4  UNL     1      -0.808  53.643 -25.538  1.00  0.00    -0.290 OA
HETATM   26  C22 UNL     1      -2.033  52.095 -26.796  1.00  0.00     0.114 C 
HETATM   27  C23 UNL     1      -2.766  50.967 -26.833  1.00  0.00    -0.042 C 
HETATM   28  C24 UNL     1      -3.198  50.366 -28.146  1.00  0.00     0.047 C 
HETATM   29  C25 UNL     1      -3.113  50.218 -25.548  1.00  0.00     0.026 C 
HETATM   30  C26 UNL     1      -4.299  49.236 -25.652  1.00  0.00     0.011 C 
HETATM   31  C27 UNL     1      -4.462  48.388 -24.382  1.00  0.00     0.011 C 
HETATM   32  C28 UNL     1      -4.573  49.202 -23.058  1.00  0.00    -0.027 C 
HETATM   33  C29 UNL     1      -5.981  49.869 -23.075  1.00  0.00     0.016 C 
ENDROOT
BRANCH  26  34
HETATM   34  O5  UNL     1      -1.665  52.777 -27.940  1.00  0.00    -0.357 OA
HETATM   35  H27 UNL     1      -1.112  53.523 -27.621  1.00  0.00     0.218 HD
ENDBRANCH  26  34
TORSDOF 1
ENDMDL
MODEL 8
REMARK minimizedAffinity -9.4724741
REMARK  1 active torsions:
REMARK  status: ('A' for Active; 'I' for Inactive)
REMARK    1  A    between atoms: C22_26  and  O5_27 
ROOT
HETATM    1  C1  UNL     1      -4.570  48.606 -27.749  1.00  0.00     0.014 C 
HETATM    2  C2  UNL     1      -4.137  48.440 -26.487  1.00  0.00    -0.085 C 
HETATM    3  C3  UNL     1      -2.673  48.648 -26.158  1.00  0.00     0.035 C 
HETATM    4  C4  UNL     1      -2.507  49.722 -25.083  1.00  0.00     0.025 C 
HETATM    5  C5  UNL     1      -3.366  49.427 -23.852  1.00  0.00     0.055 C 
HETATM    6  C6  UNL     1      -2.788  48.290 -22.978  1.00  0.00     0.021 C 
HETATM    7  C7  UNL     1      -3.539  48.097 -21.644  1.00  0.00     0.014 C 
HETATM    8  C8  UNL     1      -5.095  48.156 -21.792  1.00  0.00    -0.001 C 
HETATM    9  C9  UNL     1      -5.499  46.743 -22.317  1.00  0.00     0.019 C 
HETATM   10  C10 UNL     1      -5.477  49.291 -22.841  1.00  0.00     0.112 C 
HETATM   11  O1  UNL     1      -4.801  50.524 -22.395  1.00  0.00    -0.305 OA
HETATM   12  C11 UNL     1      -3.557  50.626 -22.963  1.00  0.00     0.269 C 
HETATM   13  O2  UNL     1      -2.758  51.513 -22.731  1.00  0.00    -0.264 OA
HETATM   14  C12 UNL     1      -4.841  49.205 -24.241  1.00  0.00     0.050 C 
HETATM   15  C13 UNL     1      -5.016  48.075 -25.278  1.00  0.00     0.018 C 
HETATM   16  C14 UNL     1      -6.479  47.812 -25.637  1.00  0.00     0.015 C 
HETATM   17  C15 UNL     1      -6.937  49.658 -22.848  1.00  0.00     0.187 A 
HETATM   18  O3  UNL     1      -7.917  48.631 -22.952  1.00  0.00    -0.372 OA
HETATM   19  C16 UNL     1      -7.832  49.288 -21.677  1.00  0.00     0.160 A 
HETATM   20  C17 UNL     1      -7.380  48.349 -20.573  1.00  0.00     0.035 C 
HETATM   21  C18 UNL     1      -8.291  48.365 -19.289  1.00  0.00    -0.023 C 
HETATM   22  C19 UNL     1      -8.360  49.755 -18.602  1.00  0.00     0.016 C 
HETATM   23  C20 UNL     1      -9.739  47.966 -19.697  1.00  0.00     0.096 C 
HETATM   24  C21 UNL     1     -10.627  47.680 -18.507  1.00  0.00     0.183 C 
HETATM   25  O4  UNL     1     -11.857  47.757 -18.564  1.00  0.00    -0.290 OA
HETATM   26  C22 UNL     1     -10.010  47.250 -17.216  1.00  0.00     0.114 C 
HETATM   27  C23 UNL     1      -8.682  47.053 -17.112  1.00  0.00    -0.042 C 
HETATM   28  C24 UNL     1      -8.071  46.557 -15.828  1.00  0.00     0.047 C 
HETATM   29  C25 UNL     1      -7.766  47.251 -18.318  1.00  0.00     0.026 C 
HETATM   30  C26 UNL     1      -6.271  47.445 -17.990  1.00  0.00     0.011 C 
HETATM   31  C27 UNL     1      -5.396  47.446 -19.253  1.00  0.00     0.011 C 
HETATM   32  C28 UNL     1      -5.827  48.464 -20.350  1.00  0.00    -0.027 C 
HETATM   33  C29 UNL     1      -5.450  49.875 -19.805  1.00  0.00     0.016 C 
ENDROOT
BRANCH  26  34
HETATM   34  O5  UNL     1     -10.875  47.041 -16.159  1.00  0.00    -0.357 OA
HETATM   35  H27 UNL     1     -11.768  47.218 -16.526  1.00  0.00     0.218 HD
ENDBRANCH  26  34
TORSDOF 1
ENDMDL
MODEL 9
REMARK minimizedAffinity -9.45199013
REMARK  1 active torsions:
REMARK  status: ('A' for Active; 'I' for Inactive)
REMARK    1  A    between atoms: C22_26  and  O5_27 
ROOT
HETATM    1  C1  UNL     1      -0.462  53.413 -24.701  1.00  0.00     0.014 C 
HETATM    2  C2  UNL     1      -0.393  52.455 -23.761  1.00  0.00    -0.085 C 
HETATM    3  C3  UNL     1       0.848  52.330 -22.900  1.00  0.00     0.035 C 
HETATM    4  C4  UNL     1       0.493  52.453 -21.418  1.00  0.00     0.025 C 
HETATM    5  C5  UNL     1      -0.618  51.479 -21.020  1.00  0.00     0.055 C 
HETATM    6  C6  UNL     1      -0.120  50.020 -20.905  1.00  0.00     0.021 C 
HETATM    7  C7  UNL     1      -1.179  49.052 -20.334  1.00  0.00     0.014 C 
HETATM    8  C8  UNL     1      -2.607  49.269 -20.933  1.00  0.00    -0.001 C 
HETATM    9  C9  UNL     1      -2.573  48.545 -22.316  1.00  0.00     0.019 C 
HETATM   10  C10 UNL     1      -2.869  50.830 -21.106  1.00  0.00     0.112 C 
HETATM   11  O1  UNL     1      -2.592  51.453 -19.799  1.00  0.00    -0.305 OA
HETATM   12  C11 UNL     1      -1.277  51.835 -19.715  1.00  0.00     0.269 C 
HETATM   13  O2  UNL     1      -0.757  52.325 -18.730  1.00  0.00    -0.264 OA
HETATM   14  C12 UNL     1      -1.848  51.632 -21.936  1.00  0.00     0.050 C 
HETATM   15  C13 UNL     1      -1.502  51.441 -23.428  1.00  0.00     0.018 C 
HETATM   16  C14 UNL     1      -2.723  51.543 -24.344  1.00  0.00     0.015 C 
HETATM   17  C15 UNL     1      -4.305  51.187 -21.383  1.00  0.00     0.187 A 
HETATM   18  O3  UNL     1      -5.006  50.516 -22.425  1.00  0.00    -0.372 OA
HETATM   19  C16 UNL     1      -5.418  50.196 -21.086  1.00  0.00     0.160 A 
HETATM   20  C17 UNL     1      -5.142  48.747 -20.729  1.00  0.00     0.035 C 
HETATM   21  C18 UNL     1      -6.374  47.979 -20.120  1.00  0.00    -0.023 C 
HETATM   22  C19 UNL     1      -6.896  48.604 -18.797  1.00  0.00     0.016 C 
HETATM   23  C20 UNL     1      -7.542  48.007 -21.148  1.00  0.00     0.096 C 
HETATM   24  C21 UNL     1      -8.669  47.067 -20.784  1.00  0.00     0.183 C 
HETATM   25  O4  UNL     1      -9.821  47.223 -21.196  1.00  0.00    -0.290 OA
HETATM   26  C22 UNL     1      -8.386  45.879 -19.924  1.00  0.00     0.114 C 
HETATM   27  C23 UNL     1      -7.134  45.596 -19.518  1.00  0.00    -0.042 C 
HETATM   28  C24 UNL     1      -6.843  44.362 -18.706  1.00  0.00     0.047 C 
HETATM   29  C25 UNL     1      -5.959  46.477 -19.939  1.00  0.00     0.026 C 
HETATM   30  C26 UNL     1      -4.687  46.341 -19.077  1.00  0.00     0.011 C 
HETATM   31  C27 UNL     1      -3.498  47.110 -19.674  1.00  0.00     0.011 C 
HETATM   32  C28 UNL     1      -3.770  48.615 -19.970  1.00  0.00    -0.027 C 
HETATM   33  C29 UNL     1      -3.835  49.325 -18.584  1.00  0.00     0.016 C 
ENDROOT
BRANCH  26  34
HETATM   34  O5  UNL     1      -9.468  45.083 -19.598  1.00  0.00    -0.357 OA
HETATM   35  H27 UNL     1     -10.232  45.498 -20.053  1.00  0.00     0.218 HD
ENDBRANCH  26  34
TORSDOF 1
ENDMDL
