MODEL 1
REMARK minimizedAffinity -7.84057903
REMARK CNNscore 0.543687642
REMARK CNNaffinity 6.7394371
REMARK  4 active torsions:
REMARK  status: ('A' for Active; 'I' for Inactive)
REMARK    1  A    between atoms: C4_4  and  C5_5 
REMARK    2  A    between atoms: C5_5  and  C6_6 
REMARK    3  A    between atoms: C6_6  and  C7_7 
REMARK    4  A    between atoms: C7_7  and  C9_9 
ROOT
HETATM    1  C9  UNL     1      -0.762  53.139  -9.518  1.00  0.00    -0.002 C 
HETATM    2  C10 UNL     1      -0.438  52.771 -10.988  1.00  0.00     0.010 C 
HETATM    3  C11 UNL     1       0.823  53.582 -11.387  1.00  0.00    -0.013 C 
HETATM    4  C12 UNL     1       1.878  52.634 -11.953  1.00  0.00     0.010 C 
HETATM    5  C13 UNL     1       1.225  54.308 -10.092  1.00  0.00     0.003 C 
HETATM    6  C14 UNL     1       2.090  55.591 -10.129  1.00  0.00    -0.000 C 
HETATM    7  C15 UNL     1       3.368  55.516 -10.953  1.00  0.00     0.006 C 
HETATM    8  C16 UNL     1       4.496  54.682 -10.356  1.00  0.00     0.006 C 
HETATM    9  C17 UNL     1       4.461  54.412  -8.836  1.00  0.00     0.003 C 
HETATM   10  C18 UNL     1       5.889  54.186  -8.217  1.00  0.00    -0.043 C 
HETATM   11  C19 UNL     1       6.786  55.438  -8.323  1.00  0.00     0.015 C 
HETATM   12  C20 UNL     1       6.609  53.025  -8.937  1.00  0.00     0.015 C 
HETATM   13  C21 UNL     1       5.741  53.785  -6.727  1.00  0.00     0.009 C 
HETATM   14  C22 UNL     1       4.920  54.784  -5.923  1.00  0.00     0.002 C 
HETATM   15  C23 UNL     1       3.539  54.982  -6.533  1.00  0.00     0.011 C 
HETATM   16  C24 UNL     1       3.620  55.389  -7.998  1.00  0.00    -0.027 A 
HETATM   17  C25 UNL     1       3.565  56.867  -8.321  1.00  0.00     0.021 A 
HETATM   18  C26 UNL     1       2.374  55.992  -8.670  1.00  0.00    -0.028 A 
HETATM   19  C27 UNL     1       1.091  56.225  -7.878  1.00  0.00     0.011 C 
HETATM   20  C28 UNL     1       0.165  54.999  -7.921  1.00  0.00     0.011 C 
HETATM   21  C29 UNL     1      -0.148  54.559  -9.367  1.00  0.00    -0.036 C 
HETATM   22  C30 UNL     1      -1.019  55.638 -10.052  1.00  0.00     0.016 C 
ENDROOT
BRANCH   1  23
HETATM   23  C7  UNL     1      -2.220  52.779  -9.107  1.00  0.00    -0.014 C 
HETATM   24  C8  UNL     1      -2.537  51.291  -8.932  1.00  0.00     0.010 C 
BRANCH  23  25
HETATM   25  C6  UNL     1      -3.257  53.455 -10.035  1.00  0.00     0.008 C 
BRANCH  25  26
HETATM   26  C5  UNL     1      -4.135  52.492 -10.851  1.00  0.00     0.028 C 
BRANCH  26  27
HETATM   27  C4  UNL     1      -3.698  52.377 -12.286  1.00  0.00    -0.025 C 
HETATM   28  C2  UNL     1      -3.266  51.279 -12.939  1.00  0.00    -0.091 C 
HETATM   29  C1  UNL     1      -3.097  49.914 -12.336  1.00  0.00     0.042 C 
HETATM   30  C3  UNL     1      -2.897  51.356 -14.398  1.00  0.00     0.042 C 
ENDBRANCH  26  27
ENDBRANCH  25  26
ENDBRANCH  23  25
ENDBRANCH   1  23
TORSDOF 4
ENDMDL
MODEL 2
REMARK minimizedAffinity -7.49666214
REMARK CNNscore 0.519623458
REMARK CNNaffinity 6.65336466
REMARK  4 active torsions:
REMARK  status: ('A' for Active; 'I' for Inactive)
REMARK    1  A    between atoms: C4_4  and  C5_5 
REMARK    2  A    between atoms: C5_5  and  C6_6 
REMARK    3  A    between atoms: C6_6  and  C7_7 
REMARK    4  A    between atoms: C7_7  and  C9_9 
ROOT
HETATM    1  C9  UNL     1       2.476  54.200  -9.296  1.00  0.00    -0.002 C 
HETATM    2  C10 UNL     1       2.694  53.459  -7.952  1.00  0.00     0.010 C 
HETATM    3  C11 UNL     1       1.301  52.971  -7.476  1.00  0.00    -0.013 C 
HETATM    4  C12 UNL     1       1.361  51.475  -7.176  1.00  0.00     0.010 C 
HETATM    5  C13 UNL     1       0.355  53.371  -8.621  1.00  0.00     0.003 C 
HETATM    6  C14 UNL     1      -1.164  53.547  -8.380  1.00  0.00    -0.000 C 
HETATM    7  C15 UNL     1      -1.869  52.400  -7.667  1.00  0.00     0.006 C 
HETATM    8  C16 UNL     1      -2.069  51.131  -8.487  1.00  0.00     0.006 C 
HETATM    9  C17 UNL     1      -2.014  51.253 -10.024  1.00  0.00     0.003 C 
HETATM   10  C18 UNL     1      -2.865  50.156 -10.762  1.00  0.00    -0.043 C 
HETATM   11  C19 UNL     1      -4.375  50.276 -10.462  1.00  0.00     0.015 C 
HETATM   12  C20 UNL     1      -2.408  48.744 -10.335  1.00  0.00     0.015 C 
HETATM   13  C21 UNL     1      -2.634  50.273 -12.290  1.00  0.00     0.009 C 
HETATM   14  C22 UNL     1      -2.914  51.672 -12.826  1.00  0.00     0.002 C 
HETATM   15  C23 UNL     1      -2.075  52.718 -12.106  1.00  0.00     0.011 C 
HETATM   16  C24 UNL     1      -2.267  52.658 -10.597  1.00  0.00    -0.027 A 
HETATM   17  C25 UNL     1      -3.287  53.593  -9.981  1.00  0.00     0.021 A 
HETATM   18  C26 UNL     1      -1.810  53.853  -9.744  1.00  0.00    -0.028 A 
HETATM   19  C27 UNL     1      -1.216  55.099 -10.393  1.00  0.00     0.011 C 
HETATM   20  C28 UNL     1       0.310  54.992 -10.541  1.00  0.00     0.011 C 
HETATM   21  C29 UNL     1       1.003  54.683  -9.195  1.00  0.00    -0.036 C 
HETATM   22  C30 UNL     1       0.861  55.905  -8.256  1.00  0.00     0.016 C 
ENDROOT
BRANCH   1  23
HETATM   23  C7  UNL     1       3.667  55.126  -9.681  1.00  0.00    -0.014 C 
HETATM   24  C8  UNL     1       3.504  55.961 -10.955  1.00  0.00     0.010 C 
BRANCH  23  25
HETATM   25  C6  UNL     1       5.006  54.353  -9.699  1.00  0.00     0.008 C 
BRANCH  25  26
HETATM   26  C5  UNL     1       6.271  55.229  -9.676  1.00  0.00     0.028 C 
BRANCH  26  27
HETATM   27  C4  UNL     1       6.994  55.176  -8.357  1.00  0.00    -0.025 C 
HETATM   28  C2  UNL     1       6.710  55.851  -7.226  1.00  0.00    -0.091 C 
HETATM   29  C1  UNL     1       5.600  56.849  -7.057  1.00  0.00     0.042 C 
HETATM   30  C3  UNL     1       7.539  55.640  -5.985  1.00  0.00     0.042 C 
ENDBRANCH  26  27
ENDBRANCH  25  26
ENDBRANCH  23  25
ENDBRANCH   1  23
TORSDOF 4
ENDMDL
MODEL 3
REMARK minimizedAffinity -6.54636717
REMARK CNNscore 0.515986621
REMARK CNNaffinity 6.23374128
REMARK  4 active torsions:
REMARK  status: ('A' for Active; 'I' for Inactive)
REMARK    1  A    between atoms: C4_4  and  C5_5 
REMARK    2  A    between atoms: C5_5  and  C6_6 
REMARK    3  A    between atoms: C6_6  and  C7_7 
REMARK    4  A    between atoms: C7_7  and  C9_9 
ROOT
HETATM    1  C9  UNL     1       5.712  55.401  -6.539  1.00  0.00    -0.002 C 
HETATM    2  C10 UNL     1       5.451  56.906  -6.802  1.00  0.00     0.010 C 
HETATM    3  C11 UNL     1       4.695  57.003  -8.153  1.00  0.00    -0.013 C 
HETATM    4  C12 UNL     1       3.423  57.828  -7.966  1.00  0.00     0.010 C 
HETATM    5  C13 UNL     1       4.469  55.536  -8.559  1.00  0.00     0.003 C 
HETATM    6  C14 UNL     1       4.220  55.145 -10.036  1.00  0.00    -0.000 C 
HETATM    7  C15 UNL     1       3.137  55.928 -10.766  1.00  0.00     0.006 C 
HETATM    8  C16 UNL     1       1.702  55.614 -10.361  1.00  0.00     0.006 C 
HETATM    9  C17 UNL     1       1.432  54.264  -9.663  1.00  0.00     0.003 C 
HETATM   10  C18 UNL     1      -0.027  53.728  -9.899  1.00  0.00    -0.043 C 
HETATM   11  C19 UNL     1      -0.310  53.410 -11.383  1.00  0.00     0.015 C 
HETATM   12  C20 UNL     1      -1.066  54.772  -9.432  1.00  0.00     0.015 C 
HETATM   13  C21 UNL     1      -0.245  52.449  -9.050  1.00  0.00     0.009 C 
HETATM   14  C22 UNL     1       0.807  51.379  -9.310  1.00  0.00     0.002 C 
HETATM   15  C23 UNL     1       2.212  51.914  -9.068  1.00  0.00     0.011 C 
HETATM   16  C24 UNL     1       2.489  53.169  -9.886  1.00  0.00    -0.027 A 
HETATM   17  C25 UNL     1       3.186  52.999 -11.219  1.00  0.00     0.021 A 
HETATM   18  C26 UNL     1       3.945  53.629 -10.065  1.00  0.00    -0.028 A 
HETATM   19  C27 UNL     1       5.101  52.825  -9.478  1.00  0.00     0.011 C 
HETATM   20  C28 UNL     1       5.439  53.276  -8.048  1.00  0.00     0.011 C 
HETATM   21  C29 UNL     1       5.722  54.792  -7.969  1.00  0.00    -0.036 C 
HETATM   22  C30 UNL     1       7.037  55.105  -8.719  1.00  0.00     0.016 C 
ENDROOT
BRANCH   1  23
HETATM   23  C7  UNL     1       6.829  55.152  -5.484  1.00  0.00    -0.014 C 
HETATM   24  C8  UNL     1       6.498  55.515  -4.033  1.00  0.00     0.010 C 
BRANCH  23  25
HETATM   25  C6  UNL     1       8.172  55.787  -5.916  1.00  0.00     0.008 C 
BRANCH  25  26
HETATM   26  C5  UNL     1       8.937  56.525  -4.804  1.00  0.00     0.028 C 
BRANCH  26  27
HETATM   27  C4  UNL     1      10.254  55.876  -4.472  1.00  0.00    -0.025 C 
HETATM   28  C2  UNL     1      11.455  56.466  -4.313  1.00  0.00    -0.091 C 
HETATM   29  C1  UNL     1      11.738  57.932  -4.475  1.00  0.00     0.042 C 
HETATM   30  C3  UNL     1      12.665  55.645  -3.949  1.00  0.00     0.042 C 
ENDBRANCH  26  27
ENDBRANCH  25  26
ENDBRANCH  23  25
ENDBRANCH   1  23
TORSDOF 4
ENDMDL
MODEL 4
REMARK minimizedAffinity -7.2282567
REMARK CNNscore 0.503440559
REMARK CNNaffinity 6.66489029
REMARK  4 active torsions:
REMARK  status: ('A' for Active; 'I' for Inactive)
REMARK    1  A    between atoms: C4_4  and  C5_5 
REMARK    2  A    between atoms: C5_5  and  C6_6 
REMARK    3  A    between atoms: C6_6  and  C7_7 
REMARK    4  A    between atoms: C7_7  and  C9_9 
ROOT
HETATM    1  C9  UNL     1       3.045  54.078 -10.504  1.00  0.00    -0.002 C 
HETATM    2  C10 UNL     1       3.659  52.751 -11.016  1.00  0.00     0.010 C 
HETATM    3  C11 UNL     1       2.657  51.622 -10.656  1.00  0.00    -0.013 C 
HETATM    4  C12 UNL     1       2.336  50.809 -11.909  1.00  0.00     0.010 C 
HETATM    5  C13 UNL     1       1.463  52.368 -10.038  1.00  0.00     0.003 C 
HETATM    6  C14 UNL     1       0.473  51.648  -9.091  1.00  0.00    -0.000 C 
HETATM    7  C15 UNL     1      -0.102  50.330  -9.595  1.00  0.00     0.006 C 
HETATM    8  C16 UNL     1      -1.132  50.439 -10.713  1.00  0.00     0.006 C 
HETATM    9  C17 UNL     1      -1.853  51.792 -10.895  1.00  0.00     0.003 C 
HETATM   10  C18 UNL     1      -3.285  51.647 -11.529  1.00  0.00    -0.043 C 
HETATM   11  C19 UNL     1      -4.257  50.859 -10.624  1.00  0.00     0.015 C 
HETATM   12  C20 UNL     1      -3.201  50.915 -12.886  1.00  0.00     0.015 C 
HETATM   13  C21 UNL     1      -3.868  53.058 -11.801  1.00  0.00     0.009 C 
HETATM   14  C22 UNL     1      -3.876  53.945 -10.563  1.00  0.00     0.002 C 
HETATM   15  C23 UNL     1      -2.480  54.079  -9.970  1.00  0.00     0.011 C 
HETATM   16  C24 UNL     1      -1.858  52.722  -9.671  1.00  0.00    -0.027 A 
HETATM   17  C25 UNL     1      -1.998  52.180  -8.264  1.00  0.00     0.021 A 
HETATM   18  C26 UNL     1      -0.637  52.655  -8.738  1.00  0.00    -0.028 A 
HETATM   19  C27 UNL     1      -0.080  53.916  -8.084  1.00  0.00     0.011 C 
HETATM   20  C28 UNL     1       0.989  54.588  -8.960  1.00  0.00     0.011 C 
HETATM   21  C29 UNL     1       2.124  53.613  -9.341  1.00  0.00    -0.036 C 
HETATM   22  C30 UNL     1       2.934  53.253  -8.074  1.00  0.00     0.016 C 
ENDROOT
BRANCH   1  23
HETATM   23  C7  UNL     1       4.091  55.224 -10.374  1.00  0.00    -0.014 C 
HETATM   24  C8  UNL     1       5.365  54.905  -9.585  1.00  0.00     0.010 C 
BRANCH  23  25
HETATM   25  C6  UNL     1       3.442  56.531  -9.863  1.00  0.00     0.008 C 
BRANCH  25  26
HETATM   26  C5  UNL     1       3.351  56.666  -8.333  1.00  0.00     0.028 C 
BRANCH  26  27
HETATM   27  C4  UNL     1       4.657  57.068  -7.703  1.00  0.00    -0.025 C 
HETATM   28  C2  UNL     1       4.884  57.455  -6.432  1.00  0.00    -0.091 C 
HETATM   29  C1  UNL     1       3.839  57.602  -5.363  1.00  0.00     0.042 C 
HETATM   30  C3  UNL     1       6.279  57.793  -5.976  1.00  0.00     0.042 C 
ENDBRANCH  26  27
ENDBRANCH  25  26
ENDBRANCH  23  25
ENDBRANCH   1  23
TORSDOF 4
ENDMDL
MODEL 5
REMARK minimizedAffinity -6.83452749
REMARK CNNscore 0.481875271
REMARK CNNaffinity 6.1204505
REMARK  4 active torsions:
REMARK  status: ('A' for Active; 'I' for Inactive)
REMARK    1  A    between atoms: C4_4  and  C5_5 
REMARK    2  A    between atoms: C5_5  and  C6_6 
REMARK    3  A    between atoms: C6_6  and  C7_7 
REMARK    4  A    between atoms: C7_7  and  C9_9 
ROOT
HETATM    1  C9  UNL     1       4.674  54.989  -7.657  1.00  0.00    -0.002 C 
HETATM    2  C10 UNL     1       4.206  55.272  -6.207  1.00  0.00     0.010 C 
HETATM    3  C11 UNL     1       2.664  55.434  -6.255  1.00  0.00    -0.013 C 
HETATM    4  C12 UNL     1       2.022  54.502  -5.230  1.00  0.00     0.010 C 
HETATM    5  C13 UNL     1       2.304  55.140  -7.721  1.00  0.00     0.003 C 
HETATM    6  C14 UNL     1       0.988  55.665  -8.343  1.00  0.00    -0.000 C 
HETATM    7  C15 UNL     1      -0.286  55.381  -7.559  1.00  0.00     0.006 C 
HETATM    8  C16 UNL     1      -0.767  53.935  -7.574  1.00  0.00     0.006 C 
HETATM    9  C17 UNL     1      -0.264  53.023  -8.712  1.00  0.00     0.003 C 
HETATM   10  C18 UNL     1      -1.264  51.860  -9.059  1.00  0.00    -0.043 C 
HETATM   11  C19 UNL     1      -2.612  52.380  -9.606  1.00  0.00     0.015 C 
HETATM   12  C20 UNL     1      -1.559  51.011  -7.803  1.00  0.00     0.015 C 
HETATM   13  C21 UNL     1      -0.613  50.922 -10.108  1.00  0.00     0.009 C 
HETATM   14  C22 UNL     1      -0.141  51.663 -11.353  1.00  0.00     0.002 C 
HETATM   15  C23 UNL     1       0.832  52.778 -10.997  1.00  0.00     0.011 C 
HETATM   16  C24 UNL     1       0.243  53.740  -9.975  1.00  0.00    -0.027 A 
HETATM   17  C25 UNL     1      -0.424  54.996 -10.495  1.00  0.00     0.021 A 
HETATM   18  C26 UNL     1       0.909  55.113  -9.779  1.00  0.00    -0.028 A 
HETATM   19  C27 UNL     1       2.111  55.529 -10.620  1.00  0.00     0.011 C 
HETATM   20  C28 UNL     1       3.438  55.114  -9.964  1.00  0.00     0.011 C 
HETATM   21  C29 UNL     1       3.561  55.646  -8.520  1.00  0.00    -0.036 C 
HETATM   22  C30 UNL     1       3.692  57.187  -8.553  1.00  0.00     0.016 C 
ENDROOT
BRANCH   1  23
HETATM   23  C7  UNL     1       6.196  55.245  -7.867  1.00  0.00    -0.014 C 
HETATM   24  C8  UNL     1       6.868  54.484  -9.014  1.00  0.00     0.010 C 
BRANCH  23  25
HETATM   25  C6  UNL     1       6.990  55.067  -6.551  1.00  0.00     0.008 C 
BRANCH  25  26
HETATM   26  C5  UNL     1       7.732  56.321  -6.057  1.00  0.00     0.028 C 
BRANCH  26  27
HETATM   27  C4  UNL     1       9.146  56.032  -5.632  1.00  0.00    -0.025 C 
HETATM   28  C2  UNL     1      10.057  56.891  -5.135  1.00  0.00    -0.091 C 
HETATM   29  C1  UNL     1       9.849  58.365  -4.929  1.00  0.00     0.042 C 
HETATM   30  C3  UNL     1      11.426  56.404  -4.735  1.00  0.00     0.042 C 
ENDBRANCH  26  27
ENDBRANCH  25  26
ENDBRANCH  23  25
ENDBRANCH   1  23
TORSDOF 4
ENDMDL
MODEL 6
REMARK minimizedAffinity -7.3522768
REMARK CNNscore 0.432549119
REMARK CNNaffinity 6.06946373
REMARK  4 active torsions:
REMARK  status: ('A' for Active; 'I' for Inactive)
REMARK    1  A    between atoms: C4_4  and  C5_5 
REMARK    2  A    between atoms: C5_5  and  C6_6 
REMARK    3  A    between atoms: C6_6  and  C7_7 
REMARK    4  A    between atoms: C7_7  and  C9_9 
ROOT
HETATM    1  C9  UNL     1       2.104  54.292  -9.806  1.00  0.00    -0.002 C 
HETATM    2  C10 UNL     1       3.050  53.253 -10.459  1.00  0.00     0.010 C 
HETATM    3  C11 UNL     1       4.489  53.597  -9.991  1.00  0.00    -0.013 C 
HETATM    4  C12 UNL     1       5.142  52.351  -9.397  1.00  0.00     0.010 C 
HETATM    5  C13 UNL     1       4.291  54.763  -9.008  1.00  0.00     0.003 C 
HETATM    6  C14 UNL     1       5.444  55.746  -8.690  1.00  0.00    -0.000 C 
HETATM    7  C15 UNL     1       6.774  55.117  -8.295  1.00  0.00     0.006 C 
HETATM    8  C16 UNL     1       6.825  54.488  -6.908  1.00  0.00     0.006 C 
HETATM    9  C17 UNL     1       5.775  54.944  -5.873  1.00  0.00     0.003 C 
HETATM   10  C18 UNL     1       6.275  54.816  -4.388  1.00  0.00    -0.043 C 
HETATM   11  C19 UNL     1       7.478  55.735  -4.085  1.00  0.00     0.015 C 
HETATM   12  C20 UNL     1       6.703  53.362  -4.089  1.00  0.00     0.015 C 
HETATM   13  C21 UNL     1       5.110  55.161  -3.425  1.00  0.00     0.009 C 
HETATM   14  C22 UNL     1       4.494  56.526  -3.706  1.00  0.00     0.002 C 
HETATM   15  C23 UNL     1       4.009  56.627  -5.145  1.00  0.00     0.011 C 
HETATM   16  C24 UNL     1       5.116  56.308  -6.141  1.00  0.00    -0.027 A 
HETATM   17  C25 UNL     1       5.900  57.469  -6.716  1.00  0.00     0.021 A 
HETATM   18  C26 UNL     1       4.931  56.718  -7.612  1.00  0.00    -0.028 A 
HETATM   19  C27 UNL     1       3.685  57.472  -8.065  1.00  0.00     0.011 C 
HETATM   20  C28 UNL     1       2.562  56.513  -8.493  1.00  0.00     0.011 C 
HETATM   21  C29 UNL     1       3.032  55.516  -9.575  1.00  0.00    -0.036 C 
HETATM   22  C30 UNL     1       3.311  56.283 -10.889  1.00  0.00     0.016 C 
ENDROOT
BRANCH   1  23
HETATM   23  C7  UNL     1       0.716  54.378 -10.506  1.00  0.00    -0.014 C 
HETATM   24  C8  UNL     1      -0.371  55.177  -9.781  1.00  0.00     0.010 C 
BRANCH  23  25
HETATM   25  C6  UNL     1       0.194  52.979 -10.908  1.00  0.00     0.008 C 
BRANCH  25  26
HETATM   26  C5  UNL     1      -1.015  52.976 -11.861  1.00  0.00     0.028 C 
BRANCH  26  27
HETATM   27  C4  UNL     1      -2.120  52.066 -11.400  1.00  0.00    -0.025 C 
HETATM   28  C2  UNL     1      -3.326  52.406 -10.904  1.00  0.00    -0.091 C 
HETATM   29  C1  UNL     1      -3.813  53.809 -10.673  1.00  0.00     0.042 C 
HETATM   30  C3  UNL     1      -4.321  51.341 -10.521  1.00  0.00     0.042 C 
ENDBRANCH  26  27
ENDBRANCH  25  26
ENDBRANCH  23  25
ENDBRANCH   1  23
TORSDOF 4
ENDMDL
MODEL 7
REMARK minimizedAffinity -7.08702612
REMARK CNNscore 0.410177141
REMARK CNNaffinity 5.59807777
REMARK  4 active torsions:
REMARK  status: ('A' for Active; 'I' for Inactive)
REMARK    1  A    between atoms: C4_4  and  C5_5 
REMARK    2  A    between atoms: C5_5  and  C6_6 
REMARK    3  A    between atoms: C6_6  and  C7_7 
REMARK    4  A    between atoms: C7_7  and  C9_9 
ROOT
HETATM    1  C9  UNL     1      -8.865  46.386 -28.357  1.00  0.00    -0.002 C 
HETATM    2  C10 UNL     1      -8.121  45.624 -27.231  1.00  0.00     0.010 C 
HETATM    3  C11 UNL     1      -9.147  45.394 -26.090  1.00  0.00    -0.013 C 
HETATM    4  C12 UNL     1      -9.173  43.912 -25.722  1.00  0.00     0.010 C 
HETATM    5  C13 UNL     1     -10.464  45.950 -26.656  1.00  0.00     0.003 C 
HETATM    6  C14 UNL     1     -11.614  46.394 -25.719  1.00  0.00    -0.000 C 
HETATM    7  C15 UNL     1     -12.033  45.394 -24.650  1.00  0.00     0.006 C 
HETATM    8  C16 UNL     1     -12.805  44.177 -25.145  1.00  0.00     0.006 C 
HETATM    9  C17 UNL     1     -13.506  44.280 -26.516  1.00  0.00     0.003 C 
HETATM   10  C18 UNL     1     -14.767  43.348 -26.637  1.00  0.00    -0.043 C 
HETATM   11  C19 UNL     1     -15.888  43.735 -25.648  1.00  0.00     0.015 C 
HETATM   12  C20 UNL     1     -14.378  41.879 -26.360  1.00  0.00     0.015 C 
HETATM   13  C21 UNL     1     -15.315  43.416 -28.086  1.00  0.00     0.009 C 
HETATM   14  C22 UNL     1     -15.609  44.839 -28.542  1.00  0.00     0.002 C 
HETATM   15  C23 UNL     1     -14.375  45.722 -28.426  1.00  0.00     0.011 C 
HETATM   16  C24 UNL     1     -13.795  45.705 -27.018  1.00  0.00    -0.027 A 
HETATM   17  C25 UNL     1     -14.217  46.809 -26.071  1.00  0.00     0.021 A 
HETATM   18  C26 UNL     1     -12.799  46.804 -26.613  1.00  0.00    -0.028 A 
HETATM   19  C27 UNL     1     -12.426  47.922 -27.582  1.00  0.00     0.011 C 
HETATM   20  C28 UNL     1     -11.214  47.544 -28.448  1.00  0.00     0.011 C 
HETATM   21  C29 UNL     1      -9.999  47.124 -27.593  1.00  0.00    -0.036 C 
HETATM   22  C30 UNL     1      -9.467  48.355 -26.823  1.00  0.00     0.016 C 
ENDROOT
BRANCH   1  23
HETATM   23  C7  UNL     1      -7.900  47.084 -29.360  1.00  0.00    -0.014 C 
HETATM   24  C8  UNL     1      -8.002  46.651 -30.826  1.00  0.00     0.010 C 
BRANCH  23  25
HETATM   25  C6  UNL     1      -6.434  47.030 -28.872  1.00  0.00     0.008 C 
BRANCH  25  26
HETATM   26  C5  UNL     1      -6.124  47.875 -27.624  1.00  0.00     0.028 C 
BRANCH  26  27
HETATM   27  C4  UNL     1      -4.659  48.182 -27.476  1.00  0.00    -0.025 C 
HETATM   28  C2  UNL     1      -3.975  48.453 -26.347  1.00  0.00    -0.091 C 
HETATM   29  C1  UNL     1      -4.565  48.540 -24.968  1.00  0.00     0.042 C 
HETATM   30  C3  UNL     1      -2.491  48.708 -26.396  1.00  0.00     0.042 C 
ENDBRANCH  26  27
ENDBRANCH  25  26
ENDBRANCH  23  25
ENDBRANCH   1  23
TORSDOF 4
ENDMDL
MODEL 8
REMARK minimizedAffinity -6.82689476
REMARK CNNscore 0.354047954
REMARK CNNaffinity 6.23912811
REMARK  4 active torsions:
REMARK  status: ('A' for Active; 'I' for Inactive)
REMARK    1  A    between atoms: C4_4  and  C5_5 
REMARK    2  A    between atoms: C5_5  and  C6_6 
REMARK    3  A    between atoms: C6_6  and  C7_7 
REMARK    4  A    between atoms: C7_7  and  C9_9 
ROOT
HETATM    1  C9  UNL     1       2.291  54.287  -9.898  1.00  0.00    -0.002 C 
HETATM    2  C10 UNL     1       3.307  53.290 -10.510  1.00  0.00     0.010 C 
HETATM    3  C11 UNL     1       4.703  53.671  -9.950  1.00  0.00    -0.013 C 
HETATM    4  C12 UNL     1       5.359  52.435  -9.338  1.00  0.00     0.010 C 
HETATM    5  C13 UNL     1       4.410  54.812  -8.962  1.00  0.00     0.003 C 
HETATM    6  C14 UNL     1       5.510  55.823  -8.559  1.00  0.00    -0.000 C 
HETATM    7  C15 UNL     1       6.833  55.229  -8.095  1.00  0.00     0.006 C 
HETATM    8  C16 UNL     1       6.822  54.576  -6.717  1.00  0.00     0.006 C 
HETATM    9  C17 UNL     1       5.697  54.982  -5.741  1.00  0.00     0.003 C 
HETATM   10  C18 UNL     1       6.111  54.841  -4.231  1.00  0.00    -0.043 C 
HETATM   11  C19 UNL     1       7.264  55.791  -3.840  1.00  0.00     0.015 C 
HETATM   12  C20 UNL     1       6.567  53.396  -3.930  1.00  0.00     0.015 C 
HETATM   13  C21 UNL     1       4.880  55.133  -3.334  1.00  0.00     0.009 C 
HETATM   14  C22 UNL     1       4.239  56.483  -3.629  1.00  0.00     0.002 C 
HETATM   15  C23 UNL     1       3.838  56.596  -5.093  1.00  0.00     0.011 C 
HETATM   16  C24 UNL     1       5.012  56.329  -6.025  1.00  0.00    -0.027 A 
HETATM   17  C25 UNL     1       5.792  57.523  -6.533  1.00  0.00     0.021 A 
HETATM   18  C26 UNL     1       4.903  56.760  -7.498  1.00  0.00    -0.028 A 
HETATM   19  C27 UNL     1       3.662  57.483  -8.013  1.00  0.00     0.011 C 
HETATM   20  C28 UNL     1       2.599  56.497  -8.523  1.00  0.00     0.011 C 
HETATM   21  C29 UNL     1       3.164  55.536  -9.591  1.00  0.00    -0.036 C 
HETATM   22  C30 UNL     1       3.496  56.335 -10.873  1.00  0.00     0.016 C 
ENDROOT
BRANCH   1  23
HETATM   23  C7  UNL     1       0.945  54.343 -10.680  1.00  0.00    -0.014 C 
HETATM   24  C8  UNL     1      -0.180  55.171 -10.051  1.00  0.00     0.010 C 
BRANCH  23  25
HETATM   25  C6  UNL     1       0.444  52.929 -11.052  1.00  0.00     0.008 C 
BRANCH  25  26
HETATM   26  C5  UNL     1       0.547  52.567 -12.544  1.00  0.00     0.028 C 
BRANCH  26  27
HETATM   27  C4  UNL     1       1.590  51.517 -12.820  1.00  0.00    -0.025 C 
HETATM   28  C2  UNL     1       2.218  51.253 -13.983  1.00  0.00    -0.091 C 
HETATM   29  C1  UNL     1       1.970  51.953 -15.289  1.00  0.00     0.042 C 
HETATM   30  C3  UNL     1       3.265  50.172 -14.055  1.00  0.00     0.042 C 
ENDBRANCH  26  27
ENDBRANCH  25  26
ENDBRANCH  23  25
ENDBRANCH   1  23
TORSDOF 4
ENDMDL
MODEL 9
REMARK minimizedAffinity -8.45290852
REMARK CNNscore 0.347214192
REMARK CNNaffinity 6.01613617
REMARK  4 active torsions:
REMARK  status: ('A' for Active; 'I' for Inactive)
REMARK    1  A    between atoms: C4_4  and  C5_5 
REMARK    2  A    between atoms: C5_5  and  C6_6 
REMARK    3  A    between atoms: C6_6  and  C7_7 
REMARK    4  A    between atoms: C7_7  and  C9_9 
ROOT
HETATM    1  C9  UNL     1      -3.990  48.418 -24.631  1.00  0.00    -0.002 C 
HETATM    2  C10 UNL     1      -3.171  48.531 -23.320  1.00  0.00     0.010 C 
HETATM    3  C11 UNL     1      -4.093  48.051 -22.170  1.00  0.00    -0.013 C 
HETATM    4  C12 UNL     1      -3.377  46.971 -21.361  1.00  0.00     0.010 C 
HETATM    5  C13 UNL     1      -5.373  47.589 -22.886  1.00  0.00     0.003 C 
HETATM    6  C14 UNL     1      -6.726  47.512 -22.138  1.00  0.00    -0.000 C 
HETATM    7  C15 UNL     1      -6.721  46.760 -20.815  1.00  0.00     0.006 C 
HETATM    8  C16 UNL     1      -6.603  45.243 -20.913  1.00  0.00     0.006 C 
HETATM    9  C17 UNL     1      -6.986  44.579 -22.253  1.00  0.00     0.003 C 
HETATM   10  C18 UNL     1      -7.492  43.100 -22.086  1.00  0.00    -0.043 C 
HETATM   11  C19 UNL     1      -8.801  43.008 -21.271  1.00  0.00     0.015 C 
HETATM   12  C20 UNL     1      -6.426  42.244 -21.367  1.00  0.00     0.015 C 
HETATM   13  C21 UNL     1      -7.716  42.475 -23.487  1.00  0.00     0.009 C 
HETATM   14  C22 UNL     1      -8.647  43.304 -24.363  1.00  0.00     0.002 C 
HETATM   15  C23 UNL     1      -8.136  44.729 -24.519  1.00  0.00     0.011 C 
HETATM   16  C24 UNL     1      -7.906  45.400 -23.172  1.00  0.00    -0.027 A 
HETATM   17  C25 UNL     1      -9.023  46.258 -22.615  1.00  0.00     0.021 A 
HETATM   18  C26 UNL     1      -7.759  46.930 -23.121  1.00  0.00    -0.028 A 
HETATM   19  C27 UNL     1      -7.885  47.773 -24.387  1.00  0.00     0.011 C 
HETATM   20  C28 UNL     1      -6.529  47.955 -25.087  1.00  0.00     0.011 C 
HETATM   21  C29 UNL     1      -5.459  48.537 -24.138  1.00  0.00    -0.036 C 
HETATM   22  C30 UNL     1      -5.831  49.996 -23.783  1.00  0.00     0.016 C 
ENDROOT
BRANCH   1  23
HETATM   23  C7  UNL     1      -3.397  49.264 -25.796  1.00  0.00    -0.014 C 
HETATM   24  C8  UNL     1      -3.160  48.535 -27.122  1.00  0.00     0.010 C 
BRANCH  23  25
HETATM   25  C6  UNL     1      -2.127  50.028 -25.355  1.00  0.00     0.008 C 
BRANCH  25  26
HETATM   26  C5  UNL     1      -1.346  50.714 -26.489  1.00  0.00     0.028 C 
BRANCH  26  27
HETATM   27  C4  UNL     1       0.129  50.811 -26.206  1.00  0.00    -0.025 C 
HETATM   28  C2  UNL     1       1.087  51.376 -26.967  1.00  0.00    -0.091 C 
HETATM   29  C1  UNL     1       0.873  52.014 -28.310  1.00  0.00     0.042 C 
HETATM   30  C3  UNL     1       2.518  51.401 -26.497  1.00  0.00     0.042 C 
ENDBRANCH  26  27
ENDBRANCH  25  26
ENDBRANCH  23  25
ENDBRANCH   1  23
TORSDOF 4
ENDMDL
