MODEL 1
REMARK minimizedAffinity -7.80890322
REMARK CNNscore 0.394760638
REMARK CNNaffinity 5.91655016
REMARK  2 active torsions:
REMARK  status: ('A' for Active; 'I' for Inactive)
REMARK    1  A    between atoms: C3_4  and  C4_5 
REMARK       I    between atoms: N3_16  and  C13_17 
REMARK       I    between atoms: C13_17  and  N4_19 
REMARK    2  A    between atoms: N4_19  and  C14_20 
ROOT
HETATM    1  C4  UNL     1       7.440  57.390  -5.072  1.00  0.00    -0.020 A 
HETATM    2  C5  UNL     1       6.708  57.888  -3.983  1.00  0.00     0.015 A 
HETATM    3  C6  UNL     1       5.308  57.937  -4.014  1.00  0.00     0.033 A 
HETATM    4  C7  UNL     1       4.620  57.505  -5.146  1.00  0.00     0.068 A 
HETATM    5  N2  UNL     1       3.214  57.585  -5.150  1.00  0.00    -0.325 N 
HETATM    6  C8  UNL     1       2.496  57.757  -6.315  1.00  0.00     0.222 C 
HETATM    7  O1  UNL     1       2.796  58.547  -7.205  1.00  0.00    -0.273 OA
HETATM    8  C9  UNL     1       1.294  56.842  -6.397  1.00  0.00     0.108 C 
HETATM    9  C10 UNL     1       1.003  56.422  -7.846  1.00  0.00     0.001 C 
HETATM   10  C11 UNL     1      -0.298  55.592  -7.928  1.00  0.00     0.025 C 
HETATM   11  C12 UNL     1      -0.146  54.221  -8.569  1.00  0.00     0.128 C 
HETATM   12  N3  UNL     1       0.601  54.239  -9.820  1.00  0.00    -0.334 N 
HETATM   13  C13 UNL     1       0.447  53.141 -10.669  1.00  0.00     0.322 C 
HETATM   14  O2  UNL     1      -0.192  52.152 -10.317  1.00  0.00    -0.247 OA
HETATM   15  N4  UNL     1       1.047  53.289 -11.899  1.00  0.00    -0.309 N 
HETATM   16  C20 UNL     1       1.611  55.288  -9.994  1.00  0.00     0.132 C 
HETATM   17  C21 UNL     1       2.184  55.810  -8.659  1.00  0.00     0.010 C 
HETATM   18  C22 UNL     1       3.063  54.708  -8.010  1.00  0.00     0.033 C 
HETATM   19  C23 UNL     1       4.074  55.123  -6.935  1.00  0.00     0.176 C 
HETATM   20  O3  UNL     1       4.739  56.338  -7.295  1.00  0.00    -0.349 OA
HETATM   21  C24 UNL     1       5.342  56.931  -6.209  1.00  0.00     0.096 A 
HETATM   22  C25 UNL     1       6.740  56.911  -6.187  1.00  0.00     0.051 A 
HETATM   23  H7  UNL     1       2.723  57.704  -4.275  1.00  0.00     0.169 HD
HETATM   24  H15 UNL     1       1.223  54.241 -12.176  1.00  0.00     0.170 HD
ENDROOT
BRANCH  15  25
HETATM   25  C14 UNL     1       1.206  52.311 -12.901  1.00  0.00     0.037 A 
HETATM   26  C15 UNL     1       0.248  52.042 -13.880  1.00  0.00     0.029 A 
HETATM   27  C16 UNL     1       0.464  51.040 -14.832  1.00  0.00     0.004 A 
HETATM   28  C17 UNL     1       1.641  50.296 -14.811  1.00  0.00     0.024 A 
HETATM   29  C18 UNL     1       2.597  50.556 -13.834  1.00  0.00     0.036 A 
HETATM   30 CL1  UNL     1       4.049  49.631 -13.793  1.00  0.00    -0.084 Cl
HETATM   31  C19 UNL     1       2.385  51.554 -12.882  1.00  0.00     0.053 A 
ENDBRANCH  15  25
BRANCH   1  32
HETATM   32  C3  UNL     1       8.896  57.373  -5.027  1.00  0.00     0.008 A 
HETATM   33  C2  UNL     1       9.701  58.416  -4.618  1.00  0.00     0.123 A 
HETATM   34  N1  UNL     1      10.990  57.980  -4.733  1.00  0.00    -0.307 N 
HETATM   35  C1  UNL     1      12.187  58.716  -4.414  1.00  0.00     0.177 C 
HETATM   36  N5  UNL     1      11.091  56.727  -5.206  1.00  0.00    -0.310 N 
HETATM   37  C26 UNL     1       9.819  56.356  -5.375  1.00  0.00     0.120 A 
ATOM     38  H5  UNL     1      11.937  56.189  -5.391  1.00  0.00     0.186 HD
ENDBRANCH   1  32
TORSDOF 2
ENDMDL
MODEL 2
REMARK minimizedAffinity -8.66137695
REMARK CNNscore 0.36072582
REMARK CNNaffinity 6.77353525
REMARK  2 active torsions:
REMARK  status: ('A' for Active; 'I' for Inactive)
REMARK    1  A    between atoms: C3_4  and  C4_5 
REMARK       I    between atoms: N3_16  and  C13_17 
REMARK       I    between atoms: C13_17  and  N4_19 
REMARK    2  A    between atoms: N4_19  and  C14_20 
ROOT
HETATM    1  C4  UNL     1       0.288  51.441 -18.554  1.00  0.00    -0.020 A 
HETATM    2  C5  UNL     1      -0.346  50.189 -18.534  1.00  0.00     0.015 A 
HETATM    3  C6  UNL     1      -0.445  49.446 -17.350  1.00  0.00     0.033 A 
HETATM    4  C7  UNL     1       0.108  49.939 -16.170  1.00  0.00     0.068 A 
HETATM    5  N2  UNL     1       0.006  49.157 -15.003  1.00  0.00    -0.325 N 
HETATM    6  C8  UNL     1       0.949  49.222 -13.998  1.00  0.00     0.222 C 
HETATM    7  O1  UNL     1       2.161  49.240 -14.184  1.00  0.00    -0.273 OA
HETATM    8  C9  UNL     1       0.325  49.290 -12.621  1.00  0.00     0.108 C 
HETATM    9  C10 UNL     1       1.178  50.131 -11.658  1.00  0.00     0.001 C 
HETATM   10  C11 UNL     1       0.596  50.088 -10.227  1.00  0.00     0.025 C 
HETATM   11  C12 UNL     1       0.283  51.447  -9.620  1.00  0.00     0.128 C 
HETATM   12  N3  UNL     1       1.359  52.418  -9.771  1.00  0.00    -0.334 N 
HETATM   13  C13 UNL     1       1.343  53.524  -8.919  1.00  0.00     0.322 C 
HETATM   14  O2  UNL     1       0.395  53.729  -8.164  1.00  0.00    -0.247 OA
HETATM   15  N4  UNL     1       2.465  54.316  -9.000  1.00  0.00    -0.309 N 
HETATM   16  C20 UNL     1       2.244  52.277 -10.932  1.00  0.00     0.132 C 
HETATM   17  C21 UNL     1       1.574  51.563 -12.126  1.00  0.00     0.010 C 
HETATM   18  C22 UNL     1       0.490  52.491 -12.737  1.00  0.00     0.033 C 
HETATM   19  C23 UNL     1       0.007  52.204 -14.163  1.00  0.00     0.176 C 
HETATM   20  O3  UNL     1       1.101  51.856 -15.017  1.00  0.00    -0.349 OA
HETATM   21  C24 UNL     1       0.673  51.228 -16.164  1.00  0.00     0.096 A 
HETATM   22  C25 UNL     1       0.797  51.952 -17.353  1.00  0.00     0.051 A 
HETATM   23  H7  UNL     1      -0.663  48.401 -14.970  1.00  0.00     0.169 HD
HETATM   24  H15 UNL     1       3.281  53.863  -9.377  1.00  0.00     0.170 HD
ENDROOT
BRANCH  15  25
HETATM   25  C14 UNL     1       2.676  55.572  -8.396  1.00  0.00     0.037 A 
HETATM   26  C15 UNL     1       3.573  56.526  -8.883  1.00  0.00     0.029 A 
HETATM   27  C16 UNL     1       3.747  57.744  -8.219  1.00  0.00     0.004 A 
HETATM   28  C17 UNL     1       3.026  58.019  -7.060  1.00  0.00     0.024 A 
HETATM   29  C18 UNL     1       2.135  57.071  -6.567  1.00  0.00     0.036 A 
HETATM   30 CL1  UNL     1       1.252  57.398  -5.126  1.00  0.00    -0.084 Cl
HETATM   31  C19 UNL     1       1.959  55.854  -7.225  1.00  0.00     0.053 A 
ENDBRANCH  15  25
BRANCH   1  32
HETATM   32  C3  UNL     1       0.400  52.184 -19.802  1.00  0.00     0.008 A 
HETATM   33  C2  UNL     1       0.078  51.705 -21.056  1.00  0.00     0.123 A 
HETATM   34  N1  UNL     1       0.333  52.717 -21.935  1.00  0.00    -0.307 N 
HETATM   35  C1  UNL     1       0.143  52.694 -23.364  1.00  0.00     0.177 C 
HETATM   36  N5  UNL     1       0.818  53.824 -21.351  1.00  0.00    -0.310 N 
HETATM   37  C26 UNL     1       0.849  53.503 -20.055  1.00  0.00     0.120 A 
ATOM     38  H5  UNL     1       1.095  54.701 -21.792  1.00  0.00     0.186 HD
ENDBRANCH   1  32
TORSDOF 2
ENDMDL
MODEL 3
REMARK minimizedAffinity -8.42899609
REMARK CNNscore 0.30094558
REMARK CNNaffinity 6.93989754
REMARK  2 active torsions:
REMARK  status: ('A' for Active; 'I' for Inactive)
REMARK    1  A    between atoms: C3_4  and  C4_5 
REMARK       I    between atoms: N3_16  and  C13_17 
REMARK       I    between atoms: C13_17  and  N4_19 
REMARK    2  A    between atoms: N4_19  and  C14_20 
ROOT
HETATM    1  C4  UNL     1      -0.106  51.332 -19.399  1.00  0.00    -0.020 A 
HETATM    2  C5  UNL     1      -1.181  50.433 -19.321  1.00  0.00     0.015 A 
HETATM    3  C6  UNL     1      -1.440  49.713 -18.146  1.00  0.00     0.033 A 
HETATM    4  C7  UNL     1      -0.613  49.871 -17.036  1.00  0.00     0.068 A 
HETATM    5  N2  UNL     1      -0.892  49.119 -15.878  1.00  0.00    -0.325 N 
HETATM    6  C8  UNL     1       0.101  48.742 -14.997  1.00  0.00     0.222 C 
HETATM    7  O1  UNL     1       1.192  48.293 -15.333  1.00  0.00    -0.273 OA
HETATM    8  C9  UNL     1      -0.292  48.961 -13.552  1.00  0.00     0.108 C 
HETATM    9  C10 UNL     1       0.924  49.334 -12.689  1.00  0.00     0.001 C 
HETATM   10  C11 UNL     1       0.530  49.431 -11.198  1.00  0.00     0.025 C 
HETATM   11  C12 UNL     1       0.854  50.761 -10.534  1.00  0.00     0.128 C 
HETATM   12  N3  UNL     1       2.205  51.236 -10.803  1.00  0.00    -0.334 N 
HETATM   13  C13 UNL     1       2.722  52.202  -9.937  1.00  0.00     0.322 C 
HETATM   14  O2  UNL     1       2.022  52.714  -9.066  1.00  0.00    -0.247 OA
HETATM   15  N4  UNL     1       4.052  52.492 -10.144  1.00  0.00    -0.309 N 
HETATM   16  C20 UNL     1       2.829  50.834 -12.066  1.00  0.00     0.132 C 
HETATM   17  C21 UNL     1       1.806  50.521 -13.180  1.00  0.00     0.010 C 
HETATM   18  C22 UNL     1       1.122  51.838 -13.635  1.00  0.00     0.033 C 
HETATM   19  C23 UNL     1       0.415  51.858 -14.995  1.00  0.00     0.176 C 
HETATM   20  O3  UNL     1       1.181  51.163 -15.984  1.00  0.00    -0.349 OA
HETATM   21  C24 UNL     1       0.417  50.830 -17.080  1.00  0.00     0.096 A 
HETATM   22  C25 UNL     1       0.690  51.522 -18.262  1.00  0.00     0.051 A 
HETATM   23  H7  UNL     1      -1.800  48.688 -15.775  1.00  0.00     0.169 HD
HETATM   24  H15 UNL     1       4.574  51.779 -10.627  1.00  0.00     0.170 HD
ENDROOT
BRANCH  15  25
HETATM   25  C14 UNL     1       4.810  53.521  -9.550  1.00  0.00     0.037 A 
HETATM   26  C15 UNL     1       6.161  53.397  -9.220  1.00  0.00     0.029 A 
HETATM   27  C16 UNL     1       6.846  54.454  -8.612  1.00  0.00     0.004 A 
HETATM   28  C17 UNL     1       6.184  55.645  -8.327  1.00  0.00     0.024 A 
HETATM   29  C18 UNL     1       4.836  55.773  -8.649  1.00  0.00     0.036 A 
HETATM   30 CL1  UNL     1       4.007  57.238  -8.286  1.00  0.00    -0.084 Cl
HETATM   31  C19 UNL     1       4.149  54.720  -9.254  1.00  0.00     0.053 A 
ENDBRANCH  15  25
BRANCH   1  32
HETATM   32  C3  UNL     1       0.158  52.049 -20.638  1.00  0.00     0.008 A 
HETATM   33  C2  UNL     1      -0.344  51.720 -21.882  1.00  0.00     0.123 A 
HETATM   34  N1  UNL     1       0.151  52.644 -22.756  1.00  0.00    -0.307 N 
HETATM   35  C1  UNL     1      -0.101  52.719 -24.173  1.00  0.00     0.177 C 
HETATM   36  N5  UNL     1       0.958  53.549 -22.180  1.00  0.00    -0.310 N 
HETATM   37  C26 UNL     1       0.954  53.193 -20.893  1.00  0.00     0.120 A 
ATOM     38  H5  UNL     1       1.454  54.324 -22.620  1.00  0.00     0.186 HD
ENDBRANCH   1  32
TORSDOF 2
ENDMDL
MODEL 4
REMARK minimizedAffinity -8.43338394
REMARK CNNscore 0.252422392
REMARK CNNaffinity 5.54130602
REMARK  2 active torsions:
REMARK  status: ('A' for Active; 'I' for Inactive)
REMARK    1  A    between atoms: C3_4  and  C4_5 
REMARK       I    between atoms: N3_16  and  C13_17 
REMARK       I    between atoms: C13_17  and  N4_19 
REMARK    2  A    between atoms: N4_19  and  C14_20 
ROOT
HETATM    1  C4  UNL     1      -4.194  48.658 -26.058  1.00  0.00    -0.020 A 
HETATM    2  C5  UNL     1      -3.834  48.672 -27.415  1.00  0.00     0.015 A 
HETATM    3  C6  UNL     1      -4.687  48.148 -28.395  1.00  0.00     0.033 A 
HETATM    4  C7  UNL     1      -5.907  47.585 -28.028  1.00  0.00     0.068 A 
HETATM    5  N2  UNL     1      -6.732  47.051 -29.038  1.00  0.00    -0.325 N 
HETATM    6  C8  UNL     1      -7.602  46.009 -28.794  1.00  0.00     0.222 C 
HETATM    7  O1  UNL     1      -7.320  45.008 -28.144  1.00  0.00    -0.273 OA
HETATM    8  C9  UNL     1      -8.969  46.239 -29.402  1.00  0.00     0.108 C 
HETATM    9  C10 UNL     1     -10.079  45.616 -28.542  1.00  0.00     0.001 C 
HETATM   10  C11 UNL     1     -11.453  45.750 -29.237  1.00  0.00     0.025 C 
HETATM   11  C12 UNL     1     -12.524  46.449 -28.413  1.00  0.00     0.128 C 
HETATM   12  N3  UNL     1     -12.620  45.963 -27.043  1.00  0.00    -0.334 N 
HETATM   13  C13 UNL     1     -13.802  46.237 -26.353  1.00  0.00     0.322 C 
HETATM   14  O2  UNL     1     -14.668  46.962 -26.839  1.00  0.00    -0.247 OA
HETATM   15  N4  UNL     1     -13.898  45.617 -25.128  1.00  0.00    -0.309 N 
HETATM   16  C20 UNL     1     -11.405  45.421 -26.427  1.00  0.00     0.132 C 
HETATM   17  C21 UNL     1     -10.106  45.996 -27.031  1.00  0.00     0.010 C 
HETATM   18  C22 UNL     1      -9.963  47.486 -26.620  1.00  0.00     0.033 C 
HETATM   19  C23 UNL     1      -8.579  48.138 -26.716  1.00  0.00     0.176 C 
HETATM   20  O3  UNL     1      -7.558  47.249 -26.252  1.00  0.00    -0.349 OA
HETATM   21  C24 UNL     1      -6.310  47.639 -26.681  1.00  0.00     0.096 A 
HETATM   22  C25 UNL     1      -5.443  48.135 -25.702  1.00  0.00     0.051 A 
HETATM   23  H7  UNL     1      -6.561  47.304 -30.001  1.00  0.00     0.169 HD
HETATM   24  H15 UNL     1     -13.311  44.807 -25.012  1.00  0.00     0.170 HD
ENDROOT
BRANCH  15  25
HETATM   25  C14 UNL     1     -14.880  45.818 -24.137  1.00  0.00     0.037 A 
HETATM   26  C15 UNL     1     -14.643  45.666 -22.769  1.00  0.00     0.029 A 
HETATM   27  C16 UNL     1     -15.672  45.861 -21.842  1.00  0.00     0.004 A 
HETATM   28  C17 UNL     1     -16.949  46.207 -22.276  1.00  0.00     0.024 A 
HETATM   29  C18 UNL     1     -17.192  46.354 -23.638  1.00  0.00     0.036 A 
HETATM   30 CL1  UNL     1     -18.772  46.768 -24.183  1.00  0.00    -0.084 Cl
HETATM   31  C19 UNL     1     -16.169  46.160 -24.566  1.00  0.00     0.053 A 
ENDBRANCH  15  25
BRANCH   1  32
HETATM   32  C3  UNL     1      -3.279  49.185 -25.055  1.00  0.00     0.008 A 
HETATM   33  C2  UNL     1      -3.136  48.711 -23.766  1.00  0.00     0.123 A 
HETATM   34  N1  UNL     1      -2.184  49.486 -23.171  1.00  0.00    -0.307 N 
HETATM   35  C1  UNL     1      -1.685  49.367 -21.824  1.00  0.00     0.177 C 
HETATM   36  N5  UNL     1      -1.701  50.450 -23.971  1.00  0.00    -0.310 N 
HETATM   37  C26 UNL     1      -2.359  50.261 -25.117  1.00  0.00     0.120 A 
ATOM     38  H5  UNL     1      -0.998  51.157 -23.754  1.00  0.00     0.186 HD
ENDBRANCH   1  32
TORSDOF 2
ENDMDL
MODEL 5
REMARK minimizedAffinity -8.94584751
REMARK CNNscore 0.203792557
REMARK CNNaffinity 6.59406233
REMARK  2 active torsions:
REMARK  status: ('A' for Active; 'I' for Inactive)
REMARK    1  A    between atoms: C3_4  and  C4_5 
REMARK       I    between atoms: N3_16  and  C13_17 
REMARK       I    between atoms: C13_17  and  N4_19 
REMARK    2  A    between atoms: N4_19  and  C14_20 
ROOT
HETATM    1  C4  UNL     1      -0.214  52.511 -23.238  1.00  0.00    -0.020 A 
HETATM    2  C5  UNL     1       0.635  52.919 -22.196  1.00  0.00     0.015 A 
HETATM    3  C6  UNL     1       0.501  52.391 -20.905  1.00  0.00     0.033 A 
HETATM    4  C7  UNL     1      -0.498  51.459 -20.633  1.00  0.00     0.068 A 
HETATM    5  N2  UNL     1      -0.616  50.964 -19.320  1.00  0.00    -0.325 N 
HETATM    6  C8  UNL     1      -1.825  50.544 -18.804  1.00  0.00     0.222 C 
HETATM    7  O1  UNL     1      -2.884  51.147 -18.941  1.00  0.00    -0.273 OA
HETATM    8  C9  UNL     1      -1.713  49.233 -18.057  1.00  0.00     0.108 C 
HETATM    9  C10 UNL     1      -2.993  48.394 -18.198  1.00  0.00     0.001 C 
HETATM   10  C11 UNL     1      -2.914  47.119 -17.330  1.00  0.00     0.025 C 
HETATM   11  C12 UNL     1      -3.117  45.814 -18.086  1.00  0.00     0.128 C 
HETATM   12  N3  UNL     1      -4.269  45.828 -18.979  1.00  0.00    -0.334 N 
HETATM   13  C13 UNL     1      -4.769  44.591 -19.390  1.00  0.00     0.322 C 
HETATM   14  O2  UNL     1      -4.187  43.546 -19.109  1.00  0.00    -0.247 OA
HETATM   15  N4  UNL     1      -5.948  44.666 -20.097  1.00  0.00    -0.309 N 
HETATM   16  C20 UNL     1      -4.675  47.118 -19.544  1.00  0.00     0.132 C 
HETATM   17  C21 UNL     1      -3.515  48.133 -19.643  1.00  0.00     0.010 C 
HETATM   18  C22 UNL     1      -2.519  47.671 -20.739  1.00  0.00     0.033 C 
HETATM   19  C23 UNL     1      -1.548  48.704 -21.323  1.00  0.00     0.176 C 
HETATM   20  O3  UNL     1      -2.203  49.957 -21.545  1.00  0.00    -0.349 OA
HETATM   21  C24 UNL     1      -1.299  50.986 -21.689  1.00  0.00     0.096 A 
HETATM   22  C25 UNL     1      -1.183  51.536 -22.969  1.00  0.00     0.051 A 
HETATM   23  H7  UNL     1       0.154  51.083 -18.676  1.00  0.00     0.169 HD
HETATM   24  H15 UNL     1      -6.479  45.510 -19.955  1.00  0.00     0.170 HD
ENDROOT
BRANCH  15  25
HETATM   25  C14 UNL     1      -6.610  43.624 -20.777  1.00  0.00     0.037 A 
HETATM   26  C15 UNL     1      -7.131  42.493 -20.144  1.00  0.00     0.029 A 
HETATM   27  C16 UNL     1      -7.757  41.486 -20.886  1.00  0.00     0.004 A 
HETATM   28  C17 UNL     1      -7.866  41.600 -22.269  1.00  0.00     0.024 A 
HETATM   29  C18 UNL     1      -7.344  42.722 -22.906  1.00  0.00     0.036 A 
HETATM   30 CL1  UNL     1      -7.461  42.863 -24.618  1.00  0.00    -0.084 Cl
HETATM   31  C19 UNL     1      -6.717  43.728 -22.170  1.00  0.00     0.053 A 
ENDBRANCH  15  25
BRANCH   1  32
HETATM   32  C3  UNL     1      -0.071  53.091 -24.566  1.00  0.00     0.008 A 
HETATM   33  C2  UNL     1      -0.183  52.408 -25.760  1.00  0.00     0.123 A 
HETATM   34  N1  UNL     1       0.022  53.324 -26.752  1.00  0.00    -0.307 N 
HETATM   35  C1  UNL     1      -0.005  53.085 -28.173  1.00  0.00     0.177 C 
HETATM   36  N5  UNL     1       0.278  54.560 -26.294  1.00  0.00    -0.310 N 
HETATM   37  C26 UNL     1       0.212  54.420 -24.968  1.00  0.00     0.120 A 
ATOM     38  H5  UNL     1       0.475  55.404 -26.832  1.00  0.00     0.186 HD
ENDBRANCH   1  32
TORSDOF 2
ENDMDL
MODEL 6
REMARK minimizedAffinity -8.99467754
REMARK CNNscore 0.200715259
REMARK CNNaffinity 6.62336731
REMARK  2 active torsions:
REMARK  status: ('A' for Active; 'I' for Inactive)
REMARK    1  A    between atoms: C3_4  and  C4_5 
REMARK       I    between atoms: N3_16  and  C13_17 
REMARK       I    between atoms: C13_17  and  N4_19 
REMARK    2  A    between atoms: N4_19  and  C14_20 
ROOT
HETATM    1  C4  UNL     1       0.100  52.466 -22.964  1.00  0.00    -0.020 A 
HETATM    2  C5  UNL     1       0.892  53.103 -21.995  1.00  0.00     0.015 A 
HETATM    3  C6  UNL     1       0.707  52.851 -20.629  1.00  0.00     0.033 A 
HETATM    4  C7  UNL     1      -0.289  51.970 -20.212  1.00  0.00     0.068 A 
HETATM    5  N2  UNL     1      -0.459  51.754 -18.830  1.00  0.00    -0.325 N 
HETATM    6  C8  UNL     1      -1.684  51.420 -18.290  1.00  0.00     0.222 C 
HETATM    7  O1  UNL     1      -2.745  51.954 -18.594  1.00  0.00    -0.273 OA
HETATM    8  C9  UNL     1      -1.586  50.294 -17.283  1.00  0.00     0.108 C 
HETATM    9  C10 UNL     1      -2.844  49.412 -17.300  1.00  0.00     0.001 C 
HETATM   10  C11 UNL     1      -2.784  48.346 -16.183  1.00  0.00     0.025 C 
HETATM   11  C12 UNL     1      -2.931  46.909 -16.659  1.00  0.00     0.128 C 
HETATM   12  N3  UNL     1      -4.039  46.708 -17.583  1.00  0.00    -0.334 N 
HETATM   13  C13 UNL     1      -4.500  45.400 -17.749  1.00  0.00     0.322 C 
HETATM   14  O2  UNL     1      -3.915  44.451 -17.233  1.00  0.00    -0.247 OA
HETATM   15  N4  UNL     1      -5.645  45.296 -18.506  1.00  0.00    -0.309 N 
HETATM   16  C20 UNL     1      -4.440  47.842 -18.422  1.00  0.00     0.132 C 
HETATM   17  C21 UNL     1      -3.294  48.844 -18.680  1.00  0.00     0.010 C 
HETATM   18  C22 UNL     1      -2.240  48.191 -19.613  1.00  0.00     0.033 C 
HETATM   19  C23 UNL     1      -1.260  49.105 -20.357  1.00  0.00     0.176 C 
HETATM   20  O3  UNL     1      -1.924  50.268 -20.862  1.00  0.00    -0.349 OA
HETATM   21  C24 UNL     1      -1.032  51.267 -21.179  1.00  0.00     0.096 A 
HETATM   22  C25 UNL     1      -0.865  51.544 -22.539  1.00  0.00     0.051 A 
HETATM   23  H7  UNL     1       0.277  52.023 -18.193  1.00  0.00     0.169 HD
HETATM   24  H15 UNL     1      -6.196  46.138 -18.564  1.00  0.00     0.170 HD
ENDROOT
BRANCH  15  25
HETATM   25  C14 UNL     1      -6.258  44.120 -18.981  1.00  0.00     0.037 A 
HETATM   26  C15 UNL     1      -6.818  43.147 -18.150  1.00  0.00     0.029 A 
HETATM   27  C16 UNL     1      -7.390  41.991 -18.691  1.00  0.00     0.004 A 
HETATM   28  C17 UNL     1      -7.407  41.798 -20.070  1.00  0.00     0.024 A 
HETATM   29  C18 UNL     1      -6.845  42.761 -20.903  1.00  0.00     0.036 A 
HETATM   30 CL1  UNL     1      -6.848  42.522 -22.608  1.00  0.00    -0.084 Cl
HETATM   31  C19 UNL     1      -6.272  43.914 -20.367  1.00  0.00     0.053 A 
ENDBRANCH  15  25
BRANCH   1  32
HETATM   32  C3  UNL     1       0.294  52.763 -24.376  1.00  0.00     0.008 A 
HETATM   33  C2  UNL     1       0.699  51.862 -25.341  1.00  0.00     0.123 A 
HETATM   34  N1  UNL     1       0.755  52.552 -26.517  1.00  0.00    -0.307 N 
HETATM   35  C1  UNL     1       1.119  52.032 -27.811  1.00  0.00     0.177 C 
HETATM   36  N5  UNL     1       0.432  53.849 -26.393  1.00  0.00    -0.310 N 
HETATM   37  C26 UNL     1       0.144  53.974 -25.095  1.00  0.00     0.120 A 
ATOM     38  H5  UNL     1       0.412  54.567 -27.117  1.00  0.00     0.186 HD
ENDBRANCH   1  32
TORSDOF 2
ENDMDL
MODEL 7
REMARK minimizedAffinity -8.2785368
REMARK CNNscore 0.200093523
REMARK CNNaffinity 6.60287237
REMARK  2 active torsions:
REMARK  status: ('A' for Active; 'I' for Inactive)
REMARK    1  A    between atoms: C3_4  and  C4_5 
REMARK       I    between atoms: N3_16  and  C13_17 
REMARK       I    between atoms: C13_17  and  N4_19 
REMARK    2  A    between atoms: N4_19  and  C14_20 
ROOT
HETATM    1  C4  UNL     1      -0.594  51.960 -22.319  1.00  0.00    -0.020 A 
HETATM    2  C5  UNL     1      -0.143  52.319 -23.600  1.00  0.00     0.015 A 
HETATM    3  C6  UNL     1      -0.740  51.791 -24.752  1.00  0.00     0.033 A 
HETATM    4  C7  UNL     1      -1.788  50.880 -24.639  1.00  0.00     0.068 A 
HETATM    5  N2  UNL     1      -2.353  50.356 -25.818  1.00  0.00    -0.325 N 
HETATM    6  C8  UNL     1      -2.926  49.102 -25.857  1.00  0.00     0.222 C 
HETATM    7  O1  UNL     1      -2.438  48.100 -25.345  1.00  0.00    -0.273 OA
HETATM    8  C9  UNL     1      -4.250  49.091 -26.590  1.00  0.00     0.108 C 
HETATM    9  C10 UNL     1      -5.217  48.059 -25.990  1.00  0.00     0.001 C 
HETATM   10  C11 UNL     1      -6.515  47.970 -26.825  1.00  0.00     0.025 C 
HETATM   11  C12 UNL     1      -7.798  48.211 -26.044  1.00  0.00     0.128 C 
HETATM   12  N3  UNL     1      -7.870  47.467 -24.793  1.00  0.00    -0.334 N 
HETATM   13  C13 UNL     1      -9.135  47.300 -24.225  1.00  0.00     0.322 C 
HETATM   14  O2  UNL     1     -10.121  47.862 -24.695  1.00  0.00    -0.247 OA
HETATM   15  N4  UNL     1      -9.158  46.457 -23.136  1.00  0.00    -0.309 N 
HETATM   16  C20 UNL     1      -6.608  47.142 -24.121  1.00  0.00     0.132 C 
HETATM   17  C21 UNL     1      -5.468  48.129 -24.454  1.00  0.00     0.010 C 
HETATM   18  C22 UNL     1      -5.767  49.502 -23.795  1.00  0.00     0.033 C 
HETATM   19  C23 UNL     1      -4.608  50.487 -23.608  1.00  0.00     0.176 C 
HETATM   20  O3  UNL     1      -3.426  49.813 -23.165  1.00  0.00    -0.349 OA
HETATM   21  C24 UNL     1      -2.299  50.578 -23.363  1.00  0.00     0.096 A 
HETATM   22  C25 UNL     1      -1.681  51.082 -22.215  1.00  0.00     0.051 A 
HETATM   23  H7  UNL     1      -2.180  50.820 -26.698  1.00  0.00     0.169 HD
HETATM   24  H15 UNL     1      -8.385  45.814 -23.078  1.00  0.00     0.170 HD
ENDROOT
BRANCH  15  25
HETATM   25  C14 UNL     1     -10.235  46.215 -22.260  1.00  0.00     0.037 A 
HETATM   26  C15 UNL     1     -11.196  45.224 -22.468  1.00  0.00     0.029 A 
HETATM   27  C16 UNL     1     -12.252  45.055 -21.566  1.00  0.00     0.004 A 
HETATM   28  C17 UNL     1     -12.356  45.877 -20.448  1.00  0.00     0.024 A 
HETATM   29  C18 UNL     1     -11.404  46.870 -20.237  1.00  0.00     0.036 A 
HETATM   30 CL1  UNL     1     -11.534  47.900 -18.864  1.00  0.00    -0.084 Cl
HETATM   31  C19 UNL     1     -10.350  47.043 -21.135  1.00  0.00     0.053 A 
ENDBRANCH  15  25
BRANCH   1  32
HETATM   32  C3  UNL     1       0.059  52.502 -21.136  1.00  0.00     0.008 A 
HETATM   33  C2  UNL     1       0.050  51.932 -19.879  1.00  0.00     0.123 A 
HETATM   34  N1  UNL     1       0.774  52.762 -19.072  1.00  0.00    -0.307 N 
HETATM   35  C1  UNL     1       1.053  52.582 -17.670  1.00  0.00     0.177 C 
HETATM   36  N5  UNL     1       1.245  53.848 -19.705  1.00  0.00    -0.310 N 
HETATM   37  C26 UNL     1       0.818  53.685 -20.960  1.00  0.00     0.120 A 
ATOM     38  H5  UNL     1       1.797  54.614 -19.319  1.00  0.00     0.186 HD
ENDBRANCH   1  32
TORSDOF 2
ENDMDL
MODEL 8
REMARK minimizedAffinity -7.77922535
REMARK CNNscore 0.177003622
REMARK CNNaffinity 5.343925
REMARK  2 active torsions:
REMARK  status: ('A' for Active; 'I' for Inactive)
REMARK    1  A    between atoms: C3_4  and  C4_5 
REMARK       I    between atoms: N3_16  and  C13_17 
REMARK       I    between atoms: C13_17  and  N4_19 
REMARK    2  A    between atoms: N4_19  and  C14_20 
ROOT
HETATM    1  C4  UNL     1      -3.483  51.692 -10.614  1.00  0.00    -0.020 A 
HETATM    2  C5  UNL     1      -3.924  53.000 -10.868  1.00  0.00     0.015 A 
HETATM    3  C6  UNL     1      -3.130  54.108 -10.546  1.00  0.00     0.033 A 
HETATM    4  C7  UNL     1      -1.886  53.922  -9.945  1.00  0.00     0.068 A 
HETATM    5  N2  UNL     1      -1.121  55.058  -9.618  1.00  0.00    -0.325 N 
HETATM    6  C8  UNL     1      -0.231  55.060  -8.563  1.00  0.00     0.222 C 
HETATM    7  O1  UNL     1      -0.467  54.587  -7.456  1.00  0.00    -0.273 OA
HETATM    8  C9  UNL     1       1.094  55.695  -8.923  1.00  0.00     0.108 C 
HETATM    9  C10 UNL     1       2.259  55.029  -8.174  1.00  0.00     0.001 C 
HETATM   10  C11 UNL     1       3.587  55.768  -8.454  1.00  0.00     0.025 C 
HETATM   11  C12 UNL     1       4.702  54.895  -9.011  1.00  0.00     0.128 C 
HETATM   12  N3  UNL     1       4.884  53.644  -8.286  1.00  0.00    -0.334 N 
HETATM   13  C13 UNL     1       6.104  52.986  -8.450  1.00  0.00     0.322 C 
HETATM   14  O2  UNL     1       6.934  53.382  -9.265  1.00  0.00    -0.247 OA
HETATM   15  N4  UNL     1       6.278  51.902  -7.620  1.00  0.00    -0.309 N 
HETATM   16  C20 UNL     1       3.712  53.067  -7.620  1.00  0.00     0.132 C 
HETATM   17  C21 UNL     1       2.375  53.479  -8.274  1.00  0.00     0.010 C 
HETATM   18  C22 UNL     1       2.249  52.795  -9.662  1.00  0.00     0.033 C 
HETATM   19  C23 UNL     1       0.857  52.690 -10.297  1.00  0.00     0.176 C 
HETATM   20  O3  UNL     1      -0.128  52.336  -9.321  1.00  0.00    -0.349 OA
HETATM   21  C24 UNL     1      -1.403  52.613  -9.762  1.00  0.00     0.096 A 
HETATM   22  C25 UNL     1      -2.211  51.511 -10.056  1.00  0.00     0.051 A 
HETATM   23  H7  UNL     1      -1.352  55.948 -10.038  1.00  0.00     0.169 HD
HETATM   24  H15 UNL     1       5.703  51.901  -6.793  1.00  0.00     0.170 HD
ENDROOT
BRANCH  15  25
HETATM   25  C14 UNL     1       7.317  50.950  -7.655  1.00  0.00     0.037 A 
HETATM   26  C15 UNL     1       8.253  50.787  -6.632  1.00  0.00     0.029 A 
HETATM   27  C16 UNL     1       9.272  49.836  -6.744  1.00  0.00     0.004 A 
HETATM   28  C17 UNL     1       9.365  49.039  -7.882  1.00  0.00     0.024 A 
HETATM   29  C18 UNL     1       8.438  49.201  -8.907  1.00  0.00     0.036 A 
HETATM   30 CL1  UNL     1       8.555  48.231 -10.325  1.00  0.00    -0.084 Cl
HETATM   31  C19 UNL     1       7.421  50.150  -8.800  1.00  0.00     0.053 A 
ENDBRANCH  15  25
BRANCH   1  32
HETATM   32  C3  UNL     1      -4.338  50.557 -10.936  1.00  0.00     0.008 A 
HETATM   33  C2  UNL     1      -5.560  50.280 -10.356  1.00  0.00     0.123 A 
HETATM   34  N1  UNL     1      -6.015  49.134 -10.942  1.00  0.00    -0.307 N 
HETATM   35  C1  UNL     1      -7.258  48.456 -10.670  1.00  0.00     0.177 C 
HETATM   36  N5  UNL     1      -5.172  48.627 -11.855  1.00  0.00    -0.310 N 
HETATM   37  C26 UNL     1      -4.158  49.497 -11.858  1.00  0.00     0.120 A 
ATOM     38  H5  UNL     1      -5.280  47.781 -12.414  1.00  0.00     0.186 HD
ENDBRANCH   1  32
TORSDOF 2
ENDMDL
MODEL 9
REMARK minimizedAffinity -8.32680988
REMARK CNNscore 0.175782576
REMARK CNNaffinity 5.73800278
REMARK  2 active torsions:
REMARK  status: ('A' for Active; 'I' for Inactive)
REMARK    1  A    between atoms: C3_4  and  C4_5 
REMARK       I    between atoms: N3_16  and  C13_17 
REMARK       I    between atoms: C13_17  and  N4_19 
REMARK    2  A    between atoms: N4_19  and  C14_20 
ROOT
HETATM    1  C4  UNL     1       0.909  52.320 -18.189  1.00  0.00    -0.020 A 
HETATM    2  C5  UNL     1       1.217  53.342 -19.102  1.00  0.00     0.015 A 
HETATM    3  C6  UNL     1       0.585  53.411 -20.351  1.00  0.00     0.033 A 
HETATM    4  C7  UNL     1      -0.352  52.446 -20.713  1.00  0.00     0.068 A 
HETATM    5  N2  UNL     1      -0.954  52.536 -21.983  1.00  0.00    -0.325 N 
HETATM    6  C8  UNL     1      -1.397  51.419 -22.661  1.00  0.00     0.222 C 
HETATM    7  O1  UNL     1      -0.770  50.369 -22.753  1.00  0.00    -0.273 OA
HETATM    8  C9  UNL     1      -2.768  51.617 -23.271  1.00  0.00     0.108 C 
HETATM    9  C10 UNL     1      -3.573  50.308 -23.281  1.00  0.00     0.001 C 
HETATM   10  C11 UNL     1      -4.918  50.496 -24.019  1.00  0.00     0.025 C 
HETATM   11  C12 UNL     1      -6.152  50.132 -23.207  1.00  0.00     0.128 C 
HETATM   12  N3  UNL     1      -6.046  48.848 -22.526  1.00  0.00    -0.334 N 
HETATM   13  C13 UNL     1      -7.237  48.251 -22.108  1.00  0.00     0.322 C 
HETATM   14  O2  UNL     1      -8.311  48.842 -22.201  1.00  0.00    -0.247 OA
HETATM   15  N4  UNL     1      -7.087  46.973 -21.618  1.00  0.00    -0.309 N 
HETATM   16  C20 UNL     1      -4.708  48.389 -22.142  1.00  0.00     0.132 C 
HETATM   17  C21 UNL     1      -3.705  49.544 -21.930  1.00  0.00     0.010 C 
HETATM   18  C22 UNL     1      -4.088  50.330 -20.647  1.00  0.00     0.033 C 
HETATM   19  C23 UNL     1      -3.024  51.218 -19.992  1.00  0.00     0.176 C 
HETATM   20  O3  UNL     1      -1.748  50.571 -19.985  1.00  0.00    -0.349 OA
HETATM   21  C24 UNL     1      -0.724  51.466 -19.773  1.00  0.00     0.096 A 
HETATM   22  C25 UNL     1      -0.070  51.382 -18.540  1.00  0.00     0.051 A 
HETATM   23  H7  UNL     1      -0.900  53.405 -22.495  1.00  0.00     0.169 HD
HETATM   24  H15 UNL     1      -6.250  46.498 -21.915  1.00  0.00     0.170 HD
ENDROOT
BRANCH  15  25
HETATM   25  C14 UNL     1      -8.059  46.177 -20.979  1.00  0.00     0.037 A 
HETATM   26  C15 UNL     1      -8.458  46.356 -19.653  1.00  0.00     0.029 A 
HETATM   27  C16 UNL     1      -9.414  45.513 -19.076  1.00  0.00     0.004 A 
HETATM   28  C17 UNL     1      -9.979  44.482 -19.822  1.00  0.00     0.024 A 
HETATM   29  C18 UNL     1      -9.582  44.296 -21.142  1.00  0.00     0.036 A 
HETATM   30 CL1  UNL     1     -10.265  43.013 -22.066  1.00  0.00    -0.084 Cl
HETATM   31  C19 UNL     1      -8.627  45.133 -21.721  1.00  0.00     0.053 A 
ENDBRANCH  15  25
BRANCH   1  32
HETATM   32  C3  UNL     1       1.597  52.255 -16.907  1.00  0.00     0.008 A 
HETATM   33  C2  UNL     1       1.096  51.686 -15.753  1.00  0.00     0.123 A 
HETATM   34  N1  UNL     1       2.057  51.844 -14.796  1.00  0.00    -0.307 N 
HETATM   35  C1  UNL     1       1.996  51.402 -13.425  1.00  0.00     0.177 C 
HETATM   36  N5  UNL     1       3.148  52.491 -15.233  1.00  0.00    -0.310 N 
HETATM   37  C26 UNL     1       2.872  52.732 -16.518  1.00  0.00     0.120 A 
ATOM     38  H5  UNL     1       3.988  52.739 -14.710  1.00  0.00     0.186 HD
ENDBRANCH   1  32
TORSDOF 2
ENDMDL
