MODEL 1
REMARK minimizedAffinity -7.07854366
REMARK CNNscore 0.888226509
REMARK CNNaffinity 6.60666609
REMARK  9 active torsions:
REMARK  status: ('A' for Active; 'I' for Inactive)
REMARK    1  A    between atoms: C2_2  and  C30_33 
REMARK    2  A    between atoms: C3_3  and  C4_4 
REMARK    3  A    between atoms: C4_4  and  C5_5 
REMARK    4  A    between atoms: C5_5  and  C6_6 
REMARK    5  A    between atoms: C6_6  and  C8_8 
REMARK    6  A    between atoms: C10_10  and  O1_11 
REMARK    7  A    between atoms: C23_24  and  O2_25 
REMARK    8  A    between atoms: C29_31  and  O3_32 
REMARK    9  A    between atoms: C30_33  and  O4_34 
ROOT
HETATM    1  C8  UNL     1     -13.344  46.264 -27.712  1.00  0.00     0.001 C 
HETATM    2  C9  UNL     1     -12.848  47.188 -26.566  1.00  0.00     0.038 C 
HETATM    3  C10 UNL     1     -11.404  47.601 -26.930  1.00  0.00     0.132 C 
HETATM    4  C11 UNL     1     -11.284  47.308 -28.448  1.00  0.00     0.016 C 
HETATM    5  C12 UNL     1     -11.971  48.471 -29.244  1.00  0.00     0.023 C 
HETATM    6  C13 UNL     1      -9.900  47.157 -29.075  1.00  0.00    -0.037 C 
HETATM    7  C14 UNL     1      -9.758  46.409 -30.203  1.00  0.00    -0.065 C 
HETATM    8  C15 UNL     1     -10.931  45.588 -30.774  1.00  0.00     0.036 C 
HETATM    9  C16 UNL     1     -12.260  45.575 -29.985  1.00  0.00     0.015 C 
HETATM   10  C17 UNL     1     -12.047  45.929 -28.509  1.00  0.00    -0.026 C 
HETATM   11  C18 UNL     1     -11.259  44.767 -27.843  1.00  0.00     0.016 C 
HETATM   12  C19 UNL     1      -8.389  46.288 -30.940  1.00  0.00    -0.016 C 
HETATM   13  C20 UNL     1      -7.843  44.891 -30.557  1.00  0.00     0.020 C 
HETATM   14  C21 UNL     1      -8.585  46.384 -32.485  1.00  0.00     0.016 C 
HETATM   15  C22 UNL     1      -7.495  47.134 -33.261  1.00  0.00     0.033 C 
HETATM   16  C23 UNL     1      -6.099  46.969 -32.674  1.00  0.00     0.126 C 
HETATM   17  C24 UNL     1      -6.019  47.491 -31.206  1.00  0.00    -0.017 C 
HETATM   18  C25 UNL     1      -5.578  48.984 -31.277  1.00  0.00     0.018 C 
HETATM   19  C26 UNL     1      -4.914  46.757 -30.417  1.00  0.00     0.018 C 
HETATM   20  C27 UNL     1      -7.434  47.454 -30.503  1.00  0.00     0.011 C 
HETATM   21  C28 UNL     1      -7.370  47.562 -28.972  1.00  0.00     0.043 C 
HETATM   22  C29 UNL     1      -8.749  47.856 -28.381  1.00  0.00     0.148 C 
ENDROOT
BRANCH   1  23
HETATM   23  C6  UNL     1     -14.355  45.147 -27.311  1.00  0.00    -0.013 C 
HETATM   24  C7  UNL     1     -15.070  45.336 -25.966  1.00  0.00     0.010 C 
BRANCH  23  25
HETATM   25  C5  UNL     1     -15.426  45.000 -28.437  1.00  0.00     0.008 C 
BRANCH  25  26
HETATM   26  C4  UNL     1     -16.629  44.119 -28.059  1.00  0.00     0.028 C 
BRANCH  26  27
HETATM   27  C3  UNL     1     -17.268  43.411 -29.219  1.00  0.00    -0.022 C 
HETATM   28  C2  UNL     1     -18.560  43.058 -29.377  1.00  0.00    -0.064 C 
HETATM   29  C1  UNL     1     -19.662  43.321 -28.385  1.00  0.00     0.045 C 
BRANCH  28  30
HETATM   30  C30 UNL     1     -19.006  42.324 -30.619  1.00  0.00     0.197 C 
BRANCH  30  31
HETATM   31  O4  UNL     1     -19.846  41.242 -30.248  1.00  0.00    -0.397 OA
HETATM   32  H50 UNL     1     -20.497  41.598 -29.619  1.00  0.00     0.209 HD
ENDBRANCH  30  31
ENDBRANCH  28  30
ENDBRANCH  26  27
ENDBRANCH  25  26
ENDBRANCH  23  25
ENDBRANCH   1  23
BRANCH   3  33
HETATM   33  O1  UNL     1     -11.146  48.963 -26.609  1.00  0.00    -0.394 OA
HETATM   34  H17 UNL     1     -11.405  49.093 -25.680  1.00  0.00     0.210 HD
ENDBRANCH   3  33
BRANCH  22  35
HETATM   35  O3  UNL     1      -8.960  49.264 -28.426  1.00  0.00    -0.391 OA
HETATM   36  H47 UNL     1      -9.700  49.442 -27.808  1.00  0.00     0.210 HD
ENDBRANCH  22  35
BRANCH  16  37
HETATM   37  O2  UNL     1      -5.717  45.600 -32.778  1.00  0.00    -0.395 OA
HETATM   38  H36 UNL     1      -5.732  45.362 -33.722  1.00  0.00     0.210 HD
ENDBRANCH  16  37
TORSDOF 9
ENDMDL
MODEL 2
REMARK minimizedAffinity -7.07505274
REMARK CNNscore 0.787210822
REMARK CNNaffinity 7.39918375
REMARK  9 active torsions:
REMARK  status: ('A' for Active; 'I' for Inactive)
REMARK    1  A    between atoms: C2_2  and  C30_33 
REMARK    2  A    between atoms: C3_3  and  C4_4 
REMARK    3  A    between atoms: C4_4  and  C5_5 
REMARK    4  A    between atoms: C5_5  and  C6_6 
REMARK    5  A    between atoms: C6_6  and  C8_8 
REMARK    6  A    between atoms: C10_10  and  O1_11 
REMARK    7  A    between atoms: C23_24  and  O2_25 
REMARK    8  A    between atoms: C29_31  and  O3_32 
REMARK    9  A    between atoms: C30_33  and  O4_34 
ROOT
HETATM    1  C8  UNL     1       3.448  55.816  -8.027  1.00  0.00     0.001 C 
HETATM    2  C9  UNL     1       4.433  54.915  -8.820  1.00  0.00     0.038 C 
HETATM    3  C10 UNL     1       3.565  53.973  -9.686  1.00  0.00     0.132 C 
HETATM    4  C11 UNL     1       2.173  54.654  -9.730  1.00  0.00     0.016 C 
HETATM    5  C12 UNL     1       2.212  55.818 -10.780  1.00  0.00     0.023 C 
HETATM    6  C13 UNL     1       0.945  53.824 -10.098  1.00  0.00    -0.037 C 
HETATM    7  C14 UNL     1      -0.280  54.212  -9.647  1.00  0.00    -0.065 C 
HETATM    8  C15 UNL     1      -0.435  55.377  -8.650  1.00  0.00     0.036 C 
HETATM    9  C16 UNL     1       0.849  56.050  -8.113  1.00  0.00     0.015 C 
HETATM   10  C17 UNL     1       2.064  55.124  -8.229  1.00  0.00    -0.026 C 
HETATM   11  C18 UNL     1       1.871  53.947  -7.233  1.00  0.00     0.016 C 
HETATM   12  C19 UNL     1      -1.582  53.459 -10.059  1.00  0.00    -0.016 C 
HETATM   13  C20 UNL     1      -1.963  52.602  -8.828  1.00  0.00     0.020 C 
HETATM   14  C21 UNL     1      -2.723  54.471 -10.384  1.00  0.00     0.016 C 
HETATM   15  C22 UNL     1      -3.653  54.094 -11.545  1.00  0.00     0.033 C 
HETATM   16  C23 UNL     1      -3.896  52.595 -11.674  1.00  0.00     0.126 C 
HETATM   17  C24 UNL     1      -2.571  51.808 -11.911  1.00  0.00    -0.017 C 
HETATM   18  C25 UNL     1      -2.380  51.692 -13.453  1.00  0.00     0.018 C 
HETATM   19  C26 UNL     1      -2.685  50.361 -11.386  1.00  0.00     0.018 C 
HETATM   20  C27 UNL     1      -1.324  52.595 -11.344  1.00  0.00     0.011 C 
HETATM   21  C28 UNL     1      -0.066  51.729 -11.175  1.00  0.00     0.043 C 
HETATM   22  C29 UNL     1       1.174  52.594 -10.950  1.00  0.00     0.148 C 
ENDROOT
BRANCH   1  23
HETATM   23  C6  UNL     1       3.918  56.279  -6.615  1.00  0.00    -0.013 C 
HETATM   24  C7  UNL     1       4.269  55.163  -5.621  1.00  0.00     0.010 C 
BRANCH  23  25
HETATM   25  C5  UNL     1       5.151  57.223  -6.772  1.00  0.00     0.008 C 
BRANCH  25  26
HETATM   26  C4  UNL     1       5.711  57.764  -5.445  1.00  0.00     0.028 C 
BRANCH  26  27
HETATM   27  C3  UNL     1       7.139  57.385  -5.174  1.00  0.00    -0.022 C 
HETATM   28  C2  UNL     1       8.192  58.196  -4.944  1.00  0.00    -0.064 C 
HETATM   29  C1  UNL     1       8.139  59.700  -4.902  1.00  0.00     0.045 C 
BRANCH  28  30
HETATM   30  C30 UNL     1       9.567  57.617  -4.714  1.00  0.00     0.197 C 
BRANCH  30  31
HETATM   31  O4  UNL     1       9.804  56.582  -5.655  1.00  0.00    -0.397 OA
HETATM   32  H50 UNL     1       9.551  56.934  -6.525  1.00  0.00     0.209 HD
ENDBRANCH  30  31
ENDBRANCH  28  30
ENDBRANCH  26  27
ENDBRANCH  25  26
ENDBRANCH  23  25
ENDBRANCH   1  23
BRANCH   3  33
HETATM   33  O1  UNL     1       4.125  53.777 -10.979  1.00  0.00    -0.394 OA
HETATM   34  H17 UNL     1       5.052  53.508 -10.854  1.00  0.00     0.210 HD
ENDBRANCH   3  33
BRANCH  22  35
HETATM   35  O3  UNL     1       1.675  52.991 -12.223  1.00  0.00    -0.391 OA
HETATM   36  H47 UNL     1       2.593  53.295 -12.065  1.00  0.00     0.210 HD
ENDBRANCH  22  35
BRANCH  16  37
HETATM   37  O2  UNL     1      -4.590  52.142 -10.514  1.00  0.00    -0.395 OA
HETATM   38  H36 UNL     1      -5.429  52.631 -10.464  1.00  0.00     0.210 HD
ENDBRANCH  16  37
TORSDOF 9
ENDMDL
MODEL 3
REMARK minimizedAffinity -7.52626085
REMARK CNNscore 0.728671432
REMARK CNNaffinity 6.77549505
REMARK  9 active torsions:
REMARK  status: ('A' for Active; 'I' for Inactive)
REMARK    1  A    between atoms: C2_2  and  C30_33 
REMARK    2  A    between atoms: C3_3  and  C4_4 
REMARK    3  A    between atoms: C4_4  and  C5_5 
REMARK    4  A    between atoms: C5_5  and  C6_6 
REMARK    5  A    between atoms: C6_6  and  C8_8 
REMARK    6  A    between atoms: C10_10  and  O1_11 
REMARK    7  A    between atoms: C23_24  and  O2_25 
REMARK    8  A    between atoms: C29_31  and  O3_32 
REMARK    9  A    between atoms: C30_33  and  O4_34 
ROOT
HETATM    1  C8  UNL     1       5.055  56.916  -7.291  1.00  0.00     0.001 C 
HETATM    2  C9  UNL     1       6.044  55.994  -8.054  1.00  0.00     0.038 C 
HETATM    3  C10 UNL     1       5.181  54.987  -8.848  1.00  0.00     0.132 C 
HETATM    4  C11 UNL     1       3.774  55.634  -8.900  1.00  0.00     0.016 C 
HETATM    5  C12 UNL     1       3.764  56.739 -10.013  1.00  0.00     0.023 C 
HETATM    6  C13 UNL     1       2.557  54.759  -9.196  1.00  0.00    -0.037 C 
HETATM    7  C14 UNL     1       1.333  55.144  -8.742  1.00  0.00    -0.065 C 
HETATM    8  C15 UNL     1       1.171  56.360  -7.807  1.00  0.00     0.036 C 
HETATM    9  C16 UNL     1       2.450  57.089  -7.335  1.00  0.00     0.015 C 
HETATM   10  C17 UNL     1       3.684  56.185  -7.426  1.00  0.00    -0.026 C 
HETATM   11  C18 UNL     1       3.537  55.060  -6.363  1.00  0.00     0.016 C 
HETATM   12  C19 UNL     1       0.041  54.341  -9.084  1.00  0.00    -0.016 C 
HETATM   13  C20 UNL     1      -0.296  53.546  -7.800  1.00  0.00     0.020 C 
HETATM   14  C21 UNL     1      -1.129  55.309  -9.440  1.00  0.00     0.016 C 
HETATM   15  C22 UNL     1      -2.073  54.848 -10.559  1.00  0.00     0.033 C 
HETATM   16  C23 UNL     1      -2.284  53.340 -10.600  1.00  0.00     0.126 C 
HETATM   17  C24 UNL     1      -0.947  52.570 -10.822  1.00  0.00    -0.017 C 
HETATM   18  C25 UNL     1      -0.784  52.372 -12.359  1.00  0.00     0.018 C 
HETATM   19  C26 UNL     1      -1.017  51.152 -10.215  1.00  0.00     0.018 C 
HETATM   20  C27 UNL     1       0.294  53.413 -10.325  1.00  0.00     0.011 C 
HETATM   21  C28 UNL     1       1.574  52.585 -10.135  1.00  0.00     0.043 C 
HETATM   22  C29 UNL     1       2.798  53.488  -9.984  1.00  0.00     0.148 C 
ENDROOT
BRANCH   1  23
HETATM   23  C6  UNL     1       5.542  57.467  -5.917  1.00  0.00    -0.013 C 
HETATM   24  C7  UNL     1       4.471  57.600  -4.825  1.00  0.00     0.010 C 
BRANCH  23  25
HETATM   25  C5  UNL     1       6.697  56.564  -5.385  1.00  0.00     0.008 C 
BRANCH  25  26
HETATM   26  C4  UNL     1       8.066  57.261  -5.307  1.00  0.00     0.028 C 
BRANCH  26  27
HETATM   27  C3  UNL     1       9.234  56.324  -5.193  1.00  0.00    -0.022 C 
HETATM   28  C2  UNL     1      10.521  56.617  -4.914  1.00  0.00    -0.064 C 
HETATM   29  C1  UNL     1      11.060  57.996  -4.642  1.00  0.00     0.045 C 
BRANCH  28  30
HETATM   30  C30 UNL     1      11.561  55.524  -4.868  1.00  0.00     0.197 C 
BRANCH  30  31
HETATM   31  O4  UNL     1      12.753  55.985  -5.485  1.00  0.00    -0.397 OA
HETATM   32  H50 UNL     1      12.937  56.864  -5.113  1.00  0.00     0.209 HD
ENDBRANCH  30  31
ENDBRANCH  28  30
ENDBRANCH  26  27
ENDBRANCH  25  26
ENDBRANCH  23  25
ENDBRANCH   1  23
BRANCH   3  33
HETATM   33  O1  UNL     1       5.720  54.732 -10.140  1.00  0.00    -0.394 OA
HETATM   34  H17 UNL     1       6.655  54.491 -10.020  1.00  0.00     0.210 HD
ENDBRANCH   3  33
BRANCH  22  35
HETATM   35  O3  UNL     1       3.264  53.826 -11.287  1.00  0.00    -0.391 OA
HETATM   36  H47 UNL     1       4.178  54.158 -11.166  1.00  0.00     0.210 HD
ENDBRANCH  22  35
BRANCH  16  37
HETATM   37  O2  UNL     1      -2.944  52.937  -9.403  1.00  0.00    -0.395 OA
HETATM   38  H36 UNL     1      -3.794  53.409  -9.362  1.00  0.00     0.210 HD
ENDBRANCH  16  37
TORSDOF 9
ENDMDL
MODEL 4
REMARK minimizedAffinity -7.2332077
REMARK CNNscore 0.653757334
REMARK CNNaffinity 6.27507639
REMARK  9 active torsions:
REMARK  status: ('A' for Active; 'I' for Inactive)
REMARK    1  A    between atoms: C2_2  and  C30_33 
REMARK    2  A    between atoms: C3_3  and  C4_4 
REMARK    3  A    between atoms: C4_4  and  C5_5 
REMARK    4  A    between atoms: C5_5  and  C6_6 
REMARK    5  A    between atoms: C6_6  and  C8_8 
REMARK    6  A    between atoms: C10_10  and  O1_11 
REMARK    7  A    between atoms: C23_24  and  O2_25 
REMARK    8  A    between atoms: C29_31  and  O3_32 
REMARK    9  A    between atoms: C30_33  and  O4_34 
ROOT
HETATM    1  C8  UNL     1     -13.391  45.636 -26.373  1.00  0.00     0.001 C 
HETATM    2  C9  UNL     1     -12.789  46.902 -25.705  1.00  0.00     0.038 C 
HETATM    3  C10 UNL     1     -11.592  47.334 -26.584  1.00  0.00     0.132 C 
HETATM    4  C11 UNL     1     -11.824  46.618 -27.939  1.00  0.00     0.016 C 
HETATM    5  C12 UNL     1     -12.897  47.418 -28.757  1.00  0.00     0.023 C 
HETATM    6  C13 UNL     1     -10.649  46.430 -28.897  1.00  0.00    -0.037 C 
HETATM    7  C14 UNL     1     -10.674  45.400 -29.787  1.00  0.00    -0.065 C 
HETATM    8  C15 UNL     1     -11.786  44.332 -29.747  1.00  0.00     0.036 C 
HETATM    9  C16 UNL     1     -12.835  44.418 -28.615  1.00  0.00     0.015 C 
HETATM   10  C17 UNL     1     -12.310  45.213 -27.415  1.00  0.00    -0.026 C 
HETATM   11  C18 UNL     1     -11.176  44.386 -26.747  1.00  0.00     0.016 C 
HETATM   12  C19 UNL     1      -9.549  45.206 -30.849  1.00  0.00    -0.016 C 
HETATM   13  C20 UNL     1      -8.676  44.048 -30.309  1.00  0.00     0.020 C 
HETATM   14  C21 UNL     1     -10.159  44.820 -32.232  1.00  0.00     0.016 C 
HETATM   15  C22 UNL     1      -9.468  45.414 -33.467  1.00  0.00     0.033 C 
HETATM   16  C23 UNL     1      -7.961  45.573 -33.310  1.00  0.00     0.126 C 
HETATM   17  C24 UNL     1      -7.595  46.511 -32.119  1.00  0.00    -0.017 C 
HETATM   18  C25 UNL     1      -7.469  47.952 -32.696  1.00  0.00     0.018 C 
HETATM   19  C26 UNL     1      -6.206  46.160 -31.544  1.00  0.00     0.018 C 
HETATM   20  C27 UNL     1      -8.743  46.540 -31.034  1.00  0.00     0.011 C 
HETATM   21  C28 UNL     1      -8.300  47.103 -29.674  1.00  0.00     0.043 C 
HETATM   22  C29 UNL     1      -9.505  47.416 -28.787  1.00  0.00     0.148 C 
ENDROOT
BRANCH   1  23
HETATM   23  C6  UNL     1     -14.038  44.590 -25.415  1.00  0.00    -0.013 C 
HETATM   24  C7  UNL     1     -14.324  45.072 -23.985  1.00  0.00     0.010 C 
BRANCH  23  25
HETATM   25  C5  UNL     1     -15.366  44.071 -26.047  1.00  0.00     0.008 C 
BRANCH  25  26
HETATM   26  C4  UNL     1     -16.214  45.158 -26.730  1.00  0.00     0.028 C 
BRANCH  26  27
HETATM   27  C3  UNL     1     -17.406  45.606 -25.933  1.00  0.00    -0.022 C 
HETATM   28  C2  UNL     1     -18.704  45.294 -26.119  1.00  0.00    -0.064 C 
HETATM   29  C1  UNL     1     -19.236  44.391 -27.201  1.00  0.00     0.045 C 
BRANCH  28  30
HETATM   30  C30 UNL     1     -19.767  45.871 -25.216  1.00  0.00     0.197 C 
BRANCH  30  31
HETATM   31  O4  UNL     1     -19.442  47.217 -24.909  1.00  0.00    -0.397 OA
HETATM   32  H50 UNL     1     -19.217  47.648 -25.751  1.00  0.00     0.209 HD
ENDBRANCH  30  31
ENDBRANCH  28  30
ENDBRANCH  26  27
ENDBRANCH  25  26
ENDBRANCH  23  25
ENDBRANCH   1  23
BRANCH   3  33
HETATM   33  O1  UNL     1     -11.513  48.748 -26.712  1.00  0.00    -0.394 OA
HETATM   34  H17 UNL     1     -11.538  49.121 -25.813  1.00  0.00     0.210 HD
ENDBRANCH   3  33
BRANCH  22  35
HETATM   35  O3  UNL     1      -9.975  48.718 -29.121  1.00  0.00    -0.391 OA
HETATM   36  H47 UNL     1     -10.546  48.996 -28.374  1.00  0.00     0.210 HD
ENDBRANCH  22  35
BRANCH  16  37
HETATM   37  O2  UNL     1      -7.376  44.280 -33.175  1.00  0.00    -0.395 OA
HETATM   38  H36 UNL     1      -7.594  43.774 -33.976  1.00  0.00     0.210 HD
ENDBRANCH  16  37
TORSDOF 9
ENDMDL
MODEL 5
REMARK minimizedAffinity -7.79848766
REMARK CNNscore 0.590655565
REMARK CNNaffinity 6.32833099
REMARK  9 active torsions:
REMARK  status: ('A' for Active; 'I' for Inactive)
REMARK    1  A    between atoms: C2_2  and  C30_33 
REMARK    2  A    between atoms: C3_3  and  C4_4 
REMARK    3  A    between atoms: C4_4  and  C5_5 
REMARK    4  A    between atoms: C5_5  and  C6_6 
REMARK    5  A    between atoms: C6_6  and  C8_8 
REMARK    6  A    between atoms: C10_10  and  O1_11 
REMARK    7  A    between atoms: C23_24  and  O2_25 
REMARK    8  A    between atoms: C29_31  and  O3_32 
REMARK    9  A    between atoms: C30_33  and  O4_34 
ROOT
HETATM    1  C8  UNL     1      -7.489  47.545 -29.868  1.00  0.00     0.001 C 
HETATM    2  C9  UNL     1      -6.011  48.011 -29.961  1.00  0.00     0.038 C 
HETATM    3  C10 UNL     1      -5.273  46.956 -30.818  1.00  0.00     0.132 C 
HETATM    4  C11 UNL     1      -6.401  46.200 -31.565  1.00  0.00     0.016 C 
HETATM    5  C12 UNL     1      -6.873  47.069 -32.783  1.00  0.00     0.023 C 
HETATM    6  C13 UNL     1      -6.118  44.817 -32.147  1.00  0.00    -0.037 C 
HETATM    7  C14 UNL     1      -7.147  43.942 -32.316  1.00  0.00    -0.065 C 
HETATM    8  C15 UNL     1      -8.562  44.258 -31.793  1.00  0.00     0.036 C 
HETATM    9  C16 UNL     1      -8.767  45.568 -30.999  1.00  0.00     0.015 C 
HETATM   10  C17 UNL     1      -7.453  46.078 -30.397  1.00  0.00    -0.026 C 
HETATM   11  C18 UNL     1      -7.015  45.086 -29.284  1.00  0.00     0.016 C 
HETATM   12  C19 UNL     1      -6.938  42.549 -32.985  1.00  0.00    -0.016 C 
HETATM   13  C20 UNL     1      -6.937  41.533 -31.817  1.00  0.00     0.020 C 
HETATM   14  C21 UNL     1      -8.104  42.232 -33.972  1.00  0.00     0.016 C 
HETATM   15  C22 UNL     1      -7.720  41.492 -35.260  1.00  0.00     0.033 C 
HETATM   16  C23 UNL     1      -6.576  40.502 -35.080  1.00  0.00     0.126 C 
HETATM   17  C24 UNL     1      -5.274  41.200 -34.581  1.00  0.00    -0.017 C 
HETATM   18  C25 UNL     1      -4.452  41.590 -35.845  1.00  0.00     0.018 C 
HETATM   19  C26 UNL     1      -4.390  40.217 -33.784  1.00  0.00     0.018 C 
HETATM   20  C27 UNL     1      -5.599  42.537 -33.803  1.00  0.00     0.011 C 
HETATM   21  C28 UNL     1      -4.433  43.058 -32.949  1.00  0.00     0.043 C 
HETATM   22  C29 UNL     1      -4.680  44.498 -32.498  1.00  0.00     0.148 C 
ENDROOT
BRANCH   1  23
HETATM   23  C6  UNL     1      -8.247  47.908 -28.555  1.00  0.00    -0.013 C 
HETATM   24  C7  UNL     1      -9.728  47.508 -28.498  1.00  0.00     0.010 C 
BRANCH  23  25
HETATM   25  C5  UNL     1      -7.503  47.269 -27.341  1.00  0.00     0.008 C 
BRANCH  25  26
HETATM   26  C4  UNL     1      -6.069  47.782 -27.131  1.00  0.00     0.028 C 
BRANCH  26  27
HETATM   27  C3  UNL     1      -5.726  48.100 -25.704  1.00  0.00    -0.022 C 
HETATM   28  C2  UNL     1      -4.526  48.426 -25.183  1.00  0.00    -0.064 C 
HETATM   29  C1  UNL     1      -3.243  48.550 -25.961  1.00  0.00     0.045 C 
BRANCH  28  30
HETATM   30  C30 UNL     1      -4.381  48.690 -23.703  1.00  0.00     0.197 C 
BRANCH  30  31
HETATM   31  O4  UNL     1      -3.587  49.848 -23.509  1.00  0.00    -0.397 OA
HETATM   32  H50 UNL     1      -3.940  50.531 -24.104  1.00  0.00     0.209 HD
ENDBRANCH  30  31
ENDBRANCH  28  30
ENDBRANCH  26  27
ENDBRANCH  25  26
ENDBRANCH  23  25
ENDBRANCH   1  23
BRANCH   3  33
HETATM   33  O1  UNL     1      -4.332  47.556 -31.701  1.00  0.00    -0.394 OA
HETATM   34  H17 UNL     1      -3.767  48.142 -31.165  1.00  0.00     0.210 HD
ENDBRANCH   3  33
BRANCH  22  35
HETATM   35  O3  UNL     1      -4.246  45.369 -33.538  1.00  0.00    -0.391 OA
HETATM   36  H47 UNL     1      -4.156  46.253 -33.126  1.00  0.00     0.210 HD
ENDBRANCH  22  35
BRANCH  16  37
HETATM   37  O2  UNL     1      -7.002  39.465 -34.199  1.00  0.00    -0.395 OA
HETATM   38  H36 UNL     1      -7.777  39.037 -34.602  1.00  0.00     0.210 HD
ENDBRANCH  16  37
TORSDOF 9
ENDMDL
MODEL 6
REMARK minimizedAffinity -7.22423553
REMARK CNNscore 0.560968816
REMARK CNNaffinity 6.60189009
REMARK  9 active torsions:
REMARK  status: ('A' for Active; 'I' for Inactive)
REMARK    1  A    between atoms: C2_2  and  C30_33 
REMARK    2  A    between atoms: C3_3  and  C4_4 
REMARK    3  A    between atoms: C4_4  and  C5_5 
REMARK    4  A    between atoms: C5_5  and  C6_6 
REMARK    5  A    between atoms: C6_6  and  C8_8 
REMARK    6  A    between atoms: C10_10  and  O1_11 
REMARK    7  A    between atoms: C23_24  and  O2_25 
REMARK    8  A    between atoms: C29_31  and  O3_32 
REMARK    9  A    between atoms: C30_33  and  O4_34 
ROOT
HETATM    1  C8  UNL     1      -0.597  53.085 -12.034  1.00  0.00     0.001 C 
HETATM    2  C9  UNL     1      -0.007  52.246 -13.201  1.00  0.00     0.038 C 
HETATM    3  C10 UNL     1      -0.892  50.984 -13.324  1.00  0.00     0.132 C 
HETATM    4  C11 UNL     1      -2.199  51.348 -12.575  1.00  0.00     0.016 C 
HETATM    5  C12 UNL     1      -3.089  52.237 -13.511  1.00  0.00     0.023 C 
HETATM    6  C13 UNL     1      -3.121  50.230 -12.090  1.00  0.00    -0.037 C 
HETATM    7  C14 UNL     1      -3.939  50.456 -11.026  1.00  0.00    -0.065 C 
HETATM    8  C15 UNL     1      -3.845  51.757 -10.205  1.00  0.00     0.036 C 
HETATM    9  C16 UNL     1      -2.741  52.773 -10.576  1.00  0.00     0.015 C 
HETATM   10  C17 UNL     1      -1.588  52.105 -11.334  1.00  0.00    -0.026 C 
HETATM   11  C18 UNL     1      -0.846  51.161 -10.348  1.00  0.00     0.016 C 
HETATM   12  C19 UNL     1      -4.965  49.388 -10.539  1.00  0.00    -0.016 C 
HETATM   13  C20 UNL     1      -4.331  48.764  -9.272  1.00  0.00     0.020 C 
HETATM   14  C21 UNL     1      -6.329  50.056 -10.184  1.00  0.00     0.016 C 
HETATM   15  C22 UNL     1      -7.588  49.256 -10.541  1.00  0.00     0.033 C 
HETATM   16  C23 UNL     1      -7.415  47.749 -10.409  1.00  0.00     0.126 C 
HETATM   17  C24 UNL     1      -6.285  47.208 -11.338  1.00  0.00    -0.017 C 
HETATM   18  C25 UNL     1      -6.957  46.796 -12.682  1.00  0.00     0.018 C 
HETATM   19  C26 UNL     1      -5.663  45.919 -10.760  1.00  0.00     0.018 C 
HETATM   20  C27 UNL     1      -5.225  48.332 -11.671  1.00  0.00     0.011 C 
HETATM   21  C28 UNL     1      -3.900  47.792 -12.228  1.00  0.00     0.043 C 
HETATM   22  C29 UNL     1      -3.058  48.914 -12.836  1.00  0.00     0.148 C 
ENDROOT
BRANCH   1  23
HETATM   23  C6  UNL     1       0.418  53.931 -11.208  1.00  0.00    -0.013 C 
HETATM   24  C7  UNL     1      -0.178  54.797 -10.090  1.00  0.00     0.010 C 
BRANCH  23  25
HETATM   25  C5  UNL     1       1.493  52.982 -10.594  1.00  0.00     0.008 C 
BRANCH  25  26
HETATM   26  C4  UNL     1       2.883  53.088 -11.245  1.00  0.00     0.028 C 
BRANCH  26  27
HETATM   27  C3  UNL     1       3.929  53.723 -10.375  1.00  0.00    -0.022 C 
HETATM   28  C2  UNL     1       4.191  55.034 -10.199  1.00  0.00    -0.064 C 
HETATM   29  C1  UNL     1       3.449  56.166 -10.860  1.00  0.00     0.045 C 
BRANCH  28  30
HETATM   30  C30 UNL     1       5.312  55.475  -9.289  1.00  0.00     0.197 C 
BRANCH  30  31
HETATM   31  O4  UNL     1       6.480  54.726  -9.587  1.00  0.00    -0.397 OA
HETATM   32  H50 UNL     1       6.585  54.746 -10.553  1.00  0.00     0.209 HD
ENDBRANCH  30  31
ENDBRANCH  28  30
ENDBRANCH  26  27
ENDBRANCH  25  26
ENDBRANCH  23  25
ENDBRANCH   1  23
BRANCH   3  33
HETATM   33  O1  UNL     1      -1.115  50.625 -14.682  1.00  0.00    -0.394 OA
HETATM   34  H17 UNL     1      -0.244  50.579 -15.115  1.00  0.00     0.210 HD
ENDBRANCH   3  33
BRANCH  22  35
HETATM   35  O3  UNL     1      -3.488  49.114 -14.179  1.00  0.00    -0.391 OA
HETATM   36  H47 UNL     1      -2.773  49.621 -14.616  1.00  0.00     0.210 HD
ENDBRANCH  22  35
BRANCH  16  37
HETATM   37  O2  UNL     1      -7.182  47.432  -9.039  1.00  0.00    -0.395 OA
HETATM   38  H36 UNL     1      -7.951  47.743  -8.531  1.00  0.00     0.210 HD
ENDBRANCH  16  37
TORSDOF 9
ENDMDL
MODEL 7
REMARK minimizedAffinity -7.48491907
REMARK CNNscore 0.519806623
REMARK CNNaffinity 6.16646051
REMARK  9 active torsions:
REMARK  status: ('A' for Active; 'I' for Inactive)
REMARK    1  A    between atoms: C2_2  and  C30_33 
REMARK    2  A    between atoms: C3_3  and  C4_4 
REMARK    3  A    between atoms: C4_4  and  C5_5 
REMARK    4  A    between atoms: C5_5  and  C6_6 
REMARK    5  A    between atoms: C6_6  and  C8_8 
REMARK    6  A    between atoms: C10_10  and  O1_11 
REMARK    7  A    between atoms: C23_24  and  O2_25 
REMARK    8  A    between atoms: C29_31  and  O3_32 
REMARK    9  A    between atoms: C30_33  and  O4_34 
ROOT
HETATM    1  C8  UNL     1     -12.965  44.892 -27.192  1.00  0.00     0.001 C 
HETATM    2  C9  UNL     1     -13.170  43.796 -28.273  1.00  0.00     0.038 C 
HETATM    3  C10 UNL     1     -12.002  43.946 -29.275  1.00  0.00     0.132 C 
HETATM    4  C11 UNL     1     -10.936  44.774 -28.513  1.00  0.00     0.016 C 
HETATM    5  C12 UNL     1     -10.163  43.826 -27.533  1.00  0.00     0.023 C 
HETATM    6  C13 UNL     1      -9.852  45.505 -29.302  1.00  0.00    -0.037 C 
HETATM    7  C14 UNL     1      -9.267  46.611 -28.764  1.00  0.00    -0.065 C 
HETATM    8  C15 UNL     1      -9.782  47.229 -27.448  1.00  0.00     0.036 C 
HETATM    9  C16 UNL     1     -11.033  46.603 -26.791  1.00  0.00     0.015 C 
HETATM   10  C17 UNL     1     -11.876  45.825 -27.807  1.00  0.00    -0.026 C 
HETATM   11  C18 UNL     1     -12.503  46.846 -28.798  1.00  0.00     0.016 C 
HETATM   12  C19 UNL     1      -8.095  47.349 -29.478  1.00  0.00    -0.016 C 
HETATM   13  C20 UNL     1      -8.732  48.614 -30.103  1.00  0.00     0.020 C 
HETATM   14  C21 UNL     1      -6.992  47.754 -28.451  1.00  0.00     0.016 C 
HETATM   15  C22 UNL     1      -5.541  47.649 -28.940  1.00  0.00     0.033 C 
HETATM   16  C23 UNL     1      -5.367  47.969 -30.419  1.00  0.00     0.126 C 
HETATM   17  C24 UNL     1      -6.195  47.007 -31.325  1.00  0.00    -0.017 C 
HETATM   18  C25 UNL     1      -5.264  45.814 -31.694  1.00  0.00     0.018 C 
HETATM   19  C26 UNL     1      -6.567  47.687 -32.660  1.00  0.00     0.018 C 
HETATM   20  C27 UNL     1      -7.435  46.409 -30.548  1.00  0.00     0.011 C 
HETATM   21  C28 UNL     1      -8.503  45.791 -31.464  1.00  0.00     0.043 C 
HETATM   22  C29 UNL     1      -9.495  44.947 -30.664  1.00  0.00     0.148 C 
ENDROOT
BRANCH   1  23
HETATM   23  C6  UNL     1     -14.257  45.478 -26.547  1.00  0.00    -0.013 C 
HETATM   24  C7  UNL     1     -14.118  46.860 -25.894  1.00  0.00     0.010 C 
BRANCH  23  25
HETATM   25  C5  UNL     1     -15.383  45.540 -27.626  1.00  0.00     0.008 C 
BRANCH  25  26
HETATM   26  C4  UNL     1     -16.604  44.655 -27.324  1.00  0.00     0.028 C 
BRANCH  26  27
HETATM   27  C3  UNL     1     -17.601  45.272 -26.386  1.00  0.00    -0.022 C 
HETATM   28  C2  UNL     1     -18.918  45.007 -26.271  1.00  0.00    -0.064 C 
HETATM   29  C1  UNL     1     -19.678  43.994 -27.086  1.00  0.00     0.045 C 
BRANCH  28  30
HETATM   30  C30 UNL     1     -19.765  45.760 -25.272  1.00  0.00     0.197 C 
BRANCH  30  31
HETATM   31  O4  UNL     1     -19.221  47.055 -25.078  1.00  0.00    -0.397 OA
HETATM   32  H50 UNL     1     -19.051  47.421 -25.962  1.00  0.00     0.209 HD
ENDBRANCH  30  31
ENDBRANCH  28  30
ENDBRANCH  26  27
ENDBRANCH  25  26
ENDBRANCH  23  25
ENDBRANCH   1  23
BRANCH   3  33
HETATM   33  O1  UNL     1     -11.513  42.682 -29.709  1.00  0.00    -0.394 OA
HETATM   34  H17 UNL     1     -12.279  42.168 -30.020  1.00  0.00     0.210 HD
ENDBRANCH   3  33
BRANCH  22  35
HETATM   35  O3  UNL     1      -8.942  43.644 -30.506  1.00  0.00    -0.391 OA
HETATM   36  H47 UNL     1      -9.690  43.066 -30.247  1.00  0.00     0.210 HD
ENDBRANCH  22  35
BRANCH  16  37
HETATM   37  O2  UNL     1      -5.707  49.337 -30.635  1.00  0.00    -0.395 OA
HETATM   38  H36 UNL     1      -5.113  49.877 -30.087  1.00  0.00     0.210 HD
ENDBRANCH  16  37
TORSDOF 9
ENDMDL
MODEL 8
REMARK minimizedAffinity -7.22885656
REMARK CNNscore 0.452248484
REMARK CNNaffinity 6.11743355
REMARK  9 active torsions:
REMARK  status: ('A' for Active; 'I' for Inactive)
REMARK    1  A    between atoms: C2_2  and  C30_33 
REMARK    2  A    between atoms: C3_3  and  C4_4 
REMARK    3  A    between atoms: C4_4  and  C5_5 
REMARK    4  A    between atoms: C5_5  and  C6_6 
REMARK    5  A    between atoms: C6_6  and  C8_8 
REMARK    6  A    between atoms: C10_10  and  O1_11 
REMARK    7  A    between atoms: C23_24  and  O2_25 
REMARK    8  A    between atoms: C29_31  and  O3_32 
REMARK    9  A    between atoms: C30_33  and  O4_34 
ROOT
HETATM    1  C8  UNL     1      -6.519  48.022 -28.570  1.00  0.00     0.001 C 
HETATM    2  C9  UNL     1      -5.166  47.778 -29.293  1.00  0.00     0.038 C 
HETATM    3  C10 UNL     1      -5.498  47.028 -30.604  1.00  0.00     0.132 C 
HETATM    4  C11 UNL     1      -7.012  47.277 -30.823  1.00  0.00     0.016 C 
HETATM    5  C12 UNL     1      -7.208  48.711 -31.426  1.00  0.00     0.023 C 
HETATM    6  C13 UNL     1      -7.798  46.345 -31.744  1.00  0.00    -0.037 C 
HETATM    7  C14 UNL     1      -9.137  46.194 -31.554  1.00  0.00    -0.065 C 
HETATM    8  C15 UNL     1      -9.849  46.821 -30.338  1.00  0.00     0.036 C 
HETATM    9  C16 UNL     1      -8.986  47.565 -29.294  1.00  0.00     0.015 C 
HETATM   10  C17 UNL     1      -7.523  47.110 -29.341  1.00  0.00    -0.026 C 
HETATM   11  C18 UNL     1      -7.457  45.643 -28.834  1.00  0.00     0.016 C 
HETATM   12  C19 UNL     1     -10.010  45.328 -32.512  1.00  0.00    -0.016 C 
HETATM   13  C20 UNL     1     -10.267  44.008 -31.746  1.00  0.00     0.020 C 
HETATM   14  C21 UNL     1     -11.362  46.043 -32.822  1.00  0.00     0.016 C 
HETATM   15  C22 UNL     1     -11.898  45.887 -34.251  1.00  0.00     0.033 C 
HETATM   16  C23 UNL     1     -11.581  44.537 -34.882  1.00  0.00     0.126 C 
HETATM   17  C24 UNL     1     -10.046  44.281 -34.969  1.00  0.00    -0.017 C 
HETATM   18  C25 UNL     1      -9.575  44.799 -36.361  1.00  0.00     0.018 C 
HETATM   19  C26 UNL     1      -9.735  42.769 -34.951  1.00  0.00     0.018 C 
HETATM   20  C27 UNL     1      -9.260  45.105 -33.873  1.00  0.00     0.011 C 
HETATM   21  C28 UNL     1      -7.826  44.610 -33.631  1.00  0.00     0.043 C 
HETATM   22  C29 UNL     1      -7.019  45.629 -32.827  1.00  0.00     0.148 C 
ENDROOT
BRANCH   1  23
HETATM   23  C6  UNL     1      -6.478  48.037 -27.012  1.00  0.00    -0.013 C 
HETATM   24  C7  UNL     1      -7.238  46.905 -26.306  1.00  0.00     0.010 C 
BRANCH  23  25
HETATM   25  C5  UNL     1      -4.991  48.019 -26.540  1.00  0.00     0.008 C 
BRANCH  25  26
HETATM   26  C4  UNL     1      -4.786  48.414 -25.068  1.00  0.00     0.028 C 
BRANCH  26  27
HETATM   27  C3  UNL     1      -3.417  48.945 -24.753  1.00  0.00    -0.022 C 
HETATM   28  C2  UNL     1      -3.038  50.223 -24.551  1.00  0.00    -0.064 C 
HETATM   29  C1  UNL     1      -3.953  51.419 -24.596  1.00  0.00     0.045 C 
BRANCH  28  30
HETATM   30  C30 UNL     1      -1.594  50.558 -24.266  1.00  0.00     0.197 C 
BRANCH  30  31
HETATM   31  O4  UNL     1      -1.313  50.299 -22.900  1.00  0.00    -0.397 OA
HETATM   32  H50 UNL     1      -1.667  49.415 -22.706  1.00  0.00     0.209 HD
ENDBRANCH  30  31
ENDBRANCH  28  30
ENDBRANCH  26  27
ENDBRANCH  25  26
ENDBRANCH  23  25
ENDBRANCH   1  23
BRANCH   3  33
HETATM   33  O1  UNL     1      -4.700  47.484 -31.690  1.00  0.00    -0.394 OA
HETATM   34  H17 UNL     1      -3.771  47.446 -31.401  1.00  0.00     0.210 HD
ENDBRANCH   3  33
BRANCH  22  35
HETATM   35  O3  UNL     1      -6.485  46.588 -33.734  1.00  0.00    -0.391 OA
HETATM   36  H47 UNL     1      -5.769  47.046 -33.248  1.00  0.00     0.210 HD
ENDBRANCH  22  35
BRANCH  16  37
HETATM   37  O2  UNL     1     -12.255  43.519 -34.147  1.00  0.00    -0.395 OA
HETATM   38  H36 UNL     1     -13.208  43.709 -34.186  1.00  0.00     0.210 HD
ENDBRANCH  16  37
TORSDOF 9
ENDMDL
MODEL 9
REMARK minimizedAffinity -9.17365837
REMARK CNNscore 0.366887957
REMARK CNNaffinity 6.67153502
REMARK  9 active torsions:
REMARK  status: ('A' for Active; 'I' for Inactive)
REMARK    1  A    between atoms: C2_2  and  C30_33 
REMARK    2  A    between atoms: C3_3  and  C4_4 
REMARK    3  A    between atoms: C4_4  and  C5_5 
REMARK    4  A    between atoms: C5_5  and  C6_6 
REMARK    5  A    between atoms: C6_6  and  C8_8 
REMARK    6  A    between atoms: C10_10  and  O1_11 
REMARK    7  A    between atoms: C23_24  and  O2_25 
REMARK    8  A    between atoms: C29_31  and  O3_32 
REMARK    9  A    between atoms: C30_33  and  O4_34 
ROOT
HETATM    1  C8  UNL     1      -0.531  49.952 -20.431  1.00  0.00     0.001 C 
HETATM    2  C9  UNL     1      -0.891  49.076 -19.200  1.00  0.00     0.038 C 
HETATM    3  C10 UNL     1      -2.249  48.409 -19.519  1.00  0.00     0.132 C 
HETATM    4  C11 UNL     1      -2.393  48.533 -21.058  1.00  0.00     0.016 C 
HETATM    5  C12 UNL     1      -1.524  47.421 -21.740  1.00  0.00     0.023 C 
HETATM    6  C13 UNL     1      -3.777  48.405 -21.693  1.00  0.00    -0.037 C 
HETATM    7  C14 UNL     1      -4.020  49.009 -22.888  1.00  0.00    -0.065 C 
HETATM    8  C15 UNL     1      -2.981  49.945 -23.538  1.00  0.00     0.036 C 
HETATM    9  C16 UNL     1      -1.681  50.242 -22.757  1.00  0.00     0.015 C 
HETATM   10  C17 UNL     1      -1.855  50.002 -21.254  1.00  0.00    -0.026 C 
HETATM   11  C18 UNL     1      -2.823  51.085 -20.701  1.00  0.00     0.016 C 
HETATM   12  C19 UNL     1      -5.381  48.844 -23.629  1.00  0.00    -0.016 C 
HETATM   13  C20 UNL     1      -6.143  50.168 -23.381  1.00  0.00     0.020 C 
HETATM   14  C21 UNL     1      -5.153  48.633 -25.158  1.00  0.00     0.016 C 
HETATM   15  C22 UNL     1      -6.102  47.650 -25.855  1.00  0.00     0.033 C 
HETATM   16  C23 UNL     1      -7.514  47.650 -25.283  1.00  0.00     0.126 C 
HETATM   17  C24 UNL     1      -7.530  47.264 -23.772  1.00  0.00    -0.017 C 
HETATM   18  C25 UNL     1      -7.732  45.721 -23.697  1.00  0.00     0.018 C 
HETATM   19  C26 UNL     1      -8.747  47.888 -23.054  1.00  0.00     0.018 C 
HETATM   20  C27 UNL     1      -6.148  47.589 -23.079  1.00  0.00     0.011 C 
HETATM   21  C28 UNL     1      -6.213  47.620 -21.544  1.00  0.00     0.043 C 
HETATM   22  C29 UNL     1      -4.812  47.604 -20.932  1.00  0.00     0.148 C 
ENDROOT
BRANCH   1  23
HETATM   23  C6  UNL     1       0.288  51.246 -20.143  1.00  0.00    -0.013 C 
HETATM   24  C7  UNL     1       0.208  52.347 -21.211  1.00  0.00     0.010 C 
BRANCH  23  25
HETATM   25  C5  UNL     1      -0.160  51.840 -18.771  1.00  0.00     0.008 C 
BRANCH  25  26
HETATM   26  C4  UNL     1       0.957  52.552 -17.990  1.00  0.00     0.028 C 
BRANCH  26  27
HETATM   27  C3  UNL     1       1.209  51.994 -16.619  1.00  0.00    -0.022 C 
HETATM   28  C2  UNL     1       2.347  52.027 -15.896  1.00  0.00    -0.064 C 
HETATM   29  C1  UNL     1       3.640  52.662 -16.336  1.00  0.00     0.045 C 
BRANCH  28  30
HETATM   30  C30 UNL     1       2.406  51.382 -14.533  1.00  0.00     0.197 C 
BRANCH  30  31
HETATM   31  O4  UNL     1       2.019  52.328 -13.549  1.00  0.00    -0.397 OA
HETATM   32  H50 UNL     1       1.199  52.743 -13.869  1.00  0.00     0.209 HD
ENDBRANCH  30  31
ENDBRANCH  28  30
ENDBRANCH  26  27
ENDBRANCH  25  26
ENDBRANCH  23  25
ENDBRANCH   1  23
BRANCH   3  33
HETATM   33  O1  UNL     1      -2.295  47.061 -19.067  1.00  0.00    -0.394 OA
HETATM   34  H17 UNL     1      -2.030  47.062 -18.130  1.00  0.00     0.210 HD
ENDBRANCH   3  33
BRANCH  22  35
HETATM   35  O3  UNL     1      -4.384  46.249 -20.841  1.00  0.00    -0.391 OA
HETATM   36  H47 UNL     1      -3.633  46.248 -20.210  1.00  0.00     0.210 HD
ENDBRANCH  22  35
BRANCH  16  37
HETATM   37  O2  UNL     1      -8.104  48.926 -25.519  1.00  0.00    -0.395 OA
HETATM   38  H36 UNL     1      -8.115  49.072 -26.480  1.00  0.00     0.210 HD
ENDBRANCH  16  37
TORSDOF 9
ENDMDL
