MODEL 1
REMARK minimizedAffinity -7.31493902
REMARK CNNscore 0.798017502
REMARK CNNaffinity 7.42496538
REMARK  10 active torsions:
REMARK  status: ('A' for Active; 'I' for Inactive)
REMARK    1  A    between atoms: C2_2  and  O2_4 
REMARK    2  A    between atoms: O2_4  and  C3_5 
REMARK    3  A    between atoms: C10_12  and  O3_13 
REMARK    4  A    between atoms: O3_13  and  C11_14 
REMARK    5  A    between atoms: C13_17  and  O5_18 
REMARK    6  A    between atoms: C14_19  and  O6_20 
REMARK    7  A    between atoms: C15_21  and  O7_22 
REMARK    8  A    between atoms: C27_35  and  O9_36 
REMARK    9  A    between atoms: C27_35  and  C28_37 
REMARK   10  A    between atoms: C28_37  and  C29_39 
ROOT
HETATM    1  C3  UNL     1       5.029  53.566  -7.242  1.00  0.00     0.142 C 
HETATM    2  C4  UNL     1       4.049  53.121  -8.334  1.00  0.00     0.044 C 
HETATM    3  C5  UNL     1       2.690  53.777  -8.145  1.00  0.00    -0.025 A 
HETATM    4  C6  UNL     1       1.651  52.822  -7.575  1.00  0.00     0.021 A 
HETATM    5  C7  UNL     1       1.470  53.345  -8.981  1.00  0.00    -0.027 A 
HETATM    6  C8  UNL     1       1.711  52.402 -10.146  1.00  0.00     0.013 C 
HETATM    7  C9  UNL     1       0.427  51.711 -10.578  1.00  0.00     0.034 C 
HETATM    8  C10 UNL     1      -0.670  52.727 -10.898  1.00  0.00     0.133 C 
HETATM    9  C16 UNL     1      -0.983  53.664  -9.686  1.00  0.00    -0.017 C 
HETATM   10  C17 UNL     1      -1.645  52.885  -8.528  1.00  0.00     0.018 C 
HETATM   11  C18 UNL     1      -2.010  54.722 -10.157  1.00  0.00     0.018 C 
HETATM   12  C19 UNL     1       0.356  54.365  -9.254  1.00  0.00     0.005 C 
HETATM   13  C20 UNL     1       0.208  55.361  -8.094  1.00  0.00     0.007 C 
HETATM   14  C21 UNL     1       1.522  56.091  -7.859  1.00  0.00     0.007 C 
HETATM   15  C22 UNL     1       2.758  55.202  -7.567  1.00  0.00     0.004 C 
HETATM   16  C23 UNL     1       4.122  55.927  -7.943  1.00  0.00    -0.027 C 
HETATM   17  C24 UNL     1       4.171  56.263  -9.457  1.00  0.00     0.016 C 
HETATM   18  C25 UNL     1       4.216  57.271  -7.140  1.00  0.00     0.042 C 
HETATM   19  C26 UNL     1       5.602  57.264  -6.531  1.00  0.00     0.131 C 
HETATM   20  O8  UNL     1       5.752  58.129  -5.424  1.00  0.00    -0.343 OA
HETATM   21  C27 UNL     1       7.117  58.189  -4.993  1.00  0.00     0.225 C 
HETATM   22  C32 UNL     1       7.912  56.887  -5.296  1.00  0.00     0.081 C 
HETATM   23  C33 UNL     1       7.016  55.638  -5.215  1.00  0.00    -0.006 C 
HETATM   24  C34 UNL     1       7.824  54.354  -5.307  1.00  0.00     0.010 C 
HETATM   25  C35 UNL     1       5.762  55.796  -6.109  1.00  0.00     0.030 C 
HETATM   26  C36 UNL     1       5.421  55.064  -7.453  1.00  0.00    -0.003 C 
HETATM   27  C37 UNL     1       6.604  55.151  -8.456  1.00  0.00     0.019 C 
ENDROOT
BRANCH   8  28
HETATM   28  O3  UNL     1      -1.846  52.001 -11.283  1.00  0.00    -0.353 OA
BRANCH  28  29
HETATM   29  C11 UNL     1      -2.138  52.111 -12.686  1.00  0.00     0.291 C 
HETATM   30  O4  UNL     1      -0.945  52.207 -13.475  1.00  0.00    -0.356 OA
HETATM   31  C12 UNL     1      -0.440  50.941 -13.880  1.00  0.00     0.205 C 
HETATM   32  C13 UNL     1      -1.408  50.228 -14.838  1.00  0.00     0.173 C 
HETATM   33  C14 UNL     1      -2.882  50.611 -14.560  1.00  0.00     0.182 C 
HETATM   34  C15 UNL     1      -3.039  50.904 -13.068  1.00  0.00     0.204 C 
BRANCH  32  35
HETATM   35  O5  UNL     1      -1.228  48.814 -14.696  1.00  0.00    -0.391 OA
HETATM   36  H18 UNL     1      -1.622  48.571 -13.833  1.00  0.00     0.210 HD
ENDBRANCH  32  35
BRANCH  33  37
HETATM   37  O6  UNL     1      -3.329  51.743 -15.313  1.00  0.00    -0.390 OA
HETATM   38  H20 UNL     1      -2.638  51.992 -15.954  1.00  0.00     0.210 HD
ENDBRANCH  33  37
BRANCH  34  39
HETATM   39  O7  UNL     1      -2.662  49.729 -12.316  1.00  0.00    -0.388 OA
HETATM   40  H22 UNL     1      -2.384  50.079 -11.444  1.00  0.00     0.210 HD
ENDBRANCH  34  39
ENDBRANCH  28  29
ENDBRANCH   8  28
BRANCH   1  41
HETATM   41  O2  UNL     1       6.198  52.722  -7.308  1.00  0.00    -0.315 OA
BRANCH  41  42
HETATM   42  C2  UNL     1       6.285  51.888  -8.381  1.00  0.00     0.255 C 
HETATM   43  C1  UNL     1       7.337  50.848  -8.129  1.00  0.00     0.126 C 
HETATM   44  O1  UNL     1       5.609  51.957  -9.398  1.00  0.00    -0.266 OA
ENDBRANCH  41  42
ENDBRANCH   1  41
BRANCH  21  45
HETATM   45  O9  UNL     1       7.744  59.224  -5.739  1.00  0.00    -0.359 OA
HETATM   46  H41 UNL     1       7.085  59.938  -5.771  1.00  0.00     0.213 HD
ENDBRANCH  21  45
BRANCH  21  47
HETATM   47  C28 UNL     1       7.137  58.492  -3.455  1.00  0.00     0.192 C 
HETATM   48  O10 UNL     1       8.037  58.074  -2.718  1.00  0.00    -0.292 OA
BRANCH  47  49
HETATM   49  C29 UNL     1       5.974  59.314  -2.882  1.00  0.00     0.053 C 
HETATM   50  C30 UNL     1       5.817  60.637  -3.622  1.00  0.00     0.017 C 
HETATM   51  C31 UNL     1       4.665  58.524  -2.943  1.00  0.00     0.017 C 
ENDBRANCH  47  49
ENDBRANCH  21  47
TORSDOF 10
ENDMDL
MODEL 2
REMARK minimizedAffinity -8.79580784
REMARK CNNscore 0.795313358
REMARK CNNaffinity 6.85401583
REMARK  10 active torsions:
REMARK  status: ('A' for Active; 'I' for Inactive)
REMARK    1  A    between atoms: C2_2  and  O2_4 
REMARK    2  A    between atoms: O2_4  and  C3_5 
REMARK    3  A    between atoms: C10_12  and  O3_13 
REMARK    4  A    between atoms: O3_13  and  C11_14 
REMARK    5  A    between atoms: C13_17  and  O5_18 
REMARK    6  A    between atoms: C14_19  and  O6_20 
REMARK    7  A    between atoms: C15_21  and  O7_22 
REMARK    8  A    between atoms: C27_35  and  O9_36 
REMARK    9  A    between atoms: C27_35  and  C28_37 
REMARK   10  A    between atoms: C28_37  and  C29_39 
ROOT
HETATM    1  C3  UNL     1       5.391  58.006  -4.874  1.00  0.00     0.142 C 
HETATM    2  C4  UNL     1       4.266  57.169  -5.495  1.00  0.00     0.044 C 
HETATM    3  C5  UNL     1       4.627  56.734  -6.907  1.00  0.00    -0.025 A 
HETATM    4  C6  UNL     1       3.893  57.533  -7.974  1.00  0.00     0.021 A 
HETATM    5  C7  UNL     1       3.592  56.059  -7.826  1.00  0.00    -0.027 A 
HETATM    6  C8  UNL     1       2.268  55.644  -7.212  1.00  0.00     0.013 C 
HETATM    7  C9  UNL     1       1.203  55.430  -8.275  1.00  0.00     0.034 C 
HETATM    8  C10 UNL     1       1.667  54.428  -9.333  1.00  0.00     0.133 C 
HETATM    9  C16 UNL     1       2.995  54.872 -10.028  1.00  0.00    -0.017 C 
HETATM   10  C17 UNL     1       2.781  56.129 -10.901  1.00  0.00     0.018 C 
HETATM   11  C18 UNL     1       3.435  53.736 -10.983  1.00  0.00     0.018 C 
HETATM   12  C19 UNL     1       4.080  55.091  -8.913  1.00  0.00     0.005 C 
HETATM   13  C20 UNL     1       5.466  55.491  -9.441  1.00  0.00     0.007 C 
HETATM   14  C21 UNL     1       6.472  55.526  -8.299  1.00  0.00     0.007 C 
HETATM   15  C22 UNL     1       6.129  56.461  -7.112  1.00  0.00     0.004 C 
HETATM   16  C23 UNL     1       6.836  56.004  -5.763  1.00  0.00    -0.027 C 
HETATM   17  C24 UNL     1       6.371  54.581  -5.350  1.00  0.00     0.016 C 
HETATM   18  C25 UNL     1       8.386  55.964  -5.996  1.00  0.00     0.042 C 
HETATM   19  C26 UNL     1       8.974  56.716  -4.821  1.00  0.00     0.131 C 
HETATM   20  O8  UNL     1      10.286  57.194  -5.037  1.00  0.00    -0.343 OA
HETATM   21  C27 UNL     1      10.837  57.760  -3.841  1.00  0.00     0.225 C 
HETATM   22  C32 UNL     1       9.757  58.346  -2.888  1.00  0.00     0.081 C 
HETATM   23  C33 UNL     1       8.560  58.923  -3.666  1.00  0.00    -0.006 C 
HETATM   24  C34 UNL     1       7.604  59.677  -2.757  1.00  0.00     0.010 C 
HETATM   25  C35 UNL     1       7.985  57.878  -4.653  1.00  0.00     0.030 C 
HETATM   26  C36 UNL     1       6.626  57.100  -4.569  1.00  0.00    -0.003 C 
HETATM   27  C37 UNL     1       6.445  56.433  -3.177  1.00  0.00     0.019 C 
ENDROOT
BRANCH   8  28
HETATM   28  O3  UNL     1       0.619  54.291 -10.303  1.00  0.00    -0.353 OA
BRANCH  28  29
HETATM   29  C11 UNL     1      -0.378  53.329  -9.918  1.00  0.00     0.291 C 
HETATM   30  O4  UNL     1      -1.564  53.960  -9.415  1.00  0.00    -0.356 OA
HETATM   31  C12 UNL     1      -2.516  54.247 -10.431  1.00  0.00     0.205 C 
HETATM   32  C13 UNL     1      -3.073  52.961 -11.063  1.00  0.00     0.173 C 
HETATM   33  C14 UNL     1      -2.037  51.811 -11.039  1.00  0.00     0.182 C 
HETATM   34  C15 UNL     1      -0.636  52.412 -11.145  1.00  0.00     0.204 C 
BRANCH  32  35
HETATM   35  O5  UNL     1      -3.464  53.249 -12.410  1.00  0.00    -0.391 OA
HETATM   36  H18 UNL     1      -2.634  53.353 -12.922  1.00  0.00     0.210 HD
ENDBRANCH  32  35
BRANCH  33  37
HETATM   37  O6  UNL     1      -2.114  50.998  -9.864  1.00  0.00    -0.390 OA
HETATM   38  H20 UNL     1      -2.896  51.262  -9.345  1.00  0.00     0.210 HD
ENDBRANCH  33  37
BRANCH  34  39
HETATM   39  O7  UNL     1      -0.540  53.166 -12.374  1.00  0.00    -0.388 OA
HETATM   40  H22 UNL     1       0.160  53.829 -12.196  1.00  0.00     0.210 HD
ENDBRANCH  34  39
ENDBRANCH  28  29
ENDBRANCH   8  28
BRANCH   1  41
HETATM   41  O2  UNL     1       4.893  58.610  -3.662  1.00  0.00    -0.315 OA
BRANCH  41  42
HETATM   42  C2  UNL     1       3.980  59.609  -3.811  1.00  0.00     0.255 C 
HETATM   43  C1  UNL     1       2.635  59.141  -3.338  1.00  0.00     0.126 C 
HETATM   44  O1  UNL     1       4.208  60.727  -4.253  1.00  0.00    -0.266 OA
ENDBRANCH  41  42
ENDBRANCH   1  41
BRANCH  21  45
HETATM   45  O9  UNL     1      11.465  56.701  -3.132  1.00  0.00    -0.359 OA
HETATM   46  H41 UNL     1      11.912  56.175  -3.817  1.00  0.00     0.213 HD
ENDBRANCH  21  45
BRANCH  21  47
HETATM   47  C28 UNL     1      11.864  58.872  -4.249  1.00  0.00     0.192 C 
HETATM   48  O10 UNL     1      13.040  58.606  -4.522  1.00  0.00    -0.292 OA
BRANCH  47  49
HETATM   49  C29 UNL     1      11.362  60.322  -4.275  1.00  0.00     0.053 C 
HETATM   50  C30 UNL     1      10.183  60.481  -5.228  1.00  0.00     0.017 C 
HETATM   51  C31 UNL     1      10.965  60.787  -2.872  1.00  0.00     0.017 C 
ENDBRANCH  47  49
ENDBRANCH  21  47
TORSDOF 10
ENDMDL
MODEL 3
REMARK minimizedAffinity -7.48224306
REMARK CNNscore 0.771117687
REMARK CNNaffinity 6.80870247
REMARK  10 active torsions:
REMARK  status: ('A' for Active; 'I' for Inactive)
REMARK    1  A    between atoms: C2_2  and  O2_4 
REMARK    2  A    between atoms: O2_4  and  C3_5 
REMARK    3  A    between atoms: C10_12  and  O3_13 
REMARK    4  A    between atoms: O3_13  and  C11_14 
REMARK    5  A    between atoms: C13_17  and  O5_18 
REMARK    6  A    between atoms: C14_19  and  O6_20 
REMARK    7  A    between atoms: C15_21  and  O7_22 
REMARK    8  A    between atoms: C27_35  and  O9_36 
REMARK    9  A    between atoms: C27_35  and  C28_37 
REMARK   10  A    between atoms: C28_37  and  C29_39 
ROOT
HETATM    1  C3  UNL     1       2.704  55.941  -8.001  1.00  0.00     0.142 C 
HETATM    2  C4  UNL     1       3.898  56.715  -7.429  1.00  0.00     0.044 C 
HETATM    3  C5  UNL     1       4.964  55.763  -6.909  1.00  0.00    -0.025 A 
HETATM    4  C6  UNL     1       4.980  55.674  -5.390  1.00  0.00     0.021 A 
HETATM    5  C7  UNL     1       6.170  56.278  -6.100  1.00  0.00    -0.027 A 
HETATM    6  C8  UNL     1       6.379  57.779  -6.023  1.00  0.00     0.013 C 
HETATM    7  C9  UNL     1       7.283  58.157  -4.861  1.00  0.00     0.034 C 
HETATM    8  C10 UNL     1       8.616  57.409  -4.928  1.00  0.00     0.133 C 
HETATM    9  C16 UNL     1       8.425  55.857  -4.938  1.00  0.00    -0.017 C 
HETATM   10  C17 UNL     1       7.881  55.349  -3.584  1.00  0.00     0.018 C 
HETATM   11  C18 UNL     1       9.818  55.209  -5.130  1.00  0.00     0.018 C 
HETATM   12  C19 UNL     1       7.486  55.490  -6.142  1.00  0.00     0.005 C 
HETATM   13  C20 UNL     1       7.234  53.984  -6.318  1.00  0.00     0.007 C 
HETATM   14  C21 UNL     1       6.445  53.730  -7.594  1.00  0.00     0.007 C 
HETATM   15  C22 UNL     1       5.080  54.455  -7.713  1.00  0.00     0.004 C 
HETATM   16  C23 UNL     1       4.634  54.650  -9.226  1.00  0.00    -0.027 C 
HETATM   17  C24 UNL     1       5.662  55.518  -9.999  1.00  0.00     0.016 C 
HETATM   18  C25 UNL     1       4.564  53.243  -9.915  1.00  0.00     0.042 C 
HETATM   19  C26 UNL     1       3.223  53.220 -10.616  1.00  0.00     0.131 C 
HETATM   20  O8  UNL     1       2.749  51.923 -10.918  1.00  0.00    -0.343 OA
HETATM   21  C27 UNL     1       1.557  51.977 -11.711  1.00  0.00     0.225 C 
HETATM   22  C32 UNL     1       0.716  53.262 -11.465  1.00  0.00     0.081 C 
HETATM   23  C33 UNL     1       0.829  53.750 -10.009  1.00  0.00    -0.006 C 
HETATM   24  C34 UNL     1      -0.145  54.877  -9.712  1.00  0.00     0.010 C 
HETATM   25  C35 UNL     1       2.312  53.915  -9.593  1.00  0.00     0.030 C 
HETATM   26  C36 UNL     1       3.112  55.238  -9.336  1.00  0.00    -0.003 C 
HETATM   27  C37 UNL     1       2.945  56.235 -10.516  1.00  0.00     0.019 C 
ENDROOT
BRANCH   8  28
HETATM   28  O3  UNL     1       9.404  57.808  -3.797  1.00  0.00    -0.353 OA
BRANCH  28  29
HETATM   29  C11 UNL     1      10.704  58.298  -4.165  1.00  0.00     0.291 C 
HETATM   30  O4  UNL     1      10.639  59.213  -5.267  1.00  0.00    -0.356 OA
HETATM   31  C12 UNL     1      10.461  60.564  -4.861  1.00  0.00     0.205 C 
HETATM   32  C13 UNL     1      11.678  61.083  -4.078  1.00  0.00     0.173 C 
HETATM   33  C14 UNL     1      12.389  59.949  -3.299  1.00  0.00     0.182 C 
HETATM   34  C15 UNL     1      11.347  58.909  -2.890  1.00  0.00     0.204 C 
BRANCH  32  35
HETATM   35  O5  UNL     1      11.235  62.103  -3.175  1.00  0.00    -0.391 OA
HETATM   36  H18 UNL     1      10.746  61.645  -2.459  1.00  0.00     0.210 HD
ENDBRANCH  32  35
BRANCH  33  37
HETATM   37  O6  UNL     1      13.427  59.309  -4.047  1.00  0.00    -0.390 OA
HETATM   38  H20 UNL     1      13.566  59.795  -4.881  1.00  0.00     0.210 HD
ENDBRANCH  33  37
BRANCH  34  39
HETATM   39  O7  UNL     1      10.344  59.546  -2.068  1.00  0.00    -0.388 OA
HETATM   40  H22 UNL     1       9.545  58.991  -2.189  1.00  0.00     0.210 HD
ENDBRANCH  34  39
ENDBRANCH  28  29
ENDBRANCH   8  28
BRANCH   1  41
HETATM   41  O2  UNL     1       1.624  56.871  -8.228  1.00  0.00    -0.315 OA
BRANCH  41  42
HETATM   42  C2  UNL     1       0.786  57.097  -7.179  1.00  0.00     0.255 C 
HETATM   43  C1  UNL     1       1.585  57.450  -5.959  1.00  0.00     0.126 C 
HETATM   44  O1  UNL     1      -0.436  57.034  -7.213  1.00  0.00    -0.266 OA
ENDBRANCH  41  42
ENDBRANCH   1  41
BRANCH  21  45
HETATM   45  O9  UNL     1       1.964  52.019 -13.072  1.00  0.00    -0.359 OA
HETATM   46  H41 UNL     1       2.704  51.390 -13.128  1.00  0.00     0.213 HD
ENDBRANCH  21  45
BRANCH  21  47
HETATM   47  C28 UNL     1       0.701  50.700 -11.403  1.00  0.00     0.192 C 
HETATM   48  O10 UNL     1       0.571  50.263 -10.253  1.00  0.00    -0.292 OA
BRANCH  47  49
HETATM   49  C29 UNL     1       0.042  49.988 -12.591  1.00  0.00     0.053 C 
HETATM   50  C30 UNL     1       0.525  48.546 -12.708  1.00  0.00     0.017 C 
HETATM   51  C31 UNL     1      -1.483  50.018 -12.469  1.00  0.00     0.017 C 
ENDBRANCH  47  49
ENDBRANCH  21  47
TORSDOF 10
ENDMDL
MODEL 4
REMARK minimizedAffinity -6.53581238
REMARK CNNscore 0.662800729
REMARK CNNaffinity 7.0491662
REMARK  10 active torsions:
REMARK  status: ('A' for Active; 'I' for Inactive)
REMARK    1  A    between atoms: C2_2  and  O2_4 
REMARK    2  A    between atoms: O2_4  and  C3_5 
REMARK    3  A    between atoms: C10_12  and  O3_13 
REMARK    4  A    between atoms: O3_13  and  C11_14 
REMARK    5  A    between atoms: C13_17  and  O5_18 
REMARK    6  A    between atoms: C14_19  and  O6_20 
REMARK    7  A    between atoms: C15_21  and  O7_22 
REMARK    8  A    between atoms: C27_35  and  O9_36 
REMARK    9  A    between atoms: C27_35  and  C28_37 
REMARK   10  A    between atoms: C28_37  and  C29_39 
ROOT
HETATM    1  C3  UNL     1      -0.749  51.767  -8.639  1.00  0.00     0.142 C 
HETATM    2  C4  UNL     1      -0.281  52.909  -7.729  1.00  0.00     0.044 C 
HETATM    3  C5  UNL     1       0.935  53.610  -8.316  1.00  0.00    -0.025 A 
HETATM    4  C6  UNL     1       2.228  53.234  -7.608  1.00  0.00     0.021 A 
HETATM    5  C7  UNL     1       1.725  54.655  -7.506  1.00  0.00    -0.027 A 
HETATM    6  C8  UNL     1       1.130  55.125  -6.192  1.00  0.00     0.013 C 
HETATM    7  C9  UNL     1       2.182  55.771  -5.303  1.00  0.00     0.034 C 
HETATM    8  C10 UNL     1       2.901  56.908  -6.031  1.00  0.00     0.133 C 
HETATM    9  C16 UNL     1       3.580  56.429  -7.355  1.00  0.00    -0.017 C 
HETATM   10  C17 UNL     1       4.766  55.480  -7.068  1.00  0.00     0.018 C 
HETATM   11  C18 UNL     1       4.167  57.673  -8.064  1.00  0.00     0.018 C 
HETATM   12  C19 UNL     1       2.478  55.763  -8.255  1.00  0.00     0.005 C 
HETATM   13  C20 UNL     1       2.981  55.276  -9.623  1.00  0.00     0.007 C 
HETATM   14  C21 UNL     1       1.812  54.792 -10.469  1.00  0.00     0.007 C 
HETATM   15  C22 UNL     1       0.942  53.665  -9.855  1.00  0.00     0.004 C 
HETATM   16  C23 UNL     1      -0.531  53.652 -10.453  1.00  0.00    -0.027 C 
HETATM   17  C24 UNL     1      -1.263  54.987 -10.152  1.00  0.00     0.016 C 
HETATM   18  C25 UNL     1      -0.441  53.484 -12.010  1.00  0.00     0.042 C 
HETATM   19  C26 UNL     1      -1.421  52.378 -12.338  1.00  0.00     0.131 C 
HETATM   20  O8  UNL     1      -1.192  51.752 -13.584  1.00  0.00    -0.343 OA
HETATM   21  C27 UNL     1      -2.239  50.826 -13.900  1.00  0.00     0.225 C 
HETATM   22  C32 UNL     1      -2.917  50.215 -12.641  1.00  0.00     0.081 C 
HETATM   23  C33 UNL     1      -1.923  50.058 -11.476  1.00  0.00    -0.006 C 
HETATM   24  C34 UNL     1      -2.525  49.278 -10.320  1.00  0.00     0.010 C 
HETATM   25  C35 UNL     1      -1.201  51.395 -11.179  1.00  0.00     0.030 C 
HETATM   26  C36 UNL     1      -1.377  52.348  -9.946  1.00  0.00    -0.003 C 
HETATM   27  C37 UNL     1      -2.876  52.673  -9.698  1.00  0.00     0.019 C 
ENDROOT
BRANCH   8  28
HETATM   28  O3  UNL     1       3.881  57.455  -5.137  1.00  0.00    -0.353 OA
BRANCH  28  29
HETATM   29  C11 UNL     1       3.576  58.798  -4.725  1.00  0.00     0.291 C 
HETATM   30  O4  UNL     1       2.393  58.854  -3.917  1.00  0.00    -0.356 OA
HETATM   31  C12 UNL     1       2.657  58.699  -2.529  1.00  0.00     0.205 C 
HETATM   32  C13 UNL     1       3.486  59.870  -1.977  1.00  0.00     0.173 C 
HETATM   33  C14 UNL     1       4.420  60.473  -3.053  1.00  0.00     0.182 C 
HETATM   34  C15 UNL     1       4.838  59.363  -4.017  1.00  0.00     0.204 C 
BRANCH  32  35
HETATM   35  O5  UNL     1       4.251  59.399  -0.862  1.00  0.00    -0.391 OA
HETATM   36  H18 UNL     1       4.964  58.838  -1.234  1.00  0.00     0.210 HD
ENDBRANCH  32  35
BRANCH  33  37
HETATM   37  O6  UNL     1       3.822  61.541  -3.794  1.00  0.00    -0.390 OA
HETATM   38  H20 UNL     1       2.961  61.763  -3.395  1.00  0.00     0.210 HD
ENDBRANCH  33  37
BRANCH  34  39
HETATM   39  O7  UNL     1       5.514  58.324  -3.272  1.00  0.00    -0.388 OA
HETATM   40  H22 UNL     1       5.380  57.516  -3.811  1.00  0.00     0.210 HD
ENDBRANCH  34  39
ENDBRANCH  28  29
ENDBRANCH   8  28
BRANCH   1  41
HETATM   41  O2  UNL     1      -1.718  50.978  -7.918  1.00  0.00    -0.315 OA
BRANCH  41  42
HETATM   42  C2  UNL     1      -1.255  50.282  -6.843  1.00  0.00     0.255 C 
HETATM   43  C1  UNL     1      -0.975  48.863  -7.241  1.00  0.00     0.126 C 
HETATM   44  O1  UNL     1      -1.080  50.733  -5.719  1.00  0.00    -0.266 OA
ENDBRANCH  41  42
ENDBRANCH   1  41
BRANCH  21  45
HETATM   45  O9  UNL     1      -3.248  51.556 -14.585  1.00  0.00    -0.359 OA
HETATM   46  H41 UNL     1      -2.761  52.150 -15.181  1.00  0.00     0.213 HD
ENDBRANCH  21  45
BRANCH  21  47
HETATM   47  C28 UNL     1      -1.637  49.690 -14.799  1.00  0.00     0.192 C 
HETATM   48  O10 UNL     1      -2.345  48.806 -15.295  1.00  0.00    -0.292 OA
BRANCH  47  49
HETATM   49  C29 UNL     1      -0.120  49.697 -15.025  1.00  0.00     0.053 C 
HETATM   50  C30 UNL     1       0.584  48.730 -14.079  1.00  0.00     0.017 C 
HETATM   51  C31 UNL     1       0.218  49.345 -16.475  1.00  0.00     0.017 C 
ENDBRANCH  47  49
ENDBRANCH  21  47
TORSDOF 10
ENDMDL
MODEL 5
REMARK minimizedAffinity -7.22846699
REMARK CNNscore 0.643579125
REMARK CNNaffinity 6.60386276
REMARK  10 active torsions:
REMARK  status: ('A' for Active; 'I' for Inactive)
REMARK    1  A    between atoms: C2_2  and  O2_4 
REMARK    2  A    between atoms: O2_4  and  C3_5 
REMARK    3  A    between atoms: C10_12  and  O3_13 
REMARK    4  A    between atoms: O3_13  and  C11_14 
REMARK    5  A    between atoms: C13_17  and  O5_18 
REMARK    6  A    between atoms: C14_19  and  O6_20 
REMARK    7  A    between atoms: C15_21  and  O7_22 
REMARK    8  A    between atoms: C27_35  and  O9_36 
REMARK    9  A    between atoms: C27_35  and  C28_37 
REMARK   10  A    between atoms: C28_37  and  C29_39 
ROOT
HETATM    1  C3  UNL     1       1.671  57.573  -4.466  1.00  0.00     0.142 C 
HETATM    2  C4  UNL     1       0.941  56.397  -5.127  1.00  0.00     0.044 C 
HETATM    3  C5  UNL     1       1.284  56.305  -6.606  1.00  0.00    -0.025 A 
HETATM    4  C6  UNL     1       0.160  56.808  -7.501  1.00  0.00     0.021 A 
HETATM    5  C7  UNL     1       0.530  55.343  -7.543  1.00  0.00    -0.027 A 
HETATM    6  C8  UNL     1      -0.411  54.335  -6.911  1.00  0.00     0.013 C 
HETATM    7  C9  UNL     1      -1.403  53.787  -7.925  1.00  0.00     0.034 C 
HETATM    8  C10 UNL     1      -0.686  53.197  -9.141  1.00  0.00     0.133 C 
HETATM    9  C16 UNL     1       0.237  54.241  -9.849  1.00  0.00    -0.017 C 
HETATM   10  C17 UNL     1      -0.590  55.360 -10.521  1.00  0.00     0.018 C 
HETATM   11  C18 UNL     1       1.000  53.510 -10.980  1.00  0.00     0.018 C 
HETATM   12  C19 UNL     1       1.250  54.797  -8.784  1.00  0.00     0.005 C 
HETATM   13  C20 UNL     1       2.265  55.809  -9.337  1.00  0.00     0.007 C 
HETATM   14  C21 UNL     1       3.288  56.163  -8.268  1.00  0.00     0.007 C 
HETATM   15  C22 UNL     1       2.724  56.734  -6.941  1.00  0.00     0.004 C 
HETATM   16  C23 UNL     1       3.711  56.497  -5.718  1.00  0.00    -0.027 C 
HETATM   17  C24 UNL     1       3.944  54.980  -5.481  1.00  0.00     0.016 C 
HETATM   18  C25 UNL     1       5.094  57.158  -6.051  1.00  0.00     0.042 C 
HETATM   19  C26 UNL     1       5.442  57.969  -4.821  1.00  0.00     0.131 C 
HETATM   20  O8  UNL     1       6.394  58.989  -5.051  1.00  0.00    -0.343 OA
HETATM   21  C27 UNL     1       6.790  59.615  -3.824  1.00  0.00     0.225 C 
HETATM   22  C32 UNL     1       5.684  59.576  -2.732  1.00  0.00     0.081 C 
HETATM   23  C33 UNL     1       4.273  59.650  -3.344  1.00  0.00    -0.006 C 
HETATM   24  C34 UNL     1       3.202  59.819  -2.279  1.00  0.00     0.010 C 
HETATM   25  C35 UNL     1       4.081  58.563  -4.429  1.00  0.00     0.030 C 
HETATM   26  C36 UNL     1       3.200  57.268  -4.370  1.00  0.00    -0.003 C 
HETATM   27  C37 UNL     1       3.483  56.454  -3.077  1.00  0.00     0.019 C 
ENDROOT
BRANCH   8  28
HETATM   28  O3  UNL     1      -1.685  52.716 -10.052  1.00  0.00    -0.353 OA
BRANCH  28  29
HETATM   29  C11 UNL     1      -2.065  51.353  -9.797  1.00  0.00     0.291 C 
HETATM   30  O4  UNL     1      -3.486  51.207  -9.676  1.00  0.00    -0.356 OA
HETATM   31  C12 UNL     1      -4.128  50.947 -10.918  1.00  0.00     0.205 C 
HETATM   32  C13 UNL     1      -3.709  49.586 -11.496  1.00  0.00     0.173 C 
HETATM   33  C14 UNL     1      -2.268  49.202 -11.080  1.00  0.00     0.182 C 
HETATM   34  C15 UNL     1      -1.446  50.481 -10.924  1.00  0.00     0.204 C 
BRANCH  32  35
HETATM   35  O5  UNL     1      -3.814  49.648 -12.923  1.00  0.00    -0.391 OA
HETATM   36  H18 UNL     1      -3.070  50.207 -13.231  1.00  0.00     0.210 HD
ENDBRANCH  32  35
BRANCH  33  37
HETATM   37  O6  UNL     1      -2.207  48.450  -9.865  1.00  0.00    -0.390 OA
HETATM   38  H20 UNL     1      -3.112  48.222  -9.584  1.00  0.00     0.210 HD
ENDBRANCH  33  37
BRANCH  34  39
HETATM   39  O7  UNL     1      -1.445  51.196 -12.180  1.00  0.00    -0.388 OA
HETATM   40  H22 UNL     1      -1.293  52.130 -11.925  1.00  0.00     0.210 HD
ENDBRANCH  34  39
ENDBRANCH  28  29
ENDBRANCH   8  28
BRANCH   1  41
HETATM   41  O2  UNL     1       1.110  57.776  -3.152  1.00  0.00    -0.315 OA
BRANCH  41  42
HETATM   42  C2  UNL     1       0.005  58.568  -3.078  1.00  0.00     0.255 C 
HETATM   43  C1  UNL     1      -1.195  57.808  -3.563  1.00  0.00     0.126 C 
HETATM   44  O1  UNL     1      -0.023  59.721  -2.671  1.00  0.00    -0.266 OA
ENDBRANCH  41  42
ENDBRANCH   1  41
BRANCH  21  45
HETATM   45  O9  UNL     1       7.886  58.869  -3.312  1.00  0.00    -0.359 OA
HETATM   46  H41 UNL     1       8.428  58.661  -4.092  1.00  0.00     0.213 HD
ENDBRANCH  21  45
BRANCH  21  47
HETATM   47  C28 UNL     1       7.195  61.097  -4.135  1.00  0.00     0.192 C 
HETATM   48  O10 UNL     1       6.364  62.013  -4.145  1.00  0.00    -0.292 OA
BRANCH  47  49
HETATM   49  C29 UNL     1       8.670  61.374  -4.455  1.00  0.00     0.053 C 
HETATM   50  C30 UNL     1       9.480  61.584  -3.181  1.00  0.00     0.017 C 
HETATM   51  C31 UNL     1       9.275  60.234  -5.275  1.00  0.00     0.017 C 
ENDBRANCH  47  49
ENDBRANCH  21  47
TORSDOF 10
ENDMDL
MODEL 6
REMARK minimizedAffinity -6.91314888
REMARK CNNscore 0.548153341
REMARK CNNaffinity 6.4176631
REMARK  10 active torsions:
REMARK  status: ('A' for Active; 'I' for Inactive)
REMARK    1  A    between atoms: C2_2  and  O2_4 
REMARK    2  A    between atoms: O2_4  and  C3_5 
REMARK    3  A    between atoms: C10_12  and  O3_13 
REMARK    4  A    between atoms: O3_13  and  C11_14 
REMARK    5  A    between atoms: C13_17  and  O5_18 
REMARK    6  A    between atoms: C14_19  and  O6_20 
REMARK    7  A    between atoms: C15_21  and  O7_22 
REMARK    8  A    between atoms: C27_35  and  O9_36 
REMARK    9  A    between atoms: C27_35  and  C28_37 
REMARK   10  A    between atoms: C28_37  and  C29_39 
ROOT
HETATM    1  C3  UNL     1       1.271  57.819  -4.119  1.00  0.00     0.142 C 
HETATM    2  C4  UNL     1       1.240  56.541  -4.966  1.00  0.00     0.044 C 
HETATM    3  C5  UNL     1       2.019  56.725  -6.259  1.00  0.00    -0.025 A 
HETATM    4  C6  UNL     1       1.114  56.908  -7.469  1.00  0.00     0.021 A 
HETATM    5  C7  UNL     1       1.973  55.668  -7.379  1.00  0.00    -0.027 A 
HETATM    6  C8  UNL     1       1.307  54.341  -7.069  1.00  0.00     0.013 C 
HETATM    7  C9  UNL     1       0.926  53.598  -8.339  1.00  0.00     0.034 C 
HETATM    8  C10 UNL     1       2.135  53.416  -9.260  1.00  0.00     0.133 C 
HETATM    9  C16 UNL     1       2.795  54.779  -9.648  1.00  0.00    -0.017 C 
HETATM   10  C17 UNL     1       1.867  55.615 -10.557  1.00  0.00     0.018 C 
HETATM   11  C18 UNL     1       4.068  54.472 -10.472  1.00  0.00     0.018 C 
HETATM   12  C19 UNL     1       3.176  55.531  -8.322  1.00  0.00     0.005 C 
HETATM   13  C20 UNL     1       3.882  56.879  -8.534  1.00  0.00     0.007 C 
HETATM   14  C21 UNL     1       4.342  57.446  -7.199  1.00  0.00     0.007 C 
HETATM   15  C22 UNL     1       3.243  57.650  -6.125  1.00  0.00     0.004 C 
HETATM   16  C23 UNL     1       3.835  57.634  -4.649  1.00  0.00    -0.027 C 
HETATM   17  C24 UNL     1       4.508  56.271  -4.337  1.00  0.00     0.016 C 
HETATM   18  C25 UNL     1       4.925  58.756  -4.533  1.00  0.00     0.042 C 
HETATM   19  C26 UNL     1       4.578  59.505  -3.264  1.00  0.00     0.131 C 
HETATM   20  O8  UNL     1       5.128  60.804  -3.189  1.00  0.00    -0.343 OA
HETATM   21  C27 UNL     1       4.890  61.396  -1.906  1.00  0.00     0.225 C 
HETATM   22  C32 UNL     1       3.597  60.871  -1.220  1.00  0.00     0.081 C 
HETATM   23  C33 UNL     1       2.504  60.526  -2.248  1.00  0.00    -0.006 C 
HETATM   24  C34 UNL     1       1.177  60.210  -1.580  1.00  0.00     0.010 C 
HETATM   25  C35 UNL     1       3.045  59.558  -3.329  1.00  0.00     0.030 C 
HETATM   26  C36 UNL     1       2.705  58.042  -3.540  1.00  0.00    -0.003 C 
HETATM   27  C37 UNL     1       2.857  57.242  -2.217  1.00  0.00     0.019 C 
ENDROOT
BRANCH   8  28
HETATM   28  O3  UNL     1       1.694  52.723 -10.436  1.00  0.00    -0.353 OA
BRANCH  28  29
HETATM   29  C11 UNL     1       0.294  52.398 -10.403  1.00  0.00     0.291 C 
HETATM   30  O4  UNL     1      -0.449  53.129 -11.387  1.00  0.00    -0.356 OA
HETATM   31  C12 UNL     1      -0.525  52.460 -12.639  1.00  0.00     0.205 C 
HETATM   32  C13 UNL     1      -1.324  51.152 -12.533  1.00  0.00     0.173 C 
HETATM   33  C14 UNL     1      -1.201  50.513 -11.128  1.00  0.00     0.182 C 
HETATM   34  C15 UNL     1       0.172  50.856 -10.553  1.00  0.00     0.204 C 
BRANCH  32  35
HETATM   35  O5  UNL     1      -0.847  50.245 -13.534  1.00  0.00    -0.391 OA
HETATM   36  H18 UNL     1       0.034  49.939 -13.231  1.00  0.00     0.210 HD
ENDBRANCH  32  35
BRANCH  33  37
HETATM   37  O6  UNL     1      -2.216  50.943 -10.216  1.00  0.00    -0.390 OA
HETATM   38  H20 UNL     1      -2.871  51.482 -10.697  1.00  0.00     0.210 HD
ENDBRANCH  33  37
BRANCH  34  39
HETATM   39  O7  UNL     1       1.194  50.348 -11.440  1.00  0.00    -0.388 OA
HETATM   40  H22 UNL     1       1.969  50.924 -11.270  1.00  0.00     0.210 HD
ENDBRANCH  34  39
ENDBRANCH  28  29
ENDBRANCH   8  28
BRANCH   1  41
HETATM   41  O2  UNL     1       0.309  57.682  -3.052  1.00  0.00    -0.315 OA
BRANCH  41  42
HETATM   42  C2  UNL     1      -0.985  57.478  -3.423  1.00  0.00     0.255 C 
HETATM   43  C1  UNL     1      -1.523  56.260  -2.732  1.00  0.00     0.126 C 
HETATM   44  O1  UNL     1      -1.627  58.178  -4.194  1.00  0.00    -0.266 OA
ENDBRANCH  41  42
ENDBRANCH   1  41
BRANCH  21  45
HETATM   45  O9  UNL     1       5.972  61.016  -1.066  1.00  0.00    -0.359 OA
HETATM   46  H41 UNL     1       6.760  61.087  -1.631  1.00  0.00     0.213 HD
ENDBRANCH  21  45
BRANCH  21  47
HETATM   47  C28 UNL     1       4.816  62.952  -2.086  1.00  0.00     0.192 C 
HETATM   48  O10 UNL     1       4.478  63.701  -1.162  1.00  0.00    -0.292 OA
BRANCH  47  49
HETATM   49  C29 UNL     1       5.159  63.519  -3.470  1.00  0.00     0.053 C 
HETATM   50  C30 UNL     1       6.530  63.045  -3.937  1.00  0.00     0.017 C 
HETATM   51  C31 UNL     1       4.095  63.131  -4.498  1.00  0.00     0.017 C 
ENDBRANCH  47  49
ENDBRANCH  21  47
TORSDOF 10
ENDMDL
MODEL 7
REMARK minimizedAffinity -7.19653034
REMARK CNNscore 0.516701221
REMARK CNNaffinity 6.95394754
REMARK  10 active torsions:
REMARK  status: ('A' for Active; 'I' for Inactive)
REMARK    1  A    between atoms: C2_2  and  O2_4 
REMARK    2  A    between atoms: O2_4  and  C3_5 
REMARK    3  A    between atoms: C10_12  and  O3_13 
REMARK    4  A    between atoms: O3_13  and  C11_14 
REMARK    5  A    between atoms: C13_17  and  O5_18 
REMARK    6  A    between atoms: C14_19  and  O6_20 
REMARK    7  A    between atoms: C15_21  and  O7_22 
REMARK    8  A    between atoms: C27_35  and  O9_36 
REMARK    9  A    between atoms: C27_35  and  C28_37 
REMARK   10  A    between atoms: C28_37  and  C29_39 
ROOT
HETATM    1  C3  UNL     1      -1.980  50.538  -9.186  1.00  0.00     0.142 C 
HETATM    2  C4  UNL     1      -1.940  51.595  -8.075  1.00  0.00     0.044 C 
HETATM    3  C5  UNL     1      -0.876  52.643  -8.359  1.00  0.00    -0.025 A 
HETATM    4  C6  UNL     1       0.367  52.468  -7.498  1.00  0.00     0.021 A 
HETATM    5  C7  UNL     1      -0.490  53.698  -7.305  1.00  0.00    -0.027 A 
HETATM    6  C8  UNL     1      -1.350  53.798  -6.059  1.00  0.00     0.013 C 
HETATM    7  C9  UNL     1      -0.622  54.516  -4.934  1.00  0.00     0.034 C 
HETATM    8  C10 UNL     1      -0.126  55.892  -5.384  1.00  0.00     0.133 C 
HETATM    9  C16 UNL     1       0.819  55.805  -6.626  1.00  0.00    -0.017 C 
HETATM   10  C17 UNL     1       2.158  55.123  -6.267  1.00  0.00     0.018 C 
HETATM   11  C18 UNL     1       1.158  57.249  -7.066  1.00  0.00     0.018 C 
HETATM   12  C19 UNL     1       0.049  55.056  -7.773  1.00  0.00     0.005 C 
HETATM   13  C20 UNL     1       0.833  54.928  -9.088  1.00  0.00     0.007 C 
HETATM   14  C21 UNL     1      -0.054  54.330 -10.170  1.00  0.00     0.007 C 
HETATM   15  C22 UNL     1      -0.683  52.948  -9.856  1.00  0.00     0.004 C 
HETATM   16  C23 UNL     1      -2.013  52.691 -10.688  1.00  0.00    -0.027 C 
HETATM   17  C24 UNL     1      -3.093  53.752 -10.348  1.00  0.00     0.016 C 
HETATM   18  C25 UNL     1      -1.681  52.803 -12.216  1.00  0.00     0.042 C 
HETATM   19  C26 UNL     1      -2.297  51.568 -12.839  1.00  0.00     0.131 C 
HETATM   20  O8  UNL     1      -1.756  51.223 -14.098  1.00  0.00    -0.343 OA
HETATM   21  C27 UNL     1      -2.483  50.144 -14.698  1.00  0.00     0.225 C 
HETATM   22  C32 UNL     1      -3.142  49.196 -13.655  1.00  0.00     0.081 C 
HETATM   23  C33 UNL     1      -2.301  49.087 -12.370  1.00  0.00    -0.006 C 
HETATM   24  C34 UNL     1      -2.831  48.012 -11.437  1.00  0.00     0.010 C 
HETATM   25  C35 UNL     1      -1.987  50.489 -11.792  1.00  0.00     0.030 C 
HETATM   26  C36 UNL     1      -2.559  51.162 -10.496  1.00  0.00    -0.003 C 
HETATM   27  C37 UNL     1      -4.111  51.086 -10.461  1.00  0.00     0.019 C 
ENDROOT
BRANCH   8  28
HETATM   28  O3  UNL     1       0.558  56.498  -4.278  1.00  0.00    -0.353 OA
BRANCH  28  29
HETATM   29  C11 UNL     1      -0.034  57.742  -3.867  1.00  0.00     0.291 C 
HETATM   30  O4  UNL     1      -1.462  57.725  -4.002  1.00  0.00    -0.356 OA
HETATM   31  C12 UNL     1      -2.127  57.251  -2.839  1.00  0.00     0.205 C 
HETATM   32  C13 UNL     1      -1.923  58.198  -1.646  1.00  0.00     0.173 C 
HETATM   33  C14 UNL     1      -0.565  58.936  -1.720  1.00  0.00     0.182 C 
HETATM   34  C15 UNL     1       0.448  58.028  -2.418  1.00  0.00     0.204 C 
BRANCH  32  35
HETATM   35  O5  UNL     1      -2.007  57.432  -0.439  1.00  0.00    -0.391 OA
HETATM   36  H18 UNL     1      -1.182  56.905  -0.388  1.00  0.00     0.210 HD
ENDBRANCH  32  35
BRANCH  33  37
HETATM   37  O6  UNL     1      -0.633  60.187  -2.412  1.00  0.00    -0.390 OA
HETATM   38  H20 UNL     1      -1.565  60.392  -2.610  1.00  0.00     0.210 HD
ENDBRANCH  33  37
BRANCH  34  39
HETATM   39  O7  UNL     1       0.571  56.799  -1.669  1.00  0.00    -0.388 OA
HETATM   40  H22 UNL     1       0.867  56.141  -2.333  1.00  0.00     0.210 HD
ENDBRANCH  34  39
ENDBRANCH  28  29
ENDBRANCH   8  28
BRANCH   1  41
HETATM   41  O2  UNL     1      -2.803  49.440  -8.740  1.00  0.00    -0.315 OA
BRANCH  41  42
HETATM   42  C2  UNL     1      -2.299  48.673  -7.734  1.00  0.00     0.255 C 
HETATM   43  C1  UNL     1      -0.975  48.101  -8.147  1.00  0.00     0.126 C 
HETATM   44  O1  UNL     1      -2.829  48.478  -6.648  1.00  0.00    -0.266 OA
ENDBRANCH  41  42
ENDBRANCH   1  41
BRANCH  21  45
HETATM   45  O9  UNL     1      -3.546  50.721 -15.443  1.00  0.00    -0.359 OA
HETATM   46  H41 UNL     1      -3.152  51.501 -15.871  1.00  0.00     0.213 HD
ENDBRANCH  21  45
BRANCH  21  47
HETATM   47  C28 UNL     1      -1.501  49.339 -15.618  1.00  0.00     0.192 C 
HETATM   48  O10 UNL     1      -1.909  48.526 -16.455  1.00  0.00    -0.292 OA
BRANCH  47  49
HETATM   49  C29 UNL     1       0.002  49.580 -15.429  1.00  0.00     0.053 C 
HETATM   50  C30 UNL     1       0.753  48.266 -15.246  1.00  0.00     0.017 C 
HETATM   51  C31 UNL     1       0.586  50.354 -16.613  1.00  0.00     0.017 C 
ENDBRANCH  47  49
ENDBRANCH  21  47
TORSDOF 10
ENDMDL
MODEL 8
REMARK minimizedAffinity -6.70070648
REMARK CNNscore 0.479266018
REMARK CNNaffinity 6.51940203
REMARK  10 active torsions:
REMARK  status: ('A' for Active; 'I' for Inactive)
REMARK    1  A    between atoms: C2_2  and  O2_4 
REMARK    2  A    between atoms: O2_4  and  C3_5 
REMARK    3  A    between atoms: C10_12  and  O3_13 
REMARK    4  A    between atoms: O3_13  and  C11_14 
REMARK    5  A    between atoms: C13_17  and  O5_18 
REMARK    6  A    between atoms: C14_19  and  O6_20 
REMARK    7  A    between atoms: C15_21  and  O7_22 
REMARK    8  A    between atoms: C27_35  and  O9_36 
REMARK    9  A    between atoms: C27_35  and  C28_37 
REMARK   10  A    between atoms: C28_37  and  C29_39 
ROOT
HETATM    1  C3  UNL     1       4.689  55.112  -5.845  1.00  0.00     0.142 C 
HETATM    2  C4  UNL     1       4.178  54.669  -7.222  1.00  0.00     0.044 C 
HETATM    3  C5  UNL     1       2.697  54.977  -7.378  1.00  0.00    -0.025 A 
HETATM    4  C6  UNL     1       1.824  53.737  -7.251  1.00  0.00     0.021 A 
HETATM    5  C7  UNL     1       1.893  54.450  -8.581  1.00  0.00    -0.027 A 
HETATM    6  C8  UNL     1       2.664  53.802  -9.716  1.00  0.00     0.013 C 
HETATM    7  C9  UNL     1       1.761  52.941 -10.584  1.00  0.00     0.034 C 
HETATM    8  C10 UNL     1       0.565  53.741 -11.105  1.00  0.00     0.133 C 
HETATM    9  C16 UNL     1      -0.284  54.360  -9.948  1.00  0.00    -0.017 C 
HETATM   10  C17 UNL     1      -1.007  53.265  -9.132  1.00  0.00     0.018 C 
HETATM   11  C18 UNL     1      -1.385  55.241 -10.586  1.00  0.00     0.018 C 
HETATM   12  C19 UNL     1       0.669  55.241  -9.062  1.00  0.00     0.005 C 
HETATM   13  C20 UNL     1      -0.028  55.961  -7.898  1.00  0.00     0.007 C 
HETATM   14  C21 UNL     1       0.946  56.901  -7.204  1.00  0.00     0.007 C 
HETATM   15  C22 UNL     1       2.245  56.259  -6.654  1.00  0.00     0.004 C 
HETATM   16  C23 UNL     1       3.428  57.312  -6.524  1.00  0.00    -0.027 C 
HETATM   17  C24 UNL     1       3.788  57.914  -7.909  1.00  0.00     0.016 C 
HETATM   18  C25 UNL     1       2.961  58.481  -5.589  1.00  0.00     0.042 C 
HETATM   19  C26 UNL     1       4.091  58.662  -4.598  1.00  0.00     0.131 C 
HETATM   20  O8  UNL     1       3.719  59.329  -3.410  1.00  0.00    -0.343 OA
HETATM   21  C27 UNL     1       4.860  59.600  -2.587  1.00  0.00     0.225 C 
HETATM   22  C32 UNL     1       6.011  58.572  -2.778  1.00  0.00     0.081 C 
HETATM   23  C33 UNL     1       5.474  57.167  -3.105  1.00  0.00    -0.006 C 
HETATM   24  C34 UNL     1       6.577  56.122  -3.090  1.00  0.00     0.010 C 
HETATM   25  C35 UNL     1       4.503  57.210  -4.310  1.00  0.00     0.030 C 
HETATM   26  C36 UNL     1       4.728  56.672  -5.766  1.00  0.00    -0.003 C 
HETATM   27  C37 UNL     1       6.071  57.186  -6.354  1.00  0.00     0.019 C 
ENDROOT
BRANCH   8  28
HETATM   28  O3  UNL     1      -0.242  52.860 -11.901  1.00  0.00    -0.353 OA
BRANCH  28  29
HETATM   29  C11 UNL     1       0.422  51.626 -12.219  1.00  0.00     0.291 C 
HETATM   30  O4  UNL     1      -0.495  50.527 -12.290  1.00  0.00    -0.356 OA
HETATM   31  C12 UNL     1      -1.043  50.339 -13.588  1.00  0.00     0.205 C 
HETATM   32  C13 UNL     1       0.037  49.929 -14.602  1.00  0.00     0.173 C 
HETATM   33  C14 UNL     1       1.423  50.514 -14.238  1.00  0.00     0.182 C 
HETATM   34  C15 UNL     1       1.218  51.855 -13.534  1.00  0.00     0.204 C 
BRANCH  32  35
HETATM   35  O5  UNL     1      -0.365  50.377 -15.901  1.00  0.00    -0.391 OA
HETATM   36  H18 UNL     1      -0.250  51.350 -15.905  1.00  0.00     0.210 HD
ENDBRANCH  32  35
BRANCH  33  37
HETATM   37  O6  UNL     1       2.203  49.655 -13.401  1.00  0.00    -0.390 OA
HETATM   38  H20 UNL     1       1.747  48.798 -13.310  1.00  0.00     0.210 HD
ENDBRANCH  33  37
BRANCH  34  39
HETATM   39  O7  UNL     1       0.500  52.745 -14.417  1.00  0.00    -0.388 OA
HETATM   40  H22 UNL     1       0.051  53.374 -13.813  1.00  0.00     0.210 HD
ENDBRANCH  34  39
ENDBRANCH  28  29
ENDBRANCH   8  28
BRANCH   1  41
HETATM   41  O2  UNL     1       6.009  54.562  -5.650  1.00  0.00    -0.315 OA
BRANCH  41  42
HETATM   42  C2  UNL     1       6.074  53.243  -5.316  1.00  0.00     0.255 C 
HETATM   43  C1  UNL     1       7.075  52.548  -6.191  1.00  0.00     0.126 C 
HETATM   44  O1  UNL     1       5.427  52.696  -4.433  1.00  0.00    -0.266 OA
ENDBRANCH  41  42
ENDBRANCH   1  41
BRANCH  21  45
HETATM   45  O9  UNL     1       5.376  60.860  -2.994  1.00  0.00    -0.359 OA
HETATM   46  H41 UNL     1       4.590  61.412  -3.145  1.00  0.00     0.213 HD
ENDBRANCH  21  45
BRANCH  21  47
HETATM   47  C28 UNL     1       4.395  59.623  -1.090  1.00  0.00     0.192 C 
HETATM   48  O10 UNL     1       3.498  58.880  -0.673  1.00  0.00    -0.292 OA
BRANCH  47  49
HETATM   49  C29 UNL     1       5.080  60.626  -0.152  1.00  0.00     0.053 C 
HETATM   50  C30 UNL     1       4.122  61.736   0.264  1.00  0.00     0.017 C 
HETATM   51  C31 UNL     1       5.634  59.923   1.088  1.00  0.00     0.017 C 
ENDBRANCH  47  49
ENDBRANCH  21  47
TORSDOF 10
ENDMDL
MODEL 9
REMARK minimizedAffinity -7.29141474
REMARK CNNscore 0.428284466
REMARK CNNaffinity 6.26525879
REMARK  10 active torsions:
REMARK  status: ('A' for Active; 'I' for Inactive)
REMARK    1  A    between atoms: C2_2  and  O2_4 
REMARK    2  A    between atoms: O2_4  and  C3_5 
REMARK    3  A    between atoms: C10_12  and  O3_13 
REMARK    4  A    between atoms: O3_13  and  C11_14 
REMARK    5  A    between atoms: C13_17  and  O5_18 
REMARK    6  A    between atoms: C14_19  and  O6_20 
REMARK    7  A    between atoms: C15_21  and  O7_22 
REMARK    8  A    between atoms: C27_35  and  O9_36 
REMARK    9  A    between atoms: C27_35  and  C28_37 
REMARK   10  A    between atoms: C28_37  and  C29_39 
ROOT
HETATM    1  C3  UNL     1       0.899  57.300  -4.147  1.00  0.00     0.142 C 
HETATM    2  C4  UNL     1       1.151  56.080  -5.042  1.00  0.00     0.044 C 
HETATM    3  C5  UNL     1       1.878  56.480  -6.316  1.00  0.00    -0.025 A 
HETATM    4  C6  UNL     1       0.961  56.509  -7.530  1.00  0.00     0.021 A 
HETATM    5  C7  UNL     1       2.070  55.483  -7.475  1.00  0.00    -0.027 A 
HETATM    6  C8  UNL     1       1.707  54.031  -7.223  1.00  0.00     0.013 C 
HETATM    7  C9  UNL     1       1.503  53.274  -8.526  1.00  0.00     0.034 C 
HETATM    8  C10 UNL     1       2.727  53.396  -9.436  1.00  0.00     0.133 C 
HETATM    9  C16 UNL     1       3.076  54.884  -9.764  1.00  0.00    -0.017 C 
HETATM   10  C17 UNL     1       1.993  55.533 -10.654  1.00  0.00     0.018 C 
HETATM   11  C18 UNL     1       4.391  54.894 -10.582  1.00  0.00     0.018 C 
HETATM   12  C19 UNL     1       3.278  55.648  -8.406  1.00  0.00     0.005 C 
HETATM   13  C20 UNL     1       3.674  57.124  -8.558  1.00  0.00     0.007 C 
HETATM   14  C21 UNL     1       3.994  57.724  -7.197  1.00  0.00     0.007 C 
HETATM   15  C22 UNL     1       2.871  57.642  -6.131  1.00  0.00     0.004 C 
HETATM   16  C23 UNL     1       3.445  57.698  -4.649  1.00  0.00    -0.027 C 
HETATM   17  C24 UNL     1       4.396  56.502  -4.378  1.00  0.00     0.016 C 
HETATM   18  C25 UNL     1       4.264  59.024  -4.476  1.00  0.00     0.042 C 
HETATM   19  C26 UNL     1       3.755  59.629  -3.185  1.00  0.00     0.131 C 
HETATM   20  O8  UNL     1       4.009  61.013  -3.054  1.00  0.00    -0.343 OA
HETATM   21  C27 UNL     1       3.641  61.488  -1.753  1.00  0.00     0.225 C 
HETATM   22  C32 UNL     1       2.489  60.668  -1.105  1.00  0.00     0.081 C 
HETATM   23  C33 UNL     1       1.503  60.134  -2.160  1.00  0.00    -0.006 C 
HETATM   24  C34 UNL     1       0.274  59.511  -1.522  1.00  0.00     0.010 C 
HETATM   25  C35 UNL     1       2.247  59.350  -3.269  1.00  0.00     0.030 C 
HETATM   26  C36 UNL     1       2.247  57.806  -3.541  1.00  0.00    -0.003 C 
HETATM   27  C37 UNL     1       2.563  57.007  -2.246  1.00  0.00     0.019 C 
ENDROOT
BRANCH   8  28
HETATM   28  O3  UNL     1       2.454  52.670 -10.643  1.00  0.00    -0.353 OA
BRANCH  28  29
HETATM   29  C11 UNL     1       3.400  51.616 -10.889  1.00  0.00     0.291 C 
HETATM   30  O4  UNL     1       3.181  50.489 -10.030  1.00  0.00    -0.356 OA
HETATM   31  C12 UNL     1       2.277  49.538 -10.577  1.00  0.00     0.205 C 
HETATM   32  C13 UNL     1       2.849  48.878 -11.842  1.00  0.00     0.173 C 
HETATM   33  C14 UNL     1       3.797  49.830 -12.611  1.00  0.00     0.182 C 
HETATM   34  C15 UNL     1       3.323  51.267 -12.401  1.00  0.00     0.204 C 
BRANCH  32  35
HETATM   35  O5  UNL     1       1.758  48.480 -12.680  1.00  0.00    -0.391 OA
HETATM   36  H18 UNL     1       1.389  49.303 -13.062  1.00  0.00     0.210 HD
ENDBRANCH  32  35
BRANCH  33  37
HETATM   37  O6  UNL     1       5.165  49.720 -12.209  1.00  0.00    -0.390 OA
HETATM   38  H20 UNL     1       5.257  48.971 -11.592  1.00  0.00     0.210 HD
ENDBRANCH  33  37
BRANCH  34  39
HETATM   39  O7  UNL     1       1.966  51.391 -12.884  1.00  0.00    -0.388 OA
HETATM   40  H22 UNL     1       1.595  52.140 -12.372  1.00  0.00     0.210 HD
ENDBRANCH  34  39
ENDBRANCH  28  29
ENDBRANCH   8  28
BRANCH   1  41
HETATM   41  O2  UNL     1      -0.015  56.915  -3.099  1.00  0.00    -0.315 OA
BRANCH  41  42
HETATM   42  C2  UNL     1      -1.343  57.032  -3.378  1.00  0.00     0.255 C 
HETATM   43  C1  UNL     1      -2.053  55.766  -3.000  1.00  0.00     0.126 C 
HETATM   44  O1  UNL     1      -1.890  58.017  -3.855  1.00  0.00    -0.266 OA
ENDBRANCH  41  42
ENDBRANCH   1  41
BRANCH  21  45
HETATM   45  O9  UNL     1       4.775  61.320  -0.914  1.00  0.00    -0.359 OA
HETATM   46  H41 UNL     1       5.531  61.582  -1.465  1.00  0.00     0.213 HD
ENDBRANCH  21  45
BRANCH  21  47
HETATM   47  C28 UNL     1       3.231  62.997  -1.876  1.00  0.00     0.192 C 
HETATM   48  O10 UNL     1       2.253  63.458  -1.278  1.00  0.00    -0.292 OA
BRANCH  47  49
HETATM   49  C29 UNL     1       4.080  63.886  -2.794  1.00  0.00     0.053 C 
HETATM   50  C30 UNL     1       5.519  63.976  -2.298  1.00  0.00     0.017 C 
HETATM   51  C31 UNL     1       4.057  63.367  -4.233  1.00  0.00     0.017 C 
ENDBRANCH  47  49
ENDBRANCH  21  47
TORSDOF 10
ENDMDL
