MODEL 1
REMARK minimizedAffinity -9.38834763
REMARK  4 active torsions:
REMARK  status: ('A' for Active; 'I' for Inactive)
REMARK    1  A    between atoms: C4_4  and  C5_5 
REMARK    2  A    between atoms: C5_5  and  C6_6 
REMARK    3  A    between atoms: C6_6  and  C7_7 
REMARK    4  A    between atoms: C7_7  and  C9_9 
ROOT
HETATM    1  C9  UNL     1       0.706   5.971  11.750  1.00  0.00    -0.002 C 
HETATM    2  C10 UNL     1       0.857   4.443  11.521  1.00  0.00     0.006 C 
HETATM    3  C11 UNL     1      -0.458   3.777  11.956  1.00  0.00     0.011 C 
HETATM    4  C12 UNL     1      -1.451   4.934  12.175  1.00  0.00    -0.032 C 
HETATM    5  C13 UNL     1      -2.083   5.261  10.785  1.00  0.00     0.016 C 
HETATM    6  C14 UNL     1      -2.565   4.632  13.213  1.00  0.00     0.004 C 
HETATM    7  C15 UNL     1      -3.505   3.487  12.787  1.00  0.00     0.007 C 
HETATM    8  C16 UNL     1      -4.966   3.879  12.600  1.00  0.00     0.007 C 
HETATM    9  C17 UNL     1      -5.501   4.499  13.904  1.00  0.00     0.010 C 
HETATM   10  C18 UNL     1      -7.059   4.588  13.991  1.00  0.00     0.018 C 
HETATM   11  C19 UNL     1      -7.501   4.790  15.457  1.00  0.00     0.023 C 
HETATM   12  C20 UNL     1      -7.740   3.291  13.501  1.00  0.00     0.023 C 
HETATM   13  C21 UNL     1      -7.603   5.754  13.157  1.00  0.00     0.135 C 
HETATM   14  O1  UNL     1      -8.766   5.773  12.745  1.00  0.00    -0.297 OA
HETATM   15  C22 UNL     1      -6.674   6.896  12.834  1.00  0.00     0.080 C 
HETATM   16  C23 UNL     1      -5.667   7.078  13.949  1.00  0.00     0.018 C 
HETATM   17  C24 UNL     1      -4.783   5.849  14.101  1.00  0.00    -0.026 A 
HETATM   18  C25 UNL     1      -3.713   5.917  15.160  1.00  0.00     0.021 A 
HETATM   19  C26 UNL     1      -3.276   5.923  13.705  1.00  0.00    -0.027 A 
HETATM   20  C27 UNL     1      -2.748   7.264  13.165  1.00  0.00     0.011 C 
HETATM   21  C28 UNL     1      -1.275   7.373  12.742  1.00  0.00     0.011 C 
HETATM   22  C29 UNL     1      -0.503   6.054  12.739  1.00  0.00    -0.032 C 
HETATM   23  C30 UNL     1      -0.005   5.792  14.192  1.00  0.00     0.016 C 
ENDROOT
BRANCH   1  24
HETATM   24  C7  UNL     1       2.057   6.647  12.119  1.00  0.00    -0.014 C 
HETATM   25  C8  UNL     1       1.910   7.676  13.247  1.00  0.00     0.010 C 
BRANCH  24  26
HETATM   26  C6  UNL     1       2.760   7.303  10.900  1.00  0.00     0.008 C 
BRANCH  26  27
HETATM   27  C5  UNL     1       3.438   6.328   9.931  1.00  0.00     0.028 C 
BRANCH  27  28
HETATM   28  C4  UNL     1       2.704   6.279   8.618  1.00  0.00    -0.025 C 
HETATM   29  C2  UNL     1       2.519   7.285   7.741  1.00  0.00    -0.091 C 
HETATM   30  C1  UNL     1       1.724   7.069   6.480  1.00  0.00     0.042 C 
HETATM   31  C3  UNL     1       3.067   8.678   7.895  1.00  0.00     0.042 C 
ENDBRANCH  27  28
ENDBRANCH  26  27
ENDBRANCH  24  26
ENDBRANCH   1  24
TORSDOF 4
ENDMDL
MODEL 2
REMARK minimizedAffinity -9.14568615
REMARK  4 active torsions:
REMARK  status: ('A' for Active; 'I' for Inactive)
REMARK    1  A    between atoms: C4_4  and  C5_5 
REMARK    2  A    between atoms: C5_5  and  C6_6 
REMARK    3  A    between atoms: C6_6  and  C7_7 
REMARK    4  A    between atoms: C7_7  and  C9_9 
ROOT
HETATM    1  C9  UNL     1      -3.909   6.832  14.619  1.00  0.00    -0.002 C 
HETATM    2  C10 UNL     1      -4.343   5.533  13.889  1.00  0.00     0.006 C 
HETATM    3  C11 UNL     1      -3.262   5.203  12.848  1.00  0.00     0.011 C 
HETATM    4  C12 UNL     1      -2.087   6.148  13.164  1.00  0.00    -0.032 C 
HETATM    5  C13 UNL     1      -1.227   5.454  14.268  1.00  0.00     0.016 C 
HETATM    6  C14 UNL     1      -1.202   6.499  11.938  1.00  0.00     0.004 C 
HETATM    7  C15 UNL     1      -0.473   5.280  11.340  1.00  0.00     0.007 C 
HETATM    8  C16 UNL     1       1.049   5.344  11.384  1.00  0.00     0.007 C 
HETATM    9  C17 UNL     1       1.530   6.613  10.656  1.00  0.00     0.010 C 
HETATM   10  C18 UNL     1       3.048   6.616  10.286  1.00  0.00     0.018 C 
HETATM   11  C19 UNL     1       3.331   7.679   9.201  1.00  0.00     0.023 C 
HETATM   12  C20 UNL     1       3.503   5.260   9.702  1.00  0.00     0.023 C 
HETATM   13  C21 UNL     1       3.924   6.925  11.505  1.00  0.00     0.135 C 
HETATM   14  O1  UNL     1       5.109   6.585  11.559  1.00  0.00    -0.297 OA
HETATM   15  C22 UNL     1       3.301   7.660  12.665  1.00  0.00     0.080 C 
HETATM   16  C23 UNL     1       2.220   8.594  12.168  1.00  0.00     0.018 C 
HETATM   17  C24 UNL     1       1.088   7.824  11.502  1.00  0.00    -0.026 A 
HETATM   18  C25 UNL     1      -0.072   8.640  10.992  1.00  0.00     0.021 A 
HETATM   19  C26 UNL     1      -0.308   7.743  12.194  1.00  0.00    -0.027 A 
HETATM   20  C27 UNL     1      -0.473   8.459  13.547  1.00  0.00     0.011 C 
HETATM   21  C28 UNL     1      -1.825   8.384  14.274  1.00  0.00     0.011 C 
HETATM   22  C29 UNL     1      -2.846   7.437  13.644  1.00  0.00    -0.032 C 
HETATM   23  C30 UNL     1      -3.569   8.211  12.502  1.00  0.00     0.016 C 
ENDROOT
BRANCH   1  24
HETATM   24  C7  UNL     1      -5.126   7.690  15.068  1.00  0.00    -0.014 C 
HETATM   25  C8  UNL     1      -4.711   8.907  15.902  1.00  0.00     0.010 C 
BRANCH  24  26
HETATM   26  C6  UNL     1      -6.197   6.869  15.835  1.00  0.00     0.008 C 
BRANCH  26  27
HETATM   27  C5  UNL     1      -7.498   6.607  15.067  1.00  0.00     0.028 C 
BRANCH  27  28
HETATM   28  C4  UNL     1      -7.546   5.191  14.562  1.00  0.00    -0.025 C 
HETATM   29  C2  UNL     1      -7.969   4.760  13.357  1.00  0.00    -0.091 C 
HETATM   30  C1  UNL     1      -7.980   3.291  13.026  1.00  0.00     0.042 C 
HETATM   31  C3  UNL     1      -8.445   5.649  12.240  1.00  0.00     0.042 C 
ENDBRANCH  27  28
ENDBRANCH  26  27
ENDBRANCH  24  26
ENDBRANCH   1  24
TORSDOF 4
ENDMDL
MODEL 3
REMARK minimizedAffinity -9.12036037
REMARK  4 active torsions:
REMARK  status: ('A' for Active; 'I' for Inactive)
REMARK    1  A    between atoms: C4_4  and  C5_5 
REMARK    2  A    between atoms: C5_5  and  C6_6 
REMARK    3  A    between atoms: C6_6  and  C7_7 
REMARK    4  A    between atoms: C7_7  and  C9_9 
ROOT
HETATM    1  C9  UNL     1      -1.800   7.879  13.278  1.00  0.00    -0.002 C 
HETATM    2  C10 UNL     1      -1.479   7.604  14.772  1.00  0.00     0.006 C 
HETATM    3  C11 UNL     1       0.036   7.375  14.886  1.00  0.00     0.011 C 
HETATM    4  C12 UNL     1       0.617   7.783  13.519  1.00  0.00    -0.032 C 
HETATM    5  C13 UNL     1       0.853   9.327  13.568  1.00  0.00     0.016 C 
HETATM    6  C14 UNL     1       1.932   7.052  13.139  1.00  0.00     0.004 C 
HETATM    7  C15 UNL     1       3.105   7.369  14.087  1.00  0.00     0.007 C 
HETATM    8  C16 UNL     1       4.300   8.057  13.437  1.00  0.00     0.007 C 
HETATM    9  C17 UNL     1       4.823   7.190  12.278  1.00  0.00     0.010 C 
HETATM   10  C18 UNL     1       6.255   7.566  11.777  1.00  0.00     0.018 C 
HETATM   11  C19 UNL     1       6.856   6.402  10.957  1.00  0.00     0.023 C 
HETATM   12  C20 UNL     1       7.226   7.825  12.950  1.00  0.00     0.023 C 
HETATM   13  C21 UNL     1       6.231   8.818  10.894  1.00  0.00     0.135 C 
HETATM   14  O1  UNL     1       7.232   9.522  10.735  1.00  0.00    -0.297 OA
HETATM   15  C22 UNL     1       4.937   9.190  10.215  1.00  0.00     0.080 C 
HETATM   16  C23 UNL     1       4.139   7.944   9.901  1.00  0.00     0.018 C 
HETATM   17  C24 UNL     1       3.748   7.204  11.172  1.00  0.00    -0.026 A 
HETATM   18  C25 UNL     1       2.918   5.958  10.997  1.00  0.00     0.021 A 
HETATM   19  C26 UNL     1       2.255   7.172  11.624  1.00  0.00    -0.027 A 
HETATM   20  C27 UNL     1       1.230   7.911  10.744  1.00  0.00     0.011 C 
HETATM   21  C28 UNL     1      -0.247   7.924  11.166  1.00  0.00     0.011 C 
HETATM   22  C29 UNL     1      -0.531   7.331  12.546  1.00  0.00    -0.032 C 
HETATM   23  C30 UNL     1      -0.653   5.786  12.383  1.00  0.00     0.016 C 
ENDROOT
BRANCH   1  24
HETATM   24  C7  UNL     1      -3.211   7.365  12.874  1.00  0.00    -0.014 C 
HETATM   25  C8  UNL     1      -4.295   8.437  13.040  1.00  0.00     0.010 C 
BRANCH  24  26
HETATM   26  C6  UNL     1      -3.627   6.076  13.633  1.00  0.00     0.008 C 
BRANCH  26  27
HETATM   27  C5  UNL     1      -4.184   4.950  12.755  1.00  0.00     0.028 C 
BRANCH  27  28
HETATM   28  C4  UNL     1      -5.574   4.569  13.188  1.00  0.00    -0.025 C 
HETATM   29  C2  UNL     1      -6.328   3.549  12.734  1.00  0.00    -0.091 C 
HETATM   30  C1  UNL     1      -7.722   3.330  13.259  1.00  0.00     0.042 C 
HETATM   31  C3  UNL     1      -5.889   2.541  11.707  1.00  0.00     0.042 C 
ENDBRANCH  27  28
ENDBRANCH  26  27
ENDBRANCH  24  26
ENDBRANCH   1  24
TORSDOF 4
ENDMDL
MODEL 4
REMARK minimizedAffinity -8.89972401
REMARK  4 active torsions:
REMARK  status: ('A' for Active; 'I' for Inactive)
REMARK    1  A    between atoms: C4_4  and  C5_5 
REMARK    2  A    between atoms: C5_5  and  C6_6 
REMARK    3  A    between atoms: C6_6  and  C7_7 
REMARK    4  A    between atoms: C7_7  and  C9_9 
ROOT
HETATM    1  C9  UNL     1      -6.209   7.073  14.248  1.00  0.00    -0.002 C 
HETATM    2  C10 UNL     1      -6.257   8.468  14.928  1.00  0.00     0.006 C 
HETATM    3  C11 UNL     1      -4.821   9.011  14.975  1.00  0.00     0.011 C 
HETATM    4  C12 UNL     1      -3.994   8.061  14.087  1.00  0.00    -0.032 C 
HETATM    5  C13 UNL     1      -4.134   8.575  12.618  1.00  0.00     0.016 C 
HETATM    6  C14 UNL     1      -2.496   7.961  14.480  1.00  0.00     0.004 C 
HETATM    7  C15 UNL     1      -1.730   9.290  14.317  1.00  0.00     0.007 C 
HETATM    8  C16 UNL     1      -0.589   9.265  13.307  1.00  0.00     0.007 C 
HETATM    9  C17 UNL     1       0.412   8.161  13.692  1.00  0.00     0.010 C 
HETATM   10  C18 UNL     1       1.804   8.271  12.989  1.00  0.00     0.018 C 
HETATM   11  C19 UNL     1       2.852   7.427  13.748  1.00  0.00     0.023 C 
HETATM   12  C20 UNL     1       2.332   9.723  12.978  1.00  0.00     0.023 C 
HETATM   13  C21 UNL     1       1.743   7.777  11.540  1.00  0.00     0.135 C 
HETATM   14  O1  UNL     1       2.564   8.139  10.693  1.00  0.00    -0.297 OA
HETATM   15  C22 UNL     1       0.636   6.830  11.153  1.00  0.00     0.080 C 
HETATM   16  C23 UNL     1       0.256   5.965  12.336  1.00  0.00     0.018 C 
HETATM   17  C24 UNL     1      -0.292   6.806  13.480  1.00  0.00    -0.026 A 
HETATM   18  C25 UNL     1      -0.740   6.058  14.710  1.00  0.00     0.021 A 
HETATM   19  C26 UNL     1      -1.805   6.719  13.852  1.00  0.00    -0.027 A 
HETATM   20  C27 UNL     1      -2.688   5.770  13.022  1.00  0.00     0.011 C 
HETATM   21  C28 UNL     1      -4.188   5.673  13.340  1.00  0.00     0.011 C 
HETATM   22  C29 UNL     1      -4.699   6.685  14.366  1.00  0.00    -0.032 C 
HETATM   23  C30 UNL     1      -4.420   6.104  15.784  1.00  0.00     0.016 C 
ENDROOT
BRANCH   1  24
HETATM   24  C7  UNL     1      -7.302   6.113  14.797  1.00  0.00    -0.014 C 
HETATM   25  C8  UNL     1      -7.408   6.156  16.326  1.00  0.00     0.010 C 
BRANCH  24  26
HETATM   26  C6  UNL     1      -7.112   4.645  14.326  1.00  0.00     0.008 C 
BRANCH  26  27
HETATM   27  C5  UNL     1      -7.119   4.438  12.807  1.00  0.00     0.028 C 
BRANCH  27  28
HETATM   28  C4  UNL     1      -6.848   2.999  12.461  1.00  0.00    -0.025 C 
HETATM   29  C2  UNL     1      -6.000   2.521  11.530  1.00  0.00    -0.091 C 
HETATM   30  C1  UNL     1      -5.876   1.040  11.291  1.00  0.00     0.042 C 
HETATM   31  C3  UNL     1      -5.103   3.364  10.665  1.00  0.00     0.042 C 
ENDBRANCH  27  28
ENDBRANCH  26  27
ENDBRANCH  24  26
ENDBRANCH   1  24
TORSDOF 4
ENDMDL
MODEL 5
REMARK minimizedAffinity -8.74671364
REMARK  4 active torsions:
REMARK  status: ('A' for Active; 'I' for Inactive)
REMARK    1  A    between atoms: C4_4  and  C5_5 
REMARK    2  A    between atoms: C5_5  and  C6_6 
REMARK    3  A    between atoms: C6_6  and  C7_7 
REMARK    4  A    between atoms: C7_7  and  C9_9 
ROOT
HETATM    1  C9  UNL     1      -3.353   6.856  14.905  1.00  0.00    -0.002 C 
HETATM    2  C10 UNL     1      -3.880   5.539  14.276  1.00  0.00     0.006 C 
HETATM    3  C11 UNL     1      -2.957   5.185  13.100  1.00  0.00     0.011 C 
HETATM    4  C12 UNL     1      -1.754   6.139  13.222  1.00  0.00    -0.032 C 
HETATM    5  C13 UNL     1      -0.743   5.473  14.209  1.00  0.00     0.016 C 
HETATM    6  C14 UNL     1      -1.054   6.461  11.874  1.00  0.00     0.004 C 
HETATM    7  C15 UNL     1      -0.411   5.228  11.208  1.00  0.00     0.007 C 
HETATM    8  C16 UNL     1       1.101   5.296  11.033  1.00  0.00     0.007 C 
HETATM    9  C17 UNL     1       1.467   6.547  10.215  1.00  0.00     0.010 C 
HETATM   10  C18 UNL     1       2.917   6.542   9.632  1.00  0.00     0.018 C 
HETATM   11  C19 UNL     1       3.037   7.579   8.493  1.00  0.00     0.023 C 
HETATM   12  C20 UNL     1       3.290   5.173   9.022  1.00  0.00     0.023 C 
HETATM   13  C21 UNL     1       3.956   6.883  10.706  1.00  0.00     0.135 C 
HETATM   14  O1  UNL     1       5.138   6.545  10.599  1.00  0.00    -0.297 OA
HETATM   15  C22 UNL     1       3.501   7.644  11.925  1.00  0.00     0.080 C 
HETATM   16  C23 UNL     1       2.356   8.565  11.564  1.00  0.00     0.018 C 
HETATM   17  C24 UNL     1       1.145   7.777  11.086  1.00  0.00    -0.026 A 
HETATM   18  C25 UNL     1      -0.080   8.580  10.726  1.00  0.00     0.021 A 
HETATM   19  C26 UNL     1      -0.138   7.712  11.971  1.00  0.00    -0.027 A 
HETATM   20  C27 UNL     1      -0.112   8.461  13.316  1.00  0.00     0.011 C 
HETATM   21  C28 UNL     1      -1.347   8.402  14.230  1.00  0.00     0.011 C 
HETATM   22  C29 UNL     1      -2.443   7.439  13.775  1.00  0.00    -0.032 C 
HETATM   23  C30 UNL     1      -3.325   8.183  12.728  1.00  0.00     0.016 C 
ENDROOT
BRANCH   1  24
HETATM   24  C7  UNL     1      -4.499   7.723  15.502  1.00  0.00    -0.014 C 
HETATM   25  C8  UNL     1      -5.844   6.988  15.519  1.00  0.00     0.010 C 
BRANCH  24  26
HETATM   26  C6  UNL     1      -4.659   9.092  14.788  1.00  0.00     0.008 C 
BRANCH  26  27
HETATM   27  C5  UNL     1      -4.431  10.324  15.672  1.00  0.00     0.028 C 
BRANCH  27  28
HETATM   28  C4  UNL     1      -3.469  10.013  16.786  1.00  0.00    -0.025 C 
HETATM   29  C2  UNL     1      -3.215  10.750  17.885  1.00  0.00    -0.091 C 
HETATM   30  C1  UNL     1      -2.188  10.301  18.891  1.00  0.00     0.042 C 
HETATM   31  C3  UNL     1      -3.901  12.043  18.236  1.00  0.00     0.042 C 
ENDBRANCH  27  28
ENDBRANCH  26  27
ENDBRANCH  24  26
ENDBRANCH   1  24
TORSDOF 4
ENDMDL
MODEL 6
REMARK minimizedAffinity -8.5714798
REMARK  4 active torsions:
REMARK  status: ('A' for Active; 'I' for Inactive)
REMARK    1  A    between atoms: C4_4  and  C5_5 
REMARK    2  A    between atoms: C5_5  and  C6_6 
REMARK    3  A    between atoms: C6_6  and  C7_7 
REMARK    4  A    between atoms: C7_7  and  C9_9 
ROOT
HETATM    1  C9  UNL     1      -4.114   6.378  14.537  1.00  0.00    -0.002 C 
HETATM    2  C10 UNL     1      -4.502   5.151  13.669  1.00  0.00     0.006 C 
HETATM    3  C11 UNL     1      -3.397   4.957  12.619  1.00  0.00     0.011 C 
HETATM    4  C12 UNL     1      -2.252   5.893  13.051  1.00  0.00    -0.032 C 
HETATM    5  C13 UNL     1      -1.391   5.110  14.093  1.00  0.00     0.016 C 
HETATM    6  C14 UNL     1      -1.359   6.391  11.883  1.00  0.00     0.004 C 
HETATM    7  C15 UNL     1      -0.589   5.258  11.176  1.00  0.00     0.007 C 
HETATM    8  C16 UNL     1       0.930   5.356  11.253  1.00  0.00     0.007 C 
HETATM    9  C17 UNL     1       1.388   6.704  10.669  1.00  0.00     0.010 C 
HETATM   10  C18 UNL     1       2.911   6.783  10.327  1.00  0.00     0.018 C 
HETATM   11  C19 UNL     1       3.181   7.960   9.363  1.00  0.00     0.023 C 
HETATM   12  C20 UNL     1       3.410   5.507   9.615  1.00  0.00     0.023 C 
HETATM   13  C21 UNL     1       3.760   6.987  11.587  1.00  0.00     0.135 C 
HETATM   14  O1  UNL     1       4.952   6.672  11.627  1.00  0.00    -0.297 OA
HETATM   15  C22 UNL     1       3.100   7.581  12.806  1.00  0.00     0.080 C 
HETATM   16  C23 UNL     1       2.002   8.535  12.388  1.00  0.00     0.018 C 
HETATM   17  C24 UNL     1       0.902   7.810  11.627  1.00  0.00    -0.026 A 
HETATM   18  C25 UNL     1      -0.272   8.646  11.183  1.00  0.00     0.021 A 
HETATM   19  C26 UNL     1      -0.502   7.624  12.283  1.00  0.00    -0.027 A 
HETATM   20  C27 UNL     1      -0.706   8.192  13.699  1.00  0.00     0.011 C 
HETATM   21  C28 UNL     1      -2.066   8.008  14.390  1.00  0.00     0.011 C 
HETATM   22  C29 UNL     1      -3.053   7.107  13.648  1.00  0.00    -0.032 C 
HETATM   23  C30 UNL     1      -3.779   7.976  12.579  1.00  0.00     0.016 C 
ENDROOT
BRANCH   1  24
HETATM   24  C7  UNL     1      -5.360   7.154  15.050  1.00  0.00    -0.014 C 
HETATM   25  C8  UNL     1      -4.983   8.382  15.887  1.00  0.00     0.010 C 
BRANCH  24  26
HETATM   26  C6  UNL     1      -6.346   6.259  15.847  1.00  0.00     0.008 C 
BRANCH  26  27
HETATM   27  C5  UNL     1      -7.409   7.013  16.655  1.00  0.00     0.028 C 
BRANCH  27  28
HETATM   28  C4  UNL     1      -8.751   6.936  15.979  1.00  0.00    -0.025 C 
HETATM   29  C2  UNL     1      -9.430   7.936  15.383  1.00  0.00    -0.091 C 
HETATM   30  C1  UNL     1     -10.788   7.689  14.778  1.00  0.00     0.042 C 
HETATM   31  C3  UNL     1      -8.938   9.350  15.239  1.00  0.00     0.042 C 
ENDBRANCH  27  28
ENDBRANCH  26  27
ENDBRANCH  24  26
ENDBRANCH   1  24
TORSDOF 4
ENDMDL
MODEL 7
REMARK minimizedAffinity -8.42450428
REMARK  4 active torsions:
REMARK  status: ('A' for Active; 'I' for Inactive)
REMARK    1  A    between atoms: C4_4  and  C5_5 
REMARK    2  A    between atoms: C5_5  and  C6_6 
REMARK    3  A    between atoms: C6_6  and  C7_7 
REMARK    4  A    between atoms: C7_7  and  C9_9 
ROOT
HETATM    1  C9  UNL     1      -4.437   6.147  14.317  1.00  0.00    -0.002 C 
HETATM    2  C10 UNL     1      -4.246   5.311  13.023  1.00  0.00     0.006 C 
HETATM    3  C11 UNL     1      -2.829   5.588  12.498  1.00  0.00     0.011 C 
HETATM    4  C12 UNL     1      -2.118   6.361  13.625  1.00  0.00    -0.032 C 
HETATM    5  C13 UNL     1      -1.538   5.298  14.611  1.00  0.00     0.016 C 
HETATM    6  C14 UNL     1      -0.990   7.310  13.136  1.00  0.00     0.004 C 
HETATM    7  C15 UNL     1       0.187   6.570  12.471  1.00  0.00     0.007 C 
HETATM    8  C16 UNL     1       1.532   6.721  13.173  1.00  0.00     0.007 C 
HETATM    9  C17 UNL     1       1.887   8.214  13.286  1.00  0.00     0.010 C 
HETATM   10  C18 UNL     1       3.385   8.504  13.624  1.00  0.00     0.018 C 
HETATM   11  C19 UNL     1       3.736   9.968  13.280  1.00  0.00     0.023 C 
HETATM   12  C20 UNL     1       4.345   7.617  12.800  1.00  0.00     0.023 C 
HETATM   13  C21 UNL     1       3.682   8.272  15.110  1.00  0.00     0.135 C 
HETATM   14  O1  UNL     1       4.822   8.035  15.517  1.00  0.00    -0.297 OA
HETATM   15  C22 UNL     1       2.534   8.329  16.085  1.00  0.00     0.080 C 
HETATM   16  C23 UNL     1       1.485   9.304  15.596  1.00  0.00     0.018 C 
HETATM   17  C24 UNL     1       0.887   8.852  14.271  1.00  0.00    -0.026 A 
HETATM   18  C25 UNL     1      -0.198   9.723  13.691  1.00  0.00     0.021 A 
HETATM   19  C26 UNL     1      -0.590   8.353  14.216  1.00  0.00    -0.027 A 
HETATM   20  C27 UNL     1      -1.385   8.338  15.535  1.00  0.00     0.011 C 
HETATM   21  C28 UNL     1      -2.836   7.831  15.529  1.00  0.00     0.011 C 
HETATM   22  C29 UNL     1      -3.300   7.215  14.209  1.00  0.00    -0.032 C 
HETATM   23  C30 UNL     1      -3.764   8.377  13.281  1.00  0.00     0.016 C 
ENDROOT
BRANCH   1  24
HETATM   24  C7  UNL     1      -5.912   6.601  14.511  1.00  0.00    -0.014 C 
HETATM   25  C8  UNL     1      -6.060   8.127  14.519  1.00  0.00     0.010 C 
BRANCH  24  26
HETATM   26  C6  UNL     1      -6.567   6.005  15.786  1.00  0.00     0.008 C 
BRANCH  26  27
HETATM   27  C5  UNL     1      -7.826   5.164  15.544  1.00  0.00     0.028 C 
BRANCH  27  28
HETATM   28  C4  UNL     1      -7.509   3.952  14.710  1.00  0.00    -0.025 C 
HETATM   29  C2  UNL     1      -7.747   3.771  13.396  1.00  0.00    -0.091 C 
HETATM   30  C1  UNL     1      -7.392   2.472  12.723  1.00  0.00     0.042 C 
HETATM   31  C3  UNL     1      -8.353   4.798  12.479  1.00  0.00     0.042 C 
ENDBRANCH  27  28
ENDBRANCH  26  27
ENDBRANCH  24  26
ENDBRANCH   1  24
TORSDOF 4
ENDMDL
MODEL 8
REMARK minimizedAffinity -8.41484356
REMARK  4 active torsions:
REMARK  status: ('A' for Active; 'I' for Inactive)
REMARK    1  A    between atoms: C4_4  and  C5_5 
REMARK    2  A    between atoms: C5_5  and  C6_6 
REMARK    3  A    between atoms: C6_6  and  C7_7 
REMARK    4  A    between atoms: C7_7  and  C9_9 
ROOT
HETATM    1  C9  UNL     1       2.116   7.724  12.074  1.00  0.00    -0.002 C 
HETATM    2  C10 UNL     1       2.374   6.219  11.791  1.00  0.00     0.006 C 
HETATM    3  C11 UNL     1       1.110   5.448  12.200  1.00  0.00     0.011 C 
HETATM    4  C12 UNL     1       0.038   6.524  12.458  1.00  0.00    -0.032 C 
HETATM    5  C13 UNL     1      -0.617   6.855  11.079  1.00  0.00     0.016 C 
HETATM    6  C14 UNL     1      -1.051   6.109  13.483  1.00  0.00     0.004 C 
HETATM    7  C15 UNL     1      -1.909   4.917  13.016  1.00  0.00     0.007 C 
HETATM    8  C16 UNL     1      -3.394   5.212  12.841  1.00  0.00     0.007 C 
HETATM    9  C17 UNL     1      -3.970   5.746  14.164  1.00  0.00     0.010 C 
HETATM   10  C18 UNL     1      -5.531   5.723  14.252  1.00  0.00     0.018 C 
HETATM   11  C19 UNL     1      -5.984   5.842  15.724  1.00  0.00     0.023 C 
HETATM   12  C20 UNL     1      -6.119   4.399  13.716  1.00  0.00     0.023 C 
HETATM   13  C21 UNL     1      -6.155   6.876  13.460  1.00  0.00     0.135 C 
HETATM   14  O1  UNL     1      -7.317   6.829  13.047  1.00  0.00    -0.297 OA
HETATM   15  C22 UNL     1      -5.309   8.092  13.177  1.00  0.00     0.080 C 
HETATM   16  C23 UNL     1      -4.316   8.304  14.300  1.00  0.00     0.018 C 
HETATM   17  C24 UNL     1      -3.348   7.135  14.410  1.00  0.00    -0.026 A 
HETATM   18  C25 UNL     1      -2.284   7.241  15.472  1.00  0.00     0.021 A 
HETATM   19  C26 UNL     1      -1.850   7.328  14.020  1.00  0.00    -0.027 A 
HETATM   20  C27 UNL     1      -1.418   8.722  13.528  1.00  0.00     0.011 C 
HETATM   21  C28 UNL     1       0.044   8.948  13.111  1.00  0.00     0.011 C 
HETATM   22  C29 UNL     1       0.906   7.687  13.063  1.00  0.00    -0.032 C 
HETATM   23  C30 UNL     1       1.422   7.410  14.506  1.00  0.00     0.016 C 
ENDROOT
BRANCH   1  24
HETATM   24  C7  UNL     1       3.417   8.480  12.468  1.00  0.00    -0.014 C 
HETATM   25  C8  UNL     1       3.136   9.743  13.291  1.00  0.00     0.010 C 
BRANCH  24  26
HETATM   26  C6  UNL     1       4.305   8.837  11.246  1.00  0.00     0.008 C 
BRANCH  26  27
HETATM   27  C5  UNL     1       4.385   7.762  10.156  1.00  0.00     0.028 C 
BRANCH  27  28
HETATM   28  C4  UNL     1       3.440   8.072   9.027  1.00  0.00    -0.025 C 
HETATM   29  C2  UNL     1       2.807   7.199   8.219  1.00  0.00    -0.091 C 
HETATM   30  C1  UNL     1       1.915   7.687   7.109  1.00  0.00     0.042 C 
HETATM   31  C3  UNL     1       2.895   5.700   8.329  1.00  0.00     0.042 C 
ENDBRANCH  27  28
ENDBRANCH  26  27
ENDBRANCH  24  26
ENDBRANCH   1  24
TORSDOF 4
ENDMDL
MODEL 9
REMARK minimizedAffinity -8.34109497
REMARK  4 active torsions:
REMARK  status: ('A' for Active; 'I' for Inactive)
REMARK    1  A    between atoms: C4_4  and  C5_5 
REMARK    2  A    between atoms: C5_5  and  C6_6 
REMARK    3  A    between atoms: C6_6  and  C7_7 
REMARK    4  A    between atoms: C7_7  and  C9_9 
ROOT
HETATM    1  C9  UNL     1      -1.230   5.890  13.019  1.00  0.00    -0.002 C 
HETATM    2  C10 UNL     1      -0.646   6.744  11.862  1.00  0.00     0.006 C 
HETATM    3  C11 UNL     1      -0.865   8.222  12.219  1.00  0.00     0.011 C 
HETATM    4  C12 UNL     1      -1.323   8.224  13.691  1.00  0.00    -0.032 C 
HETATM    5  C13 UNL     1      -0.031   8.209  14.569  1.00  0.00     0.016 C 
HETATM    6  C14 UNL     1      -2.221   9.429  14.079  1.00  0.00     0.004 C 
HETATM    7  C15 UNL     1      -1.501  10.788  13.971  1.00  0.00     0.007 C 
HETATM    8  C16 UNL     1      -1.366  11.560  15.279  1.00  0.00     0.007 C 
HETATM    9  C17 UNL     1      -2.762  11.786  15.887  1.00  0.00     0.010 C 
HETATM   10  C18 UNL     1      -2.817  12.878  17.004  1.00  0.00     0.018 C 
HETATM   11  C19 UNL     1      -4.273  13.342  17.226  1.00  0.00     0.023 C 
HETATM   12  C20 UNL     1      -2.008  14.137  16.620  1.00  0.00     0.023 C 
HETATM   13  C21 UNL     1      -2.270  12.350  18.334  1.00  0.00     0.135 C 
HETATM   14  O1  UNL     1      -1.836  13.107  19.207  1.00  0.00    -0.297 OA
HETATM   15  C22 UNL     1      -2.260  10.859  18.563  1.00  0.00     0.080 C 
HETATM   16  C23 UNL     1      -3.419  10.215  17.833  1.00  0.00     0.018 C 
HETATM   17  C24 UNL     1      -3.300  10.410  16.328  1.00  0.00    -0.026 A 
HETATM   18  C25 UNL     1      -4.380   9.784  15.483  1.00  0.00     0.021 A 
HETATM   19  C26 UNL     1      -2.984   9.189  15.410  1.00  0.00    -0.027 A 
HETATM   20  C27 UNL     1      -2.799   7.819  16.088  1.00  0.00     0.011 C 
HETATM   21  C28 UNL     1      -2.463   6.595  15.222  1.00  0.00     0.011 C 
HETATM   22  C29 UNL     1      -2.169   6.902  13.754  1.00  0.00    -0.032 C 
HETATM   23  C30 UNL     1      -3.533   6.984  13.005  1.00  0.00     0.016 C 
ENDROOT
BRANCH   1  24
HETATM   24  C7  UNL     1      -1.794   4.529  12.521  1.00  0.00    -0.014 C 
HETATM   25  C8  UNL     1      -1.694   4.374  10.998  1.00  0.00     0.010 C 
BRANCH  24  26
HETATM   26  C6  UNL     1      -3.256   4.274  12.978  1.00  0.00     0.008 C 
BRANCH  26  27
HETATM   27  C5  UNL     1      -4.240   3.914  11.859  1.00  0.00     0.028 C 
BRANCH  27  28
HETATM   28  C4  UNL     1      -5.596   3.587  12.423  1.00  0.00    -0.025 C 
HETATM   29  C2  UNL     1      -6.369   2.519  12.142  1.00  0.00    -0.091 C 
HETATM   30  C1  UNL     1      -7.725   2.364  12.778  1.00  0.00     0.042 C 
HETATM   31  C3  UNL     1      -5.987   1.395  11.218  1.00  0.00     0.042 C 
ENDBRANCH  27  28
ENDBRANCH  26  27
ENDBRANCH  24  26
ENDBRANCH   1  24
TORSDOF 4
ENDMDL
