MODEL 1
REMARK minimizedAffinity -8.04432297
REMARK CNNscore 0.600138068
REMARK CNNaffinity 7.47731209
REMARK  13 active torsions:
REMARK  status: ('A' for Active; 'I' for Inactive)
REMARK    1  A    between atoms: O1_2  and  C2_3 
REMARK    2  A    between atoms: C12_14  and  C13_15 
REMARK    3  A    between atoms: C13_15  and  C15_17 
REMARK    4  A    between atoms: C15_17  and  C16_18 
REMARK    5  A    between atoms: C17_19  and  C18_20 
REMARK    6  A    between atoms: C18_20  and  O3_23 
REMARK    7  A    between atoms: C29_32  and  O4_33 
REMARK    8  A    between atoms: O4_33  and  C30_34 
REMARK    9  A    between atoms: C31_36  and  C32_37 
REMARK   10  A    between atoms: C32_37  and  O6_38 
REMARK   11  A    between atoms: C33_39  and  O7_40 
REMARK   12  A    between atoms: C34_41  and  O8_42 
REMARK   13  A    between atoms: C35_43  and  O9_44 
ROOT
HETATM    1  C2  UNL     1      -1.243  11.181  14.158  1.00  0.00     0.270 C 
HETATM    2  O2  UNL     1      -2.281  10.302  13.677  1.00  0.00    -0.344 OA
HETATM    3  C3  UNL     1      -2.883   9.656  14.819  1.00  0.00     0.095 C 
HETATM    4  C4  UNL     1      -4.007  10.603  15.223  1.00  0.00     0.008 C 
HETATM    5  C5  UNL     1      -3.772  11.719  15.929  1.00  0.00    -0.021 C 
HETATM    6  C6  UNL     1      -2.367  12.141  16.303  1.00  0.00     0.030 C 
HETATM    7  C7  UNL     1      -1.270  11.139  15.729  1.00  0.00     0.024 C 
HETATM    8  C8  UNL     1       0.147  11.462  16.276  1.00  0.00     0.016 C 
HETATM    9  C9  UNL     1       0.256  11.870  17.756  1.00  0.00     0.011 C 
HETATM   10  C10 UNL     1      -0.747  12.978  18.119  1.00  0.00    -0.032 C 
HETATM   11  C11 UNL     1      -0.381  14.256  17.295  1.00  0.00     0.016 C 
HETATM   12  C12 UNL     1      -0.880  13.386  19.620  1.00  0.00    -0.002 C 
HETATM   13  C22 UNL     1      -2.307  14.025  19.659  1.00  0.00     0.006 C 
HETATM   14  C23 UNL     1      -3.059  13.566  18.393  1.00  0.00     0.011 C 
HETATM   15  C24 UNL     1      -2.196  12.423  17.832  1.00  0.00    -0.029 C 
HETATM   16  C25 UNL     1      -2.574  11.166  18.687  1.00  0.00     0.016 C 
HETATM   17  C26 UNL     1      -1.761   9.677  15.889  1.00  0.00     0.039 C 
HETATM   18  C27 UNL     1      -0.674   8.611  15.676  1.00  0.00     0.011 C 
HETATM   19  C28 UNL     1      -1.268   7.228  15.464  1.00  0.00     0.033 C 
HETATM   20  C29 UNL     1      -2.218   7.216  14.262  1.00  0.00     0.136 C 
HETATM   21  C36 UNL     1      -3.407   8.215  14.467  1.00  0.00     0.014 C 
HETATM   22  C37 UNL     1      -4.254   8.227  13.168  1.00  0.00     0.021 C 
HETATM   23  C38 UNL     1      -4.309   7.662  15.603  1.00  0.00     0.021 C 
ENDROOT
BRANCH  20  24
HETATM   24  O4  UNL     1      -1.519   7.548  13.052  1.00  0.00    -0.352 OA
BRANCH  24  25
HETATM   25  C30 UNL     1      -1.136   6.415  12.263  1.00  0.00     0.292 C 
HETATM   26  O5  UNL     1      -1.994   5.308  12.515  1.00  0.00    -0.348 OA
HETATM   27  C31 UNL     1      -1.669   4.191  11.678  1.00  0.00     0.179 C 
HETATM   28  C33 UNL     1      -0.254   3.675  11.999  1.00  0.00     0.180 C 
HETATM   29  C34 UNL     1       0.774   4.806  11.923  1.00  0.00     0.183 C 
HETATM   30  C35 UNL     1       0.303   6.049  12.678  1.00  0.00     0.204 C 
BRANCH  27  31
HETATM   31  C32 UNL     1      -2.711   3.086  11.903  1.00  0.00     0.198 C 
BRANCH  31  32
HETATM   32  O6  UNL     1      -3.329   2.685  10.689  1.00  0.00    -0.398 OA
HETATM   33  H50 UNL     1      -2.616   2.590  10.019  1.00  0.00     0.209 HD
ENDBRANCH  31  32
ENDBRANCH  27  31
BRANCH  28  34
HETATM   34  O7  UNL     1       0.107   2.633  11.082  1.00  0.00    -0.390 OA
HETATM   35  H52 UNL     1       0.539   3.095  10.332  1.00  0.00     0.210 HD
ENDBRANCH  28  34
BRANCH  29  36
HETATM   36  O8  UNL     1       0.993   5.131  10.536  1.00  0.00    -0.390 OA
HETATM   37  H54 UNL     1       1.545   5.942  10.557  1.00  0.00     0.210 HD
ENDBRANCH  29  36
BRANCH  30  38
HETATM   38  O9  UNL     1       1.208   7.129  12.398  1.00  0.00    -0.388 OA
HETATM   39  H56 UNL     1       0.873   7.885  12.924  1.00  0.00     0.210 HD
ENDBRANCH  30  38
ENDBRANCH  24  25
ENDBRANCH  20  24
BRANCH   1  40
HETATM   40  O1  UNL     1      -1.373  12.509  13.662  1.00  0.00    -0.365 OA
HETATM   41  C1  UNL     1      -2.363  13.240  14.367  1.00  0.00     0.204 C 
ENDBRANCH   1  40
BRANCH  12  42
HETATM   42  C13 UNL     1       0.183  14.315  20.277  1.00  0.00    -0.010 C 
HETATM   43  C14 UNL     1       0.062  15.767  19.801  1.00  0.00     0.010 C 
BRANCH  42  44
HETATM   44  C15 UNL     1       1.613  13.784  19.990  1.00  0.00     0.031 C 
BRANCH  44  45
HETATM   45  C16 UNL     1       2.122  12.844  21.052  1.00  0.00    -0.027 C 
HETATM   46  C17 UNL     1       2.369  11.544  20.818  1.00  0.00     0.006 C 
BRANCH  46  47
HETATM   47  C18 UNL     1       2.851  10.484  21.793  1.00  0.00     0.070 C 
HETATM   48  C19 UNL     1       4.270  10.031  21.413  1.00  0.00     0.050 C 
HETATM   49  C20 UNL     1       2.888  10.971  23.251  1.00  0.00     0.050 C 
BRANCH  47  50
HETATM   50  O3  UNL     1       1.918   9.390  21.799  1.00  0.00    -0.382 OA
HETATM   51  C21 UNL     1       2.257   8.242  22.559  1.00  0.00     0.202 C 
ENDBRANCH  47  50
ENDBRANCH  46  47
ENDBRANCH  44  45
ENDBRANCH  42  44
ENDBRANCH  12  42
TORSDOF 13
ENDMDL
MODEL 2
REMARK minimizedAffinity -8.20510387
REMARK CNNscore 0.472483486
REMARK CNNaffinity 6.96386576
REMARK  13 active torsions:
REMARK  status: ('A' for Active; 'I' for Inactive)
REMARK    1  A    between atoms: O1_2  and  C2_3 
REMARK    2  A    between atoms: C12_14  and  C13_15 
REMARK    3  A    between atoms: C13_15  and  C15_17 
REMARK    4  A    between atoms: C15_17  and  C16_18 
REMARK    5  A    between atoms: C17_19  and  C18_20 
REMARK    6  A    between atoms: C18_20  and  O3_23 
REMARK    7  A    between atoms: C29_32  and  O4_33 
REMARK    8  A    between atoms: O4_33  and  C30_34 
REMARK    9  A    between atoms: C31_36  and  C32_37 
REMARK   10  A    between atoms: C32_37  and  O6_38 
REMARK   11  A    between atoms: C33_39  and  O7_40 
REMARK   12  A    between atoms: C34_41  and  O8_42 
REMARK   13  A    between atoms: C35_43  and  O9_44 
ROOT
HETATM    1  C2  UNL     1      -0.312  10.315  15.014  1.00  0.00     0.270 C 
HETATM    2  O2  UNL     1       0.809  10.157  14.119  1.00  0.00    -0.344 OA
HETATM    3  C3  UNL     1       0.742   8.831  13.551  1.00  0.00     0.095 C 
HETATM    4  C4  UNL     1      -0.107   9.014  12.298  1.00  0.00     0.008 C 
HETATM    5  C5  UNL     1      -1.444   9.099  12.357  1.00  0.00    -0.021 C 
HETATM    6  C6  UNL     1      -2.184   9.091  13.678  1.00  0.00     0.030 C 
HETATM    7  C7  UNL     1      -1.189   9.013  14.918  1.00  0.00     0.024 C 
HETATM    8  C8  UNL     1      -1.951   8.809  16.256  1.00  0.00     0.016 C 
HETATM    9  C9  UNL     1      -3.153   7.848  16.242  1.00  0.00     0.011 C 
HETATM   10  C10 UNL     1      -4.123   8.163  15.091  1.00  0.00    -0.032 C 
HETATM   11  C11 UNL     1      -4.718   9.589  15.330  1.00  0.00     0.016 C 
HETATM   12  C12 UNL     1      -5.307   7.176  14.837  1.00  0.00    -0.002 C 
HETATM   13  C22 UNL     1      -5.656   7.465  13.340  1.00  0.00     0.006 C 
HETATM   14  C23 UNL     1      -4.454   8.199  12.712  1.00  0.00     0.011 C 
HETATM   15  C24 UNL     1      -3.322   8.020  13.739  1.00  0.00    -0.029 C 
HETATM   16  C25 UNL     1      -2.760   6.580  13.484  1.00  0.00     0.016 C 
HETATM   17  C26 UNL     1      -0.044   8.015  14.610  1.00  0.00     0.039 C 
HETATM   18  C27 UNL     1       0.794   7.606  15.833  1.00  0.00     0.011 C 
HETATM   19  C28 UNL     1       2.105   6.951  15.429  1.00  0.00     0.033 C 
HETATM   20  C29 UNL     1       2.938   7.886  14.546  1.00  0.00     0.136 C 
HETATM   21  C36 UNL     1       2.172   8.258  13.232  1.00  0.00     0.014 C 
HETATM   22  C37 UNL     1       3.028   9.289  12.451  1.00  0.00     0.021 C 
HETATM   23  C38 UNL     1       2.073   6.981  12.355  1.00  0.00     0.021 C 
ENDROOT
BRANCH  20  24
HETATM   24  O4  UNL     1       3.284   9.087  15.253  1.00  0.00    -0.352 OA
BRANCH  24  25
HETATM   25  C30 UNL     1       4.692   9.275  15.443  1.00  0.00     0.292 C 
HETATM   26  O5  UNL     1       5.172  10.353  14.645  1.00  0.00    -0.348 OA
HETATM   27  C31 UNL     1       6.564  10.600  14.881  1.00  0.00     0.179 C 
HETATM   28  C33 UNL     1       7.405   9.384  14.449  1.00  0.00     0.180 C 
HETATM   29  C34 UNL     1       6.898   8.101  15.113  1.00  0.00     0.183 C 
HETATM   30  C35 UNL     1       5.379   7.968  15.000  1.00  0.00     0.204 C 
BRANCH  27  31
HETATM   31  C32 UNL     1       6.983  11.852  14.097  1.00  0.00     0.198 C 
BRANCH  31  32
HETATM   32  O6  UNL     1       6.129  12.093  12.987  1.00  0.00    -0.398 OA
HETATM   33  H50 UNL     1       5.206  11.968  13.300  1.00  0.00     0.209 HD
ENDBRANCH  31  32
ENDBRANCH  27  31
BRANCH  28  34
HETATM   34  O7  UNL     1       8.781   9.593  14.793  1.00  0.00    -0.390 OA
HETATM   35  H52 UNL     1       8.875   9.227  15.698  1.00  0.00     0.210 HD
ENDBRANCH  28  34
BRANCH  29  36
HETATM   36  O8  UNL     1       7.284   8.124  16.502  1.00  0.00    -0.390 OA
HETATM   37  H54 UNL     1       6.818   7.357  16.900  1.00  0.00     0.210 HD
ENDBRANCH  29  36
BRANCH  30  38
HETATM   38  O9  UNL     1       4.952   6.863  15.811  1.00  0.00    -0.388 OA
HETATM   39  H56 UNL     1       3.981   6.811  15.680  1.00  0.00     0.210 HD
ENDBRANCH  30  38
ENDBRANCH  24  25
ENDBRANCH  20  24
BRANCH   1  40
HETATM   40  O1  UNL     1      -1.073  11.486  14.740  1.00  0.00    -0.365 OA
HETATM   41  C1  UNL     1      -0.879  12.484  15.729  1.00  0.00     0.204 C 
ENDBRANCH   1  40
BRANCH  12  42
HETATM   42  C13 UNL     1      -6.573   7.222  15.741  1.00  0.00    -0.010 C 
HETATM   43  C14 UNL     1      -6.815   5.897  16.472  1.00  0.00     0.010 C 
BRANCH  42  44
HETATM   44  C15 UNL     1      -7.823   7.595  14.899  1.00  0.00     0.031 C 
BRANCH  44  45
HETATM   45  C16 UNL     1      -8.648   8.695  15.516  1.00  0.00    -0.027 C 
HETATM   46  C17 UNL     1      -9.779   9.159  14.958  1.00  0.00     0.006 C 
BRANCH  46  47
HETATM   47  C18 UNL     1     -10.686  10.274  15.449  1.00  0.00     0.070 C 
HETATM   48  C19 UNL     1      -9.839  11.432  16.000  1.00  0.00     0.050 C 
HETATM   49  C20 UNL     1     -11.601  10.841  14.351  1.00  0.00     0.050 C 
BRANCH  47  50
HETATM   50  O3  UNL     1     -11.589   9.746  16.437  1.00  0.00    -0.382 OA
HETATM   51  C21 UNL     1     -12.947   9.587  16.065  1.00  0.00     0.202 C 
ENDBRANCH  47  50
ENDBRANCH  46  47
ENDBRANCH  44  45
ENDBRANCH  42  44
ENDBRANCH  12  42
TORSDOF 13
ENDMDL
MODEL 3
REMARK minimizedAffinity -8.096632
REMARK CNNscore 0.40860948
REMARK CNNaffinity 7.16748619
REMARK  13 active torsions:
REMARK  status: ('A' for Active; 'I' for Inactive)
REMARK    1  A    between atoms: O1_2  and  C2_3 
REMARK    2  A    between atoms: C12_14  and  C13_15 
REMARK    3  A    between atoms: C13_15  and  C15_17 
REMARK    4  A    between atoms: C15_17  and  C16_18 
REMARK    5  A    between atoms: C17_19  and  C18_20 
REMARK    6  A    between atoms: C18_20  and  O3_23 
REMARK    7  A    between atoms: C29_32  and  O4_33 
REMARK    8  A    between atoms: O4_33  and  C30_34 
REMARK    9  A    between atoms: C31_36  and  C32_37 
REMARK   10  A    between atoms: C32_37  and  O6_38 
REMARK   11  A    between atoms: C33_39  and  O7_40 
REMARK   12  A    between atoms: C34_41  and  O8_42 
REMARK   13  A    between atoms: C35_43  and  O9_44 
ROOT
HETATM    1  C2  UNL     1      -0.906   9.570  15.590  1.00  0.00     0.270 C 
HETATM    2  O2  UNL     1       0.207   9.853  14.717  1.00  0.00    -0.344 OA
HETATM    3  C3  UNL     1       0.230   8.844  13.684  1.00  0.00     0.095 C 
HETATM    4  C4  UNL     1      -0.653   9.426  12.586  1.00  0.00     0.008 C 
HETATM    5  C5  UNL     1      -1.991   9.379  12.656  1.00  0.00    -0.021 C 
HETATM    6  C6  UNL     1      -2.704   8.810  13.864  1.00  0.00     0.030 C 
HETATM    7  C7  UNL     1      -1.684   8.341  14.993  1.00  0.00     0.024 C 
HETATM    8  C8  UNL     1      -2.404   7.583  16.141  1.00  0.00     0.016 C 
HETATM    9  C9  UNL     1      -3.531   6.611  15.746  1.00  0.00     0.011 C 
HETATM   10  C10 UNL     1      -4.542   7.267  14.791  1.00  0.00    -0.032 C 
HETATM   11  C11 UNL     1      -5.238   8.443  15.550  1.00  0.00     0.016 C 
HETATM   12  C12 UNL     1      -5.652   6.364  14.164  1.00  0.00    -0.002 C 
HETATM   13  C22 UNL     1      -6.049   7.175  12.887  1.00  0.00     0.006 C 
HETATM   14  C23 UNL     1      -4.917   8.184  12.603  1.00  0.00     0.011 C 
HETATM   15  C24 UNL     1      -3.756   7.713  13.497  1.00  0.00    -0.029 C 
HETATM   16  C25 UNL     1      -3.092   6.528  12.718  1.00  0.00     0.016 C 
HETATM   17  C26 UNL     1      -0.472   7.627  14.340  1.00  0.00     0.039 C 
HETATM   18  C27 UNL     1       0.416   6.848  15.324  1.00  0.00     0.011 C 
HETATM   19  C28 UNL     1       1.765   6.500  14.717  1.00  0.00     0.033 C 
HETATM   20  C29 UNL     1       2.509   7.762  14.269  1.00  0.00     0.136 C 
HETATM   21  C36 UNL     1       1.693   8.548  13.187  1.00  0.00     0.014 C 
HETATM   22  C37 UNL     1       2.455   9.862  12.871  1.00  0.00     0.021 C 
HETATM   23  C38 UNL     1       1.676   7.700  11.887  1.00  0.00     0.021 C 
ENDROOT
BRANCH  20  24
HETATM   24  O4  UNL     1       2.776   8.625  15.386  1.00  0.00    -0.352 OA
BRANCH  24  25
HETATM   25  C30 UNL     1       4.158   8.962  15.553  1.00  0.00     0.292 C 
HETATM   26  O5  UNL     1       4.503  10.094  14.762  1.00  0.00    -0.348 OA
HETATM   27  C31 UNL     1       5.865  10.488  14.977  1.00  0.00     0.179 C 
HETATM   28  C33 UNL     1       6.824   9.376  14.514  1.00  0.00     0.180 C 
HETATM   29  C34 UNL     1       6.472   8.038  15.169  1.00  0.00     0.183 C 
HETATM   30  C35 UNL     1       4.975   7.742  15.081  1.00  0.00     0.204 C 
BRANCH  27  31
HETATM   31  C32 UNL     1       6.131  11.787  14.203  1.00  0.00     0.198 C 
BRANCH  31  32
HETATM   32  O6  UNL     1       5.729  12.934  14.938  1.00  0.00    -0.398 OA
HETATM   33  H50 UNL     1       6.046  12.812  15.860  1.00  0.00     0.209 HD
ENDBRANCH  31  32
ENDBRANCH  27  31
BRANCH  28  34
HETATM   34  O7  UNL     1       8.176   9.729  14.836  1.00  0.00    -0.390 OA
HETATM   35  H52 UNL     1       8.326   9.365  15.735  1.00  0.00     0.210 HD
ENDBRANCH  28  34
BRANCH  29  36
HETATM   36  O8  UNL     1       6.879   8.086  16.551  1.00  0.00    -0.390 OA
HETATM   37  H54 UNL     1       6.507   7.269  16.946  1.00  0.00     0.210 HD
ENDBRANCH  29  36
BRANCH  30  38
HETATM   38  O9  UNL     1       4.685   6.588  15.884  1.00  0.00    -0.388 OA
HETATM   39  H56 UNL     1       3.723   6.433  15.769  1.00  0.00     0.210 HD
ENDBRANCH  30  38
ENDBRANCH  24  25
ENDBRANCH  20  24
BRANCH   1  40
HETATM   40  O1  UNL     1      -1.759  10.695  15.775  1.00  0.00    -0.365 OA
HETATM   41  C1  UNL     1      -1.422  11.424  16.944  1.00  0.00     0.204 C 
ENDBRANCH   1  40
BRANCH  12  42
HETATM   42  C13 UNL     1      -6.902   5.963  15.001  1.00  0.00    -0.010 C 
HETATM   43  C14 UNL     1      -6.547   5.634  16.456  1.00  0.00     0.010 C 
BRANCH  42  44
HETATM   44  C15 UNL     1      -7.622   4.753  14.348  1.00  0.00     0.031 C 
BRANCH  44  45
HETATM   45  C16 UNL     1      -6.973   4.297  13.067  1.00  0.00    -0.027 C 
HETATM   46  C17 UNL     1      -6.169   3.223  12.999  1.00  0.00     0.006 C 
BRANCH  46  47
HETATM   47  C18 UNL     1      -5.430   2.671  11.792  1.00  0.00     0.070 C 
HETATM   48  C19 UNL     1      -6.041   1.322  11.378  1.00  0.00     0.050 C 
HETATM   49  C20 UNL     1      -5.479   3.604  10.571  1.00  0.00     0.050 C 
BRANCH  47  50
HETATM   50  O3  UNL     1      -4.031   2.558  12.107  1.00  0.00    -0.382 OA
HETATM   51  C21 UNL     1      -3.103   3.051  11.156  1.00  0.00     0.202 C 
ENDBRANCH  47  50
ENDBRANCH  46  47
ENDBRANCH  44  45
ENDBRANCH  42  44
ENDBRANCH  12  42
TORSDOF 13
ENDMDL
MODEL 4
REMARK minimizedAffinity -8.51915646
REMARK CNNscore 0.389308751
REMARK CNNaffinity 7.30432463
REMARK  13 active torsions:
REMARK  status: ('A' for Active; 'I' for Inactive)
REMARK    1  A    between atoms: O1_2  and  C2_3 
REMARK    2  A    between atoms: C12_14  and  C13_15 
REMARK    3  A    between atoms: C13_15  and  C15_17 
REMARK    4  A    between atoms: C15_17  and  C16_18 
REMARK    5  A    between atoms: C17_19  and  C18_20 
REMARK    6  A    between atoms: C18_20  and  O3_23 
REMARK    7  A    between atoms: C29_32  and  O4_33 
REMARK    8  A    between atoms: O4_33  and  C30_34 
REMARK    9  A    between atoms: C31_36  and  C32_37 
REMARK   10  A    between atoms: C32_37  and  O6_38 
REMARK   11  A    between atoms: C33_39  and  O7_40 
REMARK   12  A    between atoms: C34_41  and  O8_42 
REMARK   13  A    between atoms: C35_43  and  O9_44 
ROOT
HETATM    1  C2  UNL     1      -3.265   5.439  13.383  1.00  0.00     0.270 C 
HETATM    2  O2  UNL     1      -2.043   5.811  14.053  1.00  0.00    -0.344 OA
HETATM    3  C3  UNL     1      -2.270   7.067  14.729  1.00  0.00     0.095 C 
HETATM    4  C4  UNL     1      -2.782   6.652  16.104  1.00  0.00     0.008 C 
HETATM    5  C5  UNL     1      -4.053   6.271  16.300  1.00  0.00    -0.021 C 
HETATM    6  C6  UNL     1      -5.035   6.162  15.153  1.00  0.00     0.030 C 
HETATM    7  C7  UNL     1      -4.359   6.506  13.753  1.00  0.00     0.024 C 
HETATM    8  C8  UNL     1      -5.408   6.583  12.610  1.00  0.00     0.016 C 
HETATM    9  C9  UNL     1      -6.757   7.249  12.936  1.00  0.00     0.011 C 
HETATM   10  C10 UNL     1      -7.377   6.682  14.224  1.00  0.00    -0.032 C 
HETATM   11  C11 UNL     1      -7.692   5.169  13.989  1.00  0.00     0.016 C 
HETATM   12  C12 UNL     1      -8.665   7.368  14.783  1.00  0.00    -0.002 C 
HETATM   13  C22 UNL     1      -8.626   6.954  16.290  1.00  0.00     0.006 C 
HETATM   14  C23 UNL     1      -7.192   6.486  16.611  1.00  0.00     0.011 C 
HETATM   15  C24 UNL     1      -6.362   6.952  15.402  1.00  0.00    -0.029 C 
HETATM   16  C25 UNL     1      -6.078   8.470  15.658  1.00  0.00     0.016 C 
HETATM   17  C26 UNL     1      -3.413   7.724  13.914  1.00  0.00     0.039 C 
HETATM   18  C27 UNL     1      -2.953   8.354  12.589  1.00  0.00     0.011 C 
HETATM   19  C28 UNL     1      -1.757   9.271  12.782  1.00  0.00     0.033 C 
HETATM   20  C29 UNL     1      -0.580   8.516  13.407  1.00  0.00     0.136 C 
HETATM   21  C36 UNL     1      -0.960   7.933  14.811  1.00  0.00     0.014 C 
HETATM   22  C37 UNL     1       0.238   7.092  15.323  1.00  0.00     0.021 C 
HETATM   23  C38 UNL     1      -1.143   9.122  15.791  1.00  0.00     0.021 C 
ENDROOT
BRANCH  20  24
HETATM   24  O4  UNL     1      -0.141   7.449  12.551  1.00  0.00    -0.352 OA
BRANCH  24  25
HETATM   25  C30 UNL     1       1.074   7.723  11.842  1.00  0.00     0.292 C 
HETATM   26  O5  UNL     1       0.844   7.764  10.438  1.00  0.00    -0.348 OA
HETATM   27  C31 UNL     1       2.035   8.111   9.721  1.00  0.00     0.179 C 
HETATM   28  C33 UNL     1       3.112   7.027   9.914  1.00  0.00     0.180 C 
HETATM   29  C34 UNL     1       3.358   6.754  11.400  1.00  0.00     0.183 C 
HETATM   30  C35 UNL     1       2.048   6.573  12.166  1.00  0.00     0.204 C 
BRANCH  27  31
HETATM   31  C32 UNL     1       1.689   8.270   8.234  1.00  0.00     0.198 C 
BRANCH  31  32
HETATM   32  O6  UNL     1       2.783   8.781   7.487  1.00  0.00    -0.398 OA
HETATM   33  H50 UNL     1       3.585   8.293   7.778  1.00  0.00     0.209 HD
ENDBRANCH  31  32
ENDBRANCH  27  31
BRANCH  28  34
HETATM   34  O7  UNL     1       4.337   7.436   9.290  1.00  0.00    -0.390 OA
HETATM   35  H52 UNL     1       4.826   7.923   9.987  1.00  0.00     0.210 HD
ENDBRANCH  28  34
BRANCH  29  36
HETATM   36  O8  UNL     1       4.096   7.863  11.951  1.00  0.00    -0.390 OA
HETATM   37  H54 UNL     1       4.101   7.700  12.918  1.00  0.00     0.210 HD
ENDBRANCH  29  36
BRANCH  30  38
HETATM   38  O9  UNL     1       2.338   6.526  13.572  1.00  0.00    -0.388 OA
HETATM   39  H56 UNL     1       1.471   6.384  14.006  1.00  0.00     0.210 HD
ENDBRANCH  30  38
ENDBRANCH  24  25
ENDBRANCH  20  24
BRANCH   1  40
HETATM   40  O1  UNL     1      -3.687   4.117  13.704  1.00  0.00    -0.365 OA
HETATM   41  C1  UNL     1      -3.604   3.251  12.583  1.00  0.00     0.204 C 
ENDBRANCH   1  40
BRANCH  12  42
HETATM   42  C13 UNL     1     -10.052   7.073  14.141  1.00  0.00    -0.010 C 
HETATM   43  C14 UNL     1      -9.941   6.714  12.655  1.00  0.00     0.010 C 
BRANCH  42  44
HETATM   44  C15 UNL     1     -10.998   8.290  14.320  1.00  0.00     0.031 C 
BRANCH  44  45
HETATM   45  C16 UNL     1     -12.444   7.962  14.055  1.00  0.00    -0.027 C 
HETATM   46  C17 UNL     1     -13.012   6.805  14.436  1.00  0.00     0.006 C 
BRANCH  46  47
HETATM   47  C18 UNL     1     -14.438   6.333  14.210  1.00  0.00     0.070 C 
HETATM   48  C19 UNL     1     -14.572   4.859  14.627  1.00  0.00     0.050 C 
HETATM   49  C20 UNL     1     -15.478   7.143  15.002  1.00  0.00     0.050 C 
BRANCH  47  50
HETATM   50  O3  UNL     1     -14.790   6.540  12.831  1.00  0.00    -0.382 OA
HETATM   51  C21 UNL     1     -16.158   6.754  12.529  1.00  0.00     0.202 C 
ENDBRANCH  47  50
ENDBRANCH  46  47
ENDBRANCH  44  45
ENDBRANCH  42  44
ENDBRANCH  12  42
TORSDOF 13
ENDMDL
MODEL 5
REMARK minimizedAffinity -9.40816307
REMARK CNNscore 0.3517389
REMARK CNNaffinity 7.12090683
REMARK  13 active torsions:
REMARK  status: ('A' for Active; 'I' for Inactive)
REMARK    1  A    between atoms: O1_2  and  C2_3 
REMARK    2  A    between atoms: C12_14  and  C13_15 
REMARK    3  A    between atoms: C13_15  and  C15_17 
REMARK    4  A    between atoms: C15_17  and  C16_18 
REMARK    5  A    between atoms: C17_19  and  C18_20 
REMARK    6  A    between atoms: C18_20  and  O3_23 
REMARK    7  A    between atoms: C29_32  and  O4_33 
REMARK    8  A    between atoms: O4_33  and  C30_34 
REMARK    9  A    between atoms: C31_36  and  C32_37 
REMARK   10  A    between atoms: C32_37  and  O6_38 
REMARK   11  A    between atoms: C33_39  and  O7_40 
REMARK   12  A    between atoms: C34_41  and  O8_42 
REMARK   13  A    between atoms: C35_43  and  O9_44 
ROOT
HETATM    1  C2  UNL     1      -2.061   9.454  14.131  1.00  0.00     0.270 C 
HETATM    2  O2  UNL     1      -3.352   8.949  13.734  1.00  0.00    -0.344 OA
HETATM    3  C3  UNL     1      -4.137   8.744  14.928  1.00  0.00     0.095 C 
HETATM    4  C4  UNL     1      -4.835  10.084  15.139  1.00  0.00     0.008 C 
HETATM    5  C5  UNL     1      -4.202  11.132  15.687  1.00  0.00    -0.021 C 
HETATM    6  C6  UNL     1      -2.736  11.068  16.061  1.00  0.00     0.030 C 
HETATM    7  C7  UNL     1      -2.086   9.663  15.689  1.00  0.00     0.024 C 
HETATM    8  C8  UNL     1      -0.643   9.530  16.248  1.00  0.00     0.016 C 
HETATM    9  C9  UNL     1      -0.379  10.089  17.658  1.00  0.00     0.011 C 
HETATM   10  C10 UNL     1      -0.905  11.527  17.809  1.00  0.00    -0.032 C 
HETATM   11  C11 UNL     1      -0.107  12.445  16.828  1.00  0.00     0.016 C 
HETATM   12  C12 UNL     1      -0.866  12.177  19.229  1.00  0.00    -0.002 C 
HETATM   13  C22 UNL     1      -1.961  13.286  19.110  1.00  0.00     0.006 C 
HETATM   14  C23 UNL     1      -2.841  12.946  17.890  1.00  0.00     0.011 C 
HETATM   15  C24 UNL     1      -2.460  11.497  17.540  1.00  0.00    -0.029 C 
HETATM   16  C25 UNL     1      -3.261  10.606  18.548  1.00  0.00     0.016 C 
HETATM   17  C26 UNL     1      -3.075   8.520  16.035  1.00  0.00     0.039 C 
HETATM   18  C27 UNL     1      -2.453   7.114  16.028  1.00  0.00     0.011 C 
HETATM   19  C28 UNL     1      -3.512   6.025  15.991  1.00  0.00     0.033 C 
HETATM   20  C29 UNL     1      -4.413   6.175  14.760  1.00  0.00     0.136 C 
HETATM   21  C36 UNL     1      -5.154   7.555  14.764  1.00  0.00     0.014 C 
HETATM   22  C37 UNL     1      -5.951   7.677  13.440  1.00  0.00     0.021 C 
HETATM   23  C38 UNL     1      -6.184   7.545  15.925  1.00  0.00     0.021 C 
ENDROOT
BRANCH  20  24
HETATM   24  O4  UNL     1      -3.653   6.045  13.549  1.00  0.00    -0.352 OA
BRANCH  24  25
HETATM   25  C30 UNL     1      -4.200   5.114  12.607  1.00  0.00     0.292 C 
HETATM   26  O5  UNL     1      -5.297   4.405  13.174  1.00  0.00    -0.348 OA
HETATM   27  C31 UNL     1      -5.901   3.523  12.220  1.00  0.00     0.179 C 
HETATM   28  C33 UNL     1      -4.903   2.430  11.792  1.00  0.00     0.180 C 
HETATM   29  C34 UNL     1      -3.591   3.046  11.301  1.00  0.00     0.183 C 
HETATM   30  C35 UNL     1      -3.075   4.118  12.260  1.00  0.00     0.204 C 
BRANCH  27  31
HETATM   31  C32 UNL     1      -7.152   2.894  12.850  1.00  0.00     0.198 C 
BRANCH  31  32
HETATM   32  O6  UNL     1      -7.683   3.701  13.891  1.00  0.00    -0.398 OA
HETATM   33  H50 UNL     1      -7.682   4.629  13.568  1.00  0.00     0.209 HD
ENDBRANCH  31  32
ENDBRANCH  27  31
BRANCH  28  34
HETATM   34  O7  UNL     1      -5.474   1.622  10.755  1.00  0.00    -0.390 OA
HETATM   35  H52 UNL     1      -5.216   2.064   9.918  1.00  0.00     0.210 HD
ENDBRANCH  28  34
BRANCH  29  36
HETATM   36  O8  UNL     1      -3.817   3.624  10.000  1.00  0.00    -0.390 OA
HETATM   37  H54 UNL     1      -2.992   4.117   9.801  1.00  0.00     0.210 HD
ENDBRANCH  29  36
BRANCH  30  38
HETATM   38  O9  UNL     1      -1.965   4.792  11.646  1.00  0.00    -0.388 OA
HETATM   39  H56 UNL     1      -1.663   5.445  12.312  1.00  0.00     0.210 HD
ENDBRANCH  30  38
ENDBRANCH  24  25
ENDBRANCH  20  24
BRANCH   1  40
HETATM   40  O1  UNL     1      -1.702  10.648  13.443  1.00  0.00    -0.365 OA
HETATM   41  C1  UNL     1      -1.335  11.683  14.340  1.00  0.00     0.204 C 
ENDBRANCH   1  40
BRANCH  12  42
HETATM   42  C13 UNL     1       0.469  12.746  19.794  1.00  0.00    -0.010 C 
HETATM   43  C14 UNL     1       1.021  13.893  18.939  1.00  0.00     0.010 C 
BRANCH  42  44
HETATM   44  C15 UNL     1       1.529  11.618  19.910  1.00  0.00     0.031 C 
BRANCH  44  45
HETATM   45  C16 UNL     1       2.107  11.486  21.295  1.00  0.00    -0.027 C 
HETATM   46  C17 UNL     1       2.708  10.366  21.732  1.00  0.00     0.006 C 
BRANCH  46  47
HETATM   47  C18 UNL     1       3.304  10.086  23.100  1.00  0.00     0.070 C 
HETATM   48  C19 UNL     1       4.836  10.197  23.036  1.00  0.00     0.050 C 
HETATM   49  C20 UNL     1       2.807  11.054  24.188  1.00  0.00     0.050 C 
BRANCH  47  50
HETATM   50  O3  UNL     1       2.873   8.788  23.545  1.00  0.00    -0.382 OA
HETATM   51  C21 UNL     1       2.041   8.040  22.674  1.00  0.00     0.202 C 
ENDBRANCH  47  50
ENDBRANCH  46  47
ENDBRANCH  44  45
ENDBRANCH  42  44
ENDBRANCH  12  42
TORSDOF 13
ENDMDL
MODEL 6
REMARK minimizedAffinity -9.07736683
REMARK CNNscore 0.326288432
REMARK CNNaffinity 6.95653391
REMARK  13 active torsions:
REMARK  status: ('A' for Active; 'I' for Inactive)
REMARK    1  A    between atoms: O1_2  and  C2_3 
REMARK    2  A    between atoms: C12_14  and  C13_15 
REMARK    3  A    between atoms: C13_15  and  C15_17 
REMARK    4  A    between atoms: C15_17  and  C16_18 
REMARK    5  A    between atoms: C17_19  and  C18_20 
REMARK    6  A    between atoms: C18_20  and  O3_23 
REMARK    7  A    between atoms: C29_32  and  O4_33 
REMARK    8  A    between atoms: O4_33  and  C30_34 
REMARK    9  A    between atoms: C31_36  and  C32_37 
REMARK   10  A    between atoms: C32_37  and  O6_38 
REMARK   11  A    between atoms: C33_39  and  O7_40 
REMARK   12  A    between atoms: C34_41  and  O8_42 
REMARK   13  A    between atoms: C35_43  and  O9_44 
ROOT
HETATM    1  C2  UNL     1      -0.631   9.287  14.659  1.00  0.00     0.270 C 
HETATM    2  O2  UNL     1       0.231   9.350  13.504  1.00  0.00    -0.344 OA
HETATM    3  C3  UNL     1      -0.092   8.235  12.645  1.00  0.00     0.095 C 
HETATM    4  C4  UNL     1      -1.187   8.781  11.736  1.00  0.00     0.008 C 
HETATM    5  C5  UNL     1      -2.460   8.886  12.146  1.00  0.00    -0.021 C 
HETATM    6  C6  UNL     1      -2.870   8.534  13.561  1.00  0.00     0.030 C 
HETATM    7  C7  UNL     1      -1.626   8.088  14.450  1.00  0.00     0.024 C 
HETATM    8  C8  UNL     1      -2.073   7.544  15.834  1.00  0.00     0.016 C 
HETATM    9  C9  UNL     1      -3.332   6.659  15.870  1.00  0.00     0.011 C 
HETATM   10  C10 UNL     1      -4.508   7.308  15.121  1.00  0.00    -0.032 C 
HETATM   11  C11 UNL     1      -4.891   8.629  15.864  1.00  0.00     0.016 C 
HETATM   12  C12 UNL     1      -5.807   6.464  14.922  1.00  0.00    -0.002 C 
HETATM   13  C22 UNL     1      -6.465   7.165  13.689  1.00  0.00     0.006 C 
HETATM   14  C23 UNL     1      -5.377   8.009  12.994  1.00  0.00     0.011 C 
HETATM   15  C24 UNL     1      -4.059   7.521  13.622  1.00  0.00    -0.029 C 
HETATM   16  C25 UNL     1      -3.713   6.192  12.870  1.00  0.00     0.016 C 
HETATM   17  C26 UNL     1      -0.685   7.181  13.616  1.00  0.00     0.039 C 
HETATM   18  C27 UNL     1       0.371   6.427  14.440  1.00  0.00     0.011 C 
HETATM   19  C28 UNL     1       1.484   5.872  13.566  1.00  0.00     0.033 C 
HETATM   20  C29 UNL     1       2.174   6.990  12.778  1.00  0.00     0.136 C 
HETATM   21  C36 UNL     1       1.163   7.733  11.841  1.00  0.00     0.014 C 
HETATM   22  C37 UNL     1       1.909   8.914  11.169  1.00  0.00     0.021 C 
HETATM   23  C38 UNL     1       0.741   6.751  10.715  1.00  0.00     0.021 C 
ENDROOT
BRANCH  20  24
HETATM   24  O4  UNL     1       2.788   7.939  13.665  1.00  0.00    -0.352 OA
BRANCH  24  25
HETATM   25  C30 UNL     1       4.181   8.166  13.413  1.00  0.00     0.292 C 
HETATM   26  O5  UNL     1       4.676   7.246  12.445  1.00  0.00    -0.348 OA
HETATM   27  C31 UNL     1       6.049   7.509  12.128  1.00  0.00     0.179 C 
HETATM   28  C33 UNL     1       6.937   7.294  13.369  1.00  0.00     0.180 C 
HETATM   29  C34 UNL     1       6.425   8.109  14.559  1.00  0.00     0.183 C 
HETATM   30  C35 UNL     1       4.917   7.945  14.749  1.00  0.00     0.204 C 
BRANCH  27  31
HETATM   31  C32 UNL     1       6.480   6.576  10.988  1.00  0.00     0.198 C 
BRANCH  31  32
HETATM   32  O6  UNL     1       5.483   5.611  10.687  1.00  0.00    -0.398 OA
HETATM   33  H50 UNL     1       4.621   6.082  10.666  1.00  0.00     0.209 HD
ENDBRANCH  31  32
ENDBRANCH  27  31
BRANCH  28  34
HETATM   34  O7  UNL     1       8.290   7.669  13.074  1.00  0.00    -0.390 OA
HETATM   35  H52 UNL     1       8.345   8.620  13.306  1.00  0.00     0.210 HD
ENDBRANCH  28  34
BRANCH  29  36
HETATM   36  O8  UNL     1       6.740   9.497  14.330  1.00  0.00    -0.390 OA
HETATM   37  H54 UNL     1       6.271   9.977  15.046  1.00  0.00     0.210 HD
ENDBRANCH  29  36
BRANCH  30  38
HETATM   38  O9  UNL     1       4.473   8.884  15.741  1.00  0.00    -0.388 OA
HETATM   39  H56 UNL     1       3.511   8.717  15.838  1.00  0.00     0.210 HD
ENDBRANCH  30  38
ENDBRANCH  24  25
ENDBRANCH  20  24
BRANCH   1  40
HETATM   40  O1  UNL     1      -1.319  10.510  14.899  1.00  0.00    -0.365 OA
HETATM   41  C1  UNL     1      -0.467  11.491  15.469  1.00  0.00     0.204 C 
ENDBRANCH   1  40
BRANCH  12  42
HETATM   42  C13 UNL     1      -6.819   6.294  16.093  1.00  0.00    -0.010 C 
HETATM   43  C14 UNL     1      -7.689   5.043  15.934  1.00  0.00     0.010 C 
BRANCH  42  44
HETATM   44  C15 UNL     1      -7.721   7.552  16.212  1.00  0.00     0.031 C 
BRANCH  44  45
HETATM   45  C16 UNL     1      -9.092   7.358  15.618  1.00  0.00    -0.027 C 
HETATM   46  C17 UNL     1      -9.862   8.381  15.211  1.00  0.00     0.006 C 
BRANCH  46  47
HETATM   47  C18 UNL     1     -11.263   8.334  14.627  1.00  0.00     0.070 C 
HETATM   48  C19 UNL     1     -11.663   6.876  14.346  1.00  0.00     0.050 C 
HETATM   49  C20 UNL     1     -12.328   8.943  15.553  1.00  0.00     0.050 C 
BRANCH  47  50
HETATM   50  O3  UNL     1     -11.306   9.146  13.440  1.00  0.00    -0.382 OA
HETATM   51  C21 UNL     1     -12.483   9.095  12.653  1.00  0.00     0.202 C 
ENDBRANCH  47  50
ENDBRANCH  46  47
ENDBRANCH  44  45
ENDBRANCH  42  44
ENDBRANCH  12  42
TORSDOF 13
ENDMDL
MODEL 7
REMARK minimizedAffinity -8.36235237
REMARK CNNscore 0.276246727
REMARK CNNaffinity 7.21607828
REMARK  13 active torsions:
REMARK  status: ('A' for Active; 'I' for Inactive)
REMARK    1  A    between atoms: O1_2  and  C2_3 
REMARK    2  A    between atoms: C12_14  and  C13_15 
REMARK    3  A    between atoms: C13_15  and  C15_17 
REMARK    4  A    between atoms: C15_17  and  C16_18 
REMARK    5  A    between atoms: C17_19  and  C18_20 
REMARK    6  A    between atoms: C18_20  and  O3_23 
REMARK    7  A    between atoms: C29_32  and  O4_33 
REMARK    8  A    between atoms: O4_33  and  C30_34 
REMARK    9  A    between atoms: C31_36  and  C32_37 
REMARK   10  A    between atoms: C32_37  and  O6_38 
REMARK   11  A    between atoms: C33_39  and  O7_40 
REMARK   12  A    between atoms: C34_41  and  O8_42 
REMARK   13  A    between atoms: C35_43  and  O9_44 
ROOT
HETATM    1  C2  UNL     1      -3.029   5.334  13.215  1.00  0.00     0.270 C 
HETATM    2  O2  UNL     1      -1.758   5.695  13.792  1.00  0.00    -0.344 OA
HETATM    3  C3  UNL     1      -1.915   6.968  14.457  1.00  0.00     0.095 C 
HETATM    4  C4  UNL     1      -2.340   6.589  15.872  1.00  0.00     0.008 C 
HETATM    5  C5  UNL     1      -3.601   6.237  16.161  1.00  0.00    -0.021 C 
HETATM    6  C6  UNL     1      -4.661   6.124  15.086  1.00  0.00     0.030 C 
HETATM    7  C7  UNL     1      -4.076   6.429  13.637  1.00  0.00     0.024 C 
HETATM    8  C8  UNL     1      -5.199   6.504  12.566  1.00  0.00     0.016 C 
HETATM    9  C9  UNL     1      -6.510   7.203  12.969  1.00  0.00     0.011 C 
HETATM   10  C10 UNL     1      -7.051   6.672  14.308  1.00  0.00    -0.032 C 
HETATM   11  C11 UNL     1      -7.409   5.161  14.126  1.00  0.00     0.016 C 
HETATM   12  C12 UNL     1      -8.285   7.394  14.939  1.00  0.00    -0.002 C 
HETATM   13  C22 UNL     1      -8.151   7.008  16.448  1.00  0.00     0.006 C 
HETATM   14  C23 UNL     1      -6.707   6.518  16.680  1.00  0.00     0.011 C 
HETATM   15  C24 UNL     1      -5.953   6.945  15.408  1.00  0.00    -0.029 C 
HETATM   16  C25 UNL     1      -5.625   8.462  15.615  1.00  0.00     0.016 C 
HETATM   17  C26 UNL     1      -3.100   7.631  13.708  1.00  0.00     0.039 C 
HETATM   18  C27 UNL     1      -2.720   8.227  12.342  1.00  0.00     0.011 C 
HETATM   19  C28 UNL     1      -1.497   9.125  12.435  1.00  0.00     0.033 C 
HETATM   20  C29 UNL     1      -0.293   8.358  12.994  1.00  0.00     0.136 C 
HETATM   21  C36 UNL     1      -0.587   7.810  14.432  1.00  0.00     0.014 C 
HETATM   22  C37 UNL     1       0.628   6.956  14.878  1.00  0.00     0.021 C 
HETATM   23  C38 UNL     1      -0.682   9.021  15.398  1.00  0.00     0.021 C 
ENDROOT
BRANCH  20  24
HETATM   24  O4  UNL     1       0.066   7.267  12.131  1.00  0.00    -0.352 OA
BRANCH  24  25
HETATM   25  C30 UNL     1       1.470   7.167  11.862  1.00  0.00     0.292 C 
HETATM   26  O5  UNL     1       2.110   8.428  12.031  1.00  0.00    -0.348 OA
HETATM   27  C31 UNL     1       3.526   8.327  11.838  1.00  0.00     0.179 C 
HETATM   28  C33 UNL     1       3.842   7.915  10.388  1.00  0.00     0.180 C 
HETATM   29  C34 UNL     1       3.087   6.641  10.001  1.00  0.00     0.183 C 
HETATM   30  C35 UNL     1       1.611   6.716  10.395  1.00  0.00     0.204 C 
BRANCH  27  31
HETATM   31  C32 UNL     1       4.168   9.683  12.165  1.00  0.00     0.198 C 
BRANCH  31  32
HETATM   32  O6  UNL     1       5.222   9.557  13.109  1.00  0.00    -0.398 OA
HETATM   33  H50 UNL     1       5.765   8.785  12.834  1.00  0.00     0.209 HD
ENDBRANCH  31  32
ENDBRANCH  27  31
BRANCH  28  34
HETATM   34  O7  UNL     1       5.252   7.705  10.233  1.00  0.00    -0.390 OA
HETATM   35  H52 UNL     1       5.391   6.756  10.442  1.00  0.00     0.210 HD
ENDBRANCH  28  34
BRANCH  29  36
HETATM   36  O8  UNL     1       3.711   5.522  10.663  1.00  0.00    -0.390 OA
HETATM   37  H54 UNL     1       3.109   4.767  10.492  1.00  0.00     0.210 HD
ENDBRANCH  29  36
BRANCH  30  38
HETATM   38  O9  UNL     1       1.014   5.426  10.194  1.00  0.00    -0.388 OA
HETATM   39  H56 UNL     1       0.071   5.541  10.437  1.00  0.00     0.210 HD
ENDBRANCH  30  38
ENDBRANCH  24  25
ENDBRANCH  20  24
BRANCH   1  40
HETATM   40  O1  UNL     1      -3.451   4.027  13.590  1.00  0.00    -0.365 OA
HETATM   41  C1  UNL     1      -3.677   3.201  12.459  1.00  0.00     0.204 C 
ENDBRANCH   1  40
BRANCH  12  42
HETATM   42  C13 UNL     1      -9.718   7.113  14.399  1.00  0.00    -0.010 C 
HETATM   43  C14 UNL     1      -9.704   6.579  12.962  1.00  0.00     0.010 C 
BRANCH  42  44
HETATM   44  C15 UNL     1     -10.583   8.400  14.475  1.00  0.00     0.031 C 
BRANCH  44  45
HETATM   45  C16 UNL     1     -11.787   8.360  13.570  1.00  0.00    -0.027 C 
HETATM   46  C17 UNL     1     -13.048   8.351  14.034  1.00  0.00     0.006 C 
BRANCH  46  47
HETATM   47  C18 UNL     1     -14.344   8.283  13.245  1.00  0.00     0.070 C 
HETATM   48  C19 UNL     1     -14.566   6.852  12.728  1.00  0.00     0.050 C 
HETATM   49  C20 UNL     1     -15.579   8.682  14.070  1.00  0.00     0.050 C 
BRANCH  47  50
HETATM   50  O3  UNL     1     -14.296   9.244  12.175  1.00  0.00    -0.382 OA
HETATM   51  C21 UNL     1     -15.379  10.149  12.058  1.00  0.00     0.202 C 
ENDBRANCH  47  50
ENDBRANCH  46  47
ENDBRANCH  44  45
ENDBRANCH  42  44
ENDBRANCH  12  42
TORSDOF 13
ENDMDL
MODEL 8
REMARK minimizedAffinity -7.0691843
REMARK CNNscore 0.224659353
REMARK CNNaffinity 6.113729
REMARK  13 active torsions:
REMARK  status: ('A' for Active; 'I' for Inactive)
REMARK    1  A    between atoms: O1_2  and  C2_3 
REMARK    2  A    between atoms: C12_14  and  C13_15 
REMARK    3  A    between atoms: C13_15  and  C15_17 
REMARK    4  A    between atoms: C15_17  and  C16_18 
REMARK    5  A    between atoms: C17_19  and  C18_20 
REMARK    6  A    between atoms: C18_20  and  O3_23 
REMARK    7  A    between atoms: C29_32  and  O4_33 
REMARK    8  A    between atoms: O4_33  and  C30_34 
REMARK    9  A    between atoms: C31_36  and  C32_37 
REMARK   10  A    between atoms: C32_37  and  O6_38 
REMARK   11  A    between atoms: C33_39  and  O7_40 
REMARK   12  A    between atoms: C34_41  and  O8_42 
REMARK   13  A    between atoms: C35_43  and  O9_44 
ROOT
HETATM    1  C2  UNL     1      -9.757 -11.720   9.510  1.00  0.00     0.270 C 
HETATM    2  O2  UNL     1      -8.679 -12.048  10.410  1.00  0.00    -0.344 OA
HETATM    3  C3  UNL     1      -8.588 -10.998  11.397  1.00  0.00     0.095 C 
HETATM    4  C4  UNL     1      -9.524 -11.460  12.508  1.00  0.00     0.008 C 
HETATM    5  C5  UNL     1     -10.854 -11.313  12.417  1.00  0.00    -0.021 C 
HETATM    6  C6  UNL     1     -11.509 -10.747  11.175  1.00  0.00     0.030 C 
HETATM    7  C7  UNL     1     -10.444 -10.409  10.041  1.00  0.00     0.024 C 
HETATM    8  C8  UNL     1     -11.091  -9.651   8.850  1.00  0.00     0.016 C 
HETATM    9  C9  UNL     1     -12.142  -8.577   9.186  1.00  0.00     0.011 C 
HETATM   10  C10 UNL     1     -13.212  -9.110  10.155  1.00  0.00    -0.032 C 
HETATM   11  C11 UNL     1     -13.989 -10.262   9.440  1.00  0.00     0.016 C 
HETATM   12  C12 UNL     1     -14.255  -8.097  10.726  1.00  0.00    -0.002 C 
HETATM   13  C22 UNL     1     -14.726  -8.816  12.032  1.00  0.00     0.006 C 
HETATM   14  C23 UNL     1     -13.679  -9.894  12.377  1.00  0.00     0.011 C 
HETATM   15  C24 UNL     1     -12.476  -9.556  11.479  1.00  0.00    -0.029 C 
HETATM   16  C25 UNL     1     -11.730  -8.391  12.213  1.00  0.00     0.016 C 
HETATM   17  C26 UNL     1      -9.187  -9.762  10.678  1.00  0.00     0.039 C 
HETATM   18  C27 UNL     1      -8.230  -9.099   9.673  1.00  0.00     0.011 C 
HETATM   19  C28 UNL     1      -6.865  -8.829  10.283  1.00  0.00     0.033 C 
HETATM   20  C29 UNL     1      -6.226 -10.123  10.797  1.00  0.00     0.136 C 
HETATM   21  C36 UNL     1      -7.111 -10.794  11.901  1.00  0.00     0.014 C 
HETATM   22  C37 UNL     1      -6.458 -12.147  12.285  1.00  0.00     0.021 C 
HETATM   23  C38 UNL     1      -7.077  -9.888  13.161  1.00  0.00     0.021 C 
ENDROOT
BRANCH  20  24
HETATM   24  O4  UNL     1      -6.015 -11.053   9.723  1.00  0.00    -0.352 OA
BRANCH  24  25
HETATM   25  C30 UNL     1      -5.794 -10.440   8.447  1.00  0.00     0.292 C 
HETATM   26  O5  UNL     1      -6.592 -11.057   7.443  1.00  0.00    -0.348 OA
HETATM   27  C31 UNL     1      -6.437 -10.406   6.176  1.00  0.00     0.179 C 
HETATM   28  C33 UNL     1      -4.988 -10.549   5.673  1.00  0.00     0.180 C 
HETATM   29  C34 UNL     1      -3.990 -10.066   6.727  1.00  0.00     0.183 C 
HETATM   30  C35 UNL     1      -4.304 -10.641   8.108  1.00  0.00     0.204 C 
BRANCH  27  31
HETATM   31  C32 UNL     1      -7.420 -11.030   5.175  1.00  0.00     0.198 C 
BRANCH  31  32
HETATM   32  O6  UNL     1      -8.086 -12.160   5.721  1.00  0.00    -0.398 OA
HETATM   33  H50 UNL     1      -8.365 -11.919   6.632  1.00  0.00     0.209 HD
ENDBRANCH  31  32
ENDBRANCH  27  31
BRANCH  28  34
HETATM   34  O7  UNL     1      -4.813  -9.799   4.463  1.00  0.00    -0.390 OA
HETATM   35  H52 UNL     1      -4.531  -8.907   4.757  1.00  0.00     0.210 HD
ENDBRANCH  28  34
BRANCH  29  36
HETATM   36  O8  UNL     1      -4.039  -8.626   6.775  1.00  0.00    -0.390 OA
HETATM   37  H54 UNL     1      -3.490  -8.387   7.553  1.00  0.00     0.210 HD
ENDBRANCH  29  36
BRANCH  30  38
HETATM   38  O9  UNL     1      -3.465  -9.994   9.078  1.00  0.00    -0.388 OA
HETATM   39  H56 UNL     1      -3.691 -10.418   9.933  1.00  0.00     0.210 HD
ENDBRANCH  30  38
ENDBRANCH  24  25
ENDBRANCH  20  24
BRANCH   1  40
HETATM   40  O1  UNL     1     -10.692 -12.784   9.364  1.00  0.00    -0.365 OA
HETATM   41  C1  UNL     1     -10.826 -13.185   8.009  1.00  0.00     0.204 C 
ENDBRANCH   1  40
BRANCH  12  42
HETATM   42  C13 UNL     1     -15.461  -7.639   9.854  1.00  0.00    -0.010 C 
HETATM   43  C14 UNL     1     -15.018  -7.064   8.504  1.00  0.00     0.010 C 
BRANCH  42  44
HETATM   44  C15 UNL     1     -16.312  -6.591  10.620  1.00  0.00     0.031 C 
BRANCH  44  45
HETATM   45  C16 UNL     1     -15.479  -5.559  11.336  1.00  0.00    -0.027 C 
HETATM   46  C17 UNL     1     -15.352  -4.294  10.900  1.00  0.00     0.006 C 
BRANCH  46  47
HETATM   47  C18 UNL     1     -14.529  -3.167  11.500  1.00  0.00     0.070 C 
HETATM   48  C19 UNL     1     -15.449  -1.995  11.882  1.00  0.00     0.050 C 
HETATM   49  C20 UNL     1     -13.752  -3.586  12.759  1.00  0.00     0.050 C 
BRANCH  47  50
HETATM   50  O3  UNL     1     -13.514  -2.773  10.560  1.00  0.00    -0.382 OA
HETATM   51  C21 UNL     1     -13.742  -3.058   9.191  1.00  0.00     0.202 C 
ENDBRANCH  47  50
ENDBRANCH  46  47
ENDBRANCH  44  45
ENDBRANCH  42  44
ENDBRANCH  12  42
TORSDOF 13
ENDMDL
MODEL 9
REMARK minimizedAffinity -7.79378176
REMARK CNNscore 0.198011205
REMARK CNNaffinity 7.26090479
REMARK  13 active torsions:
REMARK  status: ('A' for Active; 'I' for Inactive)
REMARK    1  A    between atoms: O1_2  and  C2_3 
REMARK    2  A    between atoms: C12_14  and  C13_15 
REMARK    3  A    between atoms: C13_15  and  C15_17 
REMARK    4  A    between atoms: C15_17  and  C16_18 
REMARK    5  A    between atoms: C17_19  and  C18_20 
REMARK    6  A    between atoms: C18_20  and  O3_23 
REMARK    7  A    between atoms: C29_32  and  O4_33 
REMARK    8  A    between atoms: O4_33  and  C30_34 
REMARK    9  A    between atoms: C31_36  and  C32_37 
REMARK   10  A    between atoms: C32_37  and  O6_38 
REMARK   11  A    between atoms: C33_39  and  O7_40 
REMARK   12  A    between atoms: C34_41  and  O8_42 
REMARK   13  A    between atoms: C35_43  and  O9_44 
ROOT
HETATM    1  C2  UNL     1      -1.105   9.327  12.433  1.00  0.00     0.270 C 
HETATM    2  O2  UNL     1       0.247   8.835  12.335  1.00  0.00    -0.344 OA
HETATM    3  C3  UNL     1       0.450   7.877  13.396  1.00  0.00     0.095 C 
HETATM    4  C4  UNL     1       0.027   6.551  12.775  1.00  0.00     0.008 C 
HETATM    5  C5  UNL     1      -1.264   6.206  12.657  1.00  0.00    -0.021 C 
HETATM    6  C6  UNL     1      -2.378   7.145  13.068  1.00  0.00     0.030 C 
HETATM    7  C7  UNL     1      -1.820   8.541  13.592  1.00  0.00     0.024 C 
HETATM    8  C8  UNL     1      -2.947   9.424  14.192  1.00  0.00     0.016 C 
HETATM    9  C9  UNL     1      -4.018   8.717  15.043  1.00  0.00     0.011 C 
HETATM   10  C10 UNL     1      -4.597   7.486  14.326  1.00  0.00    -0.032 C 
HETATM   11  C11 UNL     1      -5.329   7.974  13.034  1.00  0.00     0.016 C 
HETATM   12  C12 UNL     1      -5.573   6.563  15.122  1.00  0.00    -0.002 C 
HETATM   13  C22 UNL     1      -5.454   5.213  14.343  1.00  0.00     0.006 C 
HETATM   14  C23 UNL     1      -4.166   5.274  13.495  1.00  0.00     0.011 C 
HETATM   15  C24 UNL     1      -3.404   6.490  14.050  1.00  0.00    -0.029 C 
HETATM   16  C25 UNL     1      -2.696   5.973  15.348  1.00  0.00     0.016 C 
HETATM   17  C26 UNL     1      -0.572   8.305  14.481  1.00  0.00     0.039 C 
HETATM   18  C27 UNL     1      -0.134   9.528  15.304  1.00  0.00     0.011 C 
HETATM   19  C28 UNL     1       1.278   9.372  15.845  1.00  0.00     0.033 C 
HETATM   20  C29 UNL     1       2.282   9.153  14.709  1.00  0.00     0.136 C 
HETATM   21  C36 UNL     1       1.943   7.860  13.892  1.00  0.00     0.014 C 
HETATM   22  C37 UNL     1       2.930   7.772  12.699  1.00  0.00     0.021 C 
HETATM   23  C38 UNL     1       2.209   6.632  14.804  1.00  0.00     0.021 C 
ENDROOT
BRANCH  20  24
HETATM   24  O4  UNL     1       2.308  10.284  13.823  1.00  0.00    -0.352 OA
BRANCH  24  25
HETATM   25  C30 UNL     1       3.610  10.847  13.623  1.00  0.00     0.292 C 
HETATM   26  O5  UNL     1       4.302  10.166  12.581  1.00  0.00    -0.348 OA
HETATM   27  C31 UNL     1       5.578  10.766  12.321  1.00  0.00     0.179 C 
HETATM   28  C33 UNL     1       6.493  10.637  13.553  1.00  0.00     0.180 C 
HETATM   29  C34 UNL     1       5.810  11.190  14.805  1.00  0.00     0.183 C 
HETATM   30  C35 UNL     1       4.380  10.668  14.947  1.00  0.00     0.204 C 
BRANCH  27  31
HETATM   31  C32 UNL     1       6.210  10.074  11.104  1.00  0.00     0.198 C 
BRANCH  31  32
HETATM   32  O6  UNL     1       7.301   9.243  11.474  1.00  0.00    -0.398 OA
HETATM   33  H50 UNL     1       7.021   8.734  12.266  1.00  0.00     0.209 HD
ENDBRANCH  31  32
ENDBRANCH  27  31
BRANCH  28  34
HETATM   34  O7  UNL     1       7.723  11.338  13.325  1.00  0.00    -0.390 OA
HETATM   35  H52 UNL     1       7.559  12.249  13.650  1.00  0.00     0.210 HD
ENDBRANCH  28  34
BRANCH  29  36
HETATM   36  O8  UNL     1       5.797  12.629  14.720  1.00  0.00    -0.390 OA
HETATM   37  H54 UNL     1       5.232  12.916  15.469  1.00  0.00     0.210 HD
ENDBRANCH  29  36
BRANCH  30  38
HETATM   38  O9  UNL     1       3.734  11.377  16.016  1.00  0.00    -0.388 OA
HETATM   39  H56 UNL     1       2.837  10.986  16.076  1.00  0.00     0.210 HD
ENDBRANCH  30  38
ENDBRANCH  24  25
ENDBRANCH  20  24
BRANCH   1  40
HETATM   40  O1  UNL     1      -1.818   9.223  11.205  1.00  0.00    -0.365 OA
HETATM   41  C1  UNL     1      -0.961   8.889  10.125  1.00  0.00     0.204 C 
ENDBRANCH   1  40
BRANCH  12  42
HETATM   42  C13 UNL     1      -7.059   6.981  15.323  1.00  0.00    -0.010 C 
HETATM   43  C14 UNL     1      -7.433   7.108  16.804  1.00  0.00     0.010 C 
BRANCH  42  44
HETATM   44  C15 UNL     1      -8.003   5.965  14.626  1.00  0.00     0.031 C 
BRANCH  44  45
HETATM   45  C16 UNL     1      -9.155   6.621  13.909  1.00  0.00    -0.027 C 
HETATM   46  C17 UNL     1     -10.095   7.341  14.545  1.00  0.00     0.006 C 
BRANCH  46  47
HETATM   47  C18 UNL     1     -11.317   8.027  13.959  1.00  0.00     0.070 C 
HETATM   48  C19 UNL     1     -11.169   9.552  14.082  1.00  0.00     0.050 C 
HETATM   49  C20 UNL     1     -11.546   7.694  12.476  1.00  0.00     0.050 C 
BRANCH  47  50
HETATM   50  O3  UNL     1     -12.495   7.541  14.627  1.00  0.00    -0.382 OA
HETATM   51  C21 UNL     1     -12.943   6.237  14.301  1.00  0.00     0.202 C 
ENDBRANCH  47  50
ENDBRANCH  46  47
ENDBRANCH  44  45
ENDBRANCH  42  44
ENDBRANCH  12  42
TORSDOF 13
ENDMDL
