MODEL 1
REMARK minimizedAffinity -6.43963289
REMARK CNNscore 0.631758511
REMARK CNNaffinity 6.44601297
REMARK  5 active torsions:
REMARK  status: ('A' for Active; 'I' for Inactive)
REMARK    1  A    between atoms: C2_2  and  C3_3 
REMARK    2  A    between atoms: C2_2  and  C25_27 
REMARK    3  A    between atoms: C3_3  and  C4_4 
REMARK    4  A    between atoms: C4_4  and  C5_5 
REMARK    5  A    between atoms: C15_15  and  O1_16 
ROOT
HETATM    1  C5  UNL     1      -3.102  12.279  18.836  1.00  0.00    -0.023 C 
HETATM    2  C6  UNL     1      -2.865  11.901  17.565  1.00  0.00    -0.075 C 
HETATM    3  C7  UNL     1      -3.416  12.591  16.349  1.00  0.00     0.035 C 
HETATM    4  C8  UNL     1      -3.110  11.629  15.208  1.00  0.00     0.013 C 
HETATM    5  C9  UNL     1      -1.791  10.961  15.622  1.00  0.00     0.033 C 
HETATM    6  C10 UNL     1      -1.393   9.718  14.790  1.00  0.00     0.070 C 
HETATM    7  C11 UNL     1      -1.443   9.989  13.260  1.00  0.00     0.039 C 
HETATM    8  C12 UNL     1      -1.890   8.774  12.449  1.00  0.00     0.009 C 
HETATM    9  C13 UNL     1      -1.255   7.461  12.930  1.00  0.00    -0.001 C 
HETATM   10  C14 UNL     1      -2.004   6.259  12.320  1.00  0.00     0.037 C 
HETATM   11  C15 UNL     1      -3.121   5.756  13.227  1.00  0.00     0.118 C 
HETATM   12  C16 UNL     1      -2.584   5.281  14.578  1.00  0.00     0.032 C 
HETATM   13  C17 UNL     1      -1.254   5.934  14.964  1.00  0.00     0.015 C 
HETATM   14  C18 UNL     1      -1.138   7.393  14.495  1.00  0.00    -0.009 C 
HETATM   15  C19 UNL     1       0.214   8.004  14.915  1.00  0.00     0.179 C 
HETATM   16  O2  UNL     1       0.007   9.420  15.061  1.00  0.00    -0.379 OA
HETATM   17  C20 UNL     1      -2.100   8.403  15.168  1.00  0.00     0.032 C 
HETATM   18  C21 UNL     1      -2.224   8.202  16.690  1.00  0.00     0.009 C 
HETATM   19  C22 UNL     1      -2.822   9.414  17.385  1.00  0.00     0.014 C 
HETATM   20  C23 UNL     1      -2.007  10.702  17.142  1.00  0.00    -0.014 C 
HETATM   21  C24 UNL     1      -0.667  10.667  17.897  1.00  0.00     0.020 C 
ENDROOT
BRANCH   1  22
HETATM   22  C4  UNL     1      -3.919  13.467  19.276  1.00  0.00     0.031 C 
BRANCH  22  23
HETATM   23  C3  UNL     1      -5.164  13.015  20.059  1.00  0.00     0.037 C 
BRANCH  23  24
HETATM   24  C2  UNL     1      -5.520  13.800  21.316  1.00  0.00    -0.086 C 
HETATM   25  C1  UNL     1      -4.805  14.843  21.776  1.00  0.00     0.014 C 
BRANCH  24  26
HETATM   26  C25 UNL     1      -6.764  13.348  22.084  1.00  0.00     0.005 C 
HETATM   27  C26 UNL     1      -6.994  14.179  23.349  1.00  0.00     0.014 C 
HETATM   28  C27 UNL     1      -8.019  13.338  21.208  1.00  0.00     0.014 C 
ENDBRANCH  24  26
ENDBRANCH  23  24
ENDBRANCH  22  23
ENDBRANCH   1  22
BRANCH  11  29
HETATM   29  O1  UNL     1      -3.825   4.698  12.586  1.00  0.00    -0.396 OA
HETATM   30  H21 UNL     1      -3.212   3.953  12.468  1.00  0.00     0.210 HD
ENDBRANCH  11  29
TORSDOF 5
ENDMDL
MODEL 2
REMARK minimizedAffinity -8.60592937
REMARK CNNscore 0.612038434
REMARK CNNaffinity 7.18642569
REMARK  5 active torsions:
REMARK  status: ('A' for Active; 'I' for Inactive)
REMARK    1  A    between atoms: C2_2  and  C3_3 
REMARK    2  A    between atoms: C2_2  and  C25_27 
REMARK    3  A    between atoms: C3_3  and  C4_4 
REMARK    4  A    between atoms: C4_4  and  C5_5 
REMARK    5  A    between atoms: C15_15  and  O1_16 
ROOT
HETATM    1  C5  UNL     1       0.244   8.542  12.264  1.00  0.00    -0.023 C 
HETATM    2  C6  UNL     1      -0.577   7.478  12.349  1.00  0.00    -0.075 C 
HETATM    3  C7  UNL     1      -0.456   6.234  11.513  1.00  0.00     0.035 C 
HETATM    4  C8  UNL     1      -1.757   5.487  11.773  1.00  0.00     0.013 C 
HETATM    5  C9  UNL     1      -2.108   5.836  13.226  1.00  0.00     0.033 C 
HETATM    6  C10 UNL     1      -3.541   5.452  13.668  1.00  0.00     0.070 C 
HETATM    7  C11 UNL     1      -3.888   3.974  13.333  1.00  0.00     0.039 C 
HETATM    8  C12 UNL     1      -5.353   3.772  12.949  1.00  0.00     0.009 C 
HETATM    9  C13 UNL     1      -6.323   4.557  13.843  1.00  0.00    -0.001 C 
HETATM   10  C14 UNL     1      -7.723   4.596  13.196  1.00  0.00     0.037 C 
HETATM   11  C15 UNL     1      -7.921   5.833  12.327  1.00  0.00     0.118 C 
HETATM   12  C16 UNL     1      -7.792   7.123  13.139  1.00  0.00     0.032 C 
HETATM   13  C17 UNL     1      -6.939   6.961  14.400  1.00  0.00     0.015 C 
HETATM   14  C18 UNL     1      -5.772   5.980  14.219  1.00  0.00    -0.009 C 
HETATM   15  C19 UNL     1      -4.942   5.861  15.514  1.00  0.00     0.179 C 
HETATM   16  O2  UNL     1      -3.601   5.519  15.122  1.00  0.00    -0.379 OA
HETATM   17  C20 UNL     1      -4.658   6.420  13.236  1.00  0.00     0.032 C 
HETATM   18  C21 UNL     1      -4.264   7.901  13.390  1.00  0.00     0.009 C 
HETATM   19  C22 UNL     1      -2.928   8.213  12.736  1.00  0.00     0.014 C 
HETATM   20  C23 UNL     1      -1.775   7.355  13.298  1.00  0.00    -0.014 C 
HETATM   21  C24 UNL     1      -1.411   7.778  14.732  1.00  0.00     0.020 C 
ENDROOT
BRANCH   1  22
HETATM   22  C4  UNL     1       1.442   8.676  11.360  1.00  0.00     0.031 C 
BRANCH  22  23
HETATM   23  C3  UNL     1       1.530   7.487  10.387  1.00  0.00     0.037 C 
BRANCH  23  24
HETATM   24  C2  UNL     1       1.255   7.767   8.915  1.00  0.00    -0.086 C 
HETATM   25  C1  UNL     1       0.165   8.418   8.467  1.00  0.00     0.014 C 
BRANCH  24  26
HETATM   26  C25 UNL     1       2.290   7.259   7.909  1.00  0.00     0.005 C 
HETATM   27  C26 UNL     1       2.908   5.927   8.340  1.00  0.00     0.014 C 
HETATM   28  C27 UNL     1       1.723   7.158   6.490  1.00  0.00     0.014 C 
ENDBRANCH  24  26
ENDBRANCH  23  24
ENDBRANCH  22  23
ENDBRANCH   1  22
BRANCH  11  29
HETATM   29  O1  UNL     1      -9.196   5.781  11.696  1.00  0.00    -0.396 OA
HETATM   30  H21 UNL     1      -9.878   5.820  12.388  1.00  0.00     0.210 HD
ENDBRANCH  11  29
TORSDOF 5
ENDMDL
MODEL 3
REMARK minimizedAffinity -8.73144436
REMARK CNNscore 0.606637061
REMARK CNNaffinity 7.03841829
REMARK  5 active torsions:
REMARK  status: ('A' for Active; 'I' for Inactive)
REMARK    1  A    between atoms: C2_2  and  C3_3 
REMARK    2  A    between atoms: C2_2  and  C25_27 
REMARK    3  A    between atoms: C3_3  and  C4_4 
REMARK    4  A    between atoms: C4_4  and  C5_5 
REMARK    5  A    between atoms: C15_15  and  O1_16 
ROOT
HETATM    1  C5  UNL     1      -5.613   6.114  15.717  1.00  0.00    -0.023 C 
HETATM    2  C6  UNL     1      -4.890   6.826  14.832  1.00  0.00    -0.075 C 
HETATM    3  C7  UNL     1      -5.462   7.568  13.657  1.00  0.00     0.035 C 
HETATM    4  C8  UNL     1      -4.241   7.945  12.828  1.00  0.00     0.013 C 
HETATM    5  C9  UNL     1      -3.135   8.169  13.868  1.00  0.00     0.033 C 
HETATM    6  C10 UNL     1      -1.702   8.275  13.293  1.00  0.00     0.070 C 
HETATM    7  C11 UNL     1      -1.607   9.298  12.126  1.00  0.00     0.039 C 
HETATM    8  C12 UNL     1      -0.610   8.885  11.044  1.00  0.00     0.009 C 
HETATM    9  C13 UNL     1       0.697   8.316  11.615  1.00  0.00    -0.001 C 
HETATM   10  C14 UNL     1       1.492   7.603  10.502  1.00  0.00     0.037 C 
HETATM   11  C15 UNL     1       1.172   6.115  10.429  1.00  0.00     0.118 C 
HETATM   12  C16 UNL     1       1.525   5.395  11.731  1.00  0.00     0.032 C 
HETATM   13  C17 UNL     1       1.526   6.319  12.952  1.00  0.00     0.015 C 
HETATM   14  C18 UNL     1       0.455   7.418  12.880  1.00  0.00    -0.009 C 
HETATM   15  C19 UNL     1       0.495   8.313  14.135  1.00  0.00     0.179 C 
HETATM   16  O2  UNL     1      -0.836   8.823  14.328  1.00  0.00    -0.379 OA
HETATM   17  C20 UNL     1      -1.017   6.940  12.948  1.00  0.00     0.032 C 
HETATM   18  C21 UNL     1      -1.252   5.850  14.011  1.00  0.00     0.009 C 
HETATM   19  C22 UNL     1      -2.724   5.687  14.353  1.00  0.00     0.014 C 
HETATM   20  C23 UNL     1      -3.366   6.994  14.864  1.00  0.00    -0.014 C 
HETATM   21  C24 UNL     1      -2.861   7.351  16.273  1.00  0.00     0.020 C 
ENDROOT
BRANCH   1  22
HETATM   22  C4  UNL     1      -7.112   5.956  15.723  1.00  0.00     0.031 C 
BRANCH  22  23
HETATM   23  C3  UNL     1      -7.530   4.677  14.978  1.00  0.00     0.037 C 
BRANCH  23  24
HETATM   24  C2  UNL     1      -7.815   4.800  13.485  1.00  0.00    -0.086 C 
HETATM   25  C1  UNL     1      -8.650   5.712  12.955  1.00  0.00     0.014 C 
BRANCH  24  26
HETATM   26  C25 UNL     1      -7.102   3.810  12.561  1.00  0.00     0.005 C 
HETATM   27  C26 UNL     1      -5.579   3.947  12.635  1.00  0.00     0.014 C 
HETATM   28  C27 UNL     1      -7.528   2.362  12.819  1.00  0.00     0.014 C 
ENDBRANCH  24  26
ENDBRANCH  23  24
ENDBRANCH  22  23
ENDBRANCH   1  22
BRANCH  11  29
HETATM   29  O1  UNL     1       1.873   5.523   9.341  1.00  0.00    -0.396 OA
HETATM   30  H21 UNL     1       2.826   5.590   9.522  1.00  0.00     0.210 HD
ENDBRANCH  11  29
TORSDOF 5
ENDMDL
MODEL 4
REMARK minimizedAffinity -6.9961772
REMARK CNNscore 0.520534158
REMARK CNNaffinity 6.45692587
REMARK  5 active torsions:
REMARK  status: ('A' for Active; 'I' for Inactive)
REMARK    1  A    between atoms: C2_2  and  C3_3 
REMARK    2  A    between atoms: C2_2  and  C25_27 
REMARK    3  A    between atoms: C3_3  and  C4_4 
REMARK    4  A    between atoms: C4_4  and  C5_5 
REMARK    5  A    between atoms: C15_15  and  O1_16 
ROOT
HETATM    1  C5  UNL     1     -13.237   4.807  23.866  1.00  0.00    -0.023 C 
HETATM    2  C6  UNL     1     -13.424   5.983  23.238  1.00  0.00    -0.075 C 
HETATM    3  C7  UNL     1     -13.932   6.133  21.831  1.00  0.00     0.035 C 
HETATM    4  C8  UNL     1     -13.685   7.599  21.503  1.00  0.00     0.013 C 
HETATM    5  C9  UNL     1     -13.865   8.321  22.846  1.00  0.00     0.033 C 
HETATM    6  C10 UNL     1     -13.381   9.791  22.874  1.00  0.00     0.070 C 
HETATM    7  C11 UNL     1     -13.954  10.625  21.693  1.00  0.00     0.039 C 
HETATM    8  C12 UNL     1     -12.979  11.679  21.172  1.00  0.00     0.009 C 
HETATM    9  C13 UNL     1     -12.243  12.425  22.294  1.00  0.00    -0.001 C 
HETATM   10  C14 UNL     1     -11.043  13.201  21.713  1.00  0.00     0.037 C 
HETATM   11  C15 UNL     1      -9.755  12.386  21.756  1.00  0.00     0.118 C 
HETATM   12  C16 UNL     1      -9.367  12.013  23.187  1.00  0.00     0.032 C 
HETATM   13  C17 UNL     1     -10.559  11.977  24.147  1.00  0.00     0.015 C 
HETATM   14  C18 UNL     1     -11.853  11.479  23.487  1.00  0.00    -0.009 C 
HETATM   15  C19 UNL     1     -13.018  11.455  24.498  1.00  0.00     0.179 C 
HETATM   16  O2  UNL     1     -13.926  10.426  24.066  1.00  0.00    -0.379 OA
HETATM   17  C20 UNL     1     -11.864   9.995  23.043  1.00  0.00     0.032 C 
HETATM   18  C21 UNL     1     -11.241   9.046  24.084  1.00  0.00     0.009 C 
HETATM   19  C22 UNL     1     -11.617   7.594  23.838  1.00  0.00     0.014 C 
HETATM   20  C23 UNL     1     -13.143   7.365  23.841  1.00  0.00    -0.014 C 
HETATM   21  C24 UNL     1     -13.725   7.496  25.260  1.00  0.00     0.020 C 
ENDROOT
BRANCH   1  22
HETATM   22  C4  UNL     1     -13.529   3.439  23.305  1.00  0.00     0.031 C 
BRANCH  22  23
HETATM   23  C3  UNL     1     -13.766   2.423  24.435  1.00  0.00     0.037 C 
BRANCH  23  24
HETATM   24  C2  UNL     1     -12.583   2.092  25.336  1.00  0.00    -0.086 C 
HETATM   25  C1  UNL     1     -11.446   1.518  24.900  1.00  0.00     0.014 C 
BRANCH  24  26
HETATM   26  C25 UNL     1     -12.726   2.435  26.820  1.00  0.00     0.005 C 
HETATM   27  C26 UNL     1     -14.191   2.478  27.263  1.00  0.00     0.014 C 
HETATM   28  C27 UNL     1     -11.917   1.493  27.717  1.00  0.00     0.014 C 
ENDBRANCH  24  26
ENDBRANCH  23  24
ENDBRANCH  22  23
ENDBRANCH   1  22
BRANCH  11  29
HETATM   29  O1  UNL     1      -8.700  13.117  21.141  1.00  0.00    -0.396 OA
HETATM   30  H21 UNL     1      -8.536  13.916  21.670  1.00  0.00     0.210 HD
ENDBRANCH  11  29
TORSDOF 5
ENDMDL
MODEL 5
REMARK minimizedAffinity -7.73621845
REMARK CNNscore 0.505882204
REMARK CNNaffinity 6.47682571
REMARK  5 active torsions:
REMARK  status: ('A' for Active; 'I' for Inactive)
REMARK    1  A    between atoms: C2_2  and  C3_3 
REMARK    2  A    between atoms: C2_2  and  C25_27 
REMARK    3  A    between atoms: C3_3  and  C4_4 
REMARK    4  A    between atoms: C4_4  and  C5_5 
REMARK    5  A    between atoms: C15_15  and  O1_16 
ROOT
HETATM    1  C5  UNL     1       0.697  10.942  18.665  1.00  0.00    -0.023 C 
HETATM    2  C6  UNL     1      -0.432  10.650  17.992  1.00  0.00    -0.075 C 
HETATM    3  C7  UNL     1      -1.815  10.688  18.581  1.00  0.00     0.035 C 
HETATM    4  C8  UNL     1      -2.682  10.005  17.531  1.00  0.00     0.013 C 
HETATM    5  C9  UNL     1      -2.017  10.373  16.197  1.00  0.00     0.033 C 
HETATM    6  C10 UNL     1      -2.514   9.570  14.970  1.00  0.00     0.070 C 
HETATM    7  C11 UNL     1      -4.065   9.564  14.856  1.00  0.00     0.039 C 
HETATM    8  C12 UNL     1      -4.622   8.253  14.303  1.00  0.00     0.009 C 
HETATM    9  C13 UNL     1      -3.808   7.703  13.123  1.00  0.00    -0.001 C 
HETATM   10  C14 UNL     1      -4.198   6.235  12.852  1.00  0.00     0.037 C 
HETATM   11  C15 UNL     1      -3.302   5.254  13.600  1.00  0.00     0.118 C 
HETATM   12  C16 UNL     1      -1.838   5.389  13.179  1.00  0.00     0.032 C 
HETATM   13  C17 UNL     1      -1.493   6.774  12.624  1.00  0.00     0.015 C 
HETATM   14  C18 UNL     1      -2.262   7.911  13.315  1.00  0.00    -0.009 C 
HETATM   15  C19 UNL     1      -1.872   9.281  12.725  1.00  0.00     0.179 C 
HETATM   16  O2  UNL     1      -2.064  10.255  13.767  1.00  0.00    -0.379 OA
HETATM   17  C20 UNL     1      -1.917   8.161  14.804  1.00  0.00     0.032 C 
HETATM   18  C21 UNL     1      -0.404   8.110  15.093  1.00  0.00     0.009 C 
HETATM   19  C22 UNL     1      -0.051   8.746  16.427  1.00  0.00     0.014 C 
HETATM   20  C23 UNL     1      -0.502  10.219  16.522  1.00  0.00    -0.014 C 
HETATM   21  C24 UNL     1       0.355  11.126  15.622  1.00  0.00     0.020 C 
ENDROOT
BRANCH   1  22
HETATM   22  C4  UNL     1       0.790  11.392  20.100  1.00  0.00     0.031 C 
BRANCH  22  23
HETATM   23  C3  UNL     1       2.212  11.878  20.431  1.00  0.00     0.037 C 
BRANCH  23  24
HETATM   24  C2  UNL     1       2.771  11.519  21.803  1.00  0.00    -0.086 C 
HETATM   25  C1  UNL     1       2.736  12.345  22.865  1.00  0.00     0.014 C 
BRANCH  24  26
HETATM   26  C25 UNL     1       3.411  10.138  21.949  1.00  0.00     0.005 C 
HETATM   27  C26 UNL     1       4.454  10.101  23.069  1.00  0.00     0.014 C 
HETATM   28  C27 UNL     1       2.371   9.030  22.143  1.00  0.00     0.014 C 
ENDBRANCH  24  26
ENDBRANCH  23  24
ENDBRANCH  22  23
ENDBRANCH   1  22
BRANCH  11  29
HETATM   29  O1  UNL     1      -3.752   3.922  13.375  1.00  0.00    -0.396 OA
HETATM   30  H21 UNL     1      -3.647   3.723  12.429  1.00  0.00     0.210 HD
ENDBRANCH  11  29
TORSDOF 5
ENDMDL
MODEL 6
REMARK minimizedAffinity -6.57798624
REMARK CNNscore 0.467761815
REMARK CNNaffinity 5.98320818
REMARK  5 active torsions:
REMARK  status: ('A' for Active; 'I' for Inactive)
REMARK    1  A    between atoms: C2_2  and  C3_3 
REMARK    2  A    between atoms: C2_2  and  C25_27 
REMARK    3  A    between atoms: C3_3  and  C4_4 
REMARK    4  A    between atoms: C4_4  and  C5_5 
REMARK    5  A    between atoms: C15_15  and  O1_16 
ROOT
HETATM    1  C5  UNL     1      -5.856 -10.323   5.331  1.00  0.00    -0.023 C 
HETATM    2  C6  UNL     1      -5.518 -10.363   4.028  1.00  0.00    -0.075 C 
HETATM    3  C7  UNL     1      -4.132 -10.134   3.495  1.00  0.00     0.035 C 
HETATM    4  C8  UNL     1      -4.333  -9.994   1.992  1.00  0.00     0.013 C 
HETATM    5  C9  UNL     1      -5.518 -10.919   1.683  1.00  0.00     0.033 C 
HETATM    6  C10 UNL     1      -6.135 -10.751   0.273  1.00  0.00     0.070 C 
HETATM    7  C11 UNL     1      -5.063 -10.796  -0.852  1.00  0.00     0.039 C 
HETATM    8  C12 UNL     1      -5.382  -9.872  -2.025  1.00  0.00     0.009 C 
HETATM    9  C13 UNL     1      -6.861  -9.908  -2.435  1.00  0.00    -0.001 C 
HETATM   10  C14 UNL     1      -7.181  -8.717  -3.362  1.00  0.00     0.037 C 
HETATM   11  C15 UNL     1      -7.686  -7.505  -2.588  1.00  0.00     0.118 C 
HETATM   12  C16 UNL     1      -8.979  -7.813  -1.832  1.00  0.00     0.032 C 
HETATM   13  C17 UNL     1      -9.150  -9.300  -1.507  1.00  0.00     0.015 C 
HETATM   14  C18 UNL     1      -7.823 -10.007  -1.196  1.00  0.00    -0.009 C 
HETATM   15  C19 UNL     1      -8.052 -11.497  -0.869  1.00  0.00     0.179 C 
HETATM   16  O2  UNL     1      -6.988 -11.902   0.010  1.00  0.00    -0.379 OA
HETATM   17  C20 UNL     1      -7.102  -9.564   0.102  1.00  0.00     0.032 C 
HETATM   18  C21 UNL     1      -8.058  -9.389   1.297  1.00  0.00     0.009 C 
HETATM   19  C22 UNL     1      -7.320  -9.361   2.626  1.00  0.00     0.014 C 
HETATM   20  C23 UNL     1      -6.485 -10.636   2.870  1.00  0.00    -0.014 C 
HETATM   21  C24 UNL     1      -7.387 -11.849   3.155  1.00  0.00     0.020 C 
ENDROOT
BRANCH   1  22
HETATM   22  C4  UNL     1      -4.921 -10.083   6.489  1.00  0.00     0.031 C 
BRANCH  22  23
HETATM   23  C3  UNL     1      -5.579  -9.178   7.545  1.00  0.00     0.037 C 
BRANCH  23  24
HETATM   24  C2  UNL     1      -5.376  -9.551   9.009  1.00  0.00    -0.086 C 
HETATM   25  C1  UNL     1      -4.288 -10.192   9.475  1.00  0.00     0.014 C 
BRANCH  24  26
HETATM   26  C25 UNL     1      -6.494  -9.171   9.981  1.00  0.00     0.005 C 
HETATM   27  C26 UNL     1      -5.959  -8.856  11.380  1.00  0.00     0.014 C 
HETATM   28  C27 UNL     1      -7.355  -8.017   9.458  1.00  0.00     0.014 C 
ENDBRANCH  24  26
ENDBRANCH  23  24
ENDBRANCH  22  23
ENDBRANCH   1  22
BRANCH  11  29
HETATM   29  O1  UNL     1      -7.893  -6.414  -3.480  1.00  0.00    -0.396 OA
HETATM   30  H21 UNL     1      -8.602  -6.659  -4.099  1.00  0.00     0.210 HD
ENDBRANCH  11  29
TORSDOF 5
ENDMDL
MODEL 7
REMARK minimizedAffinity -8.29470062
REMARK CNNscore 0.466883481
REMARK CNNaffinity 6.88306284
REMARK  5 active torsions:
REMARK  status: ('A' for Active; 'I' for Inactive)
REMARK    1  A    between atoms: C2_2  and  C3_3 
REMARK    2  A    between atoms: C2_2  and  C25_27 
REMARK    3  A    between atoms: C3_3  and  C4_4 
REMARK    4  A    between atoms: C4_4  and  C5_5 
REMARK    5  A    between atoms: C15_15  and  O1_16 
ROOT
HETATM    1  C5  UNL     1       2.585   7.741  10.851  1.00  0.00    -0.023 C 
HETATM    2  C6  UNL     1       1.749   7.098  11.689  1.00  0.00    -0.075 C 
HETATM    3  C7  UNL     1       1.655   5.604  11.825  1.00  0.00     0.035 C 
HETATM    4  C8  UNL     1       0.395   5.387  12.652  1.00  0.00     0.013 C 
HETATM    5  C9  UNL     1       0.342   6.606  13.583  1.00  0.00     0.033 C 
HETATM    6  C10 UNL     1      -0.997   6.803  14.335  1.00  0.00     0.070 C 
HETATM    7  C11 UNL     1      -1.465   5.508  15.058  1.00  0.00     0.039 C 
HETATM    8  C12 UNL     1      -2.984   5.341  15.068  1.00  0.00     0.009 C 
HETATM    9  C13 UNL     1      -3.732   6.647  15.368  1.00  0.00    -0.001 C 
HETATM   10  C14 UNL     1      -5.226   6.492  15.016  1.00  0.00     0.037 C 
HETATM   11  C15 UNL     1      -5.531   6.941  13.591  1.00  0.00     0.118 C 
HETATM   12  C16 UNL     1      -5.195   8.418  13.378  1.00  0.00     0.032 C 
HETATM   13  C17 UNL     1      -4.126   8.941  14.342  1.00  0.00     0.015 C 
HETATM   14  C18 UNL     1      -3.058   7.893  14.687  1.00  0.00    -0.009 C 
HETATM   15  C19 UNL     1      -2.004   8.472  15.652  1.00  0.00     0.179 C 
HETATM   16  O2  UNL     1      -0.778   7.761  15.410  1.00  0.00    -0.379 OA
HETATM   17  C20 UNL     1      -2.132   7.455  13.524  1.00  0.00     0.032 C 
HETATM   18  C21 UNL     1      -1.652   8.633  12.655  1.00  0.00     0.009 C 
HETATM   19  C22 UNL     1      -0.452   8.264  11.798  1.00  0.00     0.014 C 
HETATM   20  C23 UNL     1       0.748   7.772  12.634  1.00  0.00    -0.014 C 
HETATM   21  C24 UNL     1       1.395   8.928  13.418  1.00  0.00     0.020 C 
ENDROOT
BRANCH   1  22
HETATM   22  C4  UNL     1       3.594   7.103   9.932  1.00  0.00     0.031 C 
BRANCH  22  23
HETATM   23  C3  UNL     1       2.941   5.999   9.083  1.00  0.00     0.037 C 
BRANCH  23  24
HETATM   24  C2  UNL     1       2.578   6.348   7.644  1.00  0.00    -0.086 C 
HETATM   25  C1  UNL     1       2.747   5.509   6.605  1.00  0.00     0.014 C 
BRANCH  24  26
HETATM   26  C25 UNL     1       1.997   7.741   7.395  1.00  0.00     0.005 C 
HETATM   27  C26 UNL     1       0.706   7.977   8.184  1.00  0.00     0.014 C 
HETATM   28  C27 UNL     1       3.012   8.854   7.672  1.00  0.00     0.014 C 
ENDBRANCH  24  26
ENDBRANCH  23  24
ENDBRANCH  22  23
ENDBRANCH   1  22
BRANCH  11  29
HETATM   29  O1  UNL     1      -6.903   6.707  13.295  1.00  0.00    -0.396 OA
HETATM   30  H21 UNL     1      -7.440   7.269  13.880  1.00  0.00     0.210 HD
ENDBRANCH  11  29
TORSDOF 5
ENDMDL
MODEL 8
REMARK minimizedAffinity -6.61547089
REMARK CNNscore 0.455370963
REMARK CNNaffinity 6.30407667
REMARK  5 active torsions:
REMARK  status: ('A' for Active; 'I' for Inactive)
REMARK    1  A    between atoms: C2_2  and  C3_3 
REMARK    2  A    between atoms: C2_2  and  C25_27 
REMARK    3  A    between atoms: C3_3  and  C4_4 
REMARK    4  A    between atoms: C4_4  and  C5_5 
REMARK    5  A    between atoms: C15_15  and  O1_16 
ROOT
HETATM    1  C5  UNL     1      -1.590   7.462  15.482  1.00  0.00    -0.023 C 
HETATM    2  C6  UNL     1      -1.333   7.662  14.175  1.00  0.00    -0.075 C 
HETATM    3  C7  UNL     1      -2.380   7.756  13.101  1.00  0.00     0.035 C 
HETATM    4  C8  UNL     1      -1.585   7.686  11.803  1.00  0.00     0.013 C 
HETATM    5  C9  UNL     1      -0.254   8.373  12.140  1.00  0.00     0.033 C 
HETATM    6  C10 UNL     1       0.868   8.185  11.091  1.00  0.00     0.070 C 
HETATM    7  C11 UNL     1       0.394   8.526   9.649  1.00  0.00     0.039 C 
HETATM    8  C12 UNL     1       1.035   7.643   8.580  1.00  0.00     0.009 C 
HETATM    9  C13 UNL     1       2.534   7.409   8.812  1.00  0.00    -0.001 C 
HETATM   10  C14 UNL     1       3.030   6.247   7.926  1.00  0.00     0.037 C 
HETATM   11  C15 UNL     1       2.968   4.906   8.648  1.00  0.00     0.118 C 
HETATM   12  C16 UNL     1       3.849   4.893   9.897  1.00  0.00     0.032 C 
HETATM   13  C17 UNL     1       4.091   6.287  10.481  1.00  0.00     0.015 C 
HETATM   14  C18 UNL     1       2.883   7.224  10.333  1.00  0.00    -0.009 C 
HETATM   15  C19 UNL     1       3.178   8.610  10.943  1.00  0.00     0.179 C 
HETATM   16  O2  UNL     1       1.917   9.157  11.368  1.00  0.00    -0.379 OA
HETATM   17  C20 UNL     1       1.622   6.844  11.149  1.00  0.00     0.032 C 
HETATM   18  C21 UNL     1       1.942   6.394  12.587  1.00  0.00     0.009 C 
HETATM   19  C22 UNL     1       0.717   6.421  13.485  1.00  0.00     0.014 C 
HETATM   20  C23 UNL     1       0.063   7.817  13.559  1.00  0.00    -0.014 C 
HETATM   21  C24 UNL     1       0.933   8.800  14.361  1.00  0.00     0.020 C 
ENDROOT
BRANCH   1  22
HETATM   22  C4  UNL     1      -2.952   7.333  16.114  1.00  0.00     0.031 C 
BRANCH  22  23
HETATM   23  C3  UNL     1      -3.716   8.667  16.047  1.00  0.00     0.037 C 
BRANCH  23  24
HETATM   24  C2  UNL     1      -2.968   9.923  16.477  1.00  0.00    -0.086 C 
HETATM   25  C1  UNL     1      -2.682  10.945  15.650  1.00  0.00     0.014 C 
BRANCH  24  26
HETATM   26  C25 UNL     1      -2.520   9.996  17.938  1.00  0.00     0.005 C 
HETATM   27  C26 UNL     1      -1.147  10.656  18.089  1.00  0.00     0.014 C 
HETATM   28  C27 UNL     1      -3.554  10.689  18.831  1.00  0.00     0.014 C 
ENDBRANCH  24  26
ENDBRANCH  23  24
ENDBRANCH  22  23
ENDBRANCH   1  22
BRANCH  11  29
HETATM   29  O1  UNL     1       3.363   3.863   7.763  1.00  0.00    -0.396 OA
HETATM   30  H21 UNL     1       4.295   4.004   7.526  1.00  0.00     0.210 HD
ENDBRANCH  11  29
TORSDOF 5
ENDMDL
MODEL 9
REMARK minimizedAffinity -7.91628218
REMARK CNNscore 0.429632843
REMARK CNNaffinity 6.70759439
REMARK  5 active torsions:
REMARK  status: ('A' for Active; 'I' for Inactive)
REMARK    1  A    between atoms: C2_2  and  C3_3 
REMARK    2  A    between atoms: C2_2  and  C25_27 
REMARK    3  A    between atoms: C3_3  and  C4_4 
REMARK    4  A    between atoms: C4_4  and  C5_5 
REMARK    5  A    between atoms: C15_15  and  O1_16 
ROOT
HETATM    1  C5  UNL     1      -5.509   5.740  14.105  1.00  0.00    -0.023 C 
HETATM    2  C6  UNL     1      -6.809   6.087  14.051  1.00  0.00    -0.075 C 
HETATM    3  C7  UNL     1      -7.773   5.635  12.990  1.00  0.00     0.035 C 
HETATM    4  C8  UNL     1      -8.997   6.515  13.205  1.00  0.00     0.013 C 
HETATM    5  C9  UNL     1      -9.025   6.758  14.721  1.00  0.00     0.033 C 
HETATM    6  C10 UNL     1      -9.996   7.868  15.192  1.00  0.00     0.070 C 
HETATM    7  C11 UNL     1     -11.428   7.687  14.614  1.00  0.00     0.039 C 
HETATM    8  C12 UNL     1     -12.127   9.011  14.313  1.00  0.00     0.009 C 
HETATM    9  C13 UNL     1     -11.918  10.065  15.410  1.00  0.00    -0.001 C 
HETATM   10  C14 UNL     1     -12.336  11.456  14.891  1.00  0.00     0.037 C 
HETATM   11  C15 UNL     1     -11.163  12.220  14.287  1.00  0.00     0.118 C 
HETATM   12  C16 UNL     1     -10.056  12.464  15.314  1.00  0.00     0.032 C 
HETATM   13  C17 UNL     1     -10.052  11.441  16.453  1.00  0.00     0.015 C 
HETATM   14  C18 UNL     1     -10.463  10.032  16.002  1.00  0.00    -0.009 C 
HETATM   15  C19 UNL     1     -10.434   9.042  17.184  1.00  0.00     0.179 C 
HETATM   16  O2  UNL     1     -10.167   7.740  16.633  1.00  0.00    -0.379 OA
HETATM   17  C20 UNL     1      -9.488   9.313  15.036  1.00  0.00     0.032 C 
HETATM   18  C21 UNL     1      -8.009   9.479  15.434  1.00  0.00     0.009 C 
HETATM   19  C22 UNL     1      -7.111   8.462  14.749  1.00  0.00     0.014 C 
HETATM   20  C23 UNL     1      -7.523   7.005  15.050  1.00  0.00    -0.014 C 
HETATM   21  C24 UNL     1      -7.202   6.623  16.505  1.00  0.00     0.020 C 
ENDROOT
BRANCH   1  22
HETATM   22  C4  UNL     1      -4.790   4.820  13.151  1.00  0.00     0.031 C 
BRANCH  22  23
HETATM   23  C3  UNL     1      -5.729   3.708  12.651  1.00  0.00     0.037 C 
BRANCH  23  24
HETATM   24  C2  UNL     1      -5.121   2.625  11.768  1.00  0.00    -0.086 C 
HETATM   25  C1  UNL     1      -5.840   1.664  11.159  1.00  0.00     0.014 C 
BRANCH  24  26
HETATM   26  C25 UNL     1      -3.602   2.651  11.587  1.00  0.00     0.005 C 
HETATM   27  C26 UNL     1      -2.997   1.245  11.593  1.00  0.00     0.014 C 
HETATM   28  C27 UNL     1      -3.177   3.417  10.331  1.00  0.00     0.014 C 
ENDBRANCH  24  26
ENDBRANCH  23  24
ENDBRANCH  22  23
ENDBRANCH   1  22
BRANCH  11  29
HETATM   29  O1  UNL     1     -11.617  13.461  13.758  1.00  0.00    -0.396 OA
HETATM   30  H21 UNL     1     -11.947  14.003  14.495  1.00  0.00     0.210 HD
ENDBRANCH  11  29
TORSDOF 5
ENDMDL
