MODEL 1
REMARK minimizedAffinity -9.31277466
REMARK  6 active torsions:
REMARK  status: ('A' for Active; 'I' for Inactive)
REMARK    1  A    between atoms: C2_2  and  C30_31 
REMARK    2  A    between atoms: C3_3  and  C4_4 
REMARK    3  A    between atoms: C4_4  and  C5_5 
REMARK    4  A    between atoms: C5_5  and  C6_6 
REMARK    5  A    between atoms: C6_6  and  C8_8 
REMARK    6  A    between atoms: C30_31  and  O2_32 
ROOT
HETATM    1  C8  UNL     1      -3.124  50.780 -24.950  1.00  0.00    -0.002 C 
HETATM    2  C9  UNL     1      -4.624  50.346 -24.843  1.00  0.00     0.006 C 
HETATM    3  C10 UNL     1      -4.932  50.084 -23.356  1.00  0.00     0.011 C 
HETATM    4  C11 UNL     1      -3.567  49.692 -22.786  1.00  0.00    -0.032 C 
HETATM    5  C12 UNL     1      -3.291  48.223 -23.284  1.00  0.00     0.016 C 
HETATM    6  C13 UNL     1      -3.426  49.612 -21.244  1.00  0.00     0.004 C 
HETATM    7  C14 UNL     1      -3.949  50.807 -20.374  1.00  0.00     0.007 C 
HETATM    8  C15 UNL     1      -2.945  51.332 -19.294  1.00  0.00     0.007 C 
HETATM    9  C16 UNL     1      -2.340  50.166 -18.499  1.00  0.00     0.010 C 
HETATM   10  C17 UNL     1      -1.237  50.311 -17.450  1.00  0.00     0.018 C 
HETATM   11  C18 UNL     1      -1.681  51.235 -16.309  1.00  0.00     0.023 C 
HETATM   12  C19 UNL     1       0.070  50.839 -18.049  1.00  0.00     0.023 C 
HETATM   13  C20 UNL     1      -1.013  48.886 -16.868  1.00  0.00     0.135 C 
HETATM   14  O1  UNL     1      -0.036  48.636 -16.157  1.00  0.00    -0.297 OA
HETATM   15  C21 UNL     1      -2.094  47.806 -17.099  1.00  0.00     0.080 C 
HETATM   16  C22 UNL     1      -2.697  47.770 -18.527  1.00  0.00     0.018 C 
HETATM   17  C23 UNL     1      -2.091  48.916 -19.322  1.00  0.00    -0.026 A 
HETATM   18  C24 UNL     1      -1.169  48.260 -20.299  1.00  0.00     0.021 A 
HETATM   19  C25 UNL     1      -1.975  49.364 -20.861  1.00  0.00    -0.027 A 
HETATM   20  C26 UNL     1      -0.973  50.318 -21.559  1.00  0.00     0.011 C 
HETATM   21  C27 UNL     1      -1.178  50.403 -23.092  1.00  0.00     0.011 C 
HETATM   22  C28 UNL     1      -2.630  50.767 -23.450  1.00  0.00    -0.032 C 
HETATM   23  C29 UNL     1      -2.841  52.245 -22.989  1.00  0.00     0.016 C 
ENDROOT
BRANCH   1  24
HETATM   24  C6  UNL     1      -2.250  50.039 -26.007  1.00  0.00    -0.014 C 
HETATM   25  C7  UNL     1      -2.796  48.633 -26.314  1.00  0.00     0.010 C 
BRANCH  24  26
HETATM   26  C5  UNL     1      -2.199  50.850 -27.334  1.00  0.00     0.008 C 
BRANCH  26  27
HETATM   27  C4  UNL     1      -1.131  51.953 -27.369  1.00  0.00     0.028 C 
BRANCH  27  28
HETATM   28  C3  UNL     1       0.281  51.453 -27.240  1.00  0.00    -0.022 C 
HETATM   29  C2  UNL     1       1.154  51.719 -26.247  1.00  0.00    -0.064 C 
HETATM   30  C1  UNL     1       0.875  52.636 -25.085  1.00  0.00     0.045 C 
BRANCH  29  31
HETATM   31  C30 UNL     1       2.536  51.118 -26.252  1.00  0.00     0.197 C 
BRANCH  31  32
HETATM   32  O2  UNL     1       3.236  51.560 -27.405  1.00  0.00    -0.397 OA
HETATM   33  H48 UNL     1       3.119  52.526 -27.443  1.00  0.00     0.209 HD
ENDBRANCH  31  32
ENDBRANCH  29  31
ENDBRANCH  27  28
ENDBRANCH  26  27
ENDBRANCH  24  26
ENDBRANCH   1  24
TORSDOF 6
ENDMDL
MODEL 2
REMARK minimizedAffinity -8.89661407
REMARK  6 active torsions:
REMARK  status: ('A' for Active; 'I' for Inactive)
REMARK    1  A    between atoms: C2_2  and  C30_31 
REMARK    2  A    between atoms: C3_3  and  C4_4 
REMARK    3  A    between atoms: C4_4  and  C5_5 
REMARK    4  A    between atoms: C5_5  and  C6_6 
REMARK    5  A    between atoms: C6_6  and  C8_8 
REMARK    6  A    between atoms: C30_31  and  O2_32 
ROOT
HETATM    1  C8  UNL     1      -2.222  50.993 -24.683  1.00  0.00    -0.002 C 
HETATM    2  C9  UNL     1      -2.727  52.435 -24.343  1.00  0.00     0.006 C 
HETATM    3  C10 UNL     1      -3.387  52.385 -22.952  1.00  0.00     0.011 C 
HETATM    4  C11 UNL     1      -3.863  50.935 -22.848  1.00  0.00    -0.032 C 
HETATM    5  C12 UNL     1      -5.134  50.825 -23.771  1.00  0.00     0.016 C 
HETATM    6  C13 UNL     1      -4.344  50.432 -21.462  1.00  0.00     0.004 C 
HETATM    7  C14 UNL     1      -3.444  50.700 -20.206  1.00  0.00     0.007 C 
HETATM    8  C15 UNL     1      -3.187  49.453 -19.295  1.00  0.00     0.007 C 
HETATM    9  C16 UNL     1      -4.498  48.707 -19.009  1.00  0.00     0.010 C 
HETATM   10  C17 UNL     1      -4.594  47.382 -18.252  1.00  0.00     0.018 C 
HETATM   11  C18 UNL     1      -4.024  47.516 -16.834  1.00  0.00     0.023 C 
HETATM   12  C19 UNL     1      -3.875  46.242 -18.980  1.00  0.00     0.023 C 
HETATM   13  C20 UNL     1      -6.112  47.064 -18.142  1.00  0.00     0.135 C 
HETATM   14  O1  UNL     1      -6.504  45.952 -17.776  1.00  0.00    -0.297 OA
HETATM   15  C21 UNL     1      -7.133  48.196 -18.390  1.00  0.00     0.080 C 
HETATM   16  C22 UNL     1      -6.812  49.124 -19.590  1.00  0.00     0.018 C 
HETATM   17  C23 UNL     1      -5.473  48.695 -20.170  1.00  0.00    -0.026 A 
HETATM   18  C24 UNL     1      -5.809  48.051 -21.477  1.00  0.00     0.021 A 
HETATM   19  C25 UNL     1      -4.627  48.939 -21.515  1.00  0.00    -0.027 A 
HETATM   20  C26 UNL     1      -3.484  48.107 -22.150  1.00  0.00     0.011 C 
HETATM   21  C27 UNL     1      -3.003  48.670 -23.510  1.00  0.00     0.011 C 
HETATM   22  C28 UNL     1      -2.614  50.156 -23.403  1.00  0.00    -0.032 C 
HETATM   23  C29 UNL     1      -1.321  50.212 -22.527  1.00  0.00     0.016 C 
ENDROOT
BRANCH   1  24
HETATM   24  C6  UNL     1      -2.621  50.417 -26.076  1.00  0.00    -0.014 C 
HETATM   25  C7  UNL     1      -1.605  50.804 -27.165  1.00  0.00     0.010 C 
BRANCH  24  26
HETATM   26  C5  UNL     1      -2.715  48.865 -26.016  1.00  0.00     0.008 C 
BRANCH  26  27
HETATM   27  C4  UNL     1      -4.023  48.281 -26.569  1.00  0.00     0.028 C 
BRANCH  27  28
HETATM   28  C3  UNL     1      -4.225  48.499 -28.042  1.00  0.00    -0.022 C 
HETATM   29  C2  UNL     1      -5.299  48.149 -28.780  1.00  0.00    -0.064 C 
HETATM   30  C1  UNL     1      -6.497  47.406 -28.248  1.00  0.00     0.045 C 
BRANCH  29  31
HETATM   31  C30 UNL     1      -5.359  48.461 -30.253  1.00  0.00     0.197 C 
BRANCH  31  32
HETATM   32  O2  UNL     1      -4.626  49.648 -30.511  1.00  0.00    -0.397 OA
HETATM   33  H48 UNL     1      -3.767  49.544 -30.065  1.00  0.00     0.209 HD
ENDBRANCH  31  32
ENDBRANCH  29  31
ENDBRANCH  27  28
ENDBRANCH  26  27
ENDBRANCH  24  26
ENDBRANCH   1  24
TORSDOF 6
ENDMDL
MODEL 3
REMARK minimizedAffinity -8.88865376
REMARK  6 active torsions:
REMARK  status: ('A' for Active; 'I' for Inactive)
REMARK    1  A    between atoms: C2_2  and  C30_31 
REMARK    2  A    between atoms: C3_3  and  C4_4 
REMARK    3  A    between atoms: C4_4  and  C5_5 
REMARK    4  A    between atoms: C5_5  and  C6_6 
REMARK    5  A    between atoms: C6_6  and  C8_8 
REMARK    6  A    between atoms: C30_31  and  O2_32 
ROOT
HETATM    1  C8  UNL     1      -1.833  50.817 -24.336  1.00  0.00    -0.002 C 
HETATM    2  C9  UNL     1      -2.427  52.254 -24.153  1.00  0.00     0.006 C 
HETATM    3  C10 UNL     1      -3.490  52.184 -23.039  1.00  0.00     0.011 C 
HETATM    4  C11 UNL     1      -3.965  50.731 -23.108  1.00  0.00    -0.032 C 
HETATM    5  C12 UNL     1      -4.883  50.632 -24.384  1.00  0.00     0.016 C 
HETATM    6  C13 UNL     1      -4.853  50.209 -21.949  1.00  0.00     0.004 C 
HETATM    7  C14 UNL     1      -4.394  50.460 -20.471  1.00  0.00     0.007 C 
HETATM    8  C15 UNL     1      -4.427  49.201 -19.542  1.00  0.00     0.007 C 
HETATM    9  C16 UNL     1      -5.758  48.449 -19.690  1.00  0.00     0.010 C 
HETATM   10  C17 UNL     1      -6.078  47.114 -19.018  1.00  0.00     0.018 C 
HETATM   11  C18 UNL     1      -5.982  47.228 -17.491  1.00  0.00     0.023 C 
HETATM   12  C19 UNL     1      -5.161  45.985 -19.498  1.00  0.00     0.023 C 
HETATM   13  C20 UNL     1      -7.552  46.791 -19.393  1.00  0.00     0.135 C 
HETATM   14  O1  UNL     1      -8.033  45.674 -19.183  1.00  0.00    -0.297 OA
HETATM   15  C21 UNL     1      -8.452  47.926 -19.934  1.00  0.00     0.080 C 
HETATM   16  C22 UNL     1      -7.776  48.870 -20.961  1.00  0.00     0.018 C 
HETATM   17  C23 UNL     1      -6.320  48.452 -21.098  1.00  0.00    -0.026 A 
HETATM   18  C24 UNL     1      -6.226  47.826 -22.453  1.00  0.00     0.021 A 
HETATM   19  C25 UNL     1      -5.097  48.715 -22.108  1.00  0.00    -0.027 A 
HETATM   20  C26 UNL     1      -3.808  47.895 -22.363  1.00  0.00     0.011 C 
HETATM   21  C27 UNL     1      -2.929  48.478 -23.497  1.00  0.00     0.011 C 
HETATM   22  C28 UNL     1      -2.601  49.962 -23.254  1.00  0.00    -0.032 C 
HETATM   23  C29 UNL     1      -1.648  50.007 -22.017  1.00  0.00     0.016 C 
ENDROOT
BRANCH   1  24
HETATM   24  C6  UNL     1      -1.772  50.260 -25.791  1.00  0.00    -0.014 C 
HETATM   25  C7  UNL     1      -2.646  49.005 -25.959  1.00  0.00     0.010 C 
BRANCH  24  26
HETATM   26  C5  UNL     1      -2.254  51.337 -26.806  1.00  0.00     0.008 C 
BRANCH  26  27
HETATM   27  C4  UNL     1      -1.126  52.133 -27.478  1.00  0.00     0.028 C 
BRANCH  27  28
HETATM   28  C3  UNL     1       0.241  51.535 -27.309  1.00  0.00    -0.022 C 
HETATM   29  C2  UNL     1       1.158  51.844 -26.369  1.00  0.00    -0.064 C 
HETATM   30  C1  UNL     1       0.985  52.916 -25.325  1.00  0.00     0.045 C 
BRANCH  29  31
HETATM   31  C30 UNL     1       2.485  51.130 -26.319  1.00  0.00     0.197 C 
BRANCH  31  32
HETATM   32  O2  UNL     1       3.280  51.541 -27.421  1.00  0.00    -0.397 OA
HETATM   33  H48 UNL     1       3.244  52.514 -27.438  1.00  0.00     0.209 HD
ENDBRANCH  31  32
ENDBRANCH  29  31
ENDBRANCH  27  28
ENDBRANCH  26  27
ENDBRANCH  24  26
ENDBRANCH   1  24
TORSDOF 6
ENDMDL
MODEL 4
REMARK minimizedAffinity -8.85890198
REMARK  6 active torsions:
REMARK  status: ('A' for Active; 'I' for Inactive)
REMARK    1  A    between atoms: C2_2  and  C30_31 
REMARK    2  A    between atoms: C3_3  and  C4_4 
REMARK    3  A    between atoms: C4_4  and  C5_5 
REMARK    4  A    between atoms: C5_5  and  C6_6 
REMARK    5  A    between atoms: C6_6  and  C8_8 
REMARK    6  A    between atoms: C30_31  and  O2_32 
ROOT
HETATM    1  C8  UNL     1      -2.350  49.841 -23.052  1.00  0.00    -0.002 C 
HETATM    2  C9  UNL     1      -3.114  51.205 -23.120  1.00  0.00     0.006 C 
HETATM    3  C10 UNL     1      -3.004  51.875 -21.736  1.00  0.00     0.011 C 
HETATM    4  C11 UNL     1      -2.837  50.684 -20.790  1.00  0.00    -0.032 C 
HETATM    5  C12 UNL     1      -4.259  50.018 -20.672  1.00  0.00     0.016 C 
HETATM    6  C13 UNL     1      -2.423  50.981 -19.325  1.00  0.00     0.004 C 
HETATM    7  C14 UNL     1      -1.210  51.938 -19.061  1.00  0.00     0.007 C 
HETATM    8  C15 UNL     1      -0.147  51.398 -18.046  1.00  0.00     0.007 C 
HETATM    9  C16 UNL     1      -0.827  50.847 -16.785  1.00  0.00     0.010 C 
HETATM   10  C17 UNL     1      -0.096  50.137 -15.645  1.00  0.00     0.018 C 
HETATM   11  C18 UNL     1       0.968  51.049 -15.022  1.00  0.00     0.023 C 
HETATM   12  C19 UNL     1       0.561  48.830 -16.099  1.00  0.00     0.023 C 
HETATM   13  C20 UNL     1      -1.177  49.838 -14.568  1.00  0.00     0.135 C 
HETATM   14  O1  UNL     1      -0.941  49.078 -13.623  1.00  0.00    -0.297 OA
HETATM   15  C21 UNL     1      -2.523  50.594 -14.628  1.00  0.00     0.080 C 
HETATM   16  C22 UNL     1      -3.132  50.745 -16.047  1.00  0.00     0.018 C 
HETATM   17  C23 UNL     1      -2.150  50.152 -17.045  1.00  0.00    -0.026 A 
HETATM   18  C24 UNL     1      -2.794  48.886 -17.512  1.00  0.00     0.021 A 
HETATM   19  C25 UNL     1      -2.156  49.681 -18.582  1.00  0.00    -0.027 A 
HETATM   20  C26 UNL     1      -1.217  48.709 -19.340  1.00  0.00     0.011 C 
HETATM   21  C27 UNL     1      -1.640  48.477 -20.812  1.00  0.00     0.011 C 
HETATM   22  C28 UNL     1      -1.795  49.805 -21.574  1.00  0.00    -0.032 C 
HETATM   23  C29 UNL     1      -0.357  50.402 -21.716  1.00  0.00     0.016 C 
ENDROOT
BRANCH   1  24
HETATM   24  C6  UNL     1      -3.108  48.582 -23.572  1.00  0.00    -0.014 C 
HETATM   25  C7  UNL     1      -4.581  48.577 -23.124  1.00  0.00     0.010 C 
BRANCH  24  26
HETATM   26  C5  UNL     1      -3.064  48.525 -25.126  1.00  0.00     0.008 C 
BRANCH  26  27
HETATM   27  C4  UNL     1      -4.438  48.405 -25.801  1.00  0.00     0.028 C 
BRANCH  27  28
HETATM   28  C3  UNL     1      -4.394  48.405 -27.303  1.00  0.00    -0.022 C 
HETATM   29  C2  UNL     1      -5.366  48.009 -28.150  1.00  0.00    -0.064 C 
HETATM   30  C1  UNL     1      -6.688  47.428 -27.723  1.00  0.00     0.045 C 
BRANCH  29  31
HETATM   31  C30 UNL     1      -5.173  48.094 -29.642  1.00  0.00     0.197 C 
BRANCH  31  32
HETATM   32  O2  UNL     1      -4.639  49.367 -29.975  1.00  0.00    -0.397 OA
HETATM   33  H48 UNL     1      -3.889  49.516 -29.372  1.00  0.00     0.209 HD
ENDBRANCH  31  32
ENDBRANCH  29  31
ENDBRANCH  27  28
ENDBRANCH  26  27
ENDBRANCH  24  26
ENDBRANCH   1  24
TORSDOF 6
ENDMDL
MODEL 5
REMARK minimizedAffinity -8.82687569
REMARK  6 active torsions:
REMARK  status: ('A' for Active; 'I' for Inactive)
REMARK    1  A    between atoms: C2_2  and  C30_31 
REMARK    2  A    between atoms: C3_3  and  C4_4 
REMARK    3  A    between atoms: C4_4  and  C5_5 
REMARK    4  A    between atoms: C5_5  and  C6_6 
REMARK    5  A    between atoms: C6_6  and  C8_8 
REMARK    6  A    between atoms: C30_31  and  O2_32 
ROOT
HETATM    1  C8  UNL     1      -0.310  50.943 -20.542  1.00  0.00    -0.002 C 
HETATM    2  C9  UNL     1      -0.157  50.730 -18.999  1.00  0.00     0.006 C 
HETATM    3  C10 UNL     1      -1.318  49.832 -18.532  1.00  0.00     0.011 C 
HETATM    4  C11 UNL     1      -2.413  50.122 -19.560  1.00  0.00    -0.032 C 
HETATM    5  C12 UNL     1      -2.988  51.542 -19.198  1.00  0.00     0.016 C 
HETATM    6  C13 UNL     1      -3.654  49.192 -19.573  1.00  0.00     0.004 C 
HETATM    7  C14 UNL     1      -3.436  47.639 -19.575  1.00  0.00     0.007 C 
HETATM    8  C15 UNL     1      -4.260  46.854 -20.651  1.00  0.00     0.007 C 
HETATM    9  C16 UNL     1      -5.728  47.304 -20.648  1.00  0.00     0.010 C 
HETATM   10  C17 UNL     1      -6.782  46.830 -21.649  1.00  0.00     0.018 C 
HETATM   11  C18 UNL     1      -6.949  45.306 -21.592  1.00  0.00     0.023 C 
HETATM   12  C19 UNL     1      -6.451  47.248 -23.085  1.00  0.00     0.023 C 
HETATM   13  C20 UNL     1      -8.118  47.487 -21.203  1.00  0.00     0.135 C 
HETATM   14  O1  UNL     1      -9.111  47.472 -21.937  1.00  0.00    -0.297 OA
HETATM   15  C21 UNL     1      -8.227  48.066 -19.775  1.00  0.00     0.080 C 
HETATM   16  C22 UNL     1      -6.989  48.864 -19.290  1.00  0.00     0.018 C 
HETATM   17  C23 UNL     1      -5.925  48.783 -20.373  1.00  0.00    -0.026 A 
HETATM   18  C24 UNL     1      -5.877  50.153 -20.969  1.00  0.00     0.021 A 
HETATM   19  C25 UNL     1      -4.554  49.532 -20.751  1.00  0.00    -0.027 A 
HETATM   20  C26 UNL     1      -3.802  49.635 -22.102  1.00  0.00     0.011 C 
HETATM   21  C27 UNL     1      -2.544  50.536 -22.033  1.00  0.00     0.011 C 
HETATM   22  C28 UNL     1      -1.595  50.099 -20.903  1.00  0.00    -0.032 C 
HETATM   23  C29 UNL     1      -1.007  48.715 -21.330  1.00  0.00     0.016 C 
ENDROOT
BRANCH   1  24
HETATM   24  C6  UNL     1      -0.237  52.411 -21.062  1.00  0.00    -0.014 C 
HETATM   25  C7  UNL     1       0.322  53.367 -19.993  1.00  0.00     0.010 C 
BRANCH  24  26
HETATM   26  C5  UNL     1       0.668  52.496 -22.324  1.00  0.00     0.008 C 
BRANCH  26  27
HETATM   27  C4  UNL     1      -0.056  52.221 -23.650  1.00  0.00     0.028 C 
BRANCH  27  28
HETATM   28  C3  UNL     1       0.814  52.345 -24.869  1.00  0.00    -0.022 C 
HETATM   29  C2  UNL     1       0.677  51.692 -26.041  1.00  0.00    -0.064 C 
HETATM   30  C1  UNL     1      -0.375  50.651 -26.322  1.00  0.00     0.045 C 
BRANCH  29  31
HETATM   31  C30 UNL     1       1.626  51.946 -27.184  1.00  0.00     0.197 C 
BRANCH  31  32
HETATM   32  O2  UNL     1       2.954  52.012 -26.684  1.00  0.00    -0.397 OA
HETATM   33  H48 UNL     1       3.071  51.235 -26.111  1.00  0.00     0.209 HD
ENDBRANCH  31  32
ENDBRANCH  29  31
ENDBRANCH  27  28
ENDBRANCH  26  27
ENDBRANCH  24  26
ENDBRANCH   1  24
TORSDOF 6
ENDMDL
MODEL 6
REMARK minimizedAffinity -8.81429863
REMARK  6 active torsions:
REMARK  status: ('A' for Active; 'I' for Inactive)
REMARK    1  A    between atoms: C2_2  and  C30_31 
REMARK    2  A    between atoms: C3_3  and  C4_4 
REMARK    3  A    between atoms: C4_4  and  C5_5 
REMARK    4  A    between atoms: C5_5  and  C6_6 
REMARK    5  A    between atoms: C6_6  and  C8_8 
REMARK    6  A    between atoms: C30_31  and  O2_32 
ROOT
HETATM    1  C8  UNL     1      -1.431  48.611 -18.225  1.00  0.00    -0.002 C 
HETATM    2  C9  UNL     1      -2.915  48.227 -17.905  1.00  0.00     0.006 C 
HETATM    3  C10 UNL     1      -3.742  48.440 -19.188  1.00  0.00     0.011 C 
HETATM    4  C11 UNL     1      -2.957  49.526 -19.927  1.00  0.00    -0.032 C 
HETATM    5  C12 UNL     1      -3.256  50.873 -19.168  1.00  0.00     0.016 C 
HETATM    6  C13 UNL     1      -3.342  49.816 -21.401  1.00  0.00     0.004 C 
HETATM    7  C14 UNL     1      -3.488  48.613 -22.396  1.00  0.00     0.007 C 
HETATM    8  C15 UNL     1      -2.735  48.781 -23.757  1.00  0.00     0.007 C 
HETATM    9  C16 UNL     1      -3.009  50.164 -24.365  1.00  0.00     0.010 C 
HETATM   10  C17 UNL     1      -2.340  50.704 -25.629  1.00  0.00     0.018 C 
HETATM   11  C18 UNL     1      -2.627  49.800 -26.834  1.00  0.00     0.023 C 
HETATM   12  C19 UNL     1      -0.825  50.860 -25.464  1.00  0.00     0.023 C 
HETATM   13  C20 UNL     1      -2.987  52.093 -25.894  1.00  0.00     0.135 C 
HETATM   14  O1  UNL     1      -2.503  52.875 -26.718  1.00  0.00    -0.297 OA
HETATM   15  C21 UNL     1      -4.318  52.444 -25.191  1.00  0.00     0.080 C 
HETATM   16  C22 UNL     1      -4.406  52.028 -23.700  1.00  0.00     0.018 C 
HETATM   17  C23 UNL     1      -3.131  51.279 -23.344  1.00  0.00    -0.026 A 
HETATM   18  C24 UNL     1      -2.371  52.214 -22.460  1.00  0.00     0.021 A 
HETATM   19  C25 UNL     1      -2.363  50.805 -22.015  1.00  0.00    -0.027 A 
HETATM   20  C26 UNL     1      -0.876  50.432 -21.791  1.00  0.00     0.011 C 
HETATM   21  C27 UNL     1      -0.545  50.106 -20.313  1.00  0.00     0.011 C 
HETATM   22  C28 UNL     1      -1.479  49.020 -19.749  1.00  0.00    -0.032 C 
HETATM   23  C29 UNL     1      -1.110  47.693 -20.489  1.00  0.00     0.016 C 
ENDROOT
BRANCH   1  24
HETATM   24  C6  UNL     1      -0.727  49.586 -17.234  1.00  0.00    -0.014 C 
HETATM   25  C7  UNL     1       0.099  48.829 -16.179  1.00  0.00     0.010 C 
BRANCH  24  26
HETATM   26  C5  UNL     1       0.221  50.552 -18.004  1.00  0.00     0.008 C 
BRANCH  26  27
HETATM   27  C4  UNL     1       0.257  51.985 -17.454  1.00  0.00     0.028 C 
BRANCH  27  28
HETATM   28  C3  UNL     1       1.640  52.550 -17.287  1.00  0.00    -0.022 C 
HETATM   29  C2  UNL     1       2.456  52.410 -16.222  1.00  0.00    -0.064 C 
HETATM   30  C1  UNL     1       2.091  51.685 -14.953  1.00  0.00     0.045 C 
BRANCH  29  31
HETATM   31  C30 UNL     1       3.833  53.024 -16.218  1.00  0.00     0.197 C 
BRANCH  31  32
HETATM   32  O2  UNL     1       4.801  52.002 -16.038  1.00  0.00    -0.397 OA
HETATM   33  H48 UNL     1       4.579  51.297 -16.671  1.00  0.00     0.209 HD
ENDBRANCH  31  32
ENDBRANCH  29  31
ENDBRANCH  27  28
ENDBRANCH  26  27
ENDBRANCH  24  26
ENDBRANCH   1  24
TORSDOF 6
ENDMDL
MODEL 7
REMARK minimizedAffinity -8.78545094
REMARK  6 active torsions:
REMARK  status: ('A' for Active; 'I' for Inactive)
REMARK    1  A    between atoms: C2_2  and  C30_31 
REMARK    2  A    between atoms: C3_3  and  C4_4 
REMARK    3  A    between atoms: C4_4  and  C5_5 
REMARK    4  A    between atoms: C5_5  and  C6_6 
REMARK    5  A    between atoms: C6_6  and  C8_8 
REMARK    6  A    between atoms: C30_31  and  O2_32 
ROOT
HETATM    1  C8  UNL     1      -2.527  51.547 -23.934  1.00  0.00    -0.002 C 
HETATM    2  C9  UNL     1      -1.947  50.569 -25.009  1.00  0.00     0.006 C 
HETATM    3  C10 UNL     1      -2.809  49.292 -24.996  1.00  0.00     0.011 C 
HETATM    4  C11 UNL     1      -3.348  49.255 -23.564  1.00  0.00    -0.032 C 
HETATM    5  C12 UNL     1      -2.146  48.797 -22.657  1.00  0.00     0.016 C 
HETATM    6  C13 UNL     1      -4.481  48.246 -23.247  1.00  0.00     0.004 C 
HETATM    7  C14 UNL     1      -5.728  48.184 -24.197  1.00  0.00     0.007 C 
HETATM    8  C15 UNL     1      -7.116  48.221 -23.475  1.00  0.00     0.007 C 
HETATM    9  C16 UNL     1      -7.146  47.234 -22.299  1.00  0.00     0.010 C 
HETATM   10  C17 UNL     1      -8.303  47.100 -21.308  1.00  0.00     0.018 C 
HETATM   11  C18 UNL     1      -9.604  46.725 -22.029  1.00  0.00     0.023 C 
HETATM   12  C19 UNL     1      -8.526  48.379 -20.496  1.00  0.00     0.023 C 
HETATM   13  C20 UNL     1      -7.916  45.932 -20.358  1.00  0.00     0.135 C 
HETATM   14  O1  UNL     1      -8.546  45.723 -19.316  1.00  0.00    -0.297 OA
HETATM   15  C21 UNL     1      -6.796  44.957 -20.787  1.00  0.00     0.080 C 
HETATM   16  C22 UNL     1      -5.555  45.623 -21.437  1.00  0.00     0.018 C 
HETATM   17  C23 UNL     1      -5.829  47.114 -21.554  1.00  0.00    -0.026 A 
HETATM   18  C24 UNL     1      -4.940  47.750 -20.534  1.00  0.00     0.021 A 
HETATM   19  C25 UNL     1      -4.993  48.458 -21.830  1.00  0.00    -0.027 A 
HETATM   20  C26 UNL     1      -5.324  49.936 -21.501  1.00  0.00     0.011 C 
HETATM   21  C27 UNL     1      -4.184  50.914 -21.876  1.00  0.00     0.011 C 
HETATM   22  C28 UNL     1      -3.762  50.757 -23.347  1.00  0.00    -0.032 C 
HETATM   23  C29 UNL     1      -4.960  51.273 -24.208  1.00  0.00     0.016 C 
ENDROOT
BRANCH   1  24
HETATM   24  C6  UNL     1      -1.513  52.162 -22.921  1.00  0.00    -0.014 C 
HETATM   25  C7  UNL     1      -1.728  51.619 -21.497  1.00  0.00     0.010 C 
BRANCH  24  26
HETATM   26  C5  UNL     1      -0.052  51.847 -23.356  1.00  0.00     0.008 C 
BRANCH  26  27
HETATM   27  C4  UNL     1       0.558  52.862 -24.333  1.00  0.00     0.028 C 
BRANCH  27  28
HETATM   28  C3  UNL     1       1.309  52.246 -25.479  1.00  0.00    -0.022 C 
HETATM   29  C2  UNL     1       1.036  52.366 -26.794  1.00  0.00    -0.064 C 
HETATM   30  C1  UNL     1      -0.139  53.120 -27.358  1.00  0.00     0.045 C 
BRANCH  29  31
HETATM   31  C30 UNL     1       1.906  51.699 -27.828  1.00  0.00     0.197 C 
BRANCH  31  32
HETATM   32  O2  UNL     1       3.207  51.506 -27.293  1.00  0.00    -0.397 OA
HETATM   33  H48 UNL     1       3.087  51.102 -26.417  1.00  0.00     0.209 HD
ENDBRANCH  31  32
ENDBRANCH  29  31
ENDBRANCH  27  28
ENDBRANCH  26  27
ENDBRANCH  24  26
ENDBRANCH   1  24
TORSDOF 6
ENDMDL
MODEL 8
REMARK minimizedAffinity -8.78235054
REMARK  6 active torsions:
REMARK  status: ('A' for Active; 'I' for Inactive)
REMARK    1  A    between atoms: C2_2  and  C30_31 
REMARK    2  A    between atoms: C3_3  and  C4_4 
REMARK    3  A    between atoms: C4_4  and  C5_5 
REMARK    4  A    between atoms: C5_5  and  C6_6 
REMARK    5  A    between atoms: C6_6  and  C8_8 
REMARK    6  A    between atoms: C30_31  and  O2_32 
ROOT
HETATM    1  C8  UNL     1      -2.951  49.911 -22.330  1.00  0.00    -0.002 C 
HETATM    2  C9  UNL     1      -2.327  48.514 -22.657  1.00  0.00     0.006 C 
HETATM    3  C10 UNL     1      -1.921  47.857 -21.324  1.00  0.00     0.011 C 
HETATM    4  C11 UNL     1      -1.661  49.059 -20.414  1.00  0.00    -0.032 C 
HETATM    5  C12 UNL     1      -0.279  49.661 -20.868  1.00  0.00     0.016 C 
HETATM    6  C13 UNL     1      -1.488  48.789 -18.896  1.00  0.00     0.004 C 
HETATM    7  C14 UNL     1      -2.542  47.890 -18.162  1.00  0.00     0.007 C 
HETATM    8  C15 UNL     1      -3.108  48.482 -16.829  1.00  0.00     0.007 C 
HETATM    9  C16 UNL     1      -1.972  49.008 -15.940  1.00  0.00     0.010 C 
HETATM   10  C17 UNL     1      -2.176  49.757 -14.623  1.00  0.00     0.018 C 
HETATM   11  C18 UNL     1      -2.952  48.898 -13.617  1.00  0.00     0.023 C 
HETATM   12  C19 UNL     1      -2.906  51.089 -14.818  1.00  0.00     0.023 C 
HETATM   13  C20 UNL     1      -0.753  50.013 -14.053  1.00  0.00     0.135 C 
HETATM   14  O1  UNL     1      -0.575  50.787 -13.108  1.00  0.00    -0.297 OA
HETATM   15  C21 UNL     1       0.435  49.196 -14.612  1.00  0.00     0.080 C 
HETATM   16  C22 UNL     1       0.441  49.011 -16.151  1.00  0.00     0.018 C 
HETATM   17  C23 UNL     1      -0.826  49.642 -16.706  1.00  0.00    -0.026 A 
HETATM   18  C24 UNL     1      -0.363  50.875 -17.413  1.00  0.00     0.021 A 
HETATM   19  C25 UNL     1      -1.396  50.104 -18.137  1.00  0.00    -0.027 A 
HETATM   20  C26 UNL     1      -2.515  51.113 -18.496  1.00  0.00     0.011 C 
HETATM   21  C27 UNL     1      -2.685  51.318 -20.021  1.00  0.00     0.011 C 
HETATM   22  C28 UNL     1      -2.890  49.980 -20.754  1.00  0.00    -0.032 C 
HETATM   23  C29 UNL     1      -4.293  49.448 -20.317  1.00  0.00     0.016 C 
ENDROOT
BRANCH   1  24
HETATM   24  C6  UNL     1      -2.403  51.132 -23.131  1.00  0.00    -0.014 C 
HETATM   25  C7  UNL     1      -3.516  52.141 -23.464  1.00  0.00     0.010 C 
BRANCH  24  26
HETATM   26  C5  UNL     1      -1.299  51.865 -22.316  1.00  0.00     0.008 C 
BRANCH  26  27
HETATM   27  C4  UNL     1      -0.006  52.143 -23.096  1.00  0.00     0.028 C 
BRANCH  27  28
HETATM   28  C3  UNL     1      -0.190  52.999 -24.317  1.00  0.00    -0.022 C 
HETATM   29  C2  UNL     1       0.343  52.804 -25.540  1.00  0.00    -0.064 C 
HETATM   30  C1  UNL     1       1.290  51.687 -25.892  1.00  0.00     0.045 C 
BRANCH  29  31
HETATM   31  C30 UNL     1       0.041  53.749 -26.675  1.00  0.00     0.197 C 
BRANCH  31  32
HETATM   32  O2  UNL     1       0.199  55.087 -26.226  1.00  0.00    -0.397 OA
HETATM   33  H48 UNL     1       1.058  55.124 -25.770  1.00  0.00     0.209 HD
ENDBRANCH  31  32
ENDBRANCH  29  31
ENDBRANCH  27  28
ENDBRANCH  26  27
ENDBRANCH  24  26
ENDBRANCH   1  24
TORSDOF 6
ENDMDL
MODEL 9
REMARK minimizedAffinity -8.77634144
REMARK  6 active torsions:
REMARK  status: ('A' for Active; 'I' for Inactive)
REMARK    1  A    between atoms: C2_2  and  C30_31 
REMARK    2  A    between atoms: C3_3  and  C4_4 
REMARK    3  A    between atoms: C4_4  and  C5_5 
REMARK    4  A    between atoms: C5_5  and  C6_6 
REMARK    5  A    between atoms: C6_6  and  C8_8 
REMARK    6  A    between atoms: C30_31  and  O2_32 
ROOT
HETATM    1  C8  UNL     1      -2.576  52.375 -23.864  1.00  0.00    -0.002 C 
HETATM    2  C9  UNL     1      -2.809  51.813 -25.306  1.00  0.00     0.006 C 
HETATM    3  C10 UNL     1      -3.909  50.737 -25.219  1.00  0.00     0.011 C 
HETATM    4  C11 UNL     1      -3.779  50.228 -23.783  1.00  0.00    -0.032 C 
HETATM    5  C12 UNL     1      -2.492  49.322 -23.755  1.00  0.00     0.016 C 
HETATM    6  C13 UNL     1      -4.909  49.316 -23.237  1.00  0.00     0.004 C 
HETATM    7  C14 UNL     1      -6.400  49.765 -23.421  1.00  0.00     0.007 C 
HETATM    8  C15 UNL     1      -7.280  49.692 -22.128  1.00  0.00     0.007 C 
HETATM    9  C16 UNL     1      -7.090  48.346 -21.415  1.00  0.00     0.010 C 
HETATM   10  C17 UNL     1      -7.706  47.987 -20.062  1.00  0.00     0.018 C 
HETATM   11  C18 UNL     1      -9.237  48.069 -20.116  1.00  0.00     0.023 C 
HETATM   12  C19 UNL     1      -7.192  48.882 -18.931  1.00  0.00     0.023 C 
HETATM   13  C20 UNL     1      -7.305  46.510 -19.790  1.00  0.00     0.135 C 
HETATM   14  O1  UNL     1      -7.467  46.000 -18.678  1.00  0.00    -0.297 OA
HETATM   15  C21 UNL     1      -6.799  45.643 -20.966  1.00  0.00     0.080 C 
HETATM   16  C22 UNL     1      -5.816  46.352 -21.933  1.00  0.00     0.018 C 
HETATM   17  C23 UNL     1      -5.677  47.798 -21.485  1.00  0.00    -0.026 A 
HETATM   18  C24 UNL     1      -4.300  47.892 -20.909  1.00  0.00     0.021 A 
HETATM   19  C25 UNL     1      -4.690  49.038 -21.758  1.00  0.00    -0.027 A 
HETATM   20  C26 UNL     1      -4.416  50.310 -20.916  1.00  0.00     0.011 C 
HETATM   21  C27 UNL     1      -3.314  51.215 -21.521  1.00  0.00     0.011 C 
HETATM   22  C28 UNL     1      -3.617  51.575 -22.987  1.00  0.00    -0.032 C 
HETATM   23  C29 UNL     1      -4.864  52.516 -22.962  1.00  0.00     0.016 C 
ENDROOT
BRANCH   1  24
HETATM   24  C6  UNL     1      -1.101  52.438 -23.362  1.00  0.00    -0.014 C 
HETATM   25  C7  UNL     1      -0.988  52.056 -21.876  1.00  0.00     0.010 C 
BRANCH  24  26
HETATM   26  C5  UNL     1      -0.204  51.473 -24.190  1.00  0.00     0.008 C 
BRANCH  26  27
HETATM   27  C4  UNL     1       0.871  52.169 -25.038  1.00  0.00     0.028 C 
BRANCH  27  28
HETATM   28  C3  UNL     1       0.337  53.196 -25.996  1.00  0.00    -0.022 C 
HETATM   29  C2  UNL     1       0.093  53.036 -27.313  1.00  0.00    -0.064 C 
HETATM   30  C1  UNL     1       0.374  51.776 -28.088  1.00  0.00     0.045 C 
BRANCH  29  31
HETATM   31  C30 UNL     1      -0.469  54.166 -28.137  1.00  0.00     0.197 C 
BRANCH  31  32
HETATM   32  O2  UNL     1      -1.873  54.000 -28.265  1.00  0.00    -0.397 OA
HETATM   33  H48 UNL     1      -2.212  53.829 -27.369  1.00  0.00     0.209 HD
ENDBRANCH  31  32
ENDBRANCH  29  31
ENDBRANCH  27  28
ENDBRANCH  26  27
ENDBRANCH  24  26
ENDBRANCH   1  24
TORSDOF 6
ENDMDL
