MODEL 1
REMARK minimizedAffinity -7.1687212
REMARK CNNscore 0.662477791
REMARK CNNaffinity 6.8387599
REMARK  5 active torsions:
REMARK  status: ('A' for Active; 'I' for Inactive)
REMARK    1  A    between atoms: C2_2  and  C25_28 
REMARK    2  A    between atoms: C3_3  and  C4_4 
REMARK    3  A    between atoms: C4_4  and  C6_6 
REMARK    4  A    between atoms: C20_20  and  O1_21 
REMARK    5  A    between atoms: C25_28  and  C27_30 
ROOT
HETATM    1  C6  UNL     1       1.703  54.757  -9.015  1.00  0.00     0.001 C 
HETATM    2  C7  UNL     1       1.063  54.972  -7.604  1.00  0.00     0.006 C 
HETATM    3  C8  UNL     1      -0.259  54.186  -7.579  1.00  0.00     0.009 C 
HETATM    4  C9  UNL     1      -0.206  53.385  -8.871  1.00  0.00     0.036 C 
HETATM    5  C10 UNL     1       0.478  54.338  -9.895  1.00  0.00    -0.033 C 
HETATM    6  C11 UNL     1      -0.344  55.597 -10.279  1.00  0.00     0.016 C 
HETATM    7  C12 UNL     1       0.785  53.575 -11.207  1.00  0.00     0.010 C 
HETATM    8  C13 UNL     1       0.342  52.108 -11.262  1.00  0.00     0.010 C 
HETATM    9  C14 UNL     1      -0.972  51.722 -10.549  1.00  0.00     0.039 C 
HETATM   10  C15 UNL     1      -1.447  52.679  -9.398  1.00  0.00     0.123 C 
HETATM   11  C16 UNL     1      -2.647  53.559  -9.686  1.00  0.00     0.014 C 
HETATM   12  C17 UNL     1      -3.709  52.900 -10.173  1.00  0.00     0.014 C 
HETATM   13  C18 UNL     1      -3.424  51.440 -10.407  1.00  0.00     0.124 C 
HETATM   14  C19 UNL     1      -4.626  50.631 -10.882  1.00  0.00     0.078 C 
HETATM   15  C20 UNL     1      -4.300  49.133 -10.974  1.00  0.00     0.121 C 
HETATM   16  C21 UNL     1      -2.809  48.809 -11.129  1.00  0.00     0.033 C 
HETATM   17  C22 UNL     1      -2.074  49.857 -11.959  1.00  0.00     0.015 C 
HETATM   18  C23 UNL     1      -2.208  51.310 -11.409  1.00  0.00     0.001 C 
HETATM   19  C24 UNL     1      -2.354  52.231 -12.651  1.00  0.00     0.019 C 
HETATM   20  O2  UNL     1      -3.029  50.888  -9.100  1.00  0.00    -0.223 OA
HETATM   21  O3  UNL     1      -2.001  51.766  -8.416  1.00  0.00    -0.224 OA
ENDROOT
BRANCH   1  22
HETATM   22  C4  UNL     1       2.575  55.971  -9.439  1.00  0.00     0.009 C 
HETATM   23  C5  UNL     1       3.045  55.953 -10.896  1.00  0.00     0.014 C 
BRANCH  22  24
HETATM   24  C3  UNL     1       3.744  56.231  -8.503  1.00  0.00    -0.019 C 
HETATM   25  C2  UNL     1       3.919  57.168  -7.546  1.00  0.00    -0.083 C 
HETATM   26  C1  UNL     1       2.912  58.218  -7.161  1.00  0.00     0.043 C 
BRANCH  25  27
HETATM   27  C25 UNL     1       5.231  57.251  -6.750  1.00  0.00     0.013 C 
HETATM   28  C26 UNL     1       6.180  56.130  -7.207  1.00  0.00     0.015 C 
BRANCH  27  29
HETATM   29  C27 UNL     1       5.022  57.270  -5.205  1.00  0.00    -0.015 C 
HETATM   30  C28 UNL     1       5.669  56.059  -4.521  1.00  0.00     0.010 C 
HETATM   31  C29 UNL     1       5.585  58.552  -4.574  1.00  0.00     0.010 C 
ENDBRANCH  27  29
ENDBRANCH  25  27
ENDBRANCH  22  24
ENDBRANCH   1  22
BRANCH  15  32
HETATM   32  O1  UNL     1      -5.001  48.589 -12.096  1.00  0.00    -0.395 OA
HETATM   33  H28 UNL     1      -5.952  48.641 -11.896  1.00  0.00     0.210 HD
ENDBRANCH  15  32
TORSDOF 5
ENDMDL
MODEL 2
REMARK minimizedAffinity -7.18194199
REMARK CNNscore 0.640989661
REMARK CNNaffinity 6.90215349
REMARK  5 active torsions:
REMARK  status: ('A' for Active; 'I' for Inactive)
REMARK    1  A    between atoms: C2_2  and  C25_28 
REMARK    2  A    between atoms: C3_3  and  C4_4 
REMARK    3  A    between atoms: C4_4  and  C6_6 
REMARK    4  A    between atoms: C20_20  and  O1_21 
REMARK    5  A    between atoms: C25_28  and  C27_30 
ROOT
HETATM    1  C6  UNL     1       0.822  53.846  -9.888  1.00  0.00     0.001 C 
HETATM    2  C7  UNL     1       1.511  52.656 -10.634  1.00  0.00     0.006 C 
HETATM    3  C8  UNL     1       2.988  52.644 -10.206  1.00  0.00     0.009 C 
HETATM    4  C9  UNL     1       3.027  53.666  -9.080  1.00  0.00     0.036 C 
HETATM    5  C10 UNL     1       2.028  54.775  -9.523  1.00  0.00    -0.033 C 
HETATM    6  C11 UNL     1       2.455  55.591 -10.771  1.00  0.00     0.016 C 
HETATM    7  C12 UNL     1       1.812  55.785  -8.369  1.00  0.00     0.010 C 
HETATM    8  C13 UNL     1       2.614  55.537  -7.086  1.00  0.00     0.010 C 
HETATM    9  C14 UNL     1       4.042  54.969  -7.225  1.00  0.00     0.039 C 
HETATM   10  C15 UNL     1       4.355  54.187  -8.551  1.00  0.00     0.123 C 
HETATM   11  C16 UNL     1       5.254  54.876  -9.560  1.00  0.00     0.014 C 
HETATM   12  C17 UNL     1       6.402  55.344  -9.046  1.00  0.00     0.014 C 
HETATM   13  C18 UNL     1       6.486  55.152  -7.555  1.00  0.00     0.124 C 
HETATM   14  C19 UNL     1       7.808  55.592  -6.936  1.00  0.00     0.078 C 
HETATM   15  C20 UNL     1       7.876  55.249  -5.441  1.00  0.00     0.121 C 
HETATM   16  C21 UNL     1       6.514  55.077  -4.760  1.00  0.00     0.033 C 
HETATM   17  C22 UNL     1       5.458  56.017  -5.335  1.00  0.00     0.015 C 
HETATM   18  C23 UNL     1       5.260  55.882  -6.875  1.00  0.00     0.001 C 
HETATM   19  C24 UNL     1       5.046  57.323  -7.412  1.00  0.00     0.019 C 
HETATM   20  O2  UNL     1       6.369  53.702  -7.324  1.00  0.00    -0.223 OA
HETATM   21  O3  UNL     1       5.216  53.108  -8.105  1.00  0.00    -0.224 OA
ENDROOT
BRANCH   1  22
HETATM   22  C4  UNL     1      -0.371  54.419 -10.702  1.00  0.00     0.009 C 
HETATM   23  C5  UNL     1      -1.190  55.493  -9.982  1.00  0.00     0.014 C 
BRANCH  22  24
HETATM   24  C3  UNL     1      -1.282  53.345 -11.274  1.00  0.00    -0.019 C 
HETATM   25  C2  UNL     1      -2.602  53.119 -11.097  1.00  0.00    -0.083 C 
HETATM   26  C1  UNL     1      -3.523  53.957 -10.251  1.00  0.00     0.043 C 
BRANCH  25  27
HETATM   27  C25 UNL     1      -3.296  51.921 -11.763  1.00  0.00     0.013 C 
HETATM   28  C26 UNL     1      -4.484  51.470 -10.896  1.00  0.00     0.015 C 
BRANCH  27  29
HETATM   29  C27 UNL     1      -2.325  50.751 -12.109  1.00  0.00    -0.015 C 
HETATM   30  C28 UNL     1      -2.059  49.846 -10.899  1.00  0.00     0.010 C 
HETATM   31  C29 UNL     1      -2.866  49.890 -13.259  1.00  0.00     0.010 C 
ENDBRANCH  27  29
ENDBRANCH  25  27
ENDBRANCH  22  24
ENDBRANCH   1  22
BRANCH  15  32
HETATM   32  O1  UNL     1       8.590  56.293  -4.773  1.00  0.00    -0.395 OA
HETATM   33  H28 UNL     1       9.508  56.268  -5.092  1.00  0.00     0.210 HD
ENDBRANCH  15  32
TORSDOF 5
ENDMDL
MODEL 3
REMARK minimizedAffinity -7.39270878
REMARK CNNscore 0.495070696
REMARK CNNaffinity 6.78759193
REMARK  5 active torsions:
REMARK  status: ('A' for Active; 'I' for Inactive)
REMARK    1  A    between atoms: C2_2  and  C25_28 
REMARK    2  A    between atoms: C3_3  and  C4_4 
REMARK    3  A    between atoms: C4_4  and  C6_6 
REMARK    4  A    between atoms: C20_20  and  O1_21 
REMARK    5  A    between atoms: C25_28  and  C27_30 
ROOT
HETATM    1  C6  UNL     1       4.109  54.805  -8.339  1.00  0.00     0.001 C 
HETATM    2  C7  UNL     1       3.510  55.800  -7.291  1.00  0.00     0.006 C 
HETATM    3  C8  UNL     1       1.979  55.707  -7.398  1.00  0.00     0.009 C 
HETATM    4  C9  UNL     1       1.771  54.520  -8.325  1.00  0.00     0.036 C 
HETATM    5  C10 UNL     1       2.934  54.620  -9.357  1.00  0.00    -0.033 C 
HETATM    6  C11 UNL     1       2.870  55.842 -10.310  1.00  0.00     0.016 C 
HETATM    7  C12 UNL     1       2.967  53.350 -10.242  1.00  0.00     0.010 C 
HETATM    8  C13 UNL     1       1.877  52.305  -9.978  1.00  0.00     0.010 C 
HETATM    9  C14 UNL     1       0.475  52.808  -9.574  1.00  0.00     0.039 C 
HETATM   10  C15 UNL     1       0.406  54.243  -8.938  1.00  0.00     0.123 C 
HETATM   11  C16 UNL     1      -0.180  55.348  -9.795  1.00  0.00     0.014 C 
HETATM   12  C17 UNL     1      -1.371  55.052 -10.337  1.00  0.00     0.014 C 
HETATM   13  C18 UNL     1      -1.806  53.642 -10.036  1.00  0.00     0.124 C 
HETATM   14  C19 UNL     1      -3.193  53.285 -10.561  1.00  0.00     0.078 C 
HETATM   15  C20 UNL     1      -3.626  51.883 -10.108  1.00  0.00     0.121 C 
HETATM   16  C21 UNL     1      -2.473  50.942  -9.741  1.00  0.00     0.033 C 
HETATM   17  C22 UNL     1      -1.239  51.175 -10.609  1.00  0.00     0.015 C 
HETATM   18  C23 UNL     1      -0.710  52.640 -10.578  1.00  0.00     0.001 C 
HETATM   19  C24 UNL     1      -0.260  52.970 -12.027  1.00  0.00     0.019 C 
HETATM   20  O2  UNL     1      -1.867  53.539  -8.568  1.00  0.00    -0.223 OA
HETATM   21  O3  UNL     1      -0.620  54.106  -7.922  1.00  0.00    -0.224 OA
ENDROOT
BRANCH   1  22
HETATM   22  C4  UNL     1       5.499  55.278  -8.849  1.00  0.00     0.009 C 
HETATM   23  C5  UNL     1       6.375  54.178  -9.453  1.00  0.00     0.014 C 
BRANCH  22  24
HETATM   24  C3  UNL     1       6.279  56.077  -7.817  1.00  0.00    -0.019 C 
HETATM   25  C2  UNL     1       6.867  55.695  -6.663  1.00  0.00    -0.083 C 
HETATM   26  C1  UNL     1       6.895  54.291  -6.123  1.00  0.00     0.043 C 
BRANCH  25  27
HETATM   27  C25 UNL     1       7.571  56.717  -5.757  1.00  0.00     0.013 C 
HETATM   28  C26 UNL     1       8.008  56.031  -4.452  1.00  0.00     0.015 C 
BRANCH  27  29
HETATM   29  C27 UNL     1       6.734  58.009  -5.507  1.00  0.00    -0.015 C 
HETATM   30  C28 UNL     1       5.492  57.734  -4.650  1.00  0.00     0.010 C 
HETATM   31  C29 UNL     1       7.572  59.101  -4.825  1.00  0.00     0.010 C 
ENDBRANCH  27  29
ENDBRANCH  25  27
ENDBRANCH  22  24
ENDBRANCH   1  22
BRANCH  15  32
HETATM   32  O1  UNL     1      -4.383  51.283 -11.164  1.00  0.00    -0.395 OA
HETATM   33  H28 UNL     1      -5.204  51.796 -11.259  1.00  0.00     0.210 HD
ENDBRANCH  15  32
TORSDOF 5
ENDMDL
MODEL 4
REMARK minimizedAffinity -6.69448709
REMARK CNNscore 0.474254668
REMARK CNNaffinity 6.70133209
REMARK  5 active torsions:
REMARK  status: ('A' for Active; 'I' for Inactive)
REMARK    1  A    between atoms: C2_2  and  C25_28 
REMARK    2  A    between atoms: C3_3  and  C4_4 
REMARK    3  A    between atoms: C4_4  and  C6_6 
REMARK    4  A    between atoms: C20_20  and  O1_21 
REMARK    5  A    between atoms: C25_28  and  C27_30 
ROOT
HETATM    1  C6  UNL     1       1.215  55.641  -8.886  1.00  0.00     0.001 C 
HETATM    2  C7  UNL     1       2.526  55.632  -9.740  1.00  0.00     0.006 C 
HETATM    3  C8  UNL     1       2.340  54.586 -10.851  1.00  0.00     0.009 C 
HETATM    4  C9  UNL     1       0.871  54.212 -10.727  1.00  0.00     0.036 C 
HETATM    5  C10 UNL     1       0.588  54.240  -9.196  1.00  0.00    -0.033 C 
HETATM    6  C11 UNL     1       1.314  53.148  -8.368  1.00  0.00     0.016 C 
HETATM    7  C12 UNL     1      -0.930  54.079  -8.935  1.00  0.00     0.010 C 
HETATM    8  C13 UNL     1      -1.819  53.889 -10.170  1.00  0.00     0.010 C 
HETATM    9  C14 UNL     1      -1.249  53.079 -11.353  1.00  0.00     0.039 C 
HETATM   10  C15 UNL     1       0.317  52.992 -11.449  1.00  0.00     0.123 C 
HETATM   11  C16 UNL     1       0.955  51.661 -11.101  1.00  0.00     0.014 C 
HETATM   12  C17 UNL     1       0.419  50.610 -11.740  1.00  0.00     0.014 C 
HETATM   13  C18 UNL     1      -0.762  50.994 -12.591  1.00  0.00     0.124 C 
HETATM   14  C19 UNL     1      -1.355  49.847 -13.402  1.00  0.00     0.078 C 
HETATM   15  C20 UNL     1      -2.467  50.333 -14.342  1.00  0.00     0.121 C 
HETATM   16  C21 UNL     1      -3.133  51.649 -13.923  1.00  0.00     0.033 C 
HETATM   17  C22 UNL     1      -3.226  51.790 -12.406  1.00  0.00     0.015 C 
HETATM   18  C23 UNL     1      -1.855  51.675 -11.674  1.00  0.00     0.001 C 
HETATM   19  C24 UNL     1      -2.126  50.876 -10.370  1.00  0.00     0.019 C 
HETATM   20  O2  UNL     1      -0.263  51.986 -13.558  1.00  0.00    -0.223 OA
HETATM   21  O3  UNL     1       0.566  53.055 -12.877  1.00  0.00    -0.224 OA
ENDROOT
BRANCH   1  22
HETATM   22  C4  UNL     1       1.493  56.050  -7.413  1.00  0.00     0.009 C 
HETATM   23  C5  UNL     1       0.596  57.165  -6.871  1.00  0.00     0.014 C 
BRANCH  22  24
HETATM   24  C3  UNL     1       2.956  56.359  -7.139  1.00  0.00    -0.019 C 
HETATM   25  C2  UNL     1       3.896  55.661  -6.464  1.00  0.00    -0.083 C 
HETATM   26  C1  UNL     1       3.684  54.321  -5.812  1.00  0.00     0.043 C 
BRANCH  25  27
HETATM   27  C25 UNL     1       5.318  56.215  -6.287  1.00  0.00     0.013 C 
HETATM   28  C26 UNL     1       5.366  57.670  -6.782  1.00  0.00     0.015 C 
BRANCH  27  29
HETATM   29  C27 UNL     1       6.420  55.322  -6.934  1.00  0.00    -0.015 C 
HETATM   30  C28 UNL     1       6.370  55.364  -8.466  1.00  0.00     0.010 C 
HETATM   31  C29 UNL     1       7.825  55.737  -6.474  1.00  0.00     0.010 C 
ENDBRANCH  27  29
ENDBRANCH  25  27
ENDBRANCH  22  24
ENDBRANCH   1  22
BRANCH  15  32
HETATM   32  O1  UNL     1      -3.472  49.317 -14.412  1.00  0.00    -0.395 OA
HETATM   33  H28 UNL     1      -3.074  48.545 -14.850  1.00  0.00     0.210 HD
ENDBRANCH  15  32
TORSDOF 5
ENDMDL
MODEL 5
REMARK minimizedAffinity -7.38507318
REMARK CNNscore 0.438040733
REMARK CNNaffinity 6.57204056
REMARK  5 active torsions:
REMARK  status: ('A' for Active; 'I' for Inactive)
REMARK    1  A    between atoms: C2_2  and  C25_28 
REMARK    2  A    between atoms: C3_3  and  C4_4 
REMARK    3  A    between atoms: C4_4  and  C6_6 
REMARK    4  A    between atoms: C20_20  and  O1_21 
REMARK    5  A    between atoms: C25_28  and  C27_30 
ROOT
HETATM    1  C6  UNL     1      -0.876  53.170 -11.386  1.00  0.00     0.001 C 
HETATM    2  C7  UNL     1      -2.115  52.930 -10.462  1.00  0.00     0.006 C 
HETATM    3  C8  UNL     1      -1.774  53.515  -9.081  1.00  0.00     0.009 C 
HETATM    4  C9  UNL     1      -0.470  54.254  -9.335  1.00  0.00     0.036 C 
HETATM    5  C10 UNL     1       0.292  53.364 -10.361  1.00  0.00    -0.033 C 
HETATM    6  C11 UNL     1       0.753  51.983  -9.827  1.00  0.00     0.016 C 
HETATM    7  C12 UNL     1       1.555  54.103 -10.869  1.00  0.00     0.010 C 
HETATM    8  C13 UNL     1       1.826  55.485 -10.263  1.00  0.00     0.010 C 
HETATM    9  C14 UNL     1       1.466  55.708  -8.779  1.00  0.00     0.039 C 
HETATM   10  C15 UNL     1       0.382  54.746  -8.173  1.00  0.00     0.123 C 
HETATM   11  C16 UNL     1       0.866  53.688  -7.202  1.00  0.00     0.014 C 
HETATM   12  C17 UNL     1       1.635  54.161  -6.209  1.00  0.00     0.014 C 
HETATM   13  C18 UNL     1       1.912  55.635  -6.348  1.00  0.00     0.124 C 
HETATM   14  C19 UNL     1       2.713  56.237  -5.199  1.00  0.00     0.078 C 
HETATM   15  C20 UNL     1       2.847  57.760  -5.338  1.00  0.00     0.121 C 
HETATM   16  C21 UNL     1       2.680  58.292  -6.767  1.00  0.00     0.033 C 
HETATM   17  C22 UNL     1       3.234  57.324  -7.810  1.00  0.00     0.015 C 
HETATM   18  C23 UNL     1       2.617  55.895  -7.740  1.00  0.00     0.001 C 
HETATM   19  C24 UNL     1       3.782  54.905  -8.016  1.00  0.00     0.019 C 
HETATM   20  O2  UNL     1       0.598  56.299  -6.345  1.00  0.00    -0.223 OA
HETATM   21  O3  UNL     1      -0.371  55.613  -7.286  1.00  0.00    -0.224 OA
ENDROOT
BRANCH   1  22
HETATM   22  C4  UNL     1      -0.760  52.078 -12.485  1.00  0.00     0.009 C 
HETATM   23  C5  UNL     1      -0.553  50.654 -11.963  1.00  0.00     0.014 C 
BRANCH  22  24
HETATM   24  C3  UNL     1       0.263  52.409 -13.560  1.00  0.00    -0.019 C 
HETATM   25  C2  UNL     1       0.485  51.853 -14.770  1.00  0.00    -0.083 C 
HETATM   26  C1  UNL     1      -0.306  50.720 -15.366  1.00  0.00     0.043 C 
BRANCH  25  27
HETATM   27  C25 UNL     1       1.628  52.347 -15.670  1.00  0.00     0.013 C 
HETATM   28  C26 UNL     1       1.183  52.291 -17.142  1.00  0.00     0.015 C 
BRANCH  27  29
HETATM   29  C27 UNL     1       2.980  51.610 -15.422  1.00  0.00    -0.015 C 
HETATM   30  C28 UNL     1       4.169  52.371 -16.023  1.00  0.00     0.010 C 
HETATM   31  C29 UNL     1       3.238  51.394 -13.924  1.00  0.00     0.010 C 
ENDBRANCH  27  29
ENDBRANCH  25  27
ENDBRANCH  22  24
ENDBRANCH   1  22
BRANCH  15  32
HETATM   32  O1  UNL     1       4.138  58.144  -4.859  1.00  0.00    -0.395 OA
HETATM   33  H28 UNL     1       4.158  57.963  -3.903  1.00  0.00     0.210 HD
ENDBRANCH  15  32
TORSDOF 5
ENDMDL
MODEL 6
REMARK minimizedAffinity -7.45347834
REMARK CNNscore 0.408902913
REMARK CNNaffinity 5.94609118
REMARK  5 active torsions:
REMARK  status: ('A' for Active; 'I' for Inactive)
REMARK    1  A    between atoms: C2_2  and  C25_28 
REMARK    2  A    between atoms: C3_3  and  C4_4 
REMARK    3  A    between atoms: C4_4  and  C6_6 
REMARK    4  A    between atoms: C20_20  and  O1_21 
REMARK    5  A    between atoms: C25_28  and  C27_30 
ROOT
HETATM    1  C6  UNL     1     -12.536  45.958 -28.067  1.00  0.00     0.001 C 
HETATM    2  C7  UNL     1     -12.831  44.721 -28.979  1.00  0.00     0.006 C 
HETATM    3  C8  UNL     1     -11.735  44.678 -30.057  1.00  0.00     0.009 C 
HETATM    4  C9  UNL     1     -10.750  45.737 -29.587  1.00  0.00     0.036 C 
HETATM    5  C10 UNL     1     -11.642  46.861 -28.982  1.00  0.00    -0.033 C 
HETATM    6  C11 UNL     1     -12.534  47.618 -30.000  1.00  0.00     0.016 C 
HETATM    7  C12 UNL     1     -10.758  47.917 -28.275  1.00  0.00     0.010 C 
HETATM    8  C13 UNL     1      -9.242  47.690 -28.337  1.00  0.00     0.010 C 
HETATM    9  C14 UNL     1      -8.656  47.072 -29.624  1.00  0.00     0.039 C 
HETATM   10  C15 UNL     1      -9.647  46.235 -30.509  1.00  0.00     0.123 C 
HETATM   11  C16 UNL     1     -10.098  46.860 -31.816  1.00  0.00     0.014 C 
HETATM   12  C17 UNL     1      -9.095  47.309 -32.586  1.00  0.00     0.014 C 
HETATM   13  C18 UNL     1      -7.751  47.167 -31.923  1.00  0.00     0.124 C 
HETATM   14  C19 UNL     1      -6.571  47.588 -32.793  1.00  0.00     0.078 C 
HETATM   15  C20 UNL     1      -5.229  47.296 -32.107  1.00  0.00     0.121 C 
HETATM   16  C21 UNL     1      -5.298  47.190 -30.578  1.00  0.00     0.033 C 
HETATM   17  C22 UNL     1      -6.331  48.142 -29.981  1.00  0.00     0.015 C 
HETATM   18  C23 UNL     1      -7.769  47.959 -30.554  1.00  0.00     0.001 C 
HETATM   19  C24 UNL     1      -8.365  49.386 -30.695  1.00  0.00     0.019 C 
HETATM   20  O2  UNL     1      -7.584  45.731 -31.644  1.00  0.00    -0.223 OA
HETATM   21  O3  UNL     1      -8.820  45.146 -30.993  1.00  0.00    -0.224 OA
ENDROOT
BRANCH   1  22
HETATM   22  C4  UNL     1     -13.839  46.539 -27.450  1.00  0.00     0.009 C 
HETATM   23  C5  UNL     1     -13.714  47.009 -25.999  1.00  0.00     0.014 C 
BRANCH  22  24
HETATM   24  C3  UNL     1     -15.044  45.626 -27.617  1.00  0.00    -0.019 C 
HETATM   25  C2  UNL     1     -15.454  44.564 -26.892  1.00  0.00    -0.083 C 
HETATM   26  C1  UNL     1     -14.768  44.031 -25.663  1.00  0.00     0.043 C 
BRANCH  25  27
HETATM   27  C25 UNL     1     -16.704  43.766 -27.295  1.00  0.00     0.013 C 
HETATM   28  C26 UNL     1     -16.440  43.037 -28.623  1.00  0.00     0.015 C 
BRANCH  27  29
HETATM   29  C27 UNL     1     -18.007  44.622 -27.326  1.00  0.00    -0.015 C 
HETATM   30  C28 UNL     1     -19.227  43.799 -27.759  1.00  0.00     0.010 C 
HETATM   31  C29 UNL     1     -18.299  45.256 -25.959  1.00  0.00     0.010 C 
ENDBRANCH  27  29
ENDBRANCH  25  27
ENDBRANCH  22  24
ENDBRANCH   1  22
BRANCH  15  32
HETATM   32  O1  UNL     1      -4.313  48.340 -32.448  1.00  0.00    -0.395 OA
HETATM   33  H28 UNL     1      -4.142  48.274 -33.404  1.00  0.00     0.210 HD
ENDBRANCH  15  32
TORSDOF 5
ENDMDL
MODEL 7
REMARK minimizedAffinity -7.4165864
REMARK CNNscore 0.375385374
REMARK CNNaffinity 6.04457855
REMARK  5 active torsions:
REMARK  status: ('A' for Active; 'I' for Inactive)
REMARK    1  A    between atoms: C2_2  and  C25_28 
REMARK    2  A    between atoms: C3_3  and  C4_4 
REMARK    3  A    between atoms: C4_4  and  C6_6 
REMARK    4  A    between atoms: C20_20  and  O1_21 
REMARK    5  A    between atoms: C25_28  and  C27_30 
ROOT
HETATM    1  C6  UNL     1      -7.669  46.584 -25.772  1.00  0.00     0.001 C 
HETATM    2  C7  UNL     1      -9.054  45.967 -25.387  1.00  0.00     0.006 C 
HETATM    3  C8  UNL     1      -9.753  45.562 -26.696  1.00  0.00     0.009 C 
HETATM    4  C9  UNL     1      -8.662  45.750 -27.738  1.00  0.00     0.036 C 
HETATM    5  C10 UNL     1      -7.880  47.010 -27.264  1.00  0.00    -0.033 C 
HETATM    6  C11 UNL     1      -8.673  48.342 -27.320  1.00  0.00     0.016 C 
HETATM    7  C12 UNL     1      -6.607  47.199 -28.126  1.00  0.00     0.010 C 
HETATM    8  C13 UNL     1      -6.390  46.184 -29.255  1.00  0.00     0.010 C 
HETATM    9  C14 UNL     1      -7.634  45.652 -29.998  1.00  0.00     0.039 C 
HETATM   10  C15 UNL     1      -8.998  45.738 -29.223  1.00  0.00     0.123 C 
HETATM   11  C16 UNL     1      -9.992  46.781 -29.694  1.00  0.00     0.014 C 
HETATM   12  C17 UNL     1     -10.239  46.752 -31.012  1.00  0.00     0.014 C 
HETATM   13  C18 UNL     1      -9.391  45.738 -31.734  1.00  0.00     0.124 C 
HETATM   14  C19 UNL     1      -9.695  45.609 -33.224  1.00  0.00     0.078 C 
HETATM   15  C20 UNL     1      -8.890  44.471 -33.869  1.00  0.00     0.121 C 
HETATM   16  C21 UNL     1      -7.611  44.082 -33.117  1.00  0.00     0.033 C 
HETATM   17  C22 UNL     1      -6.941  45.286 -32.460  1.00  0.00     0.015 C 
HETATM   18  C23 UNL     1      -7.867  46.072 -31.484  1.00  0.00     0.001 C 
HETATM   19  C24 UNL     1      -7.540  47.576 -31.694  1.00  0.00     0.019 C 
HETATM   20  O2  UNL     1      -9.704  44.436 -31.122  1.00  0.00    -0.223 OA
HETATM   21  O3  UNL     1      -9.676  44.515 -29.610  1.00  0.00    -0.224 OA
ENDROOT
BRANCH   1  22
HETATM   22  C4  UNL     1      -7.202  47.638 -24.731  1.00  0.00     0.009 C 
HETATM   23  C5  UNL     1      -8.149  48.826 -24.542  1.00  0.00     0.014 C 
BRANCH  22  24
HETATM   24  C3  UNL     1      -5.778  48.120 -24.957  1.00  0.00    -0.019 C 
HETATM   25  C2  UNL     1      -5.036  49.031 -24.292  1.00  0.00    -0.083 C 
HETATM   26  C1  UNL     1      -5.488  49.805 -23.082  1.00  0.00     0.043 C 
BRANCH  25  27
HETATM   27  C25 UNL     1      -3.611  49.379 -24.749  1.00  0.00     0.013 C 
HETATM   28  C26 UNL     1      -3.306  48.654 -26.071  1.00  0.00     0.015 C 
BRANCH  27  29
HETATM   29  C27 UNL     1      -2.526  49.125 -23.658  1.00  0.00    -0.015 C 
HETATM   30  C28 UNL     1      -2.268  50.372 -22.802  1.00  0.00     0.010 C 
HETATM   31  C29 UNL     1      -2.917  47.963 -22.734  1.00  0.00     0.010 C 
ENDBRANCH  27  29
ENDBRANCH  25  27
ENDBRANCH  22  24
ENDBRANCH   1  22
BRANCH  15  32
HETATM   32  O1  UNL     1      -8.535  44.868 -35.196  1.00  0.00    -0.395 OA
HETATM   33  H28 UNL     1      -9.358  44.935 -35.709  1.00  0.00     0.210 HD
ENDBRANCH  15  32
TORSDOF 5
ENDMDL
MODEL 8
REMARK minimizedAffinity -6.931355
REMARK CNNscore 0.34603861
REMARK CNNaffinity 5.79076529
REMARK  5 active torsions:
REMARK  status: ('A' for Active; 'I' for Inactive)
REMARK    1  A    between atoms: C2_2  and  C25_28 
REMARK    2  A    between atoms: C3_3  and  C4_4 
REMARK    3  A    between atoms: C4_4  and  C6_6 
REMARK    4  A    between atoms: C20_20  and  O1_21 
REMARK    5  A    between atoms: C25_28  and  C27_30 
ROOT
HETATM    1  C6  UNL     1       6.538  55.678  -5.876  1.00  0.00     0.001 C 
HETATM    2  C7  UNL     1       6.262  57.215  -5.963  1.00  0.00     0.006 C 
HETATM    3  C8  UNL     1       5.051  57.409  -6.890  1.00  0.00     0.009 C 
HETATM    4  C9  UNL     1       4.553  55.989  -7.106  1.00  0.00     0.036 C 
HETATM    5  C10 UNL     1       5.847  55.125  -7.168  1.00  0.00    -0.033 C 
HETATM    6  C11 UNL     1       6.757  55.384  -8.398  1.00  0.00     0.016 C 
HETATM    7  C12 UNL     1       5.481  53.621  -7.179  1.00  0.00     0.010 C 
HETATM    8  C13 UNL     1       3.985  53.283  -7.169  1.00  0.00     0.010 C 
HETATM    9  C14 UNL     1       3.028  54.215  -7.941  1.00  0.00     0.039 C 
HETATM   10  C15 UNL     1       3.535  55.680  -8.195  1.00  0.00     0.123 C 
HETATM   11  C16 UNL     1       3.944  56.031  -9.612  1.00  0.00     0.014 C 
HETATM   12  C17 UNL     1       3.029  55.718 -10.543  1.00  0.00     0.014 C 
HETATM   13  C18 UNL     1       1.839  55.001  -9.962  1.00  0.00     0.124 C 
HETATM   14  C19 UNL     1       0.734  54.697 -10.968  1.00  0.00     0.078 C 
HETATM   15  C20 UNL     1      -0.499  54.085 -10.287  1.00  0.00     0.121 C 
HETATM   16  C21 UNL     1      -0.219  53.404  -8.942  1.00  0.00     0.033 C 
HETATM   17  C22 UNL     1       1.150  52.729  -8.912  1.00  0.00     0.015 C 
HETATM   18  C23 UNL     1       2.336  53.686  -9.238  1.00  0.00     0.001 C 
HETATM   19  C24 UNL     1       3.331  52.864 -10.103  1.00  0.00     0.019 C 
HETATM   20  O2  UNL     1       1.264  55.912  -8.959  1.00  0.00    -0.223 OA
HETATM   21  O3  UNL     1       2.333  56.477  -8.047  1.00  0.00    -0.224 OA
ENDROOT
BRANCH   1  22
HETATM   22  C4  UNL     1       8.041  55.378  -5.619  1.00  0.00     0.009 C 
HETATM   23  C5  UNL     1       8.316  54.340  -4.529  1.00  0.00     0.014 C 
BRANCH  22  24
HETATM   24  C3  UNL     1       8.874  56.629  -5.391  1.00  0.00    -0.019 C 
HETATM   25  C2  UNL     1      10.195  56.780  -5.154  1.00  0.00    -0.083 C 
HETATM   26  C1  UNL     1      11.200  55.661  -5.082  1.00  0.00     0.043 C 
BRANCH  25  27
HETATM   27  C25 UNL     1      10.802  58.170  -4.910  1.00  0.00     0.013 C 
HETATM   28  C26 UNL     1      12.000  58.046  -3.953  1.00  0.00     0.015 C 
BRANCH  27  29
HETATM   29  C27 UNL     1       9.761  59.231  -4.437  1.00  0.00    -0.015 C 
HETATM   30  C28 UNL     1       9.962  59.617  -2.966  1.00  0.00     0.010 C 
HETATM   31  C29 UNL     1       9.822  60.503  -5.294  1.00  0.00     0.010 C 
ENDBRANCH  27  29
ENDBRANCH  25  27
ENDBRANCH  22  24
ENDBRANCH   1  22
BRANCH  15  32
HETATM   32  O1  UNL     1      -1.070  53.120 -11.174  1.00  0.00    -0.395 OA
HETATM   33  H28 UNL     1      -1.408  53.602 -11.949  1.00  0.00     0.210 HD
ENDBRANCH  15  32
TORSDOF 5
ENDMDL
MODEL 9
REMARK minimizedAffinity -7.07562733
REMARK CNNscore 0.330664337
REMARK CNNaffinity 6.53587675
REMARK  5 active torsions:
REMARK  status: ('A' for Active; 'I' for Inactive)
REMARK    1  A    between atoms: C2_2  and  C25_28 
REMARK    2  A    between atoms: C3_3  and  C4_4 
REMARK    3  A    between atoms: C4_4  and  C6_6 
REMARK    4  A    between atoms: C20_20  and  O1_21 
REMARK    5  A    between atoms: C25_28  and  C27_30 
ROOT
HETATM    1  C6  UNL     1      -2.591  52.664 -12.240  1.00  0.00     0.001 C 
HETATM    2  C7  UNL     1      -3.839  53.267 -11.515  1.00  0.00     0.006 C 
HETATM    3  C8  UNL     1      -3.326  54.028 -10.281  1.00  0.00     0.009 C 
HETATM    4  C9  UNL     1      -1.818  54.021 -10.476  1.00  0.00     0.036 C 
HETATM    5  C10 UNL     1      -1.511  52.630 -11.107  1.00  0.00    -0.033 C 
HETATM    6  C11 UNL     1      -1.765  51.413 -10.180  1.00  0.00     0.016 C 
HETATM    7  C12 UNL     1      -0.029  52.565 -11.552  1.00  0.00     0.010 C 
HETATM    8  C13 UNL     1       0.825  53.806 -11.264  1.00  0.00     0.010 C 
HETATM    9  C14 UNL     1       0.545  54.591  -9.965  1.00  0.00     0.039 C 
HETATM   10  C15 UNL     1      -0.886  54.418  -9.341  1.00  0.00     0.123 C 
HETATM   11  C16 UNL     1      -0.988  53.595  -8.071  1.00  0.00     0.014 C 
HETATM   12  C17 UNL     1      -0.131  53.961  -7.106  1.00  0.00     0.014 C 
HETATM   13  C18 UNL     1       0.802  55.057  -7.550  1.00  0.00     0.124 C 
HETATM   14  C19 UNL     1       1.740  55.566  -6.461  1.00  0.00     0.078 C 
HETATM   15  C20 UNL     1       2.569  56.765  -6.943  1.00  0.00     0.121 C 
HETATM   16  C21 UNL     1       2.729  56.866  -8.464  1.00  0.00     0.033 C 
HETATM   17  C22 UNL     1       2.817  55.494  -9.127  1.00  0.00     0.015 C 
HETATM   18  C23 UNL     1       1.606  54.563  -8.819  1.00  0.00     0.001 C 
HETATM   19  C24 UNL     1       2.192  53.135  -8.639  1.00  0.00     0.019 C 
HETATM   20  O2  UNL     1      -0.055  56.190  -7.937  1.00  0.00    -0.223 OA
HETATM   21  O3  UNL     1      -1.190  55.744  -8.836  1.00  0.00    -0.224 OA
ENDROOT
BRANCH   1  22
HETATM   22  C4  UNL     1      -2.947  51.358 -13.002  1.00  0.00     0.009 C 
HETATM   23  C5  UNL     1      -3.413  50.199 -12.117  1.00  0.00     0.014 C 
BRANCH  22  24
HETATM   24  C3  UNL     1      -1.855  50.899 -13.955  1.00  0.00    -0.019 C 
HETATM   25  C2  UNL     1      -1.903  50.578 -15.266  1.00  0.00    -0.083 C 
HETATM   26  C1  UNL     1      -3.134  50.631 -16.130  1.00  0.00     0.043 C 
BRANCH  25  27
HETATM   27  C25 UNL     1      -0.649  50.093 -16.009  1.00  0.00     0.013 C 
HETATM   28  C26 UNL     1       0.435  49.709 -14.988  1.00  0.00     0.015 C 
BRANCH  27  29
HETATM   29  C27 UNL     1      -0.133  51.099 -17.084  1.00  0.00    -0.015 C 
HETATM   30  C28 UNL     1       1.283  51.598 -16.773  1.00  0.00     0.010 C 
HETATM   31  C29 UNL     1      -0.141  50.477 -18.488  1.00  0.00     0.010 C 
ENDBRANCH  27  29
ENDBRANCH  25  27
ENDBRANCH  22  24
ENDBRANCH   1  22
BRANCH  15  32
HETATM   32  O1  UNL     1       3.870  56.678  -6.354  1.00  0.00    -0.395 OA
HETATM   33  H28 UNL     1       3.763  56.798  -5.395  1.00  0.00     0.210 HD
ENDBRANCH  15  32
TORSDOF 5
ENDMDL
