MODEL 1
REMARK minimizedAffinity -8.48754978
REMARK  13 active torsions:
REMARK  status: ('A' for Active; 'I' for Inactive)
REMARK    1  A    between atoms: C2_2  and  C3_3 
REMARK    2  A    between atoms: C3_3  and  C5_5 
REMARK    3  A    between atoms: C3_3  and  O3_18 
REMARK    4  A    between atoms: C5_5  and  C6_6 
REMARK    5  A    between atoms: C7_7  and  C8_8 
REMARK    6  A    between atoms: C12_12  and  C13_13 
REMARK    7  A    between atoms: C13_13  and  O1_16 
REMARK    8  A    between atoms: O3_18  and  C16_19 
REMARK    9  A    between atoms: C17_21  and  C18_22 
REMARK   10  A    between atoms: C18_22  and  O5_23 
REMARK   11  A    between atoms: C19_24  and  O6_25 
REMARK   12  A    between atoms: C20_26  and  O7_27 
REMARK   13  A    between atoms: C21_28  and  O8_29 
ROOT
HETATM    1  C3  UNL     1      -4.323   3.447  11.622  1.00  0.00     0.081 C 
HETATM    2  C4  UNL     1      -3.680   3.678  10.241  1.00  0.00     0.051 C 
ENDROOT
BRANCH   1   3
HETATM    3  C2  UNL     1      -4.707   1.975  11.724  1.00  0.00     0.001 C 
HETATM    4  C1  UNL     1      -5.771   1.344  11.203  1.00  0.00     0.010 C 
ENDBRANCH   1   3
BRANCH   1   5
HETATM    5  C5  UNL     1      -3.414   3.976  12.781  1.00  0.00     0.068 C 
BRANCH   5   6
HETATM    6  C6  UNL     1      -2.260   4.927  12.547  1.00  0.00    -0.024 C 
HETATM    7  C7  UNL     1      -0.972   4.651  12.275  1.00  0.00     0.006 C 
BRANCH   7   8
HETATM    8  C8  UNL     1       0.119   5.665  12.007  1.00  0.00     0.075 C 
HETATM    9  C9  UNL     1       0.961   5.858  13.274  1.00  0.00     0.050 C 
HETATM   10  C10 UNL     1      -0.465   6.984  11.498  1.00  0.00     0.044 C 
HETATM   11  C11 UNL     1       0.632   7.503  10.596  1.00  0.00     0.038 C 
HETATM   12  C12 UNL     1       1.142   6.217   9.959  1.00  0.00     0.156 C 
HETATM   13  O2  UNL     1       1.010   5.203  10.976  1.00  0.00    -0.368 OA
BRANCH  12  14
HETATM   14  C13 UNL     1       2.589   6.269   9.401  1.00  0.00     0.076 C 
HETATM   15  C14 UNL     1       3.618   6.026  10.510  1.00  0.00     0.048 C 
HETATM   16  C15 UNL     1       2.861   7.623   8.735  1.00  0.00     0.048 C 
BRANCH  14  17
HETATM   17  O1  UNL     1       2.792   5.274   8.386  1.00  0.00    -0.388 OA
HETATM   18  H25 UNL     1       2.778   4.396   8.800  1.00  0.00     0.210 HD
ENDBRANCH  14  17
ENDBRANCH  12  14
ENDBRANCH   7   8
ENDBRANCH   5   6
ENDBRANCH   1   5
BRANCH   1  19
HETATM   19  O3  UNL     1      -5.617   4.088  11.716  1.00  0.00    -0.344 OA
BRANCH  19  20
HETATM   20  C16 UNL     1      -6.074   4.491  13.011  1.00  0.00     0.293 C 
HETATM   21  O4  UNL     1      -6.023   5.917  13.075  1.00  0.00    -0.348 OA
HETATM   22  C17 UNL     1      -6.726   6.482  14.194  1.00  0.00     0.179 C 
HETATM   23  C19 UNL     1      -8.243   6.271  14.006  1.00  0.00     0.180 C 
HETATM   24  C20 UNL     1      -8.547   5.104  13.041  1.00  0.00     0.183 C 
HETATM   25  C21 UNL     1      -7.527   3.961  13.164  1.00  0.00     0.204 C 
BRANCH  22  26
HETATM   26  C18 UNL     1      -6.167   6.041  15.560  1.00  0.00     0.198 C 
BRANCH  26  27
HETATM   27  O5  UNL     1      -6.571   6.969  16.570  1.00  0.00    -0.398 OA
HETATM   28  H30 UNL     1      -6.127   6.702  17.394  1.00  0.00     0.209 HD
ENDBRANCH  26  27
ENDBRANCH  22  26
BRANCH  23  29
HETATM   29  O6  UNL     1      -8.914   6.098  15.255  1.00  0.00    -0.390 OA
HETATM   30  H32 UNL     1      -9.870   6.143  15.076  1.00  0.00     0.210 HD
ENDBRANCH  23  29
BRANCH  24  31
HETATM   31  O7  UNL     1      -8.596   5.586  11.693  1.00  0.00    -0.390 OA
HETATM   32  H34 UNL     1      -7.688   5.861  11.449  1.00  0.00     0.210 HD
ENDBRANCH  24  31
BRANCH  25  33
HETATM   33  O8  UNL     1      -7.677   3.298  14.430  1.00  0.00    -0.388 OA
HETATM   34  H36 UNL     1      -8.571   2.913  14.451  1.00  0.00     0.210 HD
ENDBRANCH  25  33
ENDBRANCH  19  20
ENDBRANCH   1  19
TORSDOF 13
ENDMDL
MODEL 2
REMARK minimizedAffinity -8.20191669
REMARK  13 active torsions:
REMARK  status: ('A' for Active; 'I' for Inactive)
REMARK    1  A    between atoms: C2_2  and  C3_3 
REMARK    2  A    between atoms: C3_3  and  C5_5 
REMARK    3  A    between atoms: C3_3  and  O3_18 
REMARK    4  A    between atoms: C5_5  and  C6_6 
REMARK    5  A    between atoms: C7_7  and  C8_8 
REMARK    6  A    between atoms: C12_12  and  C13_13 
REMARK    7  A    between atoms: C13_13  and  O1_16 
REMARK    8  A    between atoms: O3_18  and  C16_19 
REMARK    9  A    between atoms: C17_21  and  C18_22 
REMARK   10  A    between atoms: C18_22  and  O5_23 
REMARK   11  A    between atoms: C19_24  and  O6_25 
REMARK   12  A    between atoms: C20_26  and  O7_27 
REMARK   13  A    between atoms: C21_28  and  O8_29 
ROOT
HETATM    1  C3  UNL     1      -4.523   3.269  11.646  1.00  0.00     0.081 C 
HETATM    2  C4  UNL     1      -3.763   3.663  10.364  1.00  0.00     0.051 C 
ENDROOT
BRANCH   1   3
HETATM    3  C2  UNL     1      -4.906   1.797  11.534  1.00  0.00     0.001 C 
HETATM    4  C1  UNL     1      -6.076   1.258  11.161  1.00  0.00     0.010 C 
ENDBRANCH   1   3
BRANCH   1   5
HETATM    5  C5  UNL     1      -3.721   3.649  12.935  1.00  0.00     0.068 C 
BRANCH   5   6
HETATM    6  C6  UNL     1      -2.734   4.795  12.976  1.00  0.00    -0.024 C 
HETATM    7  C7  UNL     1      -2.929   6.074  13.344  1.00  0.00     0.006 C 
BRANCH   7   8
HETATM    8  C8  UNL     1      -1.874   7.157  13.401  1.00  0.00     0.075 C 
HETATM    9  C9  UNL     1      -1.386   7.321  14.844  1.00  0.00     0.050 C 
HETATM   10  C10 UNL     1      -2.398   8.471  12.818  1.00  0.00     0.044 C 
HETATM   11  C11 UNL     1      -1.149   9.097  12.242  1.00  0.00     0.038 C 
HETATM   12  C12 UNL     1      -0.415   7.879  11.699  1.00  0.00     0.156 C 
HETATM   13  O2  UNL     1      -0.728   6.802  12.606  1.00  0.00    -0.368 OA
BRANCH  12  14
HETATM   14  C13 UNL     1       1.118   8.037  11.522  1.00  0.00     0.076 C 
HETATM   15  C14 UNL     1       1.508   8.023  10.039  1.00  0.00     0.048 C 
HETATM   16  C15 UNL     1       1.864   6.919  12.260  1.00  0.00     0.048 C 
BRANCH  14  17
HETATM   17  O1  UNL     1       1.584   9.272  12.087  1.00  0.00    -0.388 OA
HETATM   18  H25 UNL     1       1.251  10.008  11.548  1.00  0.00     0.210 HD
ENDBRANCH  14  17
ENDBRANCH  12  14
ENDBRANCH   7   8
ENDBRANCH   5   6
ENDBRANCH   1   5
BRANCH   1  19
HETATM   19  O3  UNL     1      -5.824   3.900  11.704  1.00  0.00    -0.344 OA
BRANCH  19  20
HETATM   20  C16 UNL     1      -6.297   4.347  12.978  1.00  0.00     0.293 C 
HETATM   21  O4  UNL     1      -6.161   5.768  13.027  1.00  0.00    -0.348 OA
HETATM   22  C17 UNL     1      -6.864   6.389  14.116  1.00  0.00     0.179 C 
HETATM   23  C19 UNL     1      -8.385   6.268  13.881  1.00  0.00     0.180 C 
HETATM   24  C20 UNL     1      -8.727   5.109  12.920  1.00  0.00     0.183 C 
HETATM   25  C21 UNL     1      -7.784   3.908  13.089  1.00  0.00     0.204 C 
BRANCH  22  26
HETATM   26  C18 UNL     1      -6.377   5.933  15.505  1.00  0.00     0.198 C 
BRANCH  26  27
HETATM   27  O5  UNL     1      -7.411   5.195  16.162  1.00  0.00    -0.398 OA
HETATM   28  H30 UNL     1      -7.094   5.004  17.062  1.00  0.00     0.209 HD
ENDBRANCH  26  27
ENDBRANCH  22  26
BRANCH  23  29
HETATM   29  O6  UNL     1      -9.105   6.152  15.109  1.00  0.00    -0.390 OA
HETATM   30  H32 UNL     1     -10.051   6.252  14.898  1.00  0.00     0.210 HD
ENDBRANCH  23  29
BRANCH  24  31
HETATM   31  O7  UNL     1      -8.704   5.575  11.566  1.00  0.00    -0.390 OA
HETATM   32  H34 UNL     1      -7.774   5.792  11.348  1.00  0.00     0.210 HD
ENDBRANCH  24  31
BRANCH  25  33
HETATM   33  O8  UNL     1      -8.015   3.272  14.357  1.00  0.00    -0.388 OA
HETATM   34  H36 UNL     1      -8.931   2.942  14.352  1.00  0.00     0.210 HD
ENDBRANCH  25  33
ENDBRANCH  19  20
ENDBRANCH   1  19
TORSDOF 13
ENDMDL
MODEL 3
REMARK minimizedAffinity -8.17145061
REMARK  13 active torsions:
REMARK  status: ('A' for Active; 'I' for Inactive)
REMARK    1  A    between atoms: C2_2  and  C3_3 
REMARK    2  A    between atoms: C3_3  and  C5_5 
REMARK    3  A    between atoms: C3_3  and  O3_18 
REMARK    4  A    between atoms: C5_5  and  C6_6 
REMARK    5  A    between atoms: C7_7  and  C8_8 
REMARK    6  A    between atoms: C12_12  and  C13_13 
REMARK    7  A    between atoms: C13_13  and  O1_16 
REMARK    8  A    between atoms: O3_18  and  C16_19 
REMARK    9  A    between atoms: C17_21  and  C18_22 
REMARK   10  A    between atoms: C18_22  and  O5_23 
REMARK   11  A    between atoms: C19_24  and  O6_25 
REMARK   12  A    between atoms: C20_26  and  O7_27 
REMARK   13  A    between atoms: C21_28  and  O8_29 
ROOT
HETATM    1  C3  UNL     1      -4.050   6.288  13.621  1.00  0.00     0.081 C 
HETATM    2  C4  UNL     1      -3.762   6.222  15.134  1.00  0.00     0.051 C 
ENDROOT
BRANCH   1   3
HETATM    3  C2  UNL     1      -4.158   7.757  13.224  1.00  0.00     0.001 C 
HETATM    4  C1  UNL     1      -3.670   8.837  13.853  1.00  0.00     0.010 C 
ENDBRANCH   1   3
BRANCH   1   5
HETATM    5  C5  UNL     1      -3.016   5.452  12.796  1.00  0.00     0.068 C 
BRANCH   5   6
HETATM    6  C6  UNL     1      -1.641   5.973  12.441  1.00  0.00    -0.024 C 
HETATM    7  C7  UNL     1      -0.853   5.655  11.398  1.00  0.00     0.006 C 
BRANCH   7   8
HETATM    8  C8  UNL     1       0.500   6.257  11.086  1.00  0.00     0.075 C 
HETATM    9  C9  UNL     1       1.588   5.493  11.849  1.00  0.00     0.050 C 
HETATM   10  C10 UNL     1       0.523   7.755  11.396  1.00  0.00     0.044 C 
HETATM   11  C11 UNL     1       1.502   8.287  10.375  1.00  0.00     0.038 C 
HETATM   12  C12 UNL     1       1.178   7.429   9.160  1.00  0.00     0.156 C 
HETATM   13  O2  UNL     1       0.806   6.139   9.685  1.00  0.00    -0.368 OA
BRANCH  12  14
HETATM   14  C13 UNL     1       2.307   7.302   8.103  1.00  0.00     0.076 C 
HETATM   15  C14 UNL     1       3.184   8.559   8.076  1.00  0.00     0.048 C 
HETATM   16  C15 UNL     1       1.715   7.059   6.710  1.00  0.00     0.048 C 
BRANCH  14  17
HETATM   17  O1  UNL     1       3.157   6.179   8.380  1.00  0.00    -0.388 OA
HETATM   18  H25 UNL     1       3.668   6.363   9.184  1.00  0.00     0.210 HD
ENDBRANCH  14  17
ENDBRANCH  12  14
ENDBRANCH   7   8
ENDBRANCH   5   6
ENDBRANCH   1   5
BRANCH   1  19
HETATM   19  O3  UNL     1      -5.383   5.811  13.316  1.00  0.00    -0.344 OA
BRANCH  19  20
HETATM   20  C16 UNL     1      -6.404   5.996  14.301  1.00  0.00     0.293 C 
HETATM   21  O4  UNL     1      -6.913   7.324  14.166  1.00  0.00    -0.348 OA
HETATM   22  C17 UNL     1      -8.138   7.560  14.880  1.00  0.00     0.179 C 
HETATM   23  C19 UNL     1      -9.280   6.760  14.217  1.00  0.00     0.180 C 
HETATM   24  C20 UNL     1      -8.745   5.571  13.391  1.00  0.00     0.183 C 
HETATM   25  C21 UNL     1      -7.500   4.930  14.024  1.00  0.00     0.204 C 
BRANCH  22  26
HETATM   26  C18 UNL     1      -8.009   7.377  16.405  1.00  0.00     0.198 C 
BRANCH  26  27
HETATM   27  O5  UNL     1      -6.763   6.748  16.713  1.00  0.00    -0.398 OA
HETATM   28  H30 UNL     1      -6.762   6.575  17.670  1.00  0.00     0.209 HD
ENDBRANCH  26  27
ENDBRANCH  22  26
BRANCH  23  29
HETATM   29  O6  UNL     1     -10.253   6.332  15.172  1.00  0.00    -0.390 OA
HETATM   30  H32 UNL     1     -11.016   5.991  14.672  1.00  0.00     0.210 HD
ENDBRANCH  23  29
BRANCH  24  31
HETATM   31  O7  UNL     1      -8.463   5.994  12.052  1.00  0.00    -0.390 OA
HETATM   32  H34 UNL     1      -7.702   6.610  12.096  1.00  0.00     0.210 HD
ENDBRANCH  24  31
BRANCH  25  33
HETATM   33  O8  UNL     1      -7.854   4.260  15.245  1.00  0.00    -0.388 OA
HETATM   34  H36 UNL     1      -8.479   3.550  15.015  1.00  0.00     0.210 HD
ENDBRANCH  25  33
ENDBRANCH  19  20
ENDBRANCH   1  19
TORSDOF 13
ENDMDL
MODEL 4
REMARK minimizedAffinity -8.06324673
REMARK  13 active torsions:
REMARK  status: ('A' for Active; 'I' for Inactive)
REMARK    1  A    between atoms: C2_2  and  C3_3 
REMARK    2  A    between atoms: C3_3  and  C5_5 
REMARK    3  A    between atoms: C3_3  and  O3_18 
REMARK    4  A    between atoms: C5_5  and  C6_6 
REMARK    5  A    between atoms: C7_7  and  C8_8 
REMARK    6  A    between atoms: C12_12  and  C13_13 
REMARK    7  A    between atoms: C13_13  and  O1_16 
REMARK    8  A    between atoms: O3_18  and  C16_19 
REMARK    9  A    between atoms: C17_21  and  C18_22 
REMARK   10  A    between atoms: C18_22  and  O5_23 
REMARK   11  A    between atoms: C19_24  and  O6_25 
REMARK   12  A    between atoms: C20_26  and  O7_27 
REMARK   13  A    between atoms: C21_28  and  O8_29 
ROOT
HETATM    1  C3  UNL     1      -0.904   5.434  11.839  1.00  0.00     0.081 C 
HETATM    2  C4  UNL     1       0.169   5.253  12.931  1.00  0.00     0.051 C 
ENDROOT
BRANCH   1   3
HETATM    3  C2  UNL     1      -1.425   4.053  11.455  1.00  0.00     0.001 C 
HETATM    4  C1  UNL     1      -2.429   3.733  10.625  1.00  0.00     0.010 C 
ENDBRANCH   1   3
BRANCH   1   5
HETATM    5  C5  UNL     1      -2.003   6.461  12.271  1.00  0.00     0.068 C 
BRANCH   5   6
HETATM    6  C6  UNL     1      -3.139   6.100  13.202  1.00  0.00    -0.024 C 
HETATM    7  C7  UNL     1      -4.405   6.553  13.216  1.00  0.00     0.006 C 
BRANCH   7   8
HETATM    8  C8  UNL     1      -5.502   6.107  14.158  1.00  0.00     0.075 C 
HETATM    9  C9  UNL     1      -4.979   6.129  15.599  1.00  0.00     0.050 C 
HETATM   10  C10 UNL     1      -6.044   4.732  13.763  1.00  0.00     0.044 C 
HETATM   11  C11 UNL     1      -7.488   4.809  14.203  1.00  0.00     0.038 C 
HETATM   12  C12 UNL     1      -7.835   6.254  13.873  1.00  0.00     0.156 C 
HETATM   13  O2  UNL     1      -6.625   7.006  14.103  1.00  0.00    -0.368 OA
BRANCH  12  14
HETATM   14  C13 UNL     1      -9.030   6.858  14.658  1.00  0.00     0.076 C 
HETATM   15  C14 UNL     1     -10.293   6.906  13.791  1.00  0.00     0.048 C 
HETATM   16  C15 UNL     1      -8.692   8.270  15.150  1.00  0.00     0.048 C 
BRANCH  14  17
HETATM   17  O1  UNL     1      -9.330   6.084  15.829  1.00  0.00    -0.388 OA
HETATM   18  H25 UNL     1      -9.694   5.228  15.554  1.00  0.00     0.210 HD
ENDBRANCH  14  17
ENDBRANCH  12  14
ENDBRANCH   7   8
ENDBRANCH   5   6
ENDBRANCH   1   5
BRANCH   1  19
HETATM   19  O3  UNL     1      -0.318   5.876  10.591  1.00  0.00    -0.344 OA
BRANCH  19  20
HETATM   20  C16 UNL     1       1.043   6.318  10.608  1.00  0.00     0.293 C 
HETATM   21  O4  UNL     1       1.729   5.678   9.531  1.00  0.00    -0.348 OA
HETATM   22  C17 UNL     1       3.017   6.243   9.235  1.00  0.00     0.179 C 
HETATM   23  C19 UNL     1       2.834   7.655   8.642  1.00  0.00     0.180 C 
HETATM   24  C20 UNL     1       1.470   8.268   9.025  1.00  0.00     0.183 C 
HETATM   25  C21 UNL     1       1.020   7.862  10.437  1.00  0.00     0.204 C 
BRANCH  22  26
HETATM   26  C18 UNL     1       4.016   6.147  10.405  1.00  0.00     0.198 C 
BRANCH  26  27
HETATM   27  O5  UNL     1       4.948   5.091  10.159  1.00  0.00    -0.398 OA
HETATM   28  H30 UNL     1       5.501   5.011  10.956  1.00  0.00     0.209 HD
ENDBRANCH  26  27
ENDBRANCH  22  26
BRANCH  23  29
HETATM   29  O6  UNL     1       3.910   8.525   8.998  1.00  0.00    -0.390 OA
HETATM   30  H32 UNL     1       3.819   9.331   8.458  1.00  0.00     0.210 HD
ENDBRANCH  23  29
BRANCH  24  31
HETATM   31  O7  UNL     1       0.479   7.895   8.060  1.00  0.00    -0.390 OA
HETATM   32  H34 UNL     1       0.335   6.930   8.148  1.00  0.00     0.210 HD
ENDBRANCH  24  31
BRANCH  25  33
HETATM   33  O8  UNL     1       1.867   8.478  11.422  1.00  0.00    -0.388 OA
HETATM   34  H36 UNL     1       1.761   9.442  11.333  1.00  0.00     0.210 HD
ENDBRANCH  25  33
ENDBRANCH  19  20
ENDBRANCH   1  19
TORSDOF 13
ENDMDL
MODEL 5
REMARK minimizedAffinity -7.72804165
REMARK  13 active torsions:
REMARK  status: ('A' for Active; 'I' for Inactive)
REMARK    1  A    between atoms: C2_2  and  C3_3 
REMARK    2  A    between atoms: C3_3  and  C5_5 
REMARK    3  A    between atoms: C3_3  and  O3_18 
REMARK    4  A    between atoms: C5_5  and  C6_6 
REMARK    5  A    between atoms: C7_7  and  C8_8 
REMARK    6  A    between atoms: C12_12  and  C13_13 
REMARK    7  A    between atoms: C13_13  and  O1_16 
REMARK    8  A    between atoms: O3_18  and  C16_19 
REMARK    9  A    between atoms: C17_21  and  C18_22 
REMARK   10  A    between atoms: C18_22  and  O5_23 
REMARK   11  A    between atoms: C19_24  and  O6_25 
REMARK   12  A    between atoms: C20_26  and  O7_27 
REMARK   13  A    between atoms: C21_28  and  O8_29 
ROOT
HETATM    1  C3  UNL     1       2.130   7.326   9.316  1.00  0.00     0.081 C 
HETATM    2  C4  UNL     1       2.475   5.842   9.546  1.00  0.00     0.051 C 
ENDROOT
BRANCH   1   3
HETATM    3  C2  UNL     1       2.466   7.671   7.869  1.00  0.00     0.001 C 
HETATM    4  C1  UNL     1       1.880   7.239   6.742  1.00  0.00     0.010 C 
ENDBRANCH   1   3
BRANCH   1   5
HETATM    5  C5  UNL     1       0.663   7.655   9.751  1.00  0.00     0.068 C 
BRANCH   5   6
HETATM    6  C6  UNL     1       0.084   7.211  11.077  1.00  0.00    -0.024 C 
HETATM    7  C7  UNL     1      -0.651   6.121  11.362  1.00  0.00     0.006 C 
BRANCH   7   8
HETATM    8  C8  UNL     1      -1.158   5.721  12.731  1.00  0.00     0.075 C 
HETATM    9  C9  UNL     1      -0.035   5.026  13.509  1.00  0.00     0.050 C 
HETATM   10  C10 UNL     1      -2.409   4.847  12.622  1.00  0.00     0.044 C 
HETATM   11  C11 UNL     1      -3.168   5.203  13.880  1.00  0.00     0.038 C 
HETATM   12  C12 UNL     1      -2.886   6.694  14.001  1.00  0.00     0.156 C 
HETATM   13  O2  UNL     1      -1.548   6.877  13.494  1.00  0.00    -0.368 OA
BRANCH  12  14
HETATM   14  C13 UNL     1      -3.036   7.297  15.423  1.00  0.00     0.076 C 
HETATM   15  C14 UNL     1      -4.092   8.407  15.443  1.00  0.00     0.048 C 
HETATM   16  C15 UNL     1      -1.695   7.854  15.915  1.00  0.00     0.048 C 
BRANCH  14  17
HETATM   17  O1  UNL     1      -3.431   6.297  16.375  1.00  0.00    -0.388 OA
HETATM   18  H25 UNL     1      -4.343   6.026  16.184  1.00  0.00     0.210 HD
ENDBRANCH  14  17
ENDBRANCH  12  14
ENDBRANCH   7   8
ENDBRANCH   5   6
ENDBRANCH   1   5
BRANCH   1  19
HETATM   19  O3  UNL     1       3.035   8.198  10.035  1.00  0.00    -0.344 OA
BRANCH  19  20
HETATM   20  C16 UNL     1       4.057   7.592  10.832  1.00  0.00     0.293 C 
HETATM   21  O4  UNL     1       5.283   7.655  10.101  1.00  0.00    -0.348 OA
HETATM   22  C17 UNL     1       6.451   7.361  10.885  1.00  0.00     0.179 C 
HETATM   23  C19 UNL     1       6.683   8.494  11.906  1.00  0.00     0.180 C 
HETATM   24  C20 UNL     1       5.390   9.289  12.187  1.00  0.00     0.183 C 
HETATM   25  C21 UNL     1       4.137   8.400  12.157  1.00  0.00     0.204 C 
BRANCH  22  26
HETATM   26  C18 UNL     1       6.457   5.937  11.473  1.00  0.00     0.198 C 
BRANCH  26  27
HETATM   27  O5  UNL     1       6.266   4.981  10.427  1.00  0.00    -0.398 OA
HETATM   28  H30 UNL     1       6.190   4.108  10.852  1.00  0.00     0.209 HD
ENDBRANCH  26  27
ENDBRANCH  22  26
BRANCH  23  29
HETATM   29  O6  UNL     1       7.265   8.007  13.117  1.00  0.00    -0.390 OA
HETATM   30  H32 UNL     1       7.538   8.785  13.637  1.00  0.00     0.210 HD
ENDBRANCH  23  29
BRANCH  24  31
HETATM   31  O7  UNL     1       5.262  10.362  11.248  1.00  0.00    -0.390 OA
HETATM   32  H34 UNL     1       5.105   9.961  10.368  1.00  0.00     0.210 HD
ENDBRANCH  24  31
BRANCH  25  33
HETATM   33  O8  UNL     1       4.140   7.503  13.280  1.00  0.00    -0.388 OA
HETATM   34  H36 UNL     1       4.108   8.047  14.087  1.00  0.00     0.210 HD
ENDBRANCH  25  33
ENDBRANCH  19  20
ENDBRANCH   1  19
TORSDOF 13
ENDMDL
MODEL 6
REMARK minimizedAffinity -7.6876874
REMARK  13 active torsions:
REMARK  status: ('A' for Active; 'I' for Inactive)
REMARK    1  A    between atoms: C2_2  and  C3_3 
REMARK    2  A    between atoms: C3_3  and  C5_5 
REMARK    3  A    between atoms: C3_3  and  O3_18 
REMARK    4  A    between atoms: C5_5  and  C6_6 
REMARK    5  A    between atoms: C7_7  and  C8_8 
REMARK    6  A    between atoms: C12_12  and  C13_13 
REMARK    7  A    between atoms: C13_13  and  O1_16 
REMARK    8  A    between atoms: O3_18  and  C16_19 
REMARK    9  A    between atoms: C17_21  and  C18_22 
REMARK   10  A    between atoms: C18_22  and  O5_23 
REMARK   11  A    between atoms: C19_24  and  O6_25 
REMARK   12  A    between atoms: C20_26  and  O7_27 
REMARK   13  A    between atoms: C21_28  and  O8_29 
ROOT
HETATM    1  C3  UNL     1      -4.501   3.373  11.696  1.00  0.00     0.081 C 
HETATM    2  C4  UNL     1      -3.699   3.593  10.399  1.00  0.00     0.051 C 
ENDROOT
BRANCH   1   3
HETATM    3  C2  UNL     1      -4.977   1.924  11.717  1.00  0.00     0.001 C 
HETATM    4  C1  UNL     1      -5.980   1.357  11.031  1.00  0.00     0.010 C 
ENDBRANCH   1   3
BRANCH   1   5
HETATM    5  C5  UNL     1      -3.696   3.824  12.960  1.00  0.00     0.068 C 
BRANCH   5   6
HETATM    6  C6  UNL     1      -2.762   5.015  12.952  1.00  0.00    -0.024 C 
HETATM    7  C7  UNL     1      -1.422   5.044  12.837  1.00  0.00     0.006 C 
BRANCH   7   8
HETATM    8  C8  UNL     1      -0.558   6.286  12.793  1.00  0.00     0.075 C 
HETATM    9  C9  UNL     1      -1.408   7.486  12.360  1.00  0.00     0.050 C 
HETATM   10  C10 UNL     1       0.656   6.082  11.884  1.00  0.00     0.044 C 
HETATM   11  C11 UNL     1       1.703   6.959  12.532  1.00  0.00     0.038 C 
HETATM   12  C12 UNL     1       1.401   6.758  14.011  1.00  0.00     0.156 C 
HETATM   13  O2  UNL     1      -0.029   6.593  14.096  1.00  0.00    -0.368 OA
BRANCH  12  14
HETATM   14  C13 UNL     1       1.895   7.883  14.959  1.00  0.00     0.076 C 
HETATM   15  C14 UNL     1       3.160   7.456  15.711  1.00  0.00     0.048 C 
HETATM   16  C15 UNL     1       0.800   8.256  15.966  1.00  0.00     0.048 C 
BRANCH  14  17
HETATM   17  O1  UNL     1       2.199   9.083  14.232  1.00  0.00    -0.388 OA
HETATM   18  H25 UNL     1       2.989   8.928  13.690  1.00  0.00     0.210 HD
ENDBRANCH  14  17
ENDBRANCH  12  14
ENDBRANCH   7   8
ENDBRANCH   5   6
ENDBRANCH   1   5
BRANCH   1  19
HETATM   19  O3  UNL     1      -5.760   4.087  11.667  1.00  0.00    -0.344 OA
BRANCH  19  20
HETATM   20  C16 UNL     1      -6.377   4.410  12.917  1.00  0.00     0.293 C 
HETATM   21  O4  UNL     1      -6.243   5.817  13.126  1.00  0.00    -0.348 OA
HETATM   22  C17 UNL     1      -7.067   6.336  14.183  1.00  0.00     0.179 C 
HETATM   23  C19 UNL     1      -8.549   6.262  13.762  1.00  0.00     0.180 C 
HETATM   24  C20 UNL     1      -8.781   5.211  12.655  1.00  0.00     0.183 C 
HETATM   25  C21 UNL     1      -7.868   3.985  12.810  1.00  0.00     0.204 C 
BRANCH  22  26
HETATM   26  C18 UNL     1      -6.747   5.735  15.566  1.00  0.00     0.198 C 
BRANCH  26  27
HETATM   27  O5  UNL     1      -7.853   4.952  16.020  1.00  0.00    -0.398 OA
HETATM   28  H30 UNL     1      -7.644   4.666  16.927  1.00  0.00     0.209 HD
ENDBRANCH  26  27
ENDBRANCH  22  26
BRANCH  23  29
HETATM   29  O6  UNL     1      -9.409   6.034  14.881  1.00  0.00    -0.390 OA
HETATM   30  H32 UNL     1     -10.323   6.169  14.573  1.00  0.00     0.210 HD
ENDBRANCH  23  29
BRANCH  24  31
HETATM   31  O7  UNL     1      -8.599   5.810  11.367  1.00  0.00    -0.390 OA
HETATM   32  H34 UNL     1      -7.649   6.034  11.283  1.00  0.00     0.210 HD
ENDBRANCH  24  31
BRANCH  25  33
HETATM   33  O8  UNL     1      -8.248   3.228  13.971  1.00  0.00    -0.388 OA
HETATM   34  H36 UNL     1      -9.158   2.914  13.827  1.00  0.00     0.210 HD
ENDBRANCH  25  33
ENDBRANCH  19  20
ENDBRANCH   1  19
TORSDOF 13
ENDMDL
MODEL 7
REMARK minimizedAffinity -7.62872124
REMARK  13 active torsions:
REMARK  status: ('A' for Active; 'I' for Inactive)
REMARK    1  A    between atoms: C2_2  and  C3_3 
REMARK    2  A    between atoms: C3_3  and  C5_5 
REMARK    3  A    between atoms: C3_3  and  O3_18 
REMARK    4  A    between atoms: C5_5  and  C6_6 
REMARK    5  A    between atoms: C7_7  and  C8_8 
REMARK    6  A    between atoms: C12_12  and  C13_13 
REMARK    7  A    between atoms: C13_13  and  O1_16 
REMARK    8  A    between atoms: O3_18  and  C16_19 
REMARK    9  A    between atoms: C17_21  and  C18_22 
REMARK   10  A    between atoms: C18_22  and  O5_23 
REMARK   11  A    between atoms: C19_24  and  O6_25 
REMARK   12  A    between atoms: C20_26  and  O7_27 
REMARK   13  A    between atoms: C21_28  and  O8_29 
ROOT
HETATM    1  C3  UNL     1       2.888   6.232   9.171  1.00  0.00     0.081 C 
HETATM    2  C4  UNL     1       3.344   4.786   9.444  1.00  0.00     0.051 C 
ENDROOT
BRANCH   1   3
HETATM    3  C2  UNL     1       2.630   6.372   7.675  1.00  0.00     0.001 C 
HETATM    4  C1  UNL     1       1.849   7.255   7.034  1.00  0.00     0.010 C 
ENDBRANCH   1   3
BRANCH   1   5
HETATM    5  C5  UNL     1       1.693   6.647  10.092  1.00  0.00     0.068 C 
BRANCH   5   6
HETATM    6  C6  UNL     1       0.824   5.637  10.809  1.00  0.00    -0.024 C 
HETATM    7  C7  UNL     1      -0.496   5.679  11.065  1.00  0.00     0.006 C 
BRANCH   7   8
HETATM    8  C8  UNL     1      -1.306   4.602  11.752  1.00  0.00     0.075 C 
HETATM    9  C9  UNL     1      -1.432   4.929  13.244  1.00  0.00     0.050 C 
HETATM   10  C10 UNL     1      -0.698   3.218  11.515  1.00  0.00     0.044 C 
HETATM   11  C11 UNL     1      -1.912   2.318  11.530  1.00  0.00     0.038 C 
HETATM   12  C12 UNL     1      -2.949   3.187  10.833  1.00  0.00     0.156 C 
HETATM   13  O2  UNL     1      -2.642   4.542  11.219  1.00  0.00    -0.368 OA
BRANCH  12  14
HETATM   14  C13 UNL     1      -4.432   2.840  11.132  1.00  0.00     0.076 C 
HETATM   15  C14 UNL     1      -5.337   3.223   9.956  1.00  0.00     0.048 C 
HETATM   16  C15 UNL     1      -4.907   3.557  12.401  1.00  0.00     0.048 C 
BRANCH  14  17
HETATM   17  O1  UNL     1      -4.600   1.435  11.377  1.00  0.00    -0.388 OA
HETATM   18  H25 UNL     1      -4.454   0.953  10.547  1.00  0.00     0.210 HD
ENDBRANCH  14  17
ENDBRANCH  12  14
ENDBRANCH   7   8
ENDBRANCH   5   6
ENDBRANCH   1   5
BRANCH   1  19
HETATM   19  O3  UNL     1       3.972   7.173   9.364  1.00  0.00    -0.344 OA
BRANCH  19  20
HETATM   20  C16 UNL     1       4.588   7.232  10.653  1.00  0.00     0.293 C 
HETATM   21  O4  UNL     1       5.999   7.088  10.476  1.00  0.00    -0.348 OA
HETATM   22  C17 UNL     1       6.775   7.422  11.638  1.00  0.00     0.179 C 
HETATM   23  C19 UNL     1       6.685   8.942  11.895  1.00  0.00     0.180 C 
HETATM   24  C20 UNL     1       5.432   9.563  11.242  1.00  0.00     0.183 C 
HETATM   25  C21 UNL     1       4.225   8.612  11.268  1.00  0.00     0.204 C 
BRANCH  22  26
HETATM   26  C18 UNL     1       6.474   6.532  12.859  1.00  0.00     0.198 C 
BRANCH  26  27
HETATM   27  O5  UNL     1       5.865   7.314  13.890  1.00  0.00    -0.398 OA
HETATM   28  H30 UNL     1       5.773   6.736  14.667  1.00  0.00     0.209 HD
ENDBRANCH  26  27
ENDBRANCH  22  26
BRANCH  23  29
HETATM   29  O6  UNL     1       6.749   9.249  13.289  1.00  0.00    -0.390 OA
HETATM   30  H32 UNL     1       6.859  10.214  13.365  1.00  0.00     0.210 HD
ENDBRANCH  23  29
BRANCH  24  31
HETATM   31  O7  UNL     1       5.728   9.957   9.897  1.00  0.00    -0.390 OA
HETATM   32  H34 UNL     1       5.880   9.138   9.380  1.00  0.00     0.210 HD
ENDBRANCH  24  31
BRANCH  25  33
HETATM   33  O8  UNL     1       3.758   8.442  12.616  1.00  0.00    -0.388 OA
HETATM   34  H36 UNL     1       3.465   9.315  12.934  1.00  0.00     0.210 HD
ENDBRANCH  25  33
ENDBRANCH  19  20
ENDBRANCH   1  19
TORSDOF 13
ENDMDL
MODEL 8
REMARK minimizedAffinity -7.61603594
REMARK  13 active torsions:
REMARK  status: ('A' for Active; 'I' for Inactive)
REMARK    1  A    between atoms: C2_2  and  C3_3 
REMARK    2  A    between atoms: C3_3  and  C5_5 
REMARK    3  A    between atoms: C3_3  and  O3_18 
REMARK    4  A    between atoms: C5_5  and  C6_6 
REMARK    5  A    between atoms: C7_7  and  C8_8 
REMARK    6  A    between atoms: C12_12  and  C13_13 
REMARK    7  A    between atoms: C13_13  and  O1_16 
REMARK    8  A    between atoms: O3_18  and  C16_19 
REMARK    9  A    between atoms: C17_21  and  C18_22 
REMARK   10  A    between atoms: C18_22  and  O5_23 
REMARK   11  A    between atoms: C19_24  and  O6_25 
REMARK   12  A    between atoms: C20_26  and  O7_27 
REMARK   13  A    between atoms: C21_28  and  O8_29 
ROOT
HETATM    1  C3  UNL     1       0.221   7.713  13.816  1.00  0.00     0.081 C 
HETATM    2  C4  UNL     1      -0.608   8.907  13.302  1.00  0.00     0.051 C 
ENDROOT
BRANCH   1   3
HETATM    3  C2  UNL     1       0.863   8.119  15.139  1.00  0.00     0.001 C 
HETATM    4  C1  UNL     1       0.407   8.970  16.070  1.00  0.00     0.010 C 
ENDBRANCH   1   3
BRANCH   1   5
HETATM    5  C5  UNL     1      -0.626   6.398  13.866  1.00  0.00     0.068 C 
BRANCH   5   6
HETATM    6  C6  UNL     1      -2.110   6.369  13.573  1.00  0.00    -0.024 C 
HETATM    7  C7  UNL     1      -3.148   6.463  14.423  1.00  0.00     0.006 C 
BRANCH   7   8
HETATM    8  C8  UNL     1      -4.613   6.471  14.045  1.00  0.00     0.075 C 
HETATM    9  C9  UNL     1      -4.922   7.725  13.219  1.00  0.00     0.050 C 
HETATM   10  C10 UNL     1      -5.504   6.363  15.284  1.00  0.00     0.044 C 
HETATM   11  C11 UNL     1      -6.712   5.624  14.757  1.00  0.00     0.038 C 
HETATM   12  C12 UNL     1      -6.073   4.642  13.784  1.00  0.00     0.156 C 
HETATM   13  O2  UNL     1      -4.939   5.335  13.223  1.00  0.00    -0.368 OA
BRANCH  12  14
HETATM   14  C13 UNL     1      -7.004   4.094  12.669  1.00  0.00     0.076 C 
HETATM   15  C14 UNL     1      -8.076   5.121  12.289  1.00  0.00     0.048 C 
HETATM   16  C15 UNL     1      -7.677   2.793  13.122  1.00  0.00     0.048 C 
BRANCH  14  17
HETATM   17  O1  UNL     1      -6.263   3.772  11.482  1.00  0.00    -0.388 OA
HETATM   18  H25 UNL     1      -5.945   4.595  11.079  1.00  0.00     0.210 HD
ENDBRANCH  14  17
ENDBRANCH  12  14
ENDBRANCH   7   8
ENDBRANCH   5   6
ENDBRANCH   1   5
BRANCH   1  19
HETATM   19  O3  UNL     1       1.387   7.484  12.990  1.00  0.00    -0.344 OA
BRANCH  19  20
HETATM   20  C16 UNL     1       1.183   7.228  11.598  1.00  0.00     0.293 C 
HETATM   21  O4  UNL     1       1.964   8.167  10.856  1.00  0.00    -0.348 OA
HETATM   22  C17 UNL     1       2.098   7.849   9.461  1.00  0.00     0.179 C 
HETATM   23  C19 UNL     1       2.969   6.585   9.304  1.00  0.00     0.180 C 
HETATM   24  C20 UNL     1       2.987   5.735  10.592  1.00  0.00     0.183 C 
HETATM   25  C21 UNL     1       1.641   5.766  11.334  1.00  0.00     0.204 C 
BRANCH  22  26
HETATM   26  C18 UNL     1       0.756   7.818   8.703  1.00  0.00     0.198 C 
BRANCH  26  27
HETATM   27  O5  UNL     1       0.149   9.112   8.743  1.00  0.00    -0.398 OA
HETATM   28  H30 UNL     1      -0.728   9.026   8.331  1.00  0.00     0.209 HD
ENDBRANCH  26  27
ENDBRANCH  22  26
BRANCH  23  29
HETATM   29  O6  UNL     1       2.575   5.805   8.174  1.00  0.00    -0.390 OA
HETATM   30  H32 UNL     1       3.263   5.129   8.037  1.00  0.00     0.210 HD
ENDBRANCH  23  29
BRANCH  24  31
HETATM   31  O7  UNL     1       4.042   6.176  11.454  1.00  0.00    -0.390 OA
HETATM   32  H34 UNL     1       3.805   7.073  11.769  1.00  0.00     0.210 HD
ENDBRANCH  24  31
BRANCH  25  33
HETATM   33  O8  UNL     1       0.641   5.067  10.575  1.00  0.00    -0.388 OA
HETATM   34  H36 UNL     1       0.928   4.139  10.502  1.00  0.00     0.210 HD
ENDBRANCH  25  33
ENDBRANCH  19  20
ENDBRANCH   1  19
TORSDOF 13
ENDMDL
MODEL 9
REMARK minimizedAffinity -7.56404591
REMARK  13 active torsions:
REMARK  status: ('A' for Active; 'I' for Inactive)
REMARK    1  A    between atoms: C2_2  and  C3_3 
REMARK    2  A    between atoms: C3_3  and  C5_5 
REMARK    3  A    between atoms: C3_3  and  O3_18 
REMARK    4  A    between atoms: C5_5  and  C6_6 
REMARK    5  A    between atoms: C7_7  and  C8_8 
REMARK    6  A    between atoms: C12_12  and  C13_13 
REMARK    7  A    between atoms: C13_13  and  O1_16 
REMARK    8  A    between atoms: O3_18  and  C16_19 
REMARK    9  A    between atoms: C17_21  and  C18_22 
REMARK   10  A    between atoms: C18_22  and  O5_23 
REMARK   11  A    between atoms: C19_24  and  O6_25 
REMARK   12  A    between atoms: C20_26  and  O7_27 
REMARK   13  A    between atoms: C21_28  and  O8_29 
ROOT
HETATM    1  C3  UNL     1      -0.770   5.230  11.765  1.00  0.00     0.081 C 
HETATM    2  C4  UNL     1      -0.279   4.588  13.078  1.00  0.00     0.051 C 
ENDROOT
BRANCH   1   3
HETATM    3  C2  UNL     1      -1.822   4.311  11.155  1.00  0.00     0.001 C 
HETATM    4  C1  UNL     1      -2.549   3.352  11.748  1.00  0.00     0.010 C 
ENDBRANCH   1   3
BRANCH   1   5
HETATM    5  C5  UNL     1      -1.226   6.711  11.979  1.00  0.00     0.068 C 
BRANCH   5   6
HETATM    6  C6  UNL     1      -2.327   7.097  12.943  1.00  0.00    -0.024 C 
HETATM    7  C7  UNL     1      -3.632   6.770  12.919  1.00  0.00     0.006 C 
BRANCH   7   8
HETATM    8  C8  UNL     1      -4.668   7.160  13.950  1.00  0.00     0.075 C 
HETATM    9  C9  UNL     1      -4.668   8.683  14.125  1.00  0.00     0.050 C 
HETATM   10  C10 UNL     1      -4.433   6.429  15.274  1.00  0.00     0.044 C 
HETATM   11  C11 UNL     1      -5.833   6.287  15.824  1.00  0.00     0.038 C 
HETATM   12  C12 UNL     1      -6.637   6.022  14.560  1.00  0.00     0.156 C 
HETATM   13  O2  UNL     1      -5.990   6.785  13.521  1.00  0.00    -0.368 OA
BRANCH  12  14
HETATM   14  C13 UNL     1      -8.151   6.354  14.640  1.00  0.00     0.076 C 
HETATM   15  C14 UNL     1      -8.859   6.027  13.320  1.00  0.00     0.048 C 
HETATM   16  C15 UNL     1      -8.360   7.833  14.983  1.00  0.00     0.048 C 
BRANCH  14  17
HETATM   17  O1  UNL     1      -8.795   5.604  15.681  1.00  0.00    -0.388 OA
HETATM   18  H25 UNL     1      -8.818   4.668  15.425  1.00  0.00     0.210 HD
ENDBRANCH  14  17
ENDBRANCH  12  14
ENDBRANCH   7   8
ENDBRANCH   5   6
ENDBRANCH   1   5
BRANCH   1  19
HETATM   19  O3  UNL     1       0.259   5.203  10.748  1.00  0.00    -0.344 OA
BRANCH  19  20
HETATM   20  C16 UNL     1       1.221   6.262  10.737  1.00  0.00     0.293 C 
HETATM   21  O4  UNL     1       2.137   6.039  11.811  1.00  0.00    -0.348 OA
HETATM   22  C17 UNL     1       3.325   6.845  11.748  1.00  0.00     0.179 C 
HETATM   23  C19 UNL     1       4.189   6.392  10.552  1.00  0.00     0.180 C 
HETATM   24  C20 UNL     1       3.355   5.648   9.488  1.00  0.00     0.183 C 
HETATM   25  C21 UNL     1       1.933   6.214   9.356  1.00  0.00     0.204 C 
BRANCH  22  26
HETATM   26  C18 UNL     1       3.048   8.359  11.820  1.00  0.00     0.198 C 
BRANCH  26  27
HETATM   27  O5  UNL     1       1.641   8.588  11.937  1.00  0.00    -0.398 OA
HETATM   28  H30 UNL     1       1.507   9.551  11.892  1.00  0.00     0.209 HD
ENDBRANCH  26  27
ENDBRANCH  22  26
BRANCH  23  29
HETATM   29  O6  UNL     1       4.911   7.483   9.975  1.00  0.00    -0.390 OA
HETATM   30  H32 UNL     1       5.555   7.102   9.351  1.00  0.00     0.210 HD
ENDBRANCH  23  29
BRANCH  24  31
HETATM   31  O7  UNL     1       3.309   4.249   9.794  1.00  0.00    -0.390 OA
HETATM   32  H34 UNL     1       2.785   4.148  10.616  1.00  0.00     0.210 HD
ENDBRANCH  24  31
BRANCH  25  33
HETATM   33  O8  UNL     1       1.975   7.530   8.780  1.00  0.00    -0.388 OA
HETATM   34  H36 UNL     1       2.353   7.443   7.886  1.00  0.00     0.210 HD
ENDBRANCH  25  33
ENDBRANCH  19  20
ENDBRANCH   1  19
TORSDOF 13
ENDMDL
