MODEL 1
REMARK minimizedAffinity -6.74599314
REMARK CNNscore 0.691547632
REMARK CNNaffinity 4.84516001
REMARK  12 active torsions:
REMARK  status: ('A' for Active; 'I' for Inactive)
REMARK    1  A    between atoms: C2_2  and  O1_3 
REMARK    2  A    between atoms: C2_2  and  C3_4 
REMARK    3  A    between atoms: C4_5  and  C5_6 
REMARK    4  A    between atoms: C5_6  and  O2_7 
REMARK    5  A    between atoms: C8_10  and  O3_11 
REMARK    6  A    between atoms: O3_11  and  C9_12 
REMARK    7  A    between atoms: C10_14  and  C11_15 
REMARK    8  A    between atoms: C11_15  and  O5_16 
REMARK    9  A    between atoms: C12_17  and  O6_18 
REMARK   10  A    between atoms: C13_19  and  O7_20 
REMARK   11  A    between atoms: C14_21  and  O8_22 
REMARK   12  A    between atoms: C15_23  and  O9_24 
ROOT
HETATM    1  C5  UNL     1      -1.514  50.534 -20.647  1.00  0.00     0.088 C 
HETATM    2  C6  UNL     1      -0.601  50.867 -19.401  1.00  0.00     0.052 C 
HETATM    3  C7  UNL     1      -0.555  52.386 -19.132  1.00  0.00     0.016 C 
HETATM    4  C8  UNL     1      -0.985  50.052 -18.132  1.00  0.00     0.160 C 
HETATM    5  C15 UNL     1      -2.473  49.695 -18.136  1.00  0.00     0.148 C 
HETATM    6  C16 UNL     1      -2.820  48.768 -19.308  1.00  0.00     0.046 C 
HETATM    7  C17 UNL     1      -2.040  49.048 -20.630  1.00  0.00    -0.010 C 
HETATM    8  C18 UNL     1      -0.877  48.033 -20.772  1.00  0.00     0.018 C 
HETATM    9  C19 UNL     1      -3.004  48.746 -21.810  1.00  0.00     0.018 C 
ENDROOT
BRANCH   4  10
HETATM   10  O3  UNL     1      -0.684  50.727 -16.897  1.00  0.00    -0.350 OA
BRANCH  10  11
HETATM   11  C9  UNL     1      -0.067  49.884 -15.920  1.00  0.00     0.292 C 
HETATM   12  O4  UNL     1      -0.991  49.501 -14.906  1.00  0.00    -0.348 OA
HETATM   13  C10 UNL     1      -1.143  50.411 -13.814  1.00  0.00     0.179 C 
HETATM   14  C12 UNL     1      -0.633  51.837 -14.080  1.00  0.00     0.180 C 
HETATM   15  C13 UNL     1       0.839  51.810 -14.520  1.00  0.00     0.183 C 
HETATM   16  C14 UNL     1       1.193  50.572 -15.356  1.00  0.00     0.204 C 
BRANCH  13  17
HETATM   17  C11 UNL     1      -2.631  50.410 -13.433  1.00  0.00     0.198 C 
BRANCH  17  18
HETATM   18  O5  UNL     1      -3.340  49.337 -14.044  1.00  0.00    -0.398 OA
HETATM   19  H18 UNL     1      -3.420  49.553 -14.991  1.00  0.00     0.209 HD
ENDBRANCH  17  18
ENDBRANCH  13  17
BRANCH  14  20
HETATM   20  O6  UNL     1      -0.739  52.655 -12.904  1.00  0.00    -0.390 OA
HETATM   21  H20 UNL     1      -1.679  52.631 -12.628  1.00  0.00     0.210 HD
ENDBRANCH  14  20
BRANCH  15  22
HETATM   22  O7  UNL     1       1.109  53.004 -15.277  1.00  0.00    -0.390 OA
HETATM   23  H22 UNL     1       2.062  53.172 -15.202  1.00  0.00     0.210 HD
ENDBRANCH  15  22
BRANCH  16  24
HETATM   24  O8  UNL     1       1.942  49.665 -14.529  1.00  0.00    -0.388 OA
HETATM   25  H24 UNL     1       2.145  48.877 -15.061  1.00  0.00     0.210 HD
ENDBRANCH  16  24
ENDBRANCH  10  11
ENDBRANCH   4  10
BRANCH   5  26
HETATM   26  O9  UNL     1      -2.829  49.027 -16.924  1.00  0.00    -0.393 OA
HETATM   27  H26 UNL     1      -2.548  49.631 -16.208  1.00  0.00     0.210 HD
ENDBRANCH   5  26
BRANCH   1  28
HETATM   28  C4  UNL     1      -0.879  50.904 -21.981  1.00  0.00     0.010 C 
HETATM   29  C3  UNL     1      -1.314  51.784 -22.900  1.00  0.00     0.003 C 
BRANCH  29  30
HETATM   30  C2  UNL     1      -0.689  52.107 -24.229  1.00  0.00     0.136 C 
HETATM   31  C1  UNL     1       0.701  52.732 -24.193  1.00  0.00     0.043 C 
BRANCH  30  32
HETATM   32  O1  UNL     1      -0.626  50.875 -24.945  1.00  0.00    -0.392 OA
HETATM   33  H5  UNL     1      -0.190  51.055 -25.795  1.00  0.00     0.210 HD
ENDBRANCH  30  32
ENDBRANCH  29  30
ENDBRANCH   1  28
BRANCH   1  34
HETATM   34  O2  UNL     1      -2.639  51.436 -20.580  1.00  0.00    -0.385 OA
HETATM   35  H8  UNL     1      -3.468  50.940 -20.464  1.00  0.00     0.211 HD
ENDBRANCH   1  34
TORSDOF 12
ENDMDL
MODEL 2
REMARK minimizedAffinity -6.78500795
REMARK CNNscore 0.621586502
REMARK CNNaffinity 4.97574425
REMARK  12 active torsions:
REMARK  status: ('A' for Active; 'I' for Inactive)
REMARK    1  A    between atoms: C2_2  and  O1_3 
REMARK    2  A    between atoms: C2_2  and  C3_4 
REMARK    3  A    between atoms: C4_5  and  C5_6 
REMARK    4  A    between atoms: C5_6  and  O2_7 
REMARK    5  A    between atoms: C8_10  and  O3_11 
REMARK    6  A    between atoms: O3_11  and  C9_12 
REMARK    7  A    between atoms: C10_14  and  C11_15 
REMARK    8  A    between atoms: C11_15  and  O5_16 
REMARK    9  A    between atoms: C12_17  and  O6_18 
REMARK   10  A    between atoms: C13_19  and  O7_20 
REMARK   11  A    between atoms: C14_21  and  O8_22 
REMARK   12  A    between atoms: C15_23  and  O9_24 
ROOT
HETATM    1  C5  UNL     1      -2.062  51.076 -23.599  1.00  0.00     0.088 C 
HETATM    2  C6  UNL     1      -2.070  49.836 -22.620  1.00  0.00     0.052 C 
HETATM    3  C7  UNL     1      -1.545  50.226 -21.221  1.00  0.00     0.016 C 
HETATM    4  C8  UNL     1      -3.450  49.121 -22.556  1.00  0.00     0.160 C 
HETATM    5  C15 UNL     1      -4.591  50.100 -22.839  1.00  0.00     0.148 C 
HETATM    6  C16 UNL     1      -4.510  50.654 -24.266  1.00  0.00     0.046 C 
HETATM    7  C17 UNL     1      -3.065  50.901 -24.803  1.00  0.00    -0.010 C 
HETATM    8  C18 UNL     1      -2.645  49.728 -25.724  1.00  0.00     0.018 C 
HETATM    9  C19 UNL     1      -3.119  52.154 -25.718  1.00  0.00     0.018 C 
ENDROOT
BRANCH   4  10
HETATM   10  O3  UNL     1      -3.709  48.473 -21.297  1.00  0.00    -0.350 OA
BRANCH  10  11
HETATM   11  C9  UNL     1      -4.238  47.151 -21.433  1.00  0.00     0.292 C 
HETATM   12  O4  UNL     1      -5.610  47.099 -21.050  1.00  0.00    -0.348 OA
HETATM   13  C10 UNL     1      -5.869  46.905 -19.657  1.00  0.00     0.179 C 
HETATM   14  C12 UNL     1      -4.682  47.201 -18.727  1.00  0.00     0.180 C 
HETATM   15  C13 UNL     1      -3.455  46.372 -19.137  1.00  0.00     0.183 C 
HETATM   16  C14 UNL     1      -3.358  46.152 -20.654  1.00  0.00     0.204 C 
BRANCH  13  17
HETATM   17  C11 UNL     1      -7.089  47.768 -19.303  1.00  0.00     0.198 C 
BRANCH  17  18
HETATM   18  O5  UNL     1      -7.808  47.250 -18.191  1.00  0.00    -0.398 OA
HETATM   19  H18 UNL     1      -8.267  46.447 -18.498  1.00  0.00     0.209 HD
ENDBRANCH  17  18
ENDBRANCH  13  17
BRANCH  14  20
HETATM   20  O6  UNL     1      -5.002  46.891 -17.362  1.00  0.00    -0.390 OA
HETATM   21  H20 UNL     1      -5.802  47.408 -17.135  1.00  0.00     0.210 HD
ENDBRANCH  14  20
BRANCH  15  22
HETATM   22  O7  UNL     1      -2.274  47.045 -18.666  1.00  0.00    -0.390 OA
HETATM   23  H22 UNL     1      -1.586  46.367 -18.568  1.00  0.00     0.210 HD
ENDBRANCH  15  22
BRANCH  16  24
HETATM   24  O8  UNL     1      -3.747  44.798 -20.942  1.00  0.00    -0.388 OA
HETATM   25  H24 UNL     1      -3.702  44.675 -21.905  1.00  0.00     0.210 HD
ENDBRANCH  16  24
ENDBRANCH  10  11
ENDBRANCH   4  10
BRANCH   5  26
HETATM   26  O9  UNL     1      -5.855  49.451 -22.687  1.00  0.00    -0.393 OA
HETATM   27  H26 UNL     1      -5.842  49.075 -21.784  1.00  0.00     0.210 HD
ENDBRANCH   5  26
BRANCH   1  28
HETATM   28  C4  UNL     1      -0.667  51.473 -24.067  1.00  0.00     0.010 C 
HETATM   29  C3  UNL     1      -0.281  51.899 -25.282  1.00  0.00     0.003 C 
BRANCH  29  30
HETATM   30  C2  UNL     1       1.109  52.251 -25.732  1.00  0.00     0.136 C 
HETATM   31  C1  UNL     1       1.898  51.146 -26.427  1.00  0.00     0.043 C 
BRANCH  30  32
HETATM   32  O1  UNL     1       0.967  53.354 -26.626  1.00  0.00    -0.392 OA
HETATM   33  H5  UNL     1       1.853  53.574 -26.958  1.00  0.00     0.210 HD
ENDBRANCH  30  32
ENDBRANCH  29  30
ENDBRANCH   1  28
BRANCH   1  34
HETATM   34  O2  UNL     1      -2.460  52.219 -22.812  1.00  0.00    -0.385 OA
HETATM   35  H8  UNL     1      -3.297  52.588 -23.145  1.00  0.00     0.211 HD
ENDBRANCH   1  34
TORSDOF 12
ENDMDL
MODEL 3
REMARK minimizedAffinity -6.43638754
REMARK CNNscore 0.602018774
REMARK CNNaffinity 4.34760332
REMARK  12 active torsions:
REMARK  status: ('A' for Active; 'I' for Inactive)
REMARK    1  A    between atoms: C2_2  and  O1_3 
REMARK    2  A    between atoms: C2_2  and  C3_4 
REMARK    3  A    between atoms: C4_5  and  C5_6 
REMARK    4  A    between atoms: C5_6  and  O2_7 
REMARK    5  A    between atoms: C8_10  and  O3_11 
REMARK    6  A    between atoms: O3_11  and  C9_12 
REMARK    7  A    between atoms: C10_14  and  C11_15 
REMARK    8  A    between atoms: C11_15  and  O5_16 
REMARK    9  A    between atoms: C12_17  and  O6_18 
REMARK   10  A    between atoms: C13_19  and  O7_20 
REMARK   11  A    between atoms: C14_21  and  O8_22 
REMARK   12  A    between atoms: C15_23  and  O9_24 
ROOT
HETATM    1  C5  UNL     1      -1.195  51.199 -18.996  1.00  0.00     0.088 C 
HETATM    2  C6  UNL     1      -2.322  50.152 -18.636  1.00  0.00     0.052 C 
HETATM    3  C7  UNL     1      -3.118  50.595 -17.390  1.00  0.00     0.016 C 
HETATM    4  C8  UNL     1      -3.247  49.816 -19.842  1.00  0.00     0.160 C 
HETATM    5  C15 UNL     1      -3.338  50.997 -20.811  1.00  0.00     0.148 C 
HETATM    6  C16 UNL     1      -1.976  51.304 -21.445  1.00  0.00     0.046 C 
HETATM    7  C17 UNL     1      -0.746  51.107 -20.505  1.00  0.00    -0.010 C 
HETATM    8  C18 UNL     1      -0.068  49.747 -20.813  1.00  0.00     0.018 C 
HETATM    9  C19 UNL     1       0.302  52.191 -20.880  1.00  0.00     0.018 C 
ENDROOT
BRANCH   4  10
HETATM   10  O3  UNL     1      -4.583  49.440 -19.459  1.00  0.00    -0.350 OA
BRANCH  10  11
HETATM   11  C9  UNL     1      -4.965  48.142 -19.926  1.00  0.00     0.292 C 
HETATM   12  O4  UNL     1      -6.344  48.105 -20.283  1.00  0.00    -0.348 OA
HETATM   13  C10 UNL     1      -7.265  47.838 -19.221  1.00  0.00     0.179 C 
HETATM   14  C12 UNL     1      -6.703  48.048 -17.806  1.00  0.00     0.180 C 
HETATM   15  C13 UNL     1      -5.431  47.211 -17.600  1.00  0.00     0.183 C 
HETATM   16  C14 UNL     1      -4.588  47.077 -18.876  1.00  0.00     0.204 C 
BRANCH  13  17
HETATM   17  C11 UNL     1      -8.502  48.712 -19.470  1.00  0.00     0.198 C 
BRANCH  17  18
HETATM   18  O5  UNL     1      -9.612  47.951 -19.933  1.00  0.00    -0.398 OA
HETATM   19  H18 UNL     1      -9.416  47.692 -20.851  1.00  0.00     0.209 HD
ENDBRANCH  17  18
ENDBRANCH  13  17
BRANCH  14  20
HETATM   20  O6  UNL     1      -7.661  47.668 -16.806  1.00  0.00    -0.390 OA
HETATM   21  H20 UNL     1      -8.471  48.193 -16.976  1.00  0.00     0.210 HD
ENDBRANCH  14  20
BRANCH  15  22
HETATM   22  O7  UNL     1      -4.648  47.823 -16.560  1.00  0.00    -0.390 OA
HETATM   23  H22 UNL     1      -4.097  47.122 -16.175  1.00  0.00     0.210 HD
ENDBRANCH  15  22
BRANCH  16  24
HETATM   24  O8  UNL     1      -4.773  45.752 -19.406  1.00  0.00    -0.388 OA
HETATM   25  H24 UNL     1      -4.252  45.684 -20.223  1.00  0.00     0.210 HD
ENDBRANCH  16  24
ENDBRANCH  10  11
ENDBRANCH   4  10
BRANCH   5  26
HETATM   26  O9  UNL     1      -4.261  50.709 -21.864  1.00  0.00    -0.393 OA
HETATM   27  H26 UNL     1      -5.097  50.474 -21.412  1.00  0.00     0.210 HD
ENDBRANCH   5  26
BRANCH   1  28
HETATM   28  C4  UNL     1      -0.008  51.167 -18.041  1.00  0.00     0.010 C 
HETATM   29  C3  UNL     1       0.405  52.120 -17.188  1.00  0.00     0.003 C 
BRANCH  29  30
HETATM   30  C2  UNL     1       1.603  52.081 -16.279  1.00  0.00     0.136 C 
HETATM   31  C1  UNL     1       2.889  52.693 -16.823  1.00  0.00     0.043 C 
BRANCH  30  32
HETATM   32  O1  UNL     1       1.221  52.778 -15.094  1.00  0.00    -0.392 OA
HETATM   33  H5  UNL     1       1.995  52.797 -14.507  1.00  0.00     0.210 HD
ENDBRANCH  30  32
ENDBRANCH  29  30
ENDBRANCH   1  28
BRANCH   1  34
HETATM   34  O2  UNL     1      -1.757  52.505 -18.747  1.00  0.00    -0.385 OA
HETATM   35  H8  UNL     1      -1.808  53.018 -19.573  1.00  0.00     0.211 HD
ENDBRANCH   1  34
TORSDOF 12
ENDMDL
MODEL 4
REMARK minimizedAffinity -7.34938622
REMARK CNNscore 0.526330411
REMARK CNNaffinity 4.54203224
REMARK  12 active torsions:
REMARK  status: ('A' for Active; 'I' for Inactive)
REMARK    1  A    between atoms: C2_2  and  O1_3 
REMARK    2  A    between atoms: C2_2  and  C3_4 
REMARK    3  A    between atoms: C4_5  and  C5_6 
REMARK    4  A    between atoms: C5_6  and  O2_7 
REMARK    5  A    between atoms: C8_10  and  O3_11 
REMARK    6  A    between atoms: O3_11  and  C9_12 
REMARK    7  A    between atoms: C10_14  and  C11_15 
REMARK    8  A    between atoms: C11_15  and  O5_16 
REMARK    9  A    between atoms: C12_17  and  O6_18 
REMARK   10  A    between atoms: C13_19  and  O7_20 
REMARK   11  A    between atoms: C14_21  and  O8_22 
REMARK   12  A    between atoms: C15_23  and  O9_24 
ROOT
HETATM    1  C5  UNL     1      -2.126  50.925 -23.457  1.00  0.00     0.088 C 
HETATM    2  C6  UNL     1      -1.870  49.721 -22.465  1.00  0.00     0.052 C 
HETATM    3  C7  UNL     1      -0.778  50.073 -21.432  1.00  0.00     0.016 C 
HETATM    4  C8  UNL     1      -3.172  49.197 -21.796  1.00  0.00     0.160 C 
HETATM    5  C15 UNL     1      -4.213  50.312 -21.669  1.00  0.00     0.148 C 
HETATM    6  C16 UNL     1      -4.663  50.813 -23.046  1.00  0.00     0.046 C 
HETATM    7  C17 UNL     1      -3.547  50.853 -24.137  1.00  0.00    -0.010 C 
HETATM    8  C18 UNL     1      -3.674  49.612 -25.056  1.00  0.00     0.018 C 
HETATM    9  C19 UNL     1      -3.833  52.080 -25.046  1.00  0.00     0.018 C 
ENDROOT
BRANCH   4  10
HETATM   10  O3  UNL     1      -2.963  48.621 -20.493  1.00  0.00    -0.350 OA
BRANCH  10  11
HETATM   11  C9  UNL     1      -3.768  49.215 -19.470  1.00  0.00     0.292 C 
HETATM   12  O4  UNL     1      -3.114  50.335 -18.881  1.00  0.00    -0.348 OA
HETATM   13  C10 UNL     1      -2.215  50.048 -17.807  1.00  0.00     0.179 C 
HETATM   14  C12 UNL     1      -1.756  48.584 -17.716  1.00  0.00     0.180 C 
HETATM   15  C13 UNL     1      -2.967  47.643 -17.632  1.00  0.00     0.183 C 
HETATM   16  C14 UNL     1      -4.175  48.145 -18.437  1.00  0.00     0.204 C 
BRANCH  13  17
HETATM   17  C11 UNL     1      -1.020  51.003 -17.954  1.00  0.00     0.198 C 
BRANCH  17  18
HETATM   18  O5  UNL     1      -1.355  52.169 -18.697  1.00  0.00    -0.398 OA
HETATM   19  H18 UNL     1      -1.454  51.895 -19.627  1.00  0.00     0.209 HD
ENDBRANCH  17  18
ENDBRANCH  13  17
BRANCH  14  20
HETATM   20  O6  UNL     1      -0.933  48.368 -16.559  1.00  0.00    -0.390 OA
HETATM   21  H20 UNL     1      -0.186  48.998 -16.622  1.00  0.00     0.210 HD
ENDBRANCH  14  20
BRANCH  15  22
HETATM   22  O7  UNL     1      -2.569  46.345 -18.109  1.00  0.00    -0.390 OA
HETATM   23  H22 UNL     1      -3.167  45.700 -17.697  1.00  0.00     0.210 HD
ENDBRANCH  15  22
BRANCH  16  24
HETATM   24  O8  UNL     1      -5.148  48.669 -17.517  1.00  0.00    -0.388 OA
HETATM   25  H24 UNL     1      -5.899  49.002 -18.037  1.00  0.00     0.210 HD
ENDBRANCH  16  24
ENDBRANCH  10  11
ENDBRANCH   4  10
BRANCH   5  26
HETATM   26  O9  UNL     1      -5.368  49.839 -20.971  1.00  0.00    -0.393 OA
HETATM   27  H26 UNL     1      -5.027  49.488 -20.123  1.00  0.00     0.210 HD
ENDBRANCH   5  26
BRANCH   1  28
HETATM   28  C4  UNL     1      -1.012  51.121 -24.476  1.00  0.00     0.010 C 
HETATM   29  C3  UNL     1      -0.041  52.052 -24.488  1.00  0.00     0.003 C 
BRANCH  29  30
HETATM   30  C2  UNL     1       1.029  52.250 -25.525  1.00  0.00     0.136 C 
HETATM   31  C1  UNL     1       1.112  51.196 -26.624  1.00  0.00     0.043 C 
BRANCH  30  32
HETATM   32  O1  UNL     1       0.773  53.521 -26.118  1.00  0.00    -0.392 OA
HETATM   33  H5  UNL     1       1.433  53.653 -26.819  1.00  0.00     0.210 HD
ENDBRANCH  30  32
ENDBRANCH  29  30
ENDBRANCH   1  28
BRANCH   1  34
HETATM   34  O2  UNL     1      -2.038  52.130 -22.667  1.00  0.00    -0.385 OA
HETATM   35  H8  UNL     1      -2.892  52.598 -22.661  1.00  0.00     0.211 HD
ENDBRANCH   1  34
TORSDOF 12
ENDMDL
MODEL 5
REMARK minimizedAffinity -6.67668724
REMARK CNNscore 0.490344405
REMARK CNNaffinity 4.50428534
REMARK  12 active torsions:
REMARK  status: ('A' for Active; 'I' for Inactive)
REMARK    1  A    between atoms: C2_2  and  O1_3 
REMARK    2  A    between atoms: C2_2  and  C3_4 
REMARK    3  A    between atoms: C4_5  and  C5_6 
REMARK    4  A    between atoms: C5_6  and  O2_7 
REMARK    5  A    between atoms: C8_10  and  O3_11 
REMARK    6  A    between atoms: O3_11  and  C9_12 
REMARK    7  A    between atoms: C10_14  and  C11_15 
REMARK    8  A    between atoms: C11_15  and  O5_16 
REMARK    9  A    between atoms: C12_17  and  O6_18 
REMARK   10  A    between atoms: C13_19  and  O7_20 
REMARK   11  A    between atoms: C14_21  and  O8_22 
REMARK   12  A    between atoms: C15_23  and  O9_24 
ROOT
HETATM    1  C5  UNL     1      -1.603  51.218 -22.473  1.00  0.00     0.088 C 
HETATM    2  C6  UNL     1      -1.620  49.726 -21.952  1.00  0.00     0.052 C 
HETATM    3  C7  UNL     1      -1.699  49.674 -20.411  1.00  0.00     0.016 C 
HETATM    4  C8  UNL     1      -2.718  48.857 -22.632  1.00  0.00     0.160 C 
HETATM    5  C15 UNL     1      -3.910  49.715 -23.061  1.00  0.00     0.148 C 
HETATM    6  C16 UNL     1      -3.507  50.733 -24.134  1.00  0.00     0.046 C 
HETATM    7  C17 UNL     1      -2.077  51.339 -23.972  1.00  0.00    -0.010 C 
HETATM    8  C18 UNL     1      -1.097  50.624 -24.936  1.00  0.00     0.018 C 
HETATM    9  C19 UNL     1      -2.141  52.813 -24.458  1.00  0.00     0.018 C 
ENDROOT
BRANCH   4  10
HETATM   10  O3  UNL     1      -3.204  47.786 -21.802  1.00  0.00    -0.350 OA
BRANCH  10  11
HETATM   11  C9  UNL     1      -4.611  47.852 -21.552  1.00  0.00     0.292 C 
HETATM   12  O4  UNL     1      -4.890  48.544 -20.338  1.00  0.00    -0.348 OA
HETATM   13  C10 UNL     1      -4.860  47.760 -19.143  1.00  0.00     0.179 C 
HETATM   14  C12 UNL     1      -4.129  46.413 -19.267  1.00  0.00     0.180 C 
HETATM   15  C13 UNL     1      -4.729  45.578 -20.409  1.00  0.00     0.183 C 
HETATM   16  C14 UNL     1      -5.216  46.434 -21.588  1.00  0.00     0.204 C 
BRANCH  13  17
HETATM   17  C11 UNL     1      -4.236  48.637 -18.047  1.00  0.00     0.198 C 
BRANCH  17  18
HETATM   18  O5  UNL     1      -3.045  48.067 -17.517  1.00  0.00    -0.398 OA
HETATM   19  H18 UNL     1      -3.313  47.303 -16.974  1.00  0.00     0.209 HD
ENDBRANCH  17  18
ENDBRANCH  13  17
BRANCH  14  20
HETATM   20  O6  UNL     1      -4.228  45.654 -18.052  1.00  0.00    -0.390 OA
HETATM   21  H20 UNL     1      -3.868  46.219 -17.337  1.00  0.00     0.210 HD
ENDBRANCH  14  20
BRANCH  15  22
HETATM   22  O7  UNL     1      -3.731  44.646 -20.863  1.00  0.00    -0.390 OA
HETATM   23  H22 UNL     1      -4.207  43.901 -21.265  1.00  0.00     0.210 HD
ENDBRANCH  15  22
BRANCH  16  24
HETATM   24  O8  UNL     1      -6.652  46.491 -21.544  1.00  0.00    -0.388 OA
HETATM   25  H24 UNL     1      -6.949  47.051 -22.281  1.00  0.00     0.210 HD
ENDBRANCH  16  24
ENDBRANCH  10  11
ENDBRANCH   4  10
BRANCH   5  26
HETATM   26  O9  UNL     1      -4.947  48.892 -23.600  1.00  0.00    -0.393 OA
HETATM   27  H26 UNL     1      -5.138  48.232 -22.903  1.00  0.00     0.210 HD
ENDBRANCH   5  26
BRANCH   1  28
HETATM   28  C4  UNL     1      -0.280  51.932 -22.230  1.00  0.00     0.010 C 
HETATM   29  C3  UNL     1       0.048  52.773 -21.232  1.00  0.00     0.003 C 
BRANCH  29  30
HETATM   30  C2  UNL     1       1.350  53.495 -21.032  1.00  0.00     0.136 C 
HETATM   31  C1  UNL     1       1.722  54.532 -22.088  1.00  0.00     0.043 C 
BRANCH  30  32
HETATM   32  O1  UNL     1       1.253  54.139 -19.763  1.00  0.00    -0.392 OA
HETATM   33  H5  UNL     1       2.073  54.644 -19.630  1.00  0.00     0.210 HD
ENDBRANCH  30  32
ENDBRANCH  29  30
ENDBRANCH   1  28
BRANCH   1  34
HETATM   34  O2  UNL     1      -2.512  51.955 -21.627  1.00  0.00    -0.385 OA
HETATM   35  H8  UNL     1      -3.257  52.302 -22.148  1.00  0.00     0.211 HD
ENDBRANCH   1  34
TORSDOF 12
ENDMDL
MODEL 6
REMARK minimizedAffinity -7.3819232
REMARK CNNscore 0.44530952
REMARK CNNaffinity 4.94758797
REMARK  12 active torsions:
REMARK  status: ('A' for Active; 'I' for Inactive)
REMARK    1  A    between atoms: C2_2  and  O1_3 
REMARK    2  A    between atoms: C2_2  and  C3_4 
REMARK    3  A    between atoms: C4_5  and  C5_6 
REMARK    4  A    between atoms: C5_6  and  O2_7 
REMARK    5  A    between atoms: C8_10  and  O3_11 
REMARK    6  A    between atoms: O3_11  and  C9_12 
REMARK    7  A    between atoms: C10_14  and  C11_15 
REMARK    8  A    between atoms: C11_15  and  O5_16 
REMARK    9  A    between atoms: C12_17  and  O6_18 
REMARK   10  A    between atoms: C13_19  and  O7_20 
REMARK   11  A    between atoms: C14_21  and  O8_22 
REMARK   12  A    between atoms: C15_23  and  O9_24 
ROOT
HETATM    1  C5  UNL     1      -2.489  50.781 -25.405  1.00  0.00     0.088 C 
HETATM    2  C6  UNL     1      -2.183  50.335 -23.921  1.00  0.00     0.052 C 
HETATM    3  C7  UNL     1      -2.063  51.556 -22.984  1.00  0.00     0.016 C 
HETATM    4  C8  UNL     1      -3.189  49.274 -23.386  1.00  0.00     0.160 C 
HETATM    5  C15 UNL     1      -4.555  49.423 -24.059  1.00  0.00     0.148 C 
HETATM    6  C16 UNL     1      -4.468  49.146 -25.565  1.00  0.00     0.046 C 
HETATM    7  C17 UNL     1      -3.156  49.633 -26.256  1.00  0.00    -0.010 C 
HETATM    8  C18 UNL     1      -2.192  48.434 -26.445  1.00  0.00     0.018 C 
HETATM    9  C19 UNL     1      -3.533  50.098 -27.689  1.00  0.00     0.018 C 
ENDROOT
BRANCH   4  10
HETATM   10  O3  UNL     1      -3.378  49.323 -21.960  1.00  0.00    -0.350 OA
BRANCH  10  11
HETATM   11  C9  UNL     1      -4.320  50.315 -21.543  1.00  0.00     0.292 C 
HETATM   12  O4  UNL     1      -3.687  51.352 -20.799  1.00  0.00    -0.348 OA
HETATM   13  C10 UNL     1      -3.529  51.118 -19.397  1.00  0.00     0.179 C 
HETATM   14  C12 UNL     1      -3.666  49.650 -18.964  1.00  0.00     0.180 C 
HETATM   15  C13 UNL     1      -5.012  49.073 -19.428  1.00  0.00     0.183 C 
HETATM   16  C14 UNL     1      -5.478  49.646 -20.774  1.00  0.00     0.204 C 
BRANCH  13  17
HETATM   17  C11 UNL     1      -2.165  51.697 -18.997  1.00  0.00     0.198 C 
BRANCH  17  18
HETATM   18  O5  UNL     1      -1.261  50.688 -18.561  1.00  0.00    -0.398 OA
HETATM   19  H18 UNL     1      -1.568  50.389 -17.686  1.00  0.00     0.209 HD
ENDBRANCH  17  18
ENDBRANCH  13  17
BRANCH  14  20
HETATM   20  O6  UNL     1      -3.587  49.520 -17.535  1.00  0.00    -0.390 OA
HETATM   21  H20 UNL     1      -2.735  49.921 -17.262  1.00  0.00     0.210 HD
ENDBRANCH  14  20
BRANCH  15  22
HETATM   22  O7  UNL     1      -4.884  47.643 -19.525  1.00  0.00    -0.390 OA
HETATM   23  H22 UNL     1      -5.777  47.275 -19.422  1.00  0.00     0.210 HD
ENDBRANCH  15  22
BRANCH  16  24
HETATM   24  O8  UNL     1      -6.536  50.588 -20.525  1.00  0.00    -0.388 OA
HETATM   25  H24 UNL     1      -6.810  50.959 -21.380  1.00  0.00     0.210 HD
ENDBRANCH  16  24
ENDBRANCH  10  11
ENDBRANCH   4  10
BRANCH   5  26
HETATM   26  O9  UNL     1      -5.492  48.504 -23.493  1.00  0.00    -0.393 OA
HETATM   27  H26 UNL     1      -5.479  48.686 -22.532  1.00  0.00     0.210 HD
ENDBRANCH   5  26
BRANCH   1  28
HETATM   28  C4  UNL     1      -1.289  51.397 -26.114  1.00  0.00     0.010 C 
HETATM   29  C3  UNL     1       0.016  51.118 -25.949  1.00  0.00     0.003 C 
BRANCH  29  30
HETATM   30  C2  UNL     1       1.187  51.765 -26.634  1.00  0.00     0.136 C 
HETATM   31  C1  UNL     1       1.212  51.685 -28.157  1.00  0.00     0.043 C 
BRANCH  30  32
HETATM   32  O1  UNL     1       1.166  53.135 -26.240  1.00  0.00    -0.392 OA
HETATM   33  H5  UNL     1       1.895  53.581 -26.703  1.00  0.00     0.210 HD
ENDBRANCH  30  32
ENDBRANCH  29  30
ENDBRANCH   1  28
BRANCH   1  34
HETATM   34  O2  UNL     1      -3.401  51.897 -25.316  1.00  0.00    -0.385 OA
HETATM   35  H8  UNL     1      -4.253  51.675 -25.731  1.00  0.00     0.211 HD
ENDBRANCH   1  34
TORSDOF 12
ENDMDL
MODEL 7
REMARK minimizedAffinity -7.16767406
REMARK CNNscore 0.437369198
REMARK CNNaffinity 5.28786802
REMARK  12 active torsions:
REMARK  status: ('A' for Active; 'I' for Inactive)
REMARK    1  A    between atoms: C2_2  and  O1_3 
REMARK    2  A    between atoms: C2_2  and  C3_4 
REMARK    3  A    between atoms: C4_5  and  C5_6 
REMARK    4  A    between atoms: C5_6  and  O2_7 
REMARK    5  A    between atoms: C8_10  and  O3_11 
REMARK    6  A    between atoms: O3_11  and  C9_12 
REMARK    7  A    between atoms: C10_14  and  C11_15 
REMARK    8  A    between atoms: C11_15  and  O5_16 
REMARK    9  A    between atoms: C12_17  and  O6_18 
REMARK   10  A    between atoms: C13_19  and  O7_20 
REMARK   11  A    between atoms: C14_21  and  O8_22 
REMARK   12  A    between atoms: C15_23  and  O9_24 
ROOT
HETATM    1  C5  UNL     1       5.894  63.826 -35.000  1.00  0.00     0.088 C 
HETATM    2  C6  UNL     1       6.458  65.204 -35.530  1.00  0.00     0.052 C 
HETATM    3  C7  UNL     1       7.240  65.016 -36.848  1.00  0.00     0.016 C 
HETATM    4  C8  UNL     1       5.366  66.306 -35.640  1.00  0.00     0.160 C 
HETATM    5  C15 UNL     1       3.989  65.692 -35.904  1.00  0.00     0.148 C 
HETATM    6  C16 UNL     1       3.535  64.817 -34.731  1.00  0.00     0.046 C 
HETATM    7  C17 UNL     1       4.670  64.012 -34.023  1.00  0.00    -0.010 C 
HETATM    8  C18 UNL     1       5.089  64.739 -32.721  1.00  0.00     0.018 C 
HETATM    9  C19 UNL     1       4.062  62.656 -33.568  1.00  0.00     0.018 C 
ENDROOT
BRANCH   4  10
HETATM   10  O3  UNL     1       5.631  67.283 -36.663  1.00  0.00    -0.350 OA
BRANCH  10  11
HETATM   11  C9  UNL     1       5.106  66.925 -37.945  1.00  0.00     0.292 C 
HETATM   12  O4  UNL     1       6.142  66.812 -38.916  1.00  0.00    -0.348 OA
HETATM   13  C10 UNL     1       6.528  68.022 -39.573  1.00  0.00     0.179 C 
HETATM   14  C12 UNL     1       6.093  69.314 -38.861  1.00  0.00     0.180 C 
HETATM   15  C13 UNL     1       4.574  69.320 -38.633  1.00  0.00     0.183 C 
HETATM   16  C14 UNL     1       4.003  67.921 -38.356  1.00  0.00     0.204 C 
BRANCH  13  17
HETATM   17  C11 UNL     1       8.051  67.968 -39.756  1.00  0.00     0.198 C 
BRANCH  17  18
HETATM   18  O5  UNL     1       8.499  68.842 -40.786  1.00  0.00    -0.398 OA
HETATM   19  H18 UNL     1       8.224  68.447 -41.633  1.00  0.00     0.209 HD
ENDBRANCH  17  18
ENDBRANCH  13  17
BRANCH  14  20
HETATM   20  O6  UNL     1       6.438  70.474 -39.635  1.00  0.00    -0.390 OA
HETATM   21  H20 UNL     1       7.405  70.432 -39.791  1.00  0.00     0.210 HD
ENDBRANCH  14  20
BRANCH  15  22
HETATM   22  O7  UNL     1       4.283  70.193 -37.527  1.00  0.00    -0.390 OA
HETATM   23  H22 UNL     1       3.368  70.495 -37.642  1.00  0.00     0.210 HD
ENDBRANCH  15  22
BRANCH  16  24
HETATM   24  O8  UNL     1       3.321  67.466 -39.538  1.00  0.00    -0.388 OA
HETATM   25  H24 UNL     1       2.981  66.574 -39.360  1.00  0.00     0.210 HD
ENDBRANCH  16  24
ENDBRANCH  10  11
ENDBRANCH   4  10
BRANCH   5  26
HETATM   26  O9  UNL     1       3.013  66.719 -36.094  1.00  0.00    -0.393 OA
HETATM   27  H26 UNL     1       3.367  67.277 -36.816  1.00  0.00     0.210 HD
ENDBRANCH   5  26
BRANCH   1  28
HETATM   28  C4  UNL     1       6.965  62.916 -34.412  1.00  0.00     0.010 C 
HETATM   29  C3  UNL     1       8.264  63.185 -34.191  1.00  0.00     0.003 C 
BRANCH  29  30
HETATM   30  C2  UNL     1       9.312  62.258 -33.642  1.00  0.00     0.136 C 
HETATM   31  C1  UNL     1      10.484  62.910 -32.916  1.00  0.00     0.043 C 
BRANCH  30  32
HETATM   32  O1  UNL     1       8.634  61.385 -32.741  1.00  0.00    -0.392 OA
HETATM   33  H5  UNL     1       9.302  60.800 -32.345  1.00  0.00     0.210 HD
ENDBRANCH  30  32
ENDBRANCH  29  30
ENDBRANCH   1  28
BRANCH   1  34
HETATM   34  O2  UNL     1       5.465  63.087 -36.163  1.00  0.00    -0.385 OA
HETATM   35  H8  UNL     1       4.505  62.928 -36.132  1.00  0.00     0.211 HD
ENDBRANCH   1  34
TORSDOF 12
ENDMDL
MODEL 8
REMARK minimizedAffinity -7.95302105
REMARK CNNscore 0.430960298
REMARK CNNaffinity 4.50109243
REMARK  12 active torsions:
REMARK  status: ('A' for Active; 'I' for Inactive)
REMARK    1  A    between atoms: C2_2  and  O1_3 
REMARK    2  A    between atoms: C2_2  and  C3_4 
REMARK    3  A    between atoms: C4_5  and  C5_6 
REMARK    4  A    between atoms: C5_6  and  O2_7 
REMARK    5  A    between atoms: C8_10  and  O3_11 
REMARK    6  A    between atoms: O3_11  and  C9_12 
REMARK    7  A    between atoms: C10_14  and  C11_15 
REMARK    8  A    between atoms: C11_15  and  O5_16 
REMARK    9  A    between atoms: C12_17  and  O6_18 
REMARK   10  A    between atoms: C13_19  and  O7_20 
REMARK   11  A    between atoms: C14_21  and  O8_22 
REMARK   12  A    between atoms: C15_23  and  O9_24 
ROOT
HETATM    1  C5  UNL     1       2.910  67.834 -37.827  1.00  0.00     0.088 C 
HETATM    2  C6  UNL     1       3.109  67.059 -36.465  1.00  0.00     0.052 C 
HETATM    3  C7  UNL     1       1.963  66.053 -36.223  1.00  0.00     0.016 C 
HETATM    4  C8  UNL     1       4.513  66.400 -36.340  1.00  0.00     0.160 C 
HETATM    5  C15 UNL     1       5.074  66.037 -37.717  1.00  0.00     0.148 C 
HETATM    6  C16 UNL     1       5.312  67.290 -38.569  1.00  0.00     0.046 C 
HETATM    7  C17 UNL     1       4.259  68.428 -38.386  1.00  0.00    -0.010 C 
HETATM    8  C18 UNL     1       4.831  69.519 -37.446  1.00  0.00     0.018 C 
HETATM    9  C19 UNL     1       4.078  69.117 -39.767  1.00  0.00     0.018 C 
ENDROOT
BRANCH   4  10
HETATM   10  O3  UNL     1       4.526  65.218 -35.520  1.00  0.00    -0.350 OA
BRANCH  10  11
HETATM   11  C9  UNL     1       5.309  65.357 -34.330  1.00  0.00     0.292 C 
HETATM   12  O4  UNL     1       6.636  64.875 -34.523  1.00  0.00    -0.348 OA
HETATM   13  C10 UNL     1       6.834  63.473 -34.317  1.00  0.00     0.179 C 
HETATM   14  C12 UNL     1       5.552  62.625 -34.337  1.00  0.00     0.180 C 
HETATM   15  C13 UNL     1       4.539  63.153 -33.310  1.00  0.00     0.183 C 
HETATM   16  C14 UNL     1       4.589  64.679 -33.147  1.00  0.00     0.204 C 
BRANCH  13  17
HETATM   17  C11 UNL     1       7.837  63.001 -35.380  1.00  0.00     0.198 C 
BRANCH  17  18
HETATM   18  O5  UNL     1       8.270  61.665 -35.152  1.00  0.00    -0.398 OA
HETATM   19  H18 UNL     1       8.860  61.685 -34.377  1.00  0.00     0.209 HD
ENDBRANCH  17  18
ENDBRANCH  13  17
BRANCH  14  20
HETATM   20  O6  UNL     1       5.834  61.251 -34.030  1.00  0.00    -0.390 OA
HETATM   21  H20 UNL     1       6.502  60.948 -34.680  1.00  0.00     0.210 HD
ENDBRANCH  14  20
BRANCH  15  22
HETATM   22  O7  UNL     1       3.221  62.750 -33.723  1.00  0.00    -0.390 OA
HETATM   23  H22 UNL     1       2.672  62.726 -32.922  1.00  0.00     0.210 HD
ENDBRANCH  15  22
BRANCH  16  24
HETATM   24  O8  UNL     1       5.251  64.982 -31.907  1.00  0.00    -0.388 OA
HETATM   25  H24 UNL     1       5.295  65.949 -31.822  1.00  0.00     0.210 HD
ENDBRANCH  16  24
ENDBRANCH  10  11
ENDBRANCH   4  10
BRANCH   5  26
HETATM   26  O9  UNL     1       6.321  65.351 -37.582  1.00  0.00    -0.393 OA
HETATM   27  H26 UNL     1       6.131  64.591 -36.996  1.00  0.00     0.210 HD
ENDBRANCH   5  26
BRANCH   1  28
HETATM   28  C4  UNL     1       1.801  68.878 -37.776  1.00  0.00     0.010 C 
HETATM   29  C3  UNL     1       0.473  68.686 -37.681  1.00  0.00     0.003 C 
BRANCH  29  30
HETATM   30  C2  UNL     1      -0.606  69.732 -37.669  1.00  0.00     0.136 C 
HETATM   31  C1  UNL     1      -1.481  69.821 -38.916  1.00  0.00     0.043 C 
BRANCH  30  32
HETATM   32  O1  UNL     1      -1.430  69.435 -36.543  1.00  0.00    -0.392 OA
HETATM   33  H5  UNL     1      -2.158  70.079 -36.539  1.00  0.00     0.210 HD
ENDBRANCH  30  32
ENDBRANCH  29  30
ENDBRANCH   1  28
BRANCH   1  34
HETATM   34  O2  UNL     1       2.387  66.875 -38.770  1.00  0.00    -0.385 OA
HETATM   35  H8  UNL     1       3.010  66.744 -39.506  1.00  0.00     0.211 HD
ENDBRANCH   1  34
TORSDOF 12
ENDMDL
MODEL 9
REMARK minimizedAffinity -8.04332161
REMARK CNNscore 0.427842468
REMARK CNNaffinity 4.9564271
REMARK  12 active torsions:
REMARK  status: ('A' for Active; 'I' for Inactive)
REMARK    1  A    between atoms: C2_2  and  O1_3 
REMARK    2  A    between atoms: C2_2  and  C3_4 
REMARK    3  A    between atoms: C4_5  and  C5_6 
REMARK    4  A    between atoms: C5_6  and  O2_7 
REMARK    5  A    between atoms: C8_10  and  O3_11 
REMARK    6  A    between atoms: O3_11  and  C9_12 
REMARK    7  A    between atoms: C10_14  and  C11_15 
REMARK    8  A    between atoms: C11_15  and  O5_16 
REMARK    9  A    between atoms: C12_17  and  O6_18 
REMARK   10  A    between atoms: C13_19  and  O7_20 
REMARK   11  A    between atoms: C14_21  and  O8_22 
REMARK   12  A    between atoms: C15_23  and  O9_24 
ROOT
HETATM    1  C5  UNL     1      -1.299  51.751 -24.369  1.00  0.00     0.088 C 
HETATM    2  C6  UNL     1      -0.624  51.030 -23.136  1.00  0.00     0.052 C 
HETATM    3  C7  UNL     1       0.399  51.954 -22.440  1.00  0.00     0.016 C 
HETATM    4  C8  UNL     1      -1.659  50.434 -22.139  1.00  0.00     0.160 C 
HETATM    5  C15 UNL     1      -2.965  51.232 -22.159  1.00  0.00     0.148 C 
HETATM    6  C16 UNL     1      -3.652  51.141 -23.527  1.00  0.00     0.046 C 
HETATM    7  C17 UNL     1      -2.688  51.113 -24.755  1.00  0.00    -0.010 C 
HETATM    8  C18 UNL     1      -2.523  49.655 -25.253  1.00  0.00     0.018 C 
HETATM    9  C19 UNL     1      -3.391  51.874 -25.912  1.00  0.00     0.018 C 
ENDROOT
BRANCH   4  10
HETATM   10  O3  UNL     1      -1.186  50.373 -20.781  1.00  0.00    -0.350 OA
BRANCH  10  11
HETATM   11  C9  UNL     1      -1.870  51.266 -19.897  1.00  0.00     0.292 C 
HETATM   12  O4  UNL     1      -1.069  52.402 -19.586  1.00  0.00    -0.348 OA
HETATM   13  C10 UNL     1      -0.156  52.252 -18.495  1.00  0.00     0.179 C 
HETATM   14  C12 UNL     1       0.141  50.798 -18.092  1.00  0.00     0.180 C 
HETATM   15  C13 UNL     1      -1.162  50.048 -17.775  1.00  0.00     0.183 C 
HETATM   16  C14 UNL     1      -2.343  50.503 -18.644  1.00  0.00     0.204 C 
BRANCH  13  17
HETATM   17  C11 UNL     1       1.127  53.003 -18.877  1.00  0.00     0.198 C 
BRANCH  17  18
HETATM   18  O5  UNL     1       0.868  54.104 -19.739  1.00  0.00    -0.398 OA
HETATM   19  H18 UNL     1       0.636  53.734 -20.611  1.00  0.00     0.209 HD
ENDBRANCH  17  18
ENDBRANCH  13  17
BRANCH  14  20
HETATM   20  O6  UNL     1       0.989  50.743 -16.934  1.00  0.00    -0.390 OA
HETATM   21  H20 UNL     1       1.798  51.251 -17.153  1.00  0.00     0.210 HD
ENDBRANCH  14  20
BRANCH  15  22
HETATM   22  O7  UNL     1      -0.933  48.640 -17.960  1.00  0.00    -0.390 OA
HETATM   23  H22 UNL     1      -1.578  48.176 -17.403  1.00  0.00     0.210 HD
ENDBRANCH  15  22
BRANCH  16  24
HETATM   24  O8  UNL     1      -3.208  51.326 -17.841  1.00  0.00    -0.388 OA
HETATM   25  H24 UNL     1      -3.940  51.624 -18.405  1.00  0.00     0.210 HD
ENDBRANCH  16  24
ENDBRANCH  10  11
ENDBRANCH   4  10
BRANCH   5  26
HETATM   26  O9  UNL     1      -3.872  50.730 -21.175  1.00  0.00    -0.393 OA
HETATM   27  H26 UNL     1      -3.376  50.763 -20.332  1.00  0.00     0.210 HD
ENDBRANCH   5  26
BRANCH   1  28
HETATM   28  C4  UNL     1      -0.376  51.889 -25.573  1.00  0.00     0.010 C 
HETATM   29  C3  UNL     1       0.740  51.194 -25.857  1.00  0.00     0.003 C 
BRANCH  29  30
HETATM   30  C2  UNL     1       1.657  51.372 -27.035  1.00  0.00     0.136 C 
HETATM   31  C1  UNL     1       1.053  52.025 -28.274  1.00  0.00     0.043 C 
BRANCH  30  32
HETATM   32  O1  UNL     1       2.744  52.170 -26.572  1.00  0.00    -0.392 OA
HETATM   33  H5  UNL     1       3.332  52.328 -27.330  1.00  0.00     0.210 HD
ENDBRANCH  30  32
ENDBRANCH  29  30
ENDBRANCH   1  28
BRANCH   1  34
HETATM   34  O2  UNL     1      -1.501  53.126 -23.976  1.00  0.00    -0.385 OA
HETATM   35  H8  UNL     1      -2.450  53.340 -23.961  1.00  0.00     0.211 HD
ENDBRANCH   1  34
TORSDOF 12
ENDMDL
