MODEL 1
REMARK minimizedAffinity -9.28592587
REMARK CNNscore 0.569231749
REMARK CNNaffinity 7.39837456
REMARK  7 active torsions:
REMARK  status: ('A' for Active; 'I' for Inactive)
REMARK    1  A    between atoms: C2_2  and  C30_32 
REMARK    2  A    between atoms: C3_3  and  C4_4 
REMARK    3  A    between atoms: C4_4  and  O1_5 
REMARK    4  A    between atoms: C4_4  and  C5_6 
REMARK    5  A    between atoms: C5_6  and  C6_7 
REMARK    6  A    between atoms: C6_7  and  C8_9 
REMARK    7  A    between atoms: C30_32  and  O4_34 
ROOT
HETATM    1  C8  UNL     1      -5.308   5.319  14.349  1.00  0.00    -0.002 C 
HETATM    2  C9  UNL     1      -4.802   6.281  15.465  1.00  0.00     0.007 C 
HETATM    3  C10 UNL     1      -5.955   7.239  15.814  1.00  0.00     0.015 C 
HETATM    4  C11 UNL     1      -7.197   6.615  15.148  1.00  0.00    -0.013 C 
HETATM    5  C12 UNL     1      -7.719   5.529  16.139  1.00  0.00     0.021 C 
HETATM    6  C13 UNL     1      -8.383   7.521  14.850  1.00  0.00    -0.070 C 
HETATM    7  C14 UNL     1      -8.612   8.684  15.485  1.00  0.00    -0.022 C 
HETATM    8  C15 UNL     1      -9.849   9.490  15.224  1.00  0.00     0.034 C 
HETATM    9  C16 UNL     1     -11.032   8.526  15.054  1.00  0.00     0.013 C 
HETATM   10  C17 UNL     1     -12.441   9.193  15.130  1.00  0.00     0.018 C 
HETATM   11  C18 UNL     1     -12.830   9.434  16.605  1.00  0.00     0.023 C 
HETATM   12  C19 UNL     1     -12.523  10.547  14.402  1.00  0.00     0.023 C 
HETATM   13  C20 UNL     1     -13.493   8.231  14.559  1.00  0.00     0.135 C 
HETATM   14  O2  UNL     1     -14.587   8.628  14.153  1.00  0.00    -0.297 OA
HETATM   15  C21 UNL     1     -13.190   6.748  14.606  1.00  0.00     0.080 C 
HETATM   16  C22 UNL     1     -11.795   6.361  14.102  1.00  0.00     0.017 C 
HETATM   17  C23 UNL     1     -10.829   7.547  13.842  1.00  0.00    -0.031 C 
HETATM   18  C24 UNL     1     -11.204   8.178  12.473  1.00  0.00     0.016 C 
HETATM   19  C25 UNL     1      -9.301   7.101  13.699  1.00  0.00     0.024 C 
HETATM   20  C26 UNL     1      -9.088   5.640  13.233  1.00  0.00     0.010 C 
HETATM   21  C27 UNL     1      -7.619   5.181  13.086  1.00  0.00     0.011 C 
HETATM   22  C28 UNL     1      -6.579   6.063  13.812  1.00  0.00    -0.029 C 
HETATM   23  C29 UNL     1      -6.113   7.189  12.834  1.00  0.00     0.016 C 
ENDROOT
BRANCH   1  24
HETATM   24  C6  UNL     1      -4.167   4.908  13.365  1.00  0.00    -0.011 C 
HETATM   25  C7  UNL     1      -3.276   6.098  12.996  1.00  0.00     0.010 C 
BRANCH  24  26
HETATM   26  C5  UNL     1      -4.772   4.275  12.076  1.00  0.00     0.040 C 
BRANCH  26  27
HETATM   27  C4  UNL     1      -4.825   2.736  12.067  1.00  0.00     0.142 C 
BRANCH  27  28
HETATM   28  C3  UNL     1      -3.460   2.151  11.840  1.00  0.00     0.018 C 
HETATM   29  C2  UNL     1      -2.509   2.568  10.977  1.00  0.00     0.010 C 
HETATM   30  C1  UNL     1      -2.604   3.734  10.041  1.00  0.00     0.055 C 
BRANCH  29  31
HETATM   31  C30 UNL     1      -1.247   1.783  10.970  1.00  0.00     0.171 C 
HETATM   32  O3  UNL     1      -0.133   2.192  11.249  1.00  0.00    -0.646 OA
BRANCH  31  33
HETATM   33  O4  UNL     1      -1.442   0.503  10.619  1.00  0.00    -0.773 OA
HETATM   34  H46 UNL     1      -0.543   0.115  10.655  1.00  0.00     0.167 HD
ENDBRANCH  31  33
ENDBRANCH  29  31
ENDBRANCH  27  28
BRANCH  27  35
HETATM   35  O1  UNL     1      -5.666   2.284  11.012  1.00  0.00    -0.392 OA
HETATM   36  H6  UNL     1      -5.283   2.590  10.172  1.00  0.00     0.210 HD
ENDBRANCH  27  35
ENDBRANCH  26  27
ENDBRANCH  24  26
ENDBRANCH   1  24
TORSDOF 7
ENDMDL
MODEL 2
REMARK minimizedAffinity -7.55517864
REMARK CNNscore 0.529316366
REMARK CNNaffinity 6.69479895
REMARK  7 active torsions:
REMARK  status: ('A' for Active; 'I' for Inactive)
REMARK    1  A    between atoms: C2_2  and  C30_32 
REMARK    2  A    between atoms: C3_3  and  C4_4 
REMARK    3  A    between atoms: C4_4  and  O1_5 
REMARK    4  A    between atoms: C4_4  and  C5_6 
REMARK    5  A    between atoms: C5_6  and  C6_7 
REMARK    6  A    between atoms: C6_7  and  C8_9 
REMARK    7  A    between atoms: C30_32  and  O4_34 
ROOT
HETATM    1  C8  UNL     1      -9.265   7.139  13.935  1.00  0.00    -0.002 C 
HETATM    2  C9  UNL     1     -10.609   6.354  13.861  1.00  0.00     0.007 C 
HETATM    3  C10 UNL     1     -11.668   7.170  14.624  1.00  0.00     0.015 C 
HETATM    4  C11 UNL     1     -11.019   8.551  14.838  1.00  0.00    -0.013 C 
HETATM    5  C12 UNL     1     -11.264   9.351  13.520  1.00  0.00     0.021 C 
HETATM    6  C13 UNL     1     -11.546   9.425  15.967  1.00  0.00    -0.070 C 
HETATM    7  C14 UNL     1     -12.772   9.292  16.504  1.00  0.00    -0.022 C 
HETATM    8  C15 UNL     1     -13.278  10.243  17.547  1.00  0.00     0.034 C 
HETATM    9  C16 UNL     1     -12.808  11.659  17.184  1.00  0.00     0.013 C 
HETATM   10  C17 UNL     1     -13.532  12.810  17.952  1.00  0.00     0.018 C 
HETATM   11  C18 UNL     1     -14.910  13.085  17.310  1.00  0.00     0.023 C 
HETATM   12  C19 UNL     1     -13.770  12.503  19.442  1.00  0.00     0.023 C 
HETATM   13  C20 UNL     1     -12.723  14.107  17.810  1.00  0.00     0.135 C 
HETATM   14  O2  UNL     1     -12.849  15.043  18.601  1.00  0.00    -0.297 OA
HETATM   15  C21 UNL     1     -11.832  14.251  16.593  1.00  0.00     0.080 C 
HETATM   16  C22 UNL     1     -10.939  13.039  16.305  1.00  0.00     0.017 C 
HETATM   17  C23 UNL     1     -11.242  11.773  17.148  1.00  0.00    -0.031 C 
HETATM   18  C24 UNL     1     -10.607  11.969  18.552  1.00  0.00     0.016 C 
HETATM   19  C25 UNL     1     -10.571  10.445  16.563  1.00  0.00     0.024 C 
HETATM   20  C26 UNL     1      -9.308  10.678  15.700  1.00  0.00     0.010 C 
HETATM   21  C27 UNL     1      -8.639   9.411  15.120  1.00  0.00     0.011 C 
HETATM   22  C28 UNL     1      -9.524   8.145  15.108  1.00  0.00    -0.029 C 
HETATM   23  C29 UNL     1      -9.325   7.387  16.460  1.00  0.00     0.016 C 
ENDROOT
BRANCH   1  24
HETATM   24  C6  UNL     1      -8.029   6.186  13.980  1.00  0.00    -0.011 C 
HETATM   25  C7  UNL     1      -6.731   6.916  13.620  1.00  0.00     0.010 C 
BRANCH  24  26
HETATM   26  C5  UNL     1      -8.246   4.980  13.018  1.00  0.00     0.040 C 
BRANCH  26  27
HETATM   27  C4  UNL     1      -7.494   3.693  13.404  1.00  0.00     0.142 C 
BRANCH  27  28
HETATM   28  C3  UNL     1      -6.108   3.685  12.825  1.00  0.00     0.018 C 
HETATM   29  C2  UNL     1      -5.569   2.791  11.969  1.00  0.00     0.010 C 
HETATM   30  C1  UNL     1      -6.250   1.591  11.387  1.00  0.00     0.055 C 
BRANCH  29  31
HETATM   31  C30 UNL     1      -4.159   3.041  11.569  1.00  0.00     0.171 C 
HETATM   32  O3  UNL     1      -3.200   3.156  12.311  1.00  0.00    -0.646 OA
BRANCH  31  33
HETATM   33  O4  UNL     1      -4.012   3.124  10.237  1.00  0.00    -0.773 OA
HETATM   34  H46 UNL     1      -3.054   3.288  10.122  1.00  0.00     0.167 HD
ENDBRANCH  31  33
ENDBRANCH  29  31
ENDBRANCH  27  28
BRANCH  27  35
HETATM   35  O1  UNL     1      -8.179   2.556  12.891  1.00  0.00    -0.392 OA
HETATM   36  H6  UNL     1      -8.198   2.630  11.922  1.00  0.00     0.210 HD
ENDBRANCH  27  35
ENDBRANCH  26  27
ENDBRANCH  24  26
ENDBRANCH   1  24
TORSDOF 7
ENDMDL
MODEL 3
REMARK minimizedAffinity -8.05484486
REMARK CNNscore 0.447299331
REMARK CNNaffinity 6.68371439
REMARK  7 active torsions:
REMARK  status: ('A' for Active; 'I' for Inactive)
REMARK    1  A    between atoms: C2_2  and  C30_32 
REMARK    2  A    between atoms: C3_3  and  C4_4 
REMARK    3  A    between atoms: C4_4  and  O1_5 
REMARK    4  A    between atoms: C4_4  and  C5_6 
REMARK    5  A    between atoms: C5_6  and  C6_7 
REMARK    6  A    between atoms: C6_7  and  C8_9 
REMARK    7  A    between atoms: C30_32  and  O4_34 
ROOT
HETATM    1  C8  UNL     1      -9.778   7.686  15.057  1.00  0.00    -0.002 C 
HETATM    2  C9  UNL     1      -9.481   9.209  14.905  1.00  0.00     0.007 C 
HETATM    3  C10 UNL     1     -10.750   9.878  14.348  1.00  0.00     0.015 C 
HETATM    4  C11 UNL     1     -11.853   8.813  14.498  1.00  0.00    -0.013 C 
HETATM    5  C12 UNL     1     -12.365   8.927  15.968  1.00  0.00     0.021 C 
HETATM    6  C13 UNL     1     -13.085   8.925  13.612  1.00  0.00    -0.070 C 
HETATM    7  C14 UNL     1     -13.487  10.071  13.034  1.00  0.00    -0.022 C 
HETATM    8  C15 UNL     1     -14.763  10.148  12.250  1.00  0.00     0.034 C 
HETATM    9  C16 UNL     1     -15.825   9.298  12.964  1.00  0.00     0.013 C 
HETATM   10  C17 UNL     1     -17.292   9.547  12.493  1.00  0.00     0.018 C 
HETATM   11  C18 UNL     1     -17.849  10.826  13.155  1.00  0.00     0.023 C 
HETATM   12  C19 UNL     1     -17.430   9.717  10.968  1.00  0.00     0.023 C 
HETATM   13  C20 UNL     1     -18.184   8.392  12.970  1.00  0.00     0.135 C 
HETATM   14  O2  UNL     1     -19.265   8.139  12.434  1.00  0.00    -0.297 OA
HETATM   15  C21 UNL     1     -17.747   7.627  14.202  1.00  0.00     0.080 C 
HETATM   16  C22 UNL     1     -16.278   7.190  14.198  1.00  0.00     0.017 C 
HETATM   17  C23 UNL     1     -15.409   7.787  13.059  1.00  0.00    -0.031 C 
HETATM   18  C24 UNL     1     -15.703   6.985  11.762  1.00  0.00     0.016 C 
HETATM   19  C25 UNL     1     -13.838   7.626  13.309  1.00  0.00     0.024 C 
HETATM   20  C26 UNL     1     -13.441   6.446  14.228  1.00  0.00     0.010 C 
HETATM   21  C27 UNL     1     -11.927   6.267  14.488  1.00  0.00     0.011 C 
HETATM   22  C28 UNL     1     -11.054   7.500  14.166  1.00  0.00    -0.029 C 
HETATM   23  C29 UNL     1     -10.603   7.413  12.673  1.00  0.00     0.016 C 
ENDROOT
BRANCH   1  24
HETATM   24  C6  UNL     1      -8.510   6.812  14.801  1.00  0.00    -0.011 C 
HETATM   25  C7  UNL     1      -7.236   7.660  14.728  1.00  0.00     0.010 C 
BRANCH  24  26
HETATM   26  C5  UNL     1      -8.679   5.992  13.487  1.00  0.00     0.040 C 
BRANCH  26  27
HETATM   27  C4  UNL     1      -8.124   4.557  13.535  1.00  0.00     0.142 C 
BRANCH  27  28
HETATM   28  C3  UNL     1      -6.830   4.455  12.778  1.00  0.00     0.018 C 
HETATM   29  C2  UNL     1      -6.263   3.353  12.244  1.00  0.00     0.010 C 
HETATM   30  C1  UNL     1      -6.814   1.961  12.281  1.00  0.00     0.055 C 
BRANCH  29  31
HETATM   31  C30 UNL     1      -4.965   3.559  11.549  1.00  0.00     0.171 C 
HETATM   32  O3  UNL     1      -4.089   4.345  11.861  1.00  0.00    -0.646 OA
BRANCH  31  33
HETATM   33  O4  UNL     1      -4.819   2.751  10.488  1.00  0.00    -0.773 OA
HETATM   34  H46 UNL     1      -3.939   2.993  10.134  1.00  0.00     0.167 HD
ENDBRANCH  31  33
ENDBRANCH  29  31
ENDBRANCH  27  28
BRANCH  27  35
HETATM   35  O1  UNL     1      -9.045   3.657  12.932  1.00  0.00    -0.392 OA
HETATM   36  H6  UNL     1      -9.156   3.920  12.002  1.00  0.00     0.210 HD
ENDBRANCH  27  35
ENDBRANCH  26  27
ENDBRANCH  24  26
ENDBRANCH   1  24
TORSDOF 7
ENDMDL
MODEL 4
REMARK minimizedAffinity -7.25460482
REMARK CNNscore 0.408348083
REMARK CNNaffinity 6.24935532
REMARK  7 active torsions:
REMARK  status: ('A' for Active; 'I' for Inactive)
REMARK    1  A    between atoms: C2_2  and  C30_32 
REMARK    2  A    between atoms: C3_3  and  C4_4 
REMARK    3  A    between atoms: C4_4  and  O1_5 
REMARK    4  A    between atoms: C4_4  and  C5_6 
REMARK    5  A    between atoms: C5_6  and  C6_7 
REMARK    6  A    between atoms: C6_7  and  C8_9 
REMARK    7  A    between atoms: C30_32  and  O4_34 
ROOT
HETATM    1  C8  UNL     1      -9.974  -7.557  -4.683  1.00  0.00    -0.002 C 
HETATM    2  C9  UNL     1      -8.783  -7.602  -5.689  1.00  0.00     0.007 C 
HETATM    3  C10 UNL     1      -7.615  -8.325  -4.995  1.00  0.00     0.015 C 
HETATM    4  C11 UNL     1      -8.241  -8.973  -3.746  1.00  0.00    -0.013 C 
HETATM    5  C12 UNL     1      -8.868 -10.319  -4.226  1.00  0.00     0.021 C 
HETATM    6  C13 UNL     1      -7.324  -9.325  -2.583  1.00  0.00    -0.070 C 
HETATM    7  C14 UNL     1      -5.998  -9.515  -2.709  1.00  0.00    -0.022 C 
HETATM    8  C15 UNL     1      -5.156  -9.957  -1.551  1.00  0.00     0.034 C 
HETATM    9  C16 UNL     1      -5.950 -10.989  -0.737  1.00  0.00     0.013 C 
HETATM   10  C17 UNL     1      -5.105 -11.812   0.287  1.00  0.00     0.018 C 
HETATM   11  C18 UNL     1      -4.352 -12.945  -0.444  1.00  0.00     0.023 C 
HETATM   12  C19 UNL     1      -4.059 -10.970   1.040  1.00  0.00     0.023 C 
HETATM   13  C20 UNL     1      -6.044 -12.495   1.291  1.00  0.00     0.135 C 
HETATM   14  O2  UNL     1      -5.651 -12.877   2.395  1.00  0.00    -0.297 OA
HETATM   15  C21 UNL     1      -7.461 -12.790   0.842  1.00  0.00     0.080 C 
HETATM   16  C22 UNL     1      -8.178 -11.616   0.168  1.00  0.00     0.017 C 
HETATM   17  C23 UNL     1      -7.284 -10.391  -0.162  1.00  0.00    -0.031 C 
HETATM   18  C24 UNL     1      -7.081  -9.580   1.147  1.00  0.00     0.016 C 
HETATM   19  C25 UNL     1      -7.960  -9.371  -1.191  1.00  0.00     0.024 C 
HETATM   20  C26 UNL     1      -9.507  -9.396  -1.213  1.00  0.00     0.010 C 
HETATM   21  C27 UNL     1     -10.188  -8.419  -2.200  1.00  0.00     0.011 C 
HETATM   22  C28 UNL     1      -9.273  -7.867  -3.316  1.00  0.00    -0.029 C 
HETATM   23  C29 UNL     1      -8.597  -6.557  -2.801  1.00  0.00     0.016 C 
ENDROOT
BRANCH   1  24
HETATM   24  C6  UNL     1     -10.832  -6.263  -4.847  1.00  0.00    -0.011 C 
HETATM   25  C7  UNL     1     -12.294  -6.586  -5.175  1.00  0.00     0.010 C 
BRANCH  24  26
HETATM   26  C5  UNL     1     -10.226  -5.353  -5.956  1.00  0.00     0.040 C 
BRANCH  26  27
HETATM   27  C4  UNL     1     -10.136  -3.858  -5.598  1.00  0.00     0.142 C 
BRANCH  27  28
HETATM   28  C3  UNL     1      -8.815  -3.281  -6.022  1.00  0.00     0.018 C 
HETATM   29  C2  UNL     1      -8.470  -1.980  -6.126  1.00  0.00     0.010 C 
HETATM   30  C1  UNL     1      -9.343  -0.800  -5.827  1.00  0.00     0.055 C 
BRANCH  29  31
HETATM   31  C30 UNL     1      -7.081  -1.709  -6.578  1.00  0.00     0.171 C 
HETATM   32  O3  UNL     1      -6.745  -1.159  -7.612  1.00  0.00    -0.646 OA
BRANCH  31  33
HETATM   33  O4  UNL     1      -6.163  -2.133  -5.695  1.00  0.00    -0.773 OA
HETATM   34  H46 UNL     1      -5.312  -1.895  -6.116  1.00  0.00     0.167 HD
ENDBRANCH  31  33
ENDBRANCH  29  31
ENDBRANCH  27  28
BRANCH  27  35
HETATM   35  O1  UNL     1     -10.247  -3.686  -4.190  1.00  0.00    -0.392 OA
HETATM   36  H6  UNL     1      -9.505  -4.154  -3.772  1.00  0.00     0.210 HD
ENDBRANCH  27  35
ENDBRANCH  26  27
ENDBRANCH  24  26
ENDBRANCH   1  24
TORSDOF 7
ENDMDL
MODEL 5
REMARK minimizedAffinity -8.69712067
REMARK CNNscore 0.381397247
REMARK CNNaffinity 7.18063354
REMARK  7 active torsions:
REMARK  status: ('A' for Active; 'I' for Inactive)
REMARK    1  A    between atoms: C2_2  and  C30_32 
REMARK    2  A    between atoms: C3_3  and  C4_4 
REMARK    3  A    between atoms: C4_4  and  O1_5 
REMARK    4  A    between atoms: C4_4  and  C5_6 
REMARK    5  A    between atoms: C5_6  and  C6_7 
REMARK    6  A    between atoms: C6_7  and  C8_9 
REMARK    7  A    between atoms: C30_32  and  O4_34 
ROOT
HETATM    1  C8  UNL     1      -5.271   5.661  14.442  1.00  0.00    -0.002 C 
HETATM    2  C9  UNL     1      -4.847   6.610  15.604  1.00  0.00     0.007 C 
HETATM    3  C10 UNL     1      -6.059   7.495  15.948  1.00  0.00     0.015 C 
HETATM    4  C11 UNL     1      -7.247   6.831  15.225  1.00  0.00    -0.013 C 
HETATM    5  C12 UNL     1      -7.739   5.687  16.165  1.00  0.00     0.021 C 
HETATM    6  C13 UNL     1      -8.470   7.684  14.921  1.00  0.00    -0.070 C 
HETATM    7  C14 UNL     1      -8.778   8.812  15.586  1.00  0.00    -0.022 C 
HETATM    8  C15 UNL     1     -10.047   9.561  15.313  1.00  0.00     0.034 C 
HETATM    9  C16 UNL     1     -11.173   8.543  15.077  1.00  0.00     0.013 C 
HETATM   10  C17 UNL     1     -12.616   9.134  15.131  1.00  0.00     0.018 C 
HETATM   11  C18 UNL     1     -13.059   9.306  16.601  1.00  0.00     0.023 C 
HETATM   12  C19 UNL     1     -12.748  10.507  14.446  1.00  0.00     0.023 C 
HETATM   13  C20 UNL     1     -13.600   8.139  14.498  1.00  0.00     0.135 C 
HETATM   14  O2  UNL     1     -14.701   8.493  14.072  1.00  0.00    -0.297 OA
HETATM   15  C21 UNL     1     -13.221   6.673  14.507  1.00  0.00     0.080 C 
HETATM   16  C22 UNL     1     -11.794   6.376  14.033  1.00  0.00     0.017 C 
HETATM   17  C23 UNL     1     -10.884   7.618  13.840  1.00  0.00    -0.031 C 
HETATM   18  C24 UNL     1     -11.252   8.275  12.482  1.00  0.00     0.016 C 
HETATM   19  C25 UNL     1      -9.331   7.256  13.729  1.00  0.00     0.024 C 
HETATM   20  C26 UNL     1      -9.029   5.825  13.223  1.00  0.00     0.010 C 
HETATM   21  C27 UNL     1      -7.534   5.448  13.106  1.00  0.00     0.011 C 
HETATM   22  C28 UNL     1      -6.563   6.356  13.891  1.00  0.00    -0.029 C 
HETATM   23  C29 UNL     1      -6.129   7.537  12.965  1.00  0.00     0.016 C 
ENDROOT
BRANCH   1  24
HETATM   24  C6  UNL     1      -4.082   5.343  13.481  1.00  0.00    -0.011 C 
HETATM   25  C7  UNL     1      -4.449   4.263  12.457  1.00  0.00     0.010 C 
BRANCH  24  26
HETATM   26  C5  UNL     1      -2.833   4.898  14.299  1.00  0.00     0.040 C 
BRANCH  26  27
HETATM   27  C4  UNL     1      -1.550   5.700  14.021  1.00  0.00     0.142 C 
BRANCH  27  28
HETATM   28  C3  UNL     1      -0.731   5.050  12.942  1.00  0.00     0.018 C 
HETATM   29  C2  UNL     1       0.440   5.470  12.418  1.00  0.00     0.010 C 
HETATM   30  C1  UNL     1       1.203   6.697  12.812  1.00  0.00     0.055 C 
BRANCH  29  31
HETATM   31  C30 UNL     1       1.020   4.615  11.349  1.00  0.00     0.171 C 
HETATM   32  O3  UNL     1       1.932   4.908  10.597  1.00  0.00    -0.646 OA
BRANCH  31  33
HETATM   33  O4  UNL     1       0.429   3.412  11.279  1.00  0.00    -0.773 OA
HETATM   34  H46 UNL     1       0.901   2.967  10.546  1.00  0.00     0.167 HD
ENDBRANCH  31  33
ENDBRANCH  29  31
ENDBRANCH  27  28
BRANCH  27  35
HETATM   35  O1  UNL     1      -0.746   5.756  15.194  1.00  0.00    -0.392 OA
HETATM   36  H6  UNL     1      -0.501   4.846  15.432  1.00  0.00     0.210 HD
ENDBRANCH  27  35
ENDBRANCH  26  27
ENDBRANCH  24  26
ENDBRANCH   1  24
TORSDOF 7
ENDMDL
MODEL 6
REMARK minimizedAffinity -9.43658543
REMARK CNNscore 0.336479485
REMARK CNNaffinity 6.90196943
REMARK  7 active torsions:
REMARK  status: ('A' for Active; 'I' for Inactive)
REMARK    1  A    between atoms: C2_2  and  C30_32 
REMARK    2  A    between atoms: C3_3  and  C4_4 
REMARK    3  A    between atoms: C4_4  and  O1_5 
REMARK    4  A    between atoms: C4_4  and  C5_6 
REMARK    5  A    between atoms: C5_6  and  C6_7 
REMARK    6  A    between atoms: C6_7  and  C8_9 
REMARK    7  A    between atoms: C30_32  and  O4_34 
ROOT
HETATM    1  C8  UNL     1      -6.243   7.307  14.193  1.00  0.00    -0.002 C 
HETATM    2  C9  UNL     1      -6.122   8.636  15.000  1.00  0.00     0.007 C 
HETATM    3  C10 UNL     1      -4.630   9.012  15.055  1.00  0.00     0.015 C 
HETATM    4  C11 UNL     1      -3.956   8.097  14.016  1.00  0.00    -0.013 C 
HETATM    5  C12 UNL     1      -4.144   8.799  12.635  1.00  0.00     0.021 C 
HETATM    6  C13 UNL     1      -2.464   7.830  14.155  1.00  0.00    -0.070 C 
HETATM    7  C14 UNL     1      -1.620   8.637  14.823  1.00  0.00    -0.022 C 
HETATM    8  C15 UNL     1      -0.143   8.381  14.846  1.00  0.00     0.034 C 
HETATM    9  C16 UNL     1       0.288   7.893  13.455  1.00  0.00     0.013 C 
HETATM   10  C17 UNL     1       1.827   7.919  13.197  1.00  0.00     0.018 C 
HETATM   11  C18 UNL     1       2.278   9.355  12.849  1.00  0.00     0.023 C 
HETATM   12  C19 UNL     1       2.664   7.451  14.402  1.00  0.00     0.023 C 
HETATM   13  C20 UNL     1       2.154   7.056  11.970  1.00  0.00     0.135 C 
HETATM   14  O2  UNL     1       3.283   6.601  11.775  1.00  0.00    -0.297 OA
HETATM   15  C21 UNL     1       1.066   6.864  10.934  1.00  0.00     0.080 C 
HETATM   16  C22 UNL     1      -0.301   6.471  11.505  1.00  0.00     0.017 C 
HETATM   17  C23 UNL     1      -0.427   6.554  13.049  1.00  0.00    -0.031 C 
HETATM   18  C24 UNL     1       0.245   5.290  13.653  1.00  0.00     0.016 C 
HETATM   19  C25 UNL     1      -1.939   6.518  13.566  1.00  0.00     0.024 C 
HETATM   20  C26 UNL     1      -2.938   5.819  12.612  1.00  0.00     0.010 C 
HETATM   21  C27 UNL     1      -4.408   5.769  13.087  1.00  0.00     0.011 C 
HETATM   22  C28 UNL     1      -4.772   6.766  14.209  1.00  0.00    -0.029 C 
HETATM   23  C29 UNL     1      -4.515   6.078  15.588  1.00  0.00     0.016 C 
ENDROOT
BRANCH   1  24
HETATM   24  C6  UNL     1      -7.412   6.410  14.711  1.00  0.00    -0.011 C 
HETATM   25  C7  UNL     1      -6.952   5.455  15.818  1.00  0.00     0.010 C 
BRANCH  24  26
HETATM   26  C5  UNL     1      -8.030   5.601  13.532  1.00  0.00     0.040 C 
BRANCH  26  27
HETATM   27  C4  UNL     1      -7.709   4.095  13.533  1.00  0.00     0.142 C 
BRANCH  27  28
HETATM   28  C3  UNL     1      -6.590   3.783  12.580  1.00  0.00     0.018 C 
HETATM   29  C2  UNL     1      -6.260   2.588  12.047  1.00  0.00     0.010 C 
HETATM   30  C1  UNL     1      -6.955   1.283  12.287  1.00  0.00     0.055 C 
BRANCH  29  31
HETATM   31  C30 UNL     1      -5.090   2.583  11.130  1.00  0.00     0.171 C 
HETATM   32  O3  UNL     1      -4.799   3.442  10.316  1.00  0.00    -0.646 OA
BRANCH  31  33
HETATM   33  O4  UNL     1      -4.322   1.494  11.285  1.00  0.00    -0.773 OA
HETATM   34  H46 UNL     1      -3.606   1.622  10.630  1.00  0.00     0.167 HD
ENDBRANCH  31  33
ENDBRANCH  29  31
ENDBRANCH  27  28
BRANCH  27  35
HETATM   35  O1  UNL     1      -8.848   3.353  13.114  1.00  0.00    -0.392 OA
HETATM   36  H6  UNL     1      -9.067   3.627  12.207  1.00  0.00     0.210 HD
ENDBRANCH  27  35
ENDBRANCH  26  27
ENDBRANCH  24  26
ENDBRANCH   1  24
TORSDOF 7
ENDMDL
MODEL 7
REMARK minimizedAffinity -7.65465164
REMARK CNNscore 0.321160853
REMARK CNNaffinity 6.57145262
REMARK  7 active torsions:
REMARK  status: ('A' for Active; 'I' for Inactive)
REMARK    1  A    between atoms: C2_2  and  C30_32 
REMARK    2  A    between atoms: C3_3  and  C4_4 
REMARK    3  A    between atoms: C4_4  and  O1_5 
REMARK    4  A    between atoms: C4_4  and  C5_6 
REMARK    5  A    between atoms: C5_6  and  C6_7 
REMARK    6  A    between atoms: C6_7  and  C8_9 
REMARK    7  A    between atoms: C30_32  and  O4_34 
ROOT
HETATM    1  C8  UNL     1      -0.469   7.369  13.615  1.00  0.00    -0.002 C 
HETATM    2  C9  UNL     1       0.816   8.186  13.279  1.00  0.00     0.007 C 
HETATM    3  C10 UNL     1       0.648   9.589  13.889  1.00  0.00     0.015 C 
HETATM    4  C11 UNL     1      -0.560   9.463  14.836  1.00  0.00    -0.013 C 
HETATM    5  C12 UNL     1      -0.000   8.884  16.173  1.00  0.00     0.021 C 
HETATM    6  C13 UNL     1      -1.316  10.730  15.209  1.00  0.00    -0.070 C 
HETATM    7  C14 UNL     1      -0.785  11.964  15.137  1.00  0.00    -0.022 C 
HETATM    8  C15 UNL     1      -1.540  13.171  15.610  1.00  0.00     0.034 C 
HETATM    9  C16 UNL     1      -2.305  12.797  16.887  1.00  0.00     0.013 C 
HETATM   10  C17 UNL     1      -2.851  14.009  17.706  1.00  0.00     0.018 C 
HETATM   11  C18 UNL     1      -1.716  14.629  18.549  1.00  0.00     0.023 C 
HETATM   12  C19 UNL     1      -3.442  15.129  16.830  1.00  0.00     0.023 C 
HETATM   13  C20 UNL     1      -3.909  13.516  18.703  1.00  0.00     0.135 C 
HETATM   14  O2  UNL     1      -4.751  14.275  19.188  1.00  0.00    -0.297 OA
HETATM   15  C21 UNL     1      -3.825  12.076  19.166  1.00  0.00     0.080 C 
HETATM   16  C22 UNL     1      -3.644  11.050  18.041  1.00  0.00     0.017 C 
HETATM   17  C23 UNL     1      -3.344  11.645  16.640  1.00  0.00    -0.031 C 
HETATM   18  C24 UNL     1      -4.685  12.146  16.035  1.00  0.00     0.016 C 
HETATM   19  C25 UNL     1      -2.787  10.567  15.599  1.00  0.00     0.024 C 
HETATM   20  C26 UNL     1      -3.195   9.104  15.894  1.00  0.00     0.010 C 
HETATM   21  C27 UNL     1      -2.670   8.040  14.903  1.00  0.00     0.011 C 
HETATM   22  C28 UNL     1      -1.486   8.490  14.020  1.00  0.00    -0.029 C 
HETATM   23  C29 UNL     1      -2.057   9.132  12.714  1.00  0.00     0.016 C 
ENDROOT
BRANCH   1  24
HETATM   24  C6  UNL     1      -0.832   6.354  12.485  1.00  0.00    -0.011 C 
HETATM   25  C7  UNL     1      -0.421   4.923  12.850  1.00  0.00     0.010 C 
BRANCH  24  26
HETATM   26  C5  UNL     1      -0.157   6.777  11.146  1.00  0.00     0.040 C 
BRANCH  26  27
HETATM   27  C4  UNL     1       1.182   6.080  10.840  1.00  0.00     0.142 C 
BRANCH  27  28
HETATM   28  C3  UNL     1       1.826   6.666   9.616  1.00  0.00     0.018 C 
HETATM   29  C2  UNL     1       1.341   7.624   8.798  1.00  0.00     0.010 C 
HETATM   30  C1  UNL     1       0.030   8.336   8.938  1.00  0.00     0.055 C 
BRANCH  29  31
HETATM   31  C30 UNL     1       2.208   8.003   7.652  1.00  0.00     0.171 C 
HETATM   32  O3  UNL     1       3.079   8.855   7.648  1.00  0.00    -0.646 OA
BRANCH  31  33
HETATM   33  O4  UNL     1       1.948   7.280   6.552  1.00  0.00    -0.773 OA
HETATM   34  H46 UNL     1       2.579   7.631   5.891  1.00  0.00     0.167 HD
ENDBRANCH  31  33
ENDBRANCH  29  31
ENDBRANCH  27  28
BRANCH  27  35
HETATM   35  O1  UNL     1       0.965   4.696  10.589  1.00  0.00    -0.392 OA
HETATM   36  H6  UNL     1       0.386   4.620   9.812  1.00  0.00     0.210 HD
ENDBRANCH  27  35
ENDBRANCH  26  27
ENDBRANCH  24  26
ENDBRANCH   1  24
TORSDOF 7
ENDMDL
MODEL 8
REMARK minimizedAffinity -7.14279175
REMARK CNNscore 0.247797534
REMARK CNNaffinity 6.38681555
REMARK  7 active torsions:
REMARK  status: ('A' for Active; 'I' for Inactive)
REMARK    1  A    between atoms: C2_2  and  C30_32 
REMARK    2  A    between atoms: C3_3  and  C4_4 
REMARK    3  A    between atoms: C4_4  and  O1_5 
REMARK    4  A    between atoms: C4_4  and  C5_6 
REMARK    5  A    between atoms: C5_6  and  C6_7 
REMARK    6  A    between atoms: C6_7  and  C8_9 
REMARK    7  A    between atoms: C30_32  and  O4_34 
ROOT
HETATM    1  C8  UNL     1       1.530   8.876  14.567  1.00  0.00    -0.002 C 
HETATM    2  C9  UNL     1       1.421   9.251  16.076  1.00  0.00     0.007 C 
HETATM    3  C10 UNL     1      -0.045   9.054  16.501  1.00  0.00     0.015 C 
HETATM    4  C11 UNL     1      -0.685   8.264  15.344  1.00  0.00    -0.013 C 
HETATM    5  C12 UNL     1      -0.345   6.764  15.606  1.00  0.00     0.021 C 
HETATM    6  C13 UNL     1      -2.196   8.332  15.177  1.00  0.00    -0.070 C 
HETATM    7  C14 UNL     1      -3.043   8.656  16.171  1.00  0.00    -0.022 C 
HETATM    8  C15 UNL     1      -4.530   8.612  15.980  1.00  0.00     0.034 C 
HETATM    9  C16 UNL     1      -4.874   7.386  15.121  1.00  0.00     0.013 C 
HETATM   10  C17 UNL     1      -6.383   6.986  15.121  1.00  0.00     0.018 C 
HETATM   11  C18 UNL     1      -6.720   6.200  16.406  1.00  0.00     0.023 C 
HETATM   12  C19 UNL     1      -7.341   8.190  15.051  1.00  0.00     0.023 C 
HETATM   13  C20 UNL     1      -6.658   6.034  13.948  1.00  0.00     0.135 C 
HETATM   14  O2  UNL     1      -7.792   5.873  13.492  1.00  0.00    -0.297 OA
HETATM   15  C21 UNL     1      -5.503   5.205  13.428  1.00  0.00     0.080 C 
HETATM   16  C22 UNL     1      -4.212   5.992  13.174  1.00  0.00     0.017 C 
HETATM   17  C23 UNL     1      -4.207   7.452  13.700  1.00  0.00    -0.031 C 
HETATM   18  C24 UNL     1      -4.999   8.327  12.690  1.00  0.00     0.016 C 
HETATM   19  C25 UNL     1      -2.747   8.098  13.768  1.00  0.00     0.024 C 
HETATM   20  C26 UNL     1      -1.716   7.485  12.789  1.00  0.00     0.010 C 
HETATM   21  C27 UNL     1      -0.295   8.091  12.833  1.00  0.00     0.011 C 
HETATM   22  C28 UNL     1       0.034   8.907  14.102  1.00  0.00    -0.029 C 
HETATM   23  C29 UNL     1      -0.374  10.395  13.855  1.00  0.00     0.016 C 
ENDROOT
BRANCH   1  24
HETATM   24  C6  UNL     1       2.599   9.738  13.823  1.00  0.00    -0.011 C 
HETATM   25  C7  UNL     1       2.869   9.216  12.408  1.00  0.00     0.010 C 
BRANCH  24  26
HETATM   26  C5  UNL     1       3.925   9.772  14.640  1.00  0.00     0.040 C 
BRANCH  26  27
HETATM   27  C4  UNL     1       4.666   8.426  14.741  1.00  0.00     0.142 C 
BRANCH  27  28
HETATM   28  C3  UNL     1       5.987   8.484  14.028  1.00  0.00     0.018 C 
HETATM   29  C2  UNL     1       7.213   8.666  14.562  1.00  0.00     0.010 C 
HETATM   30  C1  UNL     1       7.536   8.845  16.013  1.00  0.00     0.055 C 
BRANCH  29  31
HETATM   31  C30 UNL     1       8.347   8.683  13.600  1.00  0.00     0.171 C 
HETATM   32  O3  UNL     1       8.527   9.485  12.701  1.00  0.00    -0.646 OA
BRANCH  31  33
HETATM   33  O4  UNL     1       9.220   7.688  13.820  1.00  0.00    -0.773 OA
HETATM   34  H46 UNL     1       9.898   7.819  13.127  1.00  0.00     0.167 HD
ENDBRANCH  31  33
ENDBRANCH  29  31
ENDBRANCH  27  28
BRANCH  27  35
HETATM   35  O1  UNL     1       3.894   7.398  14.130  1.00  0.00    -0.392 OA
HETATM   36  H6  UNL     1       3.782   7.626  13.192  1.00  0.00     0.210 HD
ENDBRANCH  27  35
ENDBRANCH  26  27
ENDBRANCH  24  26
ENDBRANCH   1  24
TORSDOF 7
ENDMDL
MODEL 9
REMARK minimizedAffinity -8.80394268
REMARK CNNscore 0.218399346
REMARK CNNaffinity 6.57640505
REMARK  7 active torsions:
REMARK  status: ('A' for Active; 'I' for Inactive)
REMARK    1  A    between atoms: C2_2  and  C30_32 
REMARK    2  A    between atoms: C3_3  and  C4_4 
REMARK    3  A    between atoms: C4_4  and  O1_5 
REMARK    4  A    between atoms: C4_4  and  C5_6 
REMARK    5  A    between atoms: C5_6  and  C6_7 
REMARK    6  A    between atoms: C6_7  and  C8_9 
REMARK    7  A    between atoms: C30_32  and  O4_34 
ROOT
HETATM    1  C8  UNL     1       0.106   8.506  13.769  1.00  0.00    -0.002 C 
HETATM    2  C9  UNL     1       0.299   7.681  12.460  1.00  0.00     0.007 C 
HETATM    3  C10 UNL     1      -1.014   6.926  12.187  1.00  0.00     0.015 C 
HETATM    4  C11 UNL     1      -2.042   7.571  13.136  1.00  0.00    -0.013 C 
HETATM    5  C12 UNL     1      -2.557   8.851  12.408  1.00  0.00     0.021 C 
HETATM    6  C13 UNL     1      -3.281   6.768  13.507  1.00  0.00    -0.070 C 
HETATM    7  C14 UNL     1      -3.761   5.753  12.766  1.00  0.00    -0.022 C 
HETATM    8  C15 UNL     1      -5.041   5.059  13.124  1.00  0.00     0.034 C 
HETATM    9  C16 UNL     1      -6.042   6.111  13.626  1.00  0.00     0.013 C 
HETATM   10  C17 UNL     1      -7.523   5.626  13.702  1.00  0.00     0.018 C 
HETATM   11  C18 UNL     1      -8.163   5.665  12.297  1.00  0.00     0.023 C 
HETATM   12  C19 UNL     1      -7.676   4.191  14.240  1.00  0.00     0.023 C 
HETATM   13  C20 UNL     1      -8.334   6.597  14.572  1.00  0.00     0.135 C 
HETATM   14  O2  UNL     1      -9.396   6.266  15.102  1.00  0.00    -0.297 OA
HETATM   15  C21 UNL     1      -7.843   8.026  14.678  1.00  0.00     0.080 C 
HETATM   16  C22 UNL     1      -6.347   8.170  14.983  1.00  0.00     0.017 C 
HETATM   17  C23 UNL     1      -5.523   6.857  14.907  1.00  0.00    -0.031 C 
HETATM   18  C24 UNL     1      -5.766   6.064  16.221  1.00  0.00     0.016 C 
HETATM   19  C25 UNL     1      -3.945   7.101  14.845  1.00  0.00     0.024 C 
HETATM   20  C26 UNL     1      -3.467   8.437  15.463  1.00  0.00     0.010 C 
HETATM   21  C27 UNL     1      -1.944   8.700  15.417  1.00  0.00     0.011 C 
HETATM   22  C28 UNL     1      -1.157   7.834  14.409  1.00  0.00    -0.029 C 
HETATM   23  C29 UNL     1      -0.704   6.522  15.128  1.00  0.00     0.016 C 
ENDROOT
BRANCH   1  24
HETATM   24  C6  UNL     1       1.429   8.626  14.588  1.00  0.00    -0.011 C 
HETATM   25  C7  UNL     1       1.303   9.639  15.732  1.00  0.00     0.010 C 
BRANCH  24  26
HETATM   26  C5  UNL     1       2.607   9.026  13.650  1.00  0.00     0.040 C 
BRANCH  26  27
HETATM   27  C4  UNL     1       3.910   8.234  13.863  1.00  0.00     0.142 C 
BRANCH  27  28
HETATM   28  C3  UNL     1       4.316   7.519  12.605  1.00  0.00     0.018 C 
HETATM   29  C2  UNL     1       5.545   7.082  12.257  1.00  0.00     0.010 C 
HETATM   30  C1  UNL     1       6.799   7.209  13.066  1.00  0.00     0.055 C 
BRANCH  29  31
HETATM   31  C30 UNL     1       5.646   6.406  10.937  1.00  0.00     0.171 C 
HETATM   32  O3  UNL     1       6.420   5.516  10.631  1.00  0.00    -0.646 OA
BRANCH  31  33
HETATM   33  O4  UNL     1       4.753   6.875  10.052  1.00  0.00    -0.773 OA
HETATM   34  H46 UNL     1       4.932   6.351   9.245  1.00  0.00     0.167 HD
ENDBRANCH  31  33
ENDBRANCH  29  31
ENDBRANCH  27  28
BRANCH  27  35
HETATM   35  O1  UNL     1       3.723   7.251  14.874  1.00  0.00    -0.392 OA
HETATM   36  H6  UNL     1       3.030   6.640  14.573  1.00  0.00     0.210 HD
ENDBRANCH  27  35
ENDBRANCH  26  27
ENDBRANCH  24  26
ENDBRANCH   1  24
TORSDOF 7
ENDMDL
