MODEL 1
REMARK minimizedAffinity -7.83759928
REMARK CNNscore 0.562553287
REMARK CNNaffinity 6.23449564
REMARK  6 active torsions:
REMARK  status: ('A' for Active; 'I' for Inactive)
REMARK       I    between atoms: N1_1  and  C1_2 
REMARK       I    between atoms: C1_2  and  N2_3 
REMARK    1  A    between atoms: N3_4  and  C2_6 
REMARK    2  A    between atoms: C11_16  and  S1_17 
REMARK    3  A    between atoms: S1_17  and  O4_20 
REMARK    4  A    between atoms: C23_33  and  O6_34 
REMARK    5  A    between atoms: C29_40  and  C30_41 
REMARK    6  A    between atoms: C30_41  and  O7_42 
ROOT
HETATM    1  C2  UNL     1      -6.864  47.032 -18.905  1.00  0.00     0.263 C 
HETATM    2  O1  UNL     1      -6.533  45.611 -18.748  1.00  0.00    -0.322 OA
HETATM    3  C3  UNL     1      -6.818  44.811 -19.825  1.00  0.00     0.071 C 
HETATM    4  C4  UNL     1      -6.422  45.103 -21.128  1.00  0.00     0.037 C 
HETATM    5  C5  UNL     1      -6.951  44.369 -22.193  1.00  0.00     0.010 C 
HETATM    6  C6  UNL     1      -7.858  43.325 -21.959  1.00  0.00    -0.058 C 
HETATM    7  C7  UNL     1      -8.139  42.957 -20.636  1.00  0.00     0.010 C 
HETATM    8  C8  UNL     1      -7.612  43.692 -19.574  1.00  0.00     0.037 C 
HETATM    9  C9  UNL     1      -8.570  42.654 -23.111  1.00  0.00     0.040 C 
HETATM   10  C10 UNL     1     -10.082  42.962 -23.146  1.00  0.00     0.027 C 
HETATM   11  C11 UNL     1     -10.422  44.458 -23.392  1.00  0.00     0.130 C 
HETATM   12  C12 UNL     1     -11.566  44.959 -22.458  1.00  0.00     0.037 C 
HETATM   13  C13 UNL     1     -12.936  44.381 -22.732  1.00  0.00    -0.014 C 
HETATM   14  C14 UNL     1     -14.010  45.180 -22.912  1.00  0.00    -0.050 C 
HETATM   15  C15 UNL     1     -13.847  46.641 -23.189  1.00  0.00     0.042 C 
HETATM   16  C16 UNL     1     -12.975  47.178 -22.068  1.00  0.00     0.001 C 
HETATM   17  C17 UNL     1     -13.754  47.084 -20.729  1.00  0.00     0.038 C 
HETATM   18  C18 UNL     1     -14.317  45.732 -20.190  1.00  0.00     0.130 C 
HETATM   19  O5  UNL     1     -15.328  45.019 -20.924  1.00  0.00    -0.371 OA
HETATM   20  C19 UNL     1     -15.328  44.762 -22.327  1.00  0.00     0.185 C 
HETATM   21  C20 UNL     1     -16.585  45.299 -23.030  1.00  0.00    -0.006 A 
HETATM   22  C21 UNL     1     -16.794  44.899 -24.369  1.00  0.00     0.014 A 
HETATM   23  C22 UNL     1     -17.912  45.325 -25.089  1.00  0.00     0.037 A 
HETATM   24  C23 UNL     1     -18.843  46.155 -24.477  1.00  0.00     0.067 A 
HETATM   25  C24 UNL     1     -18.674  46.566 -23.161  1.00  0.00     0.057 A 
HETATM   26  C25 UNL     1     -17.555  46.147 -22.433  1.00  0.00     0.029 A 
HETATM   27  C26 UNL     1     -17.417  46.617 -21.085  1.00  0.00    -0.066 C 
HETATM   28  C27 UNL     1     -17.024  46.874 -19.978  1.00  0.00    -0.101 C 
HETATM   29  C28 UNL     1     -16.174  46.988 -18.784  1.00  0.00     0.103 C 
HETATM   30  C29 UNL     1     -15.006  45.947 -18.786  1.00  0.00     0.049 C 
HETATM   31  C31 UNL     1     -11.572  46.522 -22.236  1.00  0.00     0.032 C 
HETATM   32  C32 UNL     1     -10.514  46.951 -21.226  1.00  0.00    -0.053 C 
HETATM   33  C33 UNL     1      -9.425  47.717 -21.669  1.00  0.00     0.008 C 
HETATM   34  C34 UNL     1      -8.287  47.858 -20.874  1.00  0.00     0.012 C 
HETATM   35  C35 UNL     1      -8.214  47.239 -19.619  1.00  0.00    -0.010 C 
HETATM   36  C36 UNL     1      -9.369  46.627 -19.107  1.00  0.00     0.012 C 
HETATM   37  C37 UNL     1     -10.501  46.472 -19.910  1.00  0.00     0.008 C 
ENDROOT
BRANCH   1  38
HETATM   38  N3  UNL     1      -5.803  47.903 -19.444  1.00  0.00    -0.341 N 
HETATM   39  C1  UNL     1      -5.006  48.464 -18.618  1.00  0.00     0.124 C 
HETATM   40  N1  UNL     1      -4.040  49.296 -19.070  1.00  0.00    -0.279 NA
HETATM   41  N2  UNL     1      -4.939  48.379 -17.271  1.00  0.00    -0.279 NA
HETATM   42  H1  UNL     1      -3.985  50.150 -18.529  1.00  0.00     0.126 HD
HETATM   43  H2  UNL     1      -4.191  49.505 -20.053  1.00  0.00     0.126 HD
HETATM   44  H3  UNL     1      -3.979  48.362 -16.944  1.00  0.00     0.126 HD
HETATM   45  H4  UNL     1      -5.433  47.564 -16.909  1.00  0.00     0.126 HD
ATOM     46  H3  UNL     1      -5.709  48.054 -20.449  1.00  0.00     0.164 HD
ENDBRANCH   1  38
BRANCH  11  47
HETATM   47  S1  UNL     1     -10.797  44.762 -25.142  1.00  0.00     0.099 S 
HETATM   48  O2  UNL     1     -11.461  43.625 -25.739  1.00  0.00    -0.601 OA
HETATM   49  O3  UNL     1     -11.267  46.113 -25.344  1.00  0.00    -0.601 OA
BRANCH  47  50
HETATM   50  O4  UNL     1      -9.291  44.712 -25.723  1.00  0.00    -0.295 OA
HETATM   51  H15 UNL     1      -9.308  44.176 -26.545  1.00  0.00     0.232 HD
ENDBRANCH  47  50
ENDBRANCH  11  47
BRANCH  30  52
HETATM   52  C30 UNL     1     -13.980  46.287 -17.697  1.00  0.00     0.172 C 
BRANCH  52  53
HETATM   53  O7  UNL     1     -14.355  47.463 -16.989  1.00  0.00    -0.400 OA
HETATM   54  H34 UNL     1     -14.156  48.231 -17.549  1.00  0.00     0.209 HD
ENDBRANCH  52  53
ENDBRANCH  30  52
BRANCH  24  55
HETATM   55  O6  UNL     1     -19.949  46.594 -25.144  1.00  0.00    -0.361 OA
HETATM   56  H27 UNL     1     -19.927  46.239 -26.048  1.00  0.00     0.217 HD
ENDBRANCH  24  55
TORSDOF 6
ENDMDL
MODEL 2
REMARK minimizedAffinity -7.67272758
REMARK CNNscore 0.524086118
REMARK CNNaffinity 6.53491545
REMARK  6 active torsions:
REMARK  status: ('A' for Active; 'I' for Inactive)
REMARK       I    between atoms: N1_1  and  C1_2 
REMARK       I    between atoms: C1_2  and  N2_3 
REMARK    1  A    between atoms: N3_4  and  C2_6 
REMARK    2  A    between atoms: C11_16  and  S1_17 
REMARK    3  A    between atoms: S1_17  and  O4_20 
REMARK    4  A    between atoms: C23_33  and  O6_34 
REMARK    5  A    between atoms: C29_40  and  C30_41 
REMARK    6  A    between atoms: C30_41  and  O7_42 
ROOT
HETATM    1  C2  UNL     1      -7.175  48.140 -19.613  1.00  0.00     0.263 C 
HETATM    2  O1  UNL     1      -6.889  46.879 -18.919  1.00  0.00    -0.322 OA
HETATM    3  C3  UNL     1      -6.762  45.773 -19.722  1.00  0.00     0.071 C 
HETATM    4  C4  UNL     1      -5.942  45.729 -20.846  1.00  0.00     0.037 C 
HETATM    5  C5  UNL     1      -6.050  44.657 -21.738  1.00  0.00     0.010 C 
HETATM    6  C6  UNL     1      -6.958  43.616 -21.497  1.00  0.00    -0.058 C 
HETATM    7  C7  UNL     1      -7.674  43.610 -20.292  1.00  0.00     0.010 C 
HETATM    8  C8  UNL     1      -7.568  44.681 -19.404  1.00  0.00     0.037 C 
HETATM    9  C9  UNL     1      -7.208  42.556 -22.544  1.00  0.00     0.040 C 
HETATM   10  C10 UNL     1      -8.619  42.643 -23.164  1.00  0.00     0.027 C 
HETATM   11  C11 UNL     1      -8.885  43.948 -23.964  1.00  0.00     0.130 C 
HETATM   12  C12 UNL     1     -10.293  44.544 -23.660  1.00  0.00     0.037 C 
HETATM   13  C13 UNL     1     -11.468  43.739 -24.168  1.00  0.00    -0.014 C 
HETATM   14  C14 UNL     1     -12.429  44.307 -24.928  1.00  0.00    -0.050 C 
HETATM   15  C15 UNL     1     -12.212  45.635 -25.582  1.00  0.00     0.042 C 
HETATM   16  C16 UNL     1     -11.798  46.579 -24.467  1.00  0.00     0.001 C 
HETATM   17  C17 UNL     1     -12.993  46.774 -23.497  1.00  0.00     0.038 C 
HETATM   18  C18 UNL     1     -13.679  45.572 -22.773  1.00  0.00     0.130 C 
HETATM   19  O5  UNL     1     -14.354  44.554 -23.533  1.00  0.00    -0.371 OA
HETATM   20  C19 UNL     1     -13.859  43.907 -24.704  1.00  0.00     0.185 C 
HETATM   21  C20 UNL     1     -14.803  44.053 -25.909  1.00  0.00    -0.006 A 
HETATM   22  C21 UNL     1     -14.522  43.262 -27.045  1.00  0.00     0.014 A 
HETATM   23  C22 UNL     1     -15.328  43.315 -28.185  1.00  0.00     0.037 A 
HETATM   24  C23 UNL     1     -16.432  44.158 -28.202  1.00  0.00     0.067 A 
HETATM   25  C24 UNL     1     -16.743  44.947 -27.102  1.00  0.00     0.057 A 
HETATM   26  C25 UNL     1     -15.939  44.903 -25.957  1.00  0.00     0.029 A 
HETATM   27  C26 UNL     1     -16.291  45.754 -24.858  1.00  0.00    -0.066 C 
HETATM   28  C27 UNL     1     -16.315  46.367 -23.824  1.00  0.00    -0.101 C 
HETATM   29  C28 UNL     1     -15.938  46.928 -22.518  1.00  0.00     0.103 C 
HETATM   30  C29 UNL     1     -14.820  46.090 -21.813  1.00  0.00     0.049 C 
HETATM   31  C31 UNL     1     -10.411  46.090 -23.954  1.00  0.00     0.032 C 
HETATM   32  C32 UNL     1      -9.782  46.924 -22.845  1.00  0.00    -0.053 C 
HETATM   33  C33 UNL     1      -8.625  47.665 -23.126  1.00  0.00     0.008 C 
HETATM   34  C34 UNL     1      -7.839  48.174 -22.091  1.00  0.00     0.012 C 
HETATM   35  C35 UNL     1      -8.196  47.956 -20.753  1.00  0.00    -0.010 C 
HETATM   36  C36 UNL     1      -9.442  47.373 -20.481  1.00  0.00     0.012 C 
HETATM   37  C37 UNL     1     -10.219  46.849 -21.516  1.00  0.00     0.008 C 
ENDROOT
BRANCH   1  38
HETATM   38  N3  UNL     1      -6.013  48.949 -20.022  1.00  0.00    -0.341 N 
HETATM   39  C1  UNL     1      -5.124  49.216 -19.145  1.00  0.00     0.124 C 
HETATM   40  N1  UNL     1      -4.059  49.983 -19.472  1.00  0.00    -0.279 NA
HETATM   41  N2  UNL     1      -5.039  48.850 -17.846  1.00  0.00    -0.279 NA
HETATM   42  H1  UNL     1      -3.869  50.693 -18.775  1.00  0.00     0.126 HD
HETATM   43  H2  UNL     1      -4.201  50.406 -20.384  1.00  0.00     0.126 HD
HETATM   44  H3  UNL     1      -4.084  48.636 -17.579  1.00  0.00     0.126 HD
HETATM   45  H4  UNL     1      -5.637  48.053 -17.628  1.00  0.00     0.126 HD
ATOM     46  H3  UNL     1      -5.921  49.287 -20.981  1.00  0.00     0.164 HD
ENDBRANCH   1  38
BRANCH  11  47
HETATM   47  S1  UNL     1      -8.631  43.686 -25.742  1.00  0.00     0.099 S 
HETATM   48  O2  UNL     1      -9.191  44.772 -26.515  1.00  0.00    -0.601 OA
HETATM   49  O3  UNL     1      -7.311  43.163 -26.006  1.00  0.00    -0.601 OA
BRANCH  47  50
HETATM   50  O4  UNL     1      -9.658  42.458 -25.953  1.00  0.00    -0.295 OA
HETATM   51  H15 UNL     1     -10.168  42.635 -26.773  1.00  0.00     0.232 HD
ENDBRANCH  47  50
ENDBRANCH  11  47
BRANCH  30  52
HETATM   52  C30 UNL     1     -14.247  46.858 -20.615  1.00  0.00     0.172 C 
BRANCH  52  53
HETATM   53  O7  UNL     1     -15.251  47.643 -19.981  1.00  0.00    -0.400 OA
HETATM   54  H34 UNL     1     -15.413  48.429 -20.528  1.00  0.00     0.209 HD
ENDBRANCH  52  53
ENDBRANCH  30  52
BRANCH  24  55
HETATM   55  O6  UNL     1     -17.244  44.240 -29.294  1.00  0.00    -0.361 OA
HETATM   56  H27 UNL     1     -16.901  43.646 -29.982  1.00  0.00     0.217 HD
ENDBRANCH  24  55
TORSDOF 6
ENDMDL
MODEL 3
REMARK minimizedAffinity -10.8180294
REMARK CNNscore 0.365058661
REMARK CNNaffinity 7.52851248
REMARK  6 active torsions:
REMARK  status: ('A' for Active; 'I' for Inactive)
REMARK       I    between atoms: N1_1  and  C1_2 
REMARK       I    between atoms: C1_2  and  N2_3 
REMARK    1  A    between atoms: N3_4  and  C2_6 
REMARK    2  A    between atoms: C11_16  and  S1_17 
REMARK    3  A    between atoms: S1_17  and  O4_20 
REMARK    4  A    between atoms: C23_33  and  O6_34 
REMARK    5  A    between atoms: C29_40  and  C30_41 
REMARK    6  A    between atoms: C30_41  and  O7_42 
ROOT
HETATM    1  C2  UNL     1      -9.352  46.365 -21.680  1.00  0.00     0.263 C 
HETATM    2  O1  UNL     1      -8.736  45.040 -21.536  1.00  0.00    -0.322 OA
HETATM    3  C3  UNL     1      -7.701  44.960 -20.639  1.00  0.00     0.071 C 
HETATM    4  C4  UNL     1      -7.776  45.436 -19.333  1.00  0.00     0.037 C 
HETATM    5  C5  UNL     1      -6.612  45.532 -18.564  1.00  0.00     0.010 C 
HETATM    6  C6  UNL     1      -5.376  45.129 -19.089  1.00  0.00    -0.058 C 
HETATM    7  C7  UNL     1      -5.342  44.525 -20.353  1.00  0.00     0.010 C 
HETATM    8  C8  UNL     1      -6.504  44.432 -21.121  1.00  0.00     0.037 C 
HETATM    9  C9  UNL     1      -4.095  45.400 -18.334  1.00  0.00     0.040 C 
HETATM   10  C10 UNL     1      -3.201  46.454 -19.022  1.00  0.00     0.027 C 
HETATM   11  C11 UNL     1      -3.831  47.872 -19.098  1.00  0.00     0.130 C 
HETATM   12  C12 UNL     1      -3.615  48.534 -20.493  1.00  0.00     0.037 C 
HETATM   13  C13 UNL     1      -2.190  48.915 -20.824  1.00  0.00    -0.014 C 
HETATM   14  C14 UNL     1      -1.876  50.165 -21.229  1.00  0.00    -0.050 C 
HETATM   15  C15 UNL     1      -2.833  51.300 -21.044  1.00  0.00     0.042 C 
HETATM   16  C16 UNL     1      -4.133  50.851 -21.687  1.00  0.00     0.001 C 
HETATM   17  C17 UNL     1      -3.923  50.717 -23.219  1.00  0.00     0.038 C 
HETATM   18  C18 UNL     1      -2.828  49.785 -23.828  1.00  0.00     0.130 C 
HETATM   19  O5  UNL     1      -1.435  50.036 -23.575  1.00  0.00    -0.371 OA
HETATM   20  C19 UNL     1      -0.848  50.337 -22.310  1.00  0.00     0.185 C 
HETATM   21  C20 UNL     1      -0.080  51.668 -22.312  1.00  0.00    -0.006 A 
HETATM   22  C21 UNL     1       0.727  51.948 -21.186  1.00  0.00     0.014 A 
HETATM   23  C22 UNL     1       1.472  53.126 -21.100  1.00  0.00     0.037 A 
HETATM   24  C23 UNL     1       1.426  54.042 -22.144  1.00  0.00     0.067 A 
HETATM   25  C24 UNL     1       0.648  53.800 -23.269  1.00  0.00     0.057 A 
HETATM   26  C25 UNL     1      -0.105  52.624 -23.363  1.00  0.00     0.029 A 
HETATM   27  C26 UNL     1      -0.908  52.433 -24.536  1.00  0.00    -0.066 C 
HETATM   28  C27 UNL     1      -1.685  52.029 -25.358  1.00  0.00    -0.101 C 
HETATM   29  C28 UNL     1      -2.724  51.240 -26.037  1.00  0.00     0.103 C 
HETATM   30  C29 UNL     1      -2.898  49.819 -25.405  1.00  0.00     0.049 C 
HETATM   31  C31 UNL     1      -4.667  49.659 -20.837  1.00  0.00     0.032 C 
HETATM   32  C32 UNL     1      -5.998  49.068 -21.287  1.00  0.00    -0.053 C 
HETATM   33  C33 UNL     1      -7.125  49.235 -20.469  1.00  0.00     0.008 C 
HETATM   34  C34 UNL     1      -8.266  48.455 -20.665  1.00  0.00     0.012 C 
HETATM   35  C35 UNL     1      -8.305  47.495 -21.685  1.00  0.00    -0.010 C 
HETATM   36  C36 UNL     1      -7.250  47.457 -22.608  1.00  0.00     0.012 C 
HETATM   37  C37 UNL     1      -6.102  48.226 -22.400  1.00  0.00     0.008 C 
ENDROOT
BRANCH   1  38
HETATM   38  N3  UNL     1     -10.497  46.661 -20.799  1.00  0.00    -0.341 N 
HETATM   39  C1  UNL     1     -11.650  46.794 -21.332  1.00  0.00     0.124 C 
HETATM   40  N1  UNL     1     -12.720  47.099 -20.563  1.00  0.00    -0.279 NA
HETATM   41  N2  UNL     1     -12.036  46.681 -22.623  1.00  0.00    -0.279 NA
HETATM   42  H1  UNL     1     -13.289  47.832 -20.969  1.00  0.00     0.126 HD
HETATM   43  H2  UNL     1     -12.416  47.359 -19.629  1.00  0.00     0.126 HD
HETATM   44  H3  UNL     1     -12.940  46.229 -22.705  1.00  0.00     0.126 HD
HETATM   45  H4  UNL     1     -11.353  46.178 -23.189  1.00  0.00     0.126 HD
ATOM     46  H3  UNL     1     -10.371  46.758 -19.791  1.00  0.00     0.164 HD
ENDBRANCH   1  38
BRANCH  11  47
HETATM   47  S1  UNL     1      -3.228  48.927 -17.750  1.00  0.00     0.099 S 
HETATM   48  O2  UNL     1      -1.880  48.569 -17.370  1.00  0.00    -0.601 OA
HETATM   49  O3  UNL     1      -3.626  50.302 -17.949  1.00  0.00    -0.601 OA
BRANCH  47  50
HETATM   50  O4  UNL     1      -4.157  48.352 -16.560  1.00  0.00    -0.295 OA
HETATM   51  H15 UNL     1      -3.587  48.231 -15.770  1.00  0.00     0.232 HD
ENDBRANCH  47  50
ENDBRANCH  11  47
BRANCH  30  52
HETATM   52  C30 UNL     1      -4.173  49.148 -25.931  1.00  0.00     0.172 C 
BRANCH  52  53
HETATM   53  O7  UNL     1      -4.285  49.295 -27.342  1.00  0.00    -0.400 OA
HETATM   54  H34 UNL     1      -4.572  50.205 -27.530  1.00  0.00     0.209 HD
ENDBRANCH  52  53
ENDBRANCH  30  52
BRANCH  24  55
HETATM   55  O6  UNL     1       2.137  55.204 -22.099  1.00  0.00    -0.361 OA
HETATM   56  H27 UNL     1       2.620  55.240 -21.257  1.00  0.00     0.217 HD
ENDBRANCH  24  55
TORSDOF 6
ENDMDL
MODEL 4
REMARK minimizedAffinity -7.40662193
REMARK CNNscore 0.310993612
REMARK CNNaffinity 6.38076401
REMARK  6 active torsions:
REMARK  status: ('A' for Active; 'I' for Inactive)
REMARK       I    between atoms: N1_1  and  C1_2 
REMARK       I    between atoms: C1_2  and  N2_3 
REMARK    1  A    between atoms: N3_4  and  C2_6 
REMARK    2  A    between atoms: C11_16  and  S1_17 
REMARK    3  A    between atoms: S1_17  and  O4_20 
REMARK    4  A    between atoms: C23_33  and  O6_34 
REMARK    5  A    between atoms: C29_40  and  C30_41 
REMARK    6  A    between atoms: C30_41  and  O7_42 
ROOT
HETATM    1  C2  UNL     1      -7.276  49.615 -23.928  1.00  0.00     0.263 C 
HETATM    2  O1  UNL     1      -7.638  49.657 -22.506  1.00  0.00    -0.322 OA
HETATM    3  C3  UNL     1      -7.593  48.456 -21.845  1.00  0.00     0.071 C 
HETATM    4  C4  UNL     1      -6.498  47.596 -21.885  1.00  0.00     0.037 C 
HETATM    5  C5  UNL     1      -6.622  46.296 -21.386  1.00  0.00     0.010 C 
HETATM    6  C6  UNL     1      -7.829  45.860 -20.822  1.00  0.00    -0.058 C 
HETATM    7  C7  UNL     1      -8.874  46.782 -20.666  1.00  0.00     0.010 C 
HETATM    8  C8  UNL     1      -8.751  48.078 -21.167  1.00  0.00     0.037 C 
HETATM    9  C9  UNL     1      -8.024  44.408 -20.450  1.00  0.00     0.040 C 
HETATM   10  C10 UNL     1      -9.048  43.688 -21.353  1.00  0.00     0.027 C 
HETATM   11  C11 UNL     1      -8.619  43.579 -22.843  1.00  0.00     0.130 C 
HETATM   12  C12 UNL     1      -9.795  43.899 -23.815  1.00  0.00     0.037 C 
HETATM   13  C13 UNL     1     -10.917  42.887 -23.842  1.00  0.00    -0.014 C 
HETATM   14  C14 UNL     1     -11.345  42.347 -25.004  1.00  0.00    -0.050 C 
HETATM   15  C15 UNL     1     -10.528  42.453 -26.252  1.00  0.00     0.042 C 
HETATM   16  C16 UNL     1     -10.245  43.934 -26.433  1.00  0.00     0.001 C 
HETATM   17  C17 UNL     1     -11.576  44.672 -26.734  1.00  0.00     0.038 C 
HETATM   18  C18 UNL     1     -12.797  44.611 -25.761  1.00  0.00     0.130 C 
HETATM   19  O5  UNL     1     -13.454  43.359 -25.496  1.00  0.00    -0.371 OA
HETATM   20  C19 UNL     1     -12.817  42.119 -25.196  1.00  0.00     0.185 C 
HETATM   21  C20 UNL     1     -13.210  40.996 -26.170  1.00  0.00    -0.006 A 
HETATM   22  C21 UNL     1     -12.819  39.682 -25.829  1.00  0.00     0.014 A 
HETATM   23  C22 UNL     1     -13.139  38.594 -26.644  1.00  0.00     0.037 A 
HETATM   24  C23 UNL     1     -13.861  38.804 -27.813  1.00  0.00     0.067 A 
HETATM   25  C24 UNL     1     -14.266  40.082 -28.179  1.00  0.00     0.057 A 
HETATM   26  C25 UNL     1     -13.947  41.178 -27.370  1.00  0.00     0.029 A 
HETATM   27  C26 UNL     1     -14.370  42.478 -27.804  1.00  0.00    -0.066 C 
HETATM   28  C27 UNL     1     -14.551  43.660 -27.929  1.00  0.00    -0.101 C 
HETATM   29  C28 UNL     1     -14.483  45.116 -27.738  1.00  0.00     0.103 C 
HETATM   30  C29 UNL     1     -13.978  45.504 -26.309  1.00  0.00     0.049 C 
HETATM   31  C31 UNL     1      -9.329  44.366 -25.250  1.00  0.00     0.032 C 
HETATM   32  C32 UNL     1      -8.887  45.824 -25.251  1.00  0.00    -0.053 C 
HETATM   33  C33 UNL     1      -7.535  46.123 -25.477  1.00  0.00     0.008 C 
HETATM   34  C34 UNL     1      -7.027  47.386 -25.173  1.00  0.00     0.012 C 
HETATM   35  C35 UNL     1      -7.859  48.379 -24.639  1.00  0.00    -0.010 C 
HETATM   36  C36 UNL     1      -9.240  48.135 -24.584  1.00  0.00     0.012 C 
HETATM   37  C37 UNL     1      -9.744  46.865 -24.872  1.00  0.00     0.008 C 
ENDROOT
BRANCH   1  38
HETATM   38  N3  UNL     1      -5.856  49.837 -24.257  1.00  0.00    -0.341 N 
HETATM   39  C1  UNL     1      -5.320  50.940 -23.902  1.00  0.00     0.124 C 
HETATM   40  N1  UNL     1      -4.029  51.196 -24.213  1.00  0.00    -0.279 NA
HETATM   41  N2  UNL     1      -5.839  51.987 -23.221  1.00  0.00    -0.279 NA
HETATM   42  H1  UNL     1      -3.900  52.130 -24.582  1.00  0.00     0.126 HD
HETATM   43  H2  UNL     1      -3.684  50.502 -24.871  1.00  0.00     0.126 HD
HETATM   44  H3  UNL     1      -5.167  52.381 -22.572  1.00  0.00     0.126 HD
HETATM   45  H4  UNL     1      -6.690  51.738 -22.718  1.00  0.00     0.126 HD
ATOM     46  H3  UNL     1      -5.317  49.128 -24.754  1.00  0.00     0.164 HD
ENDBRANCH   1  38
BRANCH  11  47
HETATM   47  S1  UNL     1      -7.876  41.960 -23.191  1.00  0.00     0.099 S 
HETATM   48  O2  UNL     1      -8.538  40.911 -22.447  1.00  0.00    -0.601 OA
HETATM   49  O3  UNL     1      -7.569  41.821 -24.596  1.00  0.00    -0.601 OA
BRANCH  47  50
HETATM   50  O4  UNL     1      -6.465  42.174 -22.435  1.00  0.00    -0.295 OA
HETATM   51  H15 UNL     1      -6.277  41.358 -21.922  1.00  0.00     0.232 HD
ENDBRANCH  47  50
ENDBRANCH  11  47
BRANCH  30  52
HETATM   52  C30 UNL     1     -13.635  46.998 -26.246  1.00  0.00     0.172 C 
BRANCH  52  53
HETATM   53  O7  UNL     1     -13.187  47.367 -24.946  1.00  0.00    -0.400 OA
HETATM   54  H34 UNL     1     -13.963  47.424 -24.363  1.00  0.00     0.209 HD
ENDBRANCH  52  53
ENDBRANCH  30  52
BRANCH  24  55
HETATM   55  O6  UNL     1     -14.193  37.770 -28.636  1.00  0.00    -0.361 OA
HETATM   56  H27 UNL     1     -13.837  36.948 -28.261  1.00  0.00     0.217 HD
ENDBRANCH  24  55
TORSDOF 6
ENDMDL
MODEL 5
REMARK minimizedAffinity -8.29005241
REMARK CNNscore 0.30745551
REMARK CNNaffinity 6.33064413
REMARK  6 active torsions:
REMARK  status: ('A' for Active; 'I' for Inactive)
REMARK       I    between atoms: N1_1  and  C1_2 
REMARK       I    between atoms: C1_2  and  N2_3 
REMARK    1  A    between atoms: N3_4  and  C2_6 
REMARK    2  A    between atoms: C11_16  and  S1_17 
REMARK    3  A    between atoms: S1_17  and  O4_20 
REMARK    4  A    between atoms: C23_33  and  O6_34 
REMARK    5  A    between atoms: C29_40  and  C30_41 
REMARK    6  A    between atoms: C30_41  and  O7_42 
ROOT
HETATM    1  C2  UNL     1      -7.990  45.608 -29.093  1.00  0.00     0.263 C 
HETATM    2  O1  UNL     1      -8.093  46.834 -29.893  1.00  0.00    -0.322 OA
HETATM    3  C3  UNL     1      -8.905  46.758 -30.996  1.00  0.00     0.071 C 
HETATM    4  C4  UNL     1     -10.210  46.273 -30.959  1.00  0.00     0.037 C 
HETATM    5  C5  UNL     1     -10.882  46.007 -32.155  1.00  0.00     0.010 C 
HETATM    6  C6  UNL     1     -10.264  46.249 -33.390  1.00  0.00    -0.058 C 
HETATM    7  C7  UNL     1      -9.005  46.864 -33.407  1.00  0.00     0.010 C 
HETATM    8  C8  UNL     1      -8.333  47.127 -32.213  1.00  0.00     0.037 C 
HETATM    9  C9  UNL     1     -10.913  45.793 -34.677  1.00  0.00     0.040 C 
HETATM   10  C10 UNL     1     -10.148  44.641 -35.362  1.00  0.00     0.027 C 
HETATM   11  C11 UNL     1     -10.113  43.322 -34.541  1.00  0.00     0.130 C 
HETATM   12  C12 UNL     1      -8.701  42.662 -34.555  1.00  0.00     0.037 C 
HETATM   13  C13 UNL     1      -8.255  42.097 -35.885  1.00  0.00    -0.014 C 
HETATM   14  C14 UNL     1      -7.817  40.823 -35.994  1.00  0.00    -0.050 C 
HETATM   15  C15 UNL     1      -8.070  39.825 -34.908  1.00  0.00     0.042 C 
HETATM   16  C16 UNL     1      -7.536  40.458 -33.636  1.00  0.00     0.001 C 
HETATM   17  C17 UNL     1      -5.993  40.588 -33.742  1.00  0.00     0.038 C 
HETATM   18  C18 UNL     1      -5.305  41.374 -34.902  1.00  0.00     0.130 C 
HETATM   19  O5  UNL     1      -5.445  40.932 -36.264  1.00  0.00    -0.371 OA
HETATM   20  C19 UNL     1      -6.657  40.533 -36.901  1.00  0.00     0.185 C 
HETATM   21  C20 UNL     1      -6.585  39.110 -37.478  1.00  0.00    -0.006 A 
HETATM   22  C21 UNL     1      -7.641  38.704 -38.324  1.00  0.00     0.014 A 
HETATM   23  C22 UNL     1      -7.660  37.435 -38.906  1.00  0.00     0.037 A 
HETATM   24  C23 UNL     1      -6.617  36.552 -38.654  1.00  0.00     0.067 A 
HETATM   25  C24 UNL     1      -5.559  36.917 -37.831  1.00  0.00     0.057 A 
HETATM   26  C25 UNL     1      -5.533  38.185 -37.241  1.00  0.00     0.029 A 
HETATM   27  C26 UNL     1      -4.429  38.504 -36.383  1.00  0.00    -0.066 C 
HETATM   28  C27 UNL     1      -3.674  39.024 -35.606  1.00  0.00    -0.101 C 
HETATM   29  C28 UNL     1      -3.085  39.958 -34.634  1.00  0.00     0.103 C 
HETATM   30  C29 UNL     1      -3.739  41.378 -34.706  1.00  0.00     0.049 C 
HETATM   31  C31 UNL     1      -8.434  41.695 -33.336  1.00  0.00     0.032 C 
HETATM   32  C32 UNL     1      -8.096  42.469 -32.068  1.00  0.00    -0.053 C 
HETATM   33  C33 UNL     1      -9.000  42.442 -30.995  1.00  0.00     0.008 C 
HETATM   34  C34 UNL     1      -8.900  43.372 -29.960  1.00  0.00     0.012 C 
HETATM   35  C35 UNL     1      -7.893  44.347 -29.973  1.00  0.00    -0.010 C 
HETATM   36  C36 UNL     1      -6.890  44.257 -30.948  1.00  0.00     0.012 C 
HETATM   37  C37 UNL     1      -7.000  43.337 -31.993  1.00  0.00     0.008 C 
ENDROOT
BRANCH   1  38
HETATM   38  N3  UNL     1      -8.956  45.454 -27.990  1.00  0.00    -0.341 N 
HETATM   39  C1  UNL     1      -9.148  46.448 -27.212  1.00  0.00     0.124 C 
HETATM   40  N1  UNL     1     -10.002  46.336 -26.170  1.00  0.00    -0.279 NA
HETATM   41  N2  UNL     1      -8.616  47.691 -27.233  1.00  0.00    -0.279 NA
HETATM   42  H1  UNL     1      -9.616  46.716 -25.314  1.00  0.00     0.126 HD
HETATM   43  H2  UNL     1     -10.270  45.365 -26.040  1.00  0.00     0.126 HD
HETATM   44  H3  UNL     1      -9.302  48.395 -26.984  1.00  0.00     0.126 HD
HETATM   45  H4  UNL     1      -8.207  47.922 -28.137  1.00  0.00     0.126 HD
ATOM     46  H3  UNL     1      -9.458  44.576 -27.853  1.00  0.00     0.164 HD
ENDBRANCH   1  38
BRANCH  11  47
HETATM   47  S1  UNL     1     -11.402  42.172 -35.098  1.00  0.00     0.099 S 
HETATM   48  O2  UNL     1     -12.722  42.721 -34.878  1.00  0.00    -0.601 OA
HETATM   49  O3  UNL     1     -11.034  41.546 -36.347  1.00  0.00    -0.601 OA
BRANCH  47  50
HETATM   50  O4  UNL     1     -11.229  41.044 -33.956  1.00  0.00    -0.295 OA
HETATM   51  H15 UNL     1     -12.127  40.789 -33.652  1.00  0.00     0.232 HD
ENDBRANCH  47  50
ENDBRANCH  11  47
BRANCH  30  52
HETATM   52  C30 UNL     1      -3.320  42.224 -33.498  1.00  0.00     0.172 C 
BRANCH  52  53
HETATM   53  O7  UNL     1      -2.986  41.401 -32.386  1.00  0.00    -0.400 OA
HETATM   54  H34 UNL     1      -3.811  41.074 -31.991  1.00  0.00     0.209 HD
ENDBRANCH  52  53
ENDBRANCH  30  52
BRANCH  24  55
HETATM   55  O6  UNL     1      -6.597  35.304 -39.202  1.00  0.00    -0.361 OA
HETATM   56  H27 UNL     1      -7.398  35.188 -39.740  1.00  0.00     0.217 HD
ENDBRANCH  24  55
TORSDOF 6
ENDMDL
MODEL 6
REMARK minimizedAffinity -9.29468441
REMARK CNNscore 0.292059153
REMARK CNNaffinity 6.50054884
REMARK  6 active torsions:
REMARK  status: ('A' for Active; 'I' for Inactive)
REMARK       I    between atoms: N1_1  and  C1_2 
REMARK       I    between atoms: C1_2  and  N2_3 
REMARK    1  A    between atoms: N3_4  and  C2_6 
REMARK    2  A    between atoms: C11_16  and  S1_17 
REMARK    3  A    between atoms: S1_17  and  O4_20 
REMARK    4  A    between atoms: C23_33  and  O6_34 
REMARK    5  A    between atoms: C29_40  and  C30_41 
REMARK    6  A    between atoms: C30_41  and  O7_42 
ROOT
HETATM    1  C2  UNL     1      -6.943  47.479 -31.439  1.00  0.00     0.263 C 
HETATM    2  O1  UNL     1      -6.698  46.033 -31.504  1.00  0.00    -0.322 OA
HETATM    3  C3  UNL     1      -7.532  45.253 -30.743  1.00  0.00     0.071 C 
HETATM    4  C4  UNL     1      -8.920  45.357 -30.770  1.00  0.00     0.037 C 
HETATM    5  C5  UNL     1      -9.681  44.700 -29.799  1.00  0.00     0.010 C 
HETATM    6  C6  UNL     1      -9.061  43.917 -28.815  1.00  0.00    -0.058 C 
HETATM    7  C7  UNL     1      -7.676  43.714 -28.887  1.00  0.00     0.010 C 
HETATM    8  C8  UNL     1      -6.916  44.372 -29.855  1.00  0.00     0.037 C 
HETATM    9  C9  UNL     1      -9.860  43.358 -27.661  1.00  0.00     0.040 C 
HETATM   10  C10 UNL     1      -9.503  44.010 -26.309  1.00  0.00     0.027 C 
HETATM   11  C11 UNL     1      -9.841  45.525 -26.223  1.00  0.00     0.130 C 
HETATM   12  C12 UNL     1      -8.695  46.342 -25.552  1.00  0.00     0.037 C 
HETATM   13  C13 UNL     1      -8.487  46.086 -24.076  1.00  0.00    -0.014 C 
HETATM   14  C14 UNL     1      -8.458  47.102 -23.187  1.00  0.00    -0.050 C 
HETATM   15  C15 UNL     1      -8.964  48.462 -23.551  1.00  0.00     0.042 C 
HETATM   16  C16 UNL     1      -8.221  48.851 -24.817  1.00  0.00     0.001 C 
HETATM   17  C17 UNL     1      -6.716  49.033 -24.487  1.00  0.00     0.038 C 
HETATM   18  C18 UNL     1      -5.862  47.889 -23.854  1.00  0.00     0.130 C 
HETATM   19  O5  UNL     1      -6.175  47.388 -22.542  1.00  0.00    -0.371 OA
HETATM   20  C19 UNL     1      -7.471  47.046 -22.057  1.00  0.00     0.185 C 
HETATM   21  C20 UNL     1      -7.852  47.817 -20.782  1.00  0.00    -0.006 A 
HETATM   22  C21 UNL     1      -9.009  47.390 -20.093  1.00  0.00     0.014 A 
HETATM   23  C22 UNL     1      -9.431  48.020 -18.920  1.00  0.00     0.037 A 
HETATM   24  C23 UNL     1      -8.695  49.084 -18.413  1.00  0.00     0.067 A 
HETATM   25  C24 UNL     1      -7.549  49.530 -19.060  1.00  0.00     0.057 A 
HETATM   26  C25 UNL     1      -7.122  48.907 -20.238  1.00  0.00     0.029 A 
HETATM   27  C26 UNL     1      -5.945  49.419 -20.878  1.00  0.00    -0.066 C 
HETATM   28  C27 UNL     1      -5.041  49.650 -21.638  1.00  0.00    -0.101 C 
HETATM   29  C28 UNL     1      -4.166  49.639 -22.819  1.00  0.00     0.103 C 
HETATM   30  C29 UNL     1      -4.361  48.354 -23.690  1.00  0.00     0.049 C 
HETATM   31  C31 UNL     1      -8.692  47.873 -25.935  1.00  0.00     0.032 C 
HETATM   32  C32 UNL     1      -8.094  48.107 -27.317  1.00  0.00    -0.053 C 
HETATM   33  C33 UNL     1      -8.927  48.564 -28.348  1.00  0.00     0.008 C 
HETATM   34  C34 UNL     1      -8.516  48.484 -29.679  1.00  0.00     0.012 C 
HETATM   35  C35 UNL     1      -7.263  47.950 -30.007  1.00  0.00    -0.010 C 
HETATM   36  C36 UNL     1      -6.366  47.663 -28.967  1.00  0.00     0.012 C 
HETATM   37  C37 UNL     1      -6.784  47.726 -27.636  1.00  0.00     0.008 C 
ENDROOT
BRANCH   1  38
HETATM   38  N3  UNL     1      -7.874  48.037 -32.437  1.00  0.00    -0.341 N 
HETATM   39  C1  UNL     1      -7.822  47.585 -33.630  1.00  0.00     0.124 C 
HETATM   40  N1  UNL     1      -8.636  48.094 -34.582  1.00  0.00    -0.279 NA
HETATM   41  N2  UNL     1      -7.045  46.617 -34.166  1.00  0.00    -0.279 NA
HETATM   42  H1  UNL     1      -8.144  48.286 -35.447  1.00  0.00     0.126 HD
HETATM   43  H2  UNL     1      -9.094  48.934 -34.239  1.00  0.00     0.126 HD
HETATM   44  H3  UNL     1      -7.559  46.052 -34.834  1.00  0.00     0.126 HD
HETATM   45  H4  UNL     1      -6.635  46.012 -33.456  1.00  0.00     0.126 HD
ATOM     46  H3  UNL     1      -8.541  48.766 -32.181  1.00  0.00     0.164 HD
ENDBRANCH   1  38
BRANCH  11  47
HETATM   47  S1  UNL     1     -11.435  45.792 -25.398  1.00  0.00     0.099 S 
HETATM   48  O2  UNL     1     -11.540  47.142 -24.890  1.00  0.00    -0.601 OA
HETATM   49  O3  UNL     1     -12.511  45.167 -26.133  1.00  0.00    -0.601 OA
BRANCH  47  50
HETATM   50  O4  UNL     1     -11.186  44.879 -24.090  1.00  0.00    -0.295 OA
HETATM   51  H15 UNL     1     -11.502  45.384 -23.311  1.00  0.00     0.232 HD
ENDBRANCH  47  50
ENDBRANCH  11  47
BRANCH  30  52
HETATM   52  C30 UNL     1      -3.666  48.513 -25.048  1.00  0.00     0.172 C 
BRANCH  52  53
HETATM   53  O7  UNL     1      -4.104  49.693 -25.713  1.00  0.00    -0.400 OA
HETATM   54  H34 UNL     1      -4.988  49.526 -26.078  1.00  0.00     0.209 HD
ENDBRANCH  52  53
ENDBRANCH  30  52
BRANCH  24  55
HETATM   55  O6  UNL     1      -9.072  49.726 -17.271  1.00  0.00    -0.361 OA
HETATM   56  H27 UNL     1      -9.888  49.316 -16.940  1.00  0.00     0.217 HD
ENDBRANCH  24  55
TORSDOF 6
ENDMDL
MODEL 7
REMARK minimizedAffinity -8.79863548
REMARK CNNscore 0.288454413
REMARK CNNaffinity 7.08699989
REMARK  6 active torsions:
REMARK  status: ('A' for Active; 'I' for Inactive)
REMARK       I    between atoms: N1_1  and  C1_2 
REMARK       I    between atoms: C1_2  and  N2_3 
REMARK    1  A    between atoms: N3_4  and  C2_6 
REMARK    2  A    between atoms: C11_16  and  S1_17 
REMARK    3  A    between atoms: S1_17  and  O4_20 
REMARK    4  A    between atoms: C23_33  and  O6_34 
REMARK    5  A    between atoms: C29_40  and  C30_41 
REMARK    6  A    between atoms: C30_41  and  O7_42 
ROOT
HETATM    1  C2  UNL     1      -4.151  50.988  -9.846  1.00  0.00     0.263 C 
HETATM    2  O1  UNL     1      -4.202  51.360 -11.265  1.00  0.00    -0.322 OA
HETATM    3  C3  UNL     1      -3.051  51.141 -11.979  1.00  0.00     0.071 C 
HETATM    4  C4  UNL     1      -2.361  49.932 -11.976  1.00  0.00     0.037 C 
HETATM    5  C5  UNL     1      -1.080  49.866 -12.533  1.00  0.00     0.010 C 
HETATM    6  C6  UNL     1      -0.497  50.999 -13.117  1.00  0.00    -0.058 C 
HETATM    7  C7  UNL     1      -1.260  52.169 -13.233  1.00  0.00     0.010 C 
HETATM    8  C8  UNL     1      -2.537  52.235 -12.674  1.00  0.00     0.037 C 
HETATM    9  C9  UNL     1       0.950  50.981 -13.553  1.00  0.00     0.040 C 
HETATM   10  C10 UNL     1       1.853  51.882 -12.685  1.00  0.00     0.027 C 
HETATM   11  C11 UNL     1       1.963  51.433 -11.201  1.00  0.00     0.130 C 
HETATM   12  C12 UNL     1       1.863  52.638 -10.217  1.00  0.00     0.037 C 
HETATM   13  C13 UNL     1       3.030  53.599 -10.237  1.00  0.00    -0.014 C 
HETATM   14  C14 UNL     1       3.678  53.937  -9.101  1.00  0.00    -0.050 C 
HETATM   15  C15 UNL     1       3.508  53.138  -7.848  1.00  0.00     0.042 C 
HETATM   16  C16 UNL     1       2.011  53.075  -7.600  1.00  0.00     0.001 C 
HETATM   17  C17 UNL     1       1.491  54.499  -7.269  1.00  0.00     0.038 C 
HETATM   18  C18 UNL     1       1.688  55.702  -8.244  1.00  0.00     0.130 C 
HETATM   19  O5  UNL     1       3.010  56.169  -8.566  1.00  0.00    -0.371 OA
HETATM   20  C19 UNL     1       4.128  55.358  -8.921  1.00  0.00     0.185 C 
HETATM   21  C20 UNL     1       5.338  55.576  -7.998  1.00  0.00    -0.006 A 
HETATM   22  C21 UNL     1       6.564  54.999  -8.397  1.00  0.00     0.014 A 
HETATM   23  C22 UNL     1       7.723  55.151  -7.632  1.00  0.00     0.037 A 
HETATM   24  C23 UNL     1       7.673  55.889  -6.456  1.00  0.00     0.067 A 
HETATM   25  C24 UNL     1       6.487  56.476  -6.033  1.00  0.00     0.057 A 
HETATM   26  C25 UNL     1       5.320  56.326  -6.792  1.00  0.00     0.029 A 
HETATM   27  C26 UNL     1       4.118  56.934  -6.301  1.00  0.00    -0.066 C 
HETATM   28  C27 UNL     1       2.982  57.286  -6.123  1.00  0.00    -0.101 C 
HETATM   29  C28 UNL     1       1.524  57.433  -6.249  1.00  0.00     0.103 C 
HETATM   30  C29 UNL     1       1.003  56.998  -7.659  1.00  0.00     0.049 C 
HETATM   31  C31 UNL     1       1.397  52.239  -8.763  1.00  0.00     0.032 C 
HETATM   32  C32 UNL     1      -0.109  52.016  -8.695  1.00  0.00    -0.053 C 
HETATM   33  C33 UNL     1      -0.593  50.721  -8.455  1.00  0.00     0.008 C 
HETATM   34  C34 UNL     1      -1.930  50.406  -8.702  1.00  0.00     0.012 C 
HETATM   35  C35 UNL     1      -2.812  51.379  -9.191  1.00  0.00    -0.010 C 
HETATM   36  C36 UNL     1      -2.370  52.708  -9.259  1.00  0.00     0.012 C 
HETATM   37  C37 UNL     1      -1.028  53.019  -9.028  1.00  0.00     0.008 C 
ENDROOT
BRANCH   1  38
HETATM   38  N3  UNL     1      -4.564  49.614  -9.506  1.00  0.00    -0.341 N 
HETATM   39  C1  UNL     1      -5.773  49.273  -9.737  1.00  0.00     0.124 C 
HETATM   40  N1  UNL     1      -6.200  48.033  -9.410  1.00  0.00    -0.279 NA
HETATM   41  N2  UNL     1      -6.790  49.973 -10.289  1.00  0.00    -0.279 NA
HETATM   42  H1  UNL     1      -7.097  48.047  -8.938  1.00  0.00     0.126 HD
HETATM   43  H2  UNL     1      -5.504  47.562  -8.838  1.00  0.00     0.126 HD
HETATM   44  H3  UNL     1      -7.358  49.391 -10.895  1.00  0.00     0.126 HD
HETATM   45  H4  UNL     1      -6.463  50.785 -10.811  1.00  0.00     0.126 HD
ATOM     46  H3  UNL     1      -3.902  48.954  -9.097  1.00  0.00     0.164 HD
ENDBRANCH   1  38
BRANCH  11  47
HETATM   47  S1  UNL     1       3.469  50.459 -10.925  1.00  0.00     0.099 S 
HETATM   48  O2  UNL     1       3.594  49.402 -11.903  1.00  0.00    -0.601 OA
HETATM   49  O3  UNL     1       4.583  51.312 -10.577  1.00  0.00    -0.601 OA
BRANCH  47  50
HETATM   50  O4  UNL     1       3.026  49.711  -9.564  1.00  0.00    -0.295 OA
HETATM   51  H15 UNL     1       3.282  48.767  -9.648  1.00  0.00     0.232 HD
ENDBRANCH  47  50
ENDBRANCH  11  47
BRANCH  30  52
HETATM   52  C30 UNL     1      -0.526  56.879  -7.654  1.00  0.00     0.172 C 
BRANCH  52  53
HETATM   53  O7  UNL     1      -1.140  58.148  -7.850  1.00  0.00    -0.400 OA
HETATM   54  H34 UNL     1      -1.081  58.645  -7.017  1.00  0.00     0.209 HD
ENDBRANCH  52  53
ENDBRANCH  30  52
BRANCH  24  55
HETATM   55  O6  UNL     1       8.780  56.062  -5.680  1.00  0.00    -0.361 OA
HETATM   56  H27 UNL     1       9.524  55.591  -6.091  1.00  0.00     0.217 HD
ENDBRANCH  24  55
TORSDOF 6
ENDMDL
MODEL 8
REMARK minimizedAffinity -8.55789185
REMARK CNNscore 0.248769835
REMARK CNNaffinity 6.11072779
REMARK  6 active torsions:
REMARK  status: ('A' for Active; 'I' for Inactive)
REMARK       I    between atoms: N1_1  and  C1_2 
REMARK       I    between atoms: C1_2  and  N2_3 
REMARK    1  A    between atoms: N3_4  and  C2_6 
REMARK    2  A    between atoms: C11_16  and  S1_17 
REMARK    3  A    between atoms: S1_17  and  O4_20 
REMARK    4  A    between atoms: C23_33  and  O6_34 
REMARK    5  A    between atoms: C29_40  and  C30_41 
REMARK    6  A    between atoms: C30_41  and  O7_42 
ROOT
HETATM    1  C2  UNL     1     -18.906  42.077 -30.051  1.00  0.00     0.263 C 
HETATM    2  O1  UNL     1     -18.838  40.678 -29.612  1.00  0.00    -0.322 OA
HETATM    3  C3  UNL     1     -19.367  40.417 -28.374  1.00  0.00     0.071 C 
HETATM    4  C4  UNL     1     -20.636  40.829 -27.976  1.00  0.00     0.037 C 
HETATM    5  C5  UNL     1     -21.004  40.733 -26.631  1.00  0.00     0.010 C 
HETATM    6  C6  UNL     1     -20.117  40.201 -25.684  1.00  0.00    -0.058 C 
HETATM    7  C7  UNL     1     -18.899  39.665 -26.126  1.00  0.00     0.010 C 
HETATM    8  C8  UNL     1     -18.531  39.765 -27.468  1.00  0.00     0.037 C 
HETATM    9  C9  UNL     1     -20.438  40.264 -24.209  1.00  0.00     0.040 C 
HETATM   10  C10 UNL     1     -19.515  41.227 -23.432  1.00  0.00     0.027 C 
HETATM   11  C11 UNL     1     -19.653  42.717 -23.850  1.00  0.00     0.130 C 
HETATM   12  C12 UNL     1     -18.267  43.418 -23.983  1.00  0.00     0.037 C 
HETATM   13  C13 UNL     1     -17.513  43.629 -22.690  1.00  0.00    -0.014 C 
HETATM   14  C14 UNL     1     -17.042  44.846 -22.344  1.00  0.00    -0.050 C 
HETATM   15  C15 UNL     1     -17.527  46.084 -23.029  1.00  0.00     0.042 C 
HETATM   16  C16 UNL     1     -17.317  45.842 -24.514  1.00  0.00     0.001 C 
HETATM   17  C17 UNL     1     -15.795  45.764 -24.805  1.00  0.00     0.038 C 
HETATM   18  C18 UNL     1     -14.865  44.731 -24.092  1.00  0.00     0.130 C 
HETATM   19  O5  UNL     1     -14.674  44.785 -22.667  1.00  0.00    -0.371 OA
HETATM   20  C19 UNL     1     -15.696  44.940 -21.685  1.00  0.00     0.185 C 
HETATM   21  C20 UNL     1     -15.468  46.159 -20.776  1.00  0.00    -0.006 A 
HETATM   22  C21 UNL     1     -16.289  46.272 -19.632  1.00  0.00     0.014 A 
HETATM   23  C22 UNL     1     -16.151  47.337 -18.739  1.00  0.00     0.037 A 
HETATM   24  C23 UNL     1     -15.182  48.305 -18.976  1.00  0.00     0.067 A 
HETATM   25  C24 UNL     1     -14.353  48.226 -20.088  1.00  0.00     0.057 A 
HETATM   26  C25 UNL     1     -14.487  47.164 -20.989  1.00  0.00     0.029 A 
HETATM   27  C26 UNL     1     -13.621  47.141 -22.132  1.00  0.00    -0.066 C 
HETATM   28  C27 UNL     1     -13.077  46.885 -23.173  1.00  0.00    -0.101 C 
HETATM   29  C28 UNL     1     -12.748  46.275 -24.470  1.00  0.00     0.103 C 
HETATM   30  C29 UNL     1     -13.389  44.857 -24.637  1.00  0.00     0.049 C 
HETATM   31  C31 UNL     1     -18.279  44.687 -24.922  1.00  0.00     0.032 C 
HETATM   32  C32 UNL     1     -18.261  44.298 -26.395  1.00  0.00    -0.053 C 
HETATM   33  C33 UNL     1     -19.391  44.566 -27.182  1.00  0.00     0.008 C 
HETATM   34  C34 UNL     1     -19.552  43.953 -28.424  1.00  0.00     0.012 C 
HETATM   35  C35 UNL     1     -18.586  43.061 -28.909  1.00  0.00    -0.010 C 
HETATM   36  C36 UNL     1     -17.380  42.935 -28.204  1.00  0.00     0.012 C 
HETATM   37  C37 UNL     1     -17.227  43.536 -26.953  1.00  0.00     0.008 C 
ENDROOT
BRANCH   1  38
HETATM   38  N3  UNL     1     -20.103  42.473 -30.817  1.00  0.00    -0.341 N 
HETATM   39  C1  UNL     1     -19.939  43.165 -31.878  1.00  0.00     0.124 C 
HETATM   40  N1  UNL     1     -21.012  43.575 -32.590  1.00  0.00    -0.279 NA
HETATM   41  N2  UNL     1     -18.805  43.602 -32.471  1.00  0.00    -0.279 NA
HETATM   42  H1  UNL     1     -20.946  44.550 -32.858  1.00  0.00     0.126 HD
HETATM   43  H2  UNL     1     -21.865  43.407 -32.065  1.00  0.00     0.126 HD
HETATM   44  H3  UNL     1     -18.868  43.549 -33.482  1.00  0.00     0.126 HD
HETATM   45  H4  UNL     1     -17.981  43.091 -32.157  1.00  0.00     0.126 HD
ATOM     46  H3  UNL     1     -21.036  42.201 -30.507  1.00  0.00     0.164 HD
ENDBRANCH   1  38
BRANCH  11  47
HETATM   47  S1  UNL     1     -20.757  43.612 -22.721  1.00  0.00     0.099 S 
HETATM   48  O2  UNL     1     -22.114  43.121 -22.818  1.00  0.00    -0.601 OA
HETATM   49  O3  UNL     1     -20.118  43.842 -21.445  1.00  0.00    -0.601 OA
BRANCH  47  50
HETATM   50  O4  UNL     1     -20.779  45.036 -23.482  1.00  0.00    -0.295 OA
HETATM   51  H15 UNL     1     -21.710  45.347 -23.504  1.00  0.00     0.232 HD
ENDBRANCH  47  50
ENDBRANCH  11  47
BRANCH  30  52
HETATM   52  C30 UNL     1     -13.280  44.385 -26.093  1.00  0.00     0.172 C 
BRANCH  52  53
HETATM   53  O7  UNL     1     -11.982  44.640 -26.619  1.00  0.00    -0.400 OA
HETATM   54  H34 UNL     1     -11.918  45.589 -26.821  1.00  0.00     0.209 HD
ENDBRANCH  52  53
ENDBRANCH  30  52
BRANCH  24  55
HETATM   55  O6  UNL     1     -15.014  49.361 -18.130  1.00  0.00    -0.361 OA
HETATM   56  H27 UNL     1     -15.664  49.290 -17.412  1.00  0.00     0.217 HD
ENDBRANCH  24  55
TORSDOF 6
ENDMDL
MODEL 9
REMARK minimizedAffinity -11.8776178
REMARK CNNscore 0.247793645
REMARK CNNaffinity 7.37577677
REMARK  6 active torsions:
REMARK  status: ('A' for Active; 'I' for Inactive)
REMARK       I    between atoms: N1_1  and  C1_2 
REMARK       I    between atoms: C1_2  and  N2_3 
REMARK    1  A    between atoms: N3_4  and  C2_6 
REMARK    2  A    between atoms: C11_16  and  S1_17 
REMARK    3  A    between atoms: S1_17  and  O4_20 
REMARK    4  A    between atoms: C23_33  and  O6_34 
REMARK    5  A    between atoms: C29_40  and  C30_41 
REMARK    6  A    between atoms: C30_41  and  O7_42 
ROOT
HETATM    1  C2  UNL     1      -8.761  46.088 -22.202  1.00  0.00     0.263 C 
HETATM    2  O1  UNL     1      -7.965  44.913 -21.827  1.00  0.00    -0.322 OA
HETATM    3  C3  UNL     1      -6.922  45.151 -20.968  1.00  0.00     0.071 C 
HETATM    4  C4  UNL     1      -7.053  45.859 -19.776  1.00  0.00     0.037 C 
HETATM    5  C5  UNL     1      -5.908  46.260 -19.081  1.00  0.00     0.010 C 
HETATM    6  C6  UNL     1      -4.632  45.934 -19.560  1.00  0.00    -0.058 C 
HETATM    7  C7  UNL     1      -4.523  45.104 -20.685  1.00  0.00     0.010 C 
HETATM    8  C8  UNL     1      -5.666  44.707 -21.380  1.00  0.00     0.037 C 
HETATM    9  C9  UNL     1      -3.396  46.519 -18.916  1.00  0.00     0.040 C 
HETATM   10  C10 UNL     1      -2.663  47.528 -19.826  1.00  0.00     0.027 C 
HETATM   11  C11 UNL     1      -3.486  48.806 -20.152  1.00  0.00     0.130 C 
HETATM   12  C12 UNL     1      -3.375  49.205 -21.655  1.00  0.00     0.037 C 
HETATM   13  C13 UNL     1      -2.019  49.704 -22.102  1.00  0.00    -0.014 C 
HETATM   14  C14 UNL     1      -1.885  50.880 -22.751  1.00  0.00    -0.050 C 
HETATM   15  C15 UNL     1      -2.990  51.889 -22.756  1.00  0.00     0.042 C 
HETATM   16  C16 UNL     1      -4.219  51.151 -23.255  1.00  0.00     0.001 C 
HETATM   17  C17 UNL     1      -4.004  50.750 -24.738  1.00  0.00     0.038 C 
HETATM   18  C18 UNL     1      -2.795  49.874 -25.194  1.00  0.00     0.130 C 
HETATM   19  O5  UNL     1      -1.448  50.356 -25.041  1.00  0.00    -0.371 OA
HETATM   20  C19 UNL     1      -0.900  50.975 -23.880  1.00  0.00     0.185 C 
HETATM   21  C20 UNL     1      -0.325  52.372 -24.165  1.00  0.00    -0.006 A 
HETATM   22  C21 UNL     1       0.443  52.973 -23.142  1.00  0.00     0.014 A 
HETATM   23  C22 UNL     1       1.017  54.236 -23.310  1.00  0.00     0.037 A 
HETATM   24  C23 UNL     1       0.835  54.915 -24.509  1.00  0.00     0.067 A 
HETATM   25  C24 UNL     1       0.090  54.354 -25.539  1.00  0.00     0.057 A 
HETATM   26  C25 UNL     1      -0.491  53.091 -25.378  1.00  0.00     0.029 A 
HETATM   27  C26 UNL     1      -1.268  52.567 -26.464  1.00  0.00    -0.066 C 
HETATM   28  C27 UNL     1      -1.987  51.909 -27.166  1.00  0.00    -0.101 C 
HETATM   29  C28 UNL     1      -2.911  50.868 -27.644  1.00  0.00     0.103 C 
HETATM   30  C29 UNL     1      -2.879  49.589 -26.744  1.00  0.00     0.049 C 
HETATM   31  C31 UNL     1      -4.576  50.088 -22.173  1.00  0.00     0.032 C 
HETATM   32  C32 UNL     1      -5.814  49.245 -22.454  1.00  0.00    -0.053 C 
HETATM   33  C33 UNL     1      -6.948  49.415 -21.645  1.00  0.00     0.008 C 
HETATM   34  C34 UNL     1      -7.969  48.465 -21.648  1.00  0.00     0.012 C 
HETATM   35  C35 UNL     1      -7.882  47.327 -22.461  1.00  0.00    -0.010 C 
HETATM   36  C36 UNL     1      -6.838  47.253 -23.396  1.00  0.00     0.012 C 
HETATM   37  C37 UNL     1      -5.807  48.195 -23.380  1.00  0.00     0.008 C 
ENDROOT
BRANCH   1  38
HETATM   38  N3  UNL     1      -9.929  46.393 -21.357  1.00  0.00    -0.341 N 
HETATM   39  C1  UNL     1     -11.060  46.561 -21.927  1.00  0.00     0.124 C 
HETATM   40  N1  UNL     1     -12.149  46.874 -21.190  1.00  0.00    -0.279 NA
HETATM   41  N2  UNL     1     -11.402  46.479 -23.232  1.00  0.00    -0.279 NA
HETATM   42  H1  UNL     1     -12.688  47.627 -21.601  1.00  0.00     0.126 HD
HETATM   43  H2  UNL     1     -11.873  47.110 -20.241  1.00  0.00     0.126 HD
HETATM   44  H3  UNL     1     -12.312  46.048 -23.354  1.00  0.00     0.126 HD
HETATM   45  H4  UNL     1     -10.711  45.972 -23.783  1.00  0.00     0.126 HD
ATOM     46  H3  UNL     1      -9.837  46.468 -20.343  1.00  0.00     0.164 HD
ENDBRANCH   1  38
BRANCH  11  47
HETATM   47  S1  UNL     1      -3.026  50.176 -19.053  1.00  0.00     0.099 S 
HETATM   48  O2  UNL     1      -3.404  51.450 -19.622  1.00  0.00    -0.601 OA
HETATM   49  O3  UNL     1      -3.295  49.846 -17.672  1.00  0.00    -0.601 OA
BRANCH  47  50
HETATM   50  O4  UNL     1      -1.423  50.103 -19.235  1.00  0.00    -0.295 OA
HETATM   51  H15 UNL     1      -1.095  51.021 -19.350  1.00  0.00     0.232 HD
ENDBRANCH  47  50
ENDBRANCH  11  47
BRANCH  30  52
HETATM   52  C30 UNL     1      -4.052  48.661 -27.087  1.00  0.00     0.172 C 
BRANCH  52  53
HETATM   53  O7  UNL     1      -3.927  48.142 -28.406  1.00  0.00    -0.400 OA
HETATM   54  H34 UNL     1      -4.174  48.843 -29.032  1.00  0.00     0.209 HD
ENDBRANCH  52  53
ENDBRANCH  30  52
BRANCH  24  55
HETATM   55  O6  UNL     1       1.378  56.148 -24.714  1.00  0.00    -0.361 OA
HETATM   56  H27 UNL     1       1.857  56.414 -23.912  1.00  0.00     0.217 HD
ENDBRANCH  24  55
TORSDOF 6
ENDMDL
