MODEL 1
REMARK minimizedAffinity -7.79991865
REMARK  5 active torsions:
REMARK  status: ('A' for Active; 'I' for Inactive)
REMARK    1  A    between atoms: O1_2  and  C2_3 
REMARK    2  A    between atoms: C2_3  and  C3_4 
REMARK    3  A    between atoms: C3_4  and  C4_5 
REMARK    4  A    between atoms: C7_8  and  C8_9 
REMARK    5  A    between atoms: C12_15  and  N2_16 
ROOT
HETATM    1  C8  UNL     1      -6.668   5.103  13.223  1.00  0.00     0.092 A 
HETATM    2  C9  UNL     1      -6.342   3.804  12.862  1.00  0.00     0.036 A 
HETATM    3  C10 UNL     1      -7.217   2.613  12.752  1.00  0.00     0.070 C 
HETATM    4  N1  UNL     1      -5.001   3.687  12.595  1.00  0.00    -0.341 N 
ATOM      5  H1  UNL     1      -4.505   2.845  12.304  1.00  0.00     0.167 HD
HETATM    6  C11 UNL     1      -4.482   4.887  12.792  1.00  0.00     0.154 A 
HETATM    7  C12 UNL     1      -3.127   5.365  12.657  1.00  0.00     0.078 A 
HETATM    8  C17 UNL     1      -2.939   6.676  12.905  1.00  0.00     0.052 A 
HETATM    9  C18 UNL     1      -4.088   7.514  13.296  1.00  0.00     0.110 A 
HETATM   10  N3  UNL     1      -5.309   7.123  13.438  1.00  0.00    -0.303 N 
ATOM     11  H3  UNL     1      -6.072   7.739  13.716  1.00  0.00     0.186 HD
HETATM   12  N4  UNL     1      -5.467   5.790  13.173  1.00  0.00    -0.235 N 
ENDROOT
BRANCH   1  13
HETATM   13  C7  UNL     1      -7.955   5.702  13.572  1.00  0.00     0.010 A 
HETATM   14  C6  UNL     1      -8.914   6.005  12.606  1.00  0.00     0.017 A 
HETATM   15  C5  UNL     1     -10.121   6.597  12.981  1.00  0.00     0.026 A 
HETATM   16  C4  UNL     1     -10.344   6.890  14.324  1.00  0.00     0.011 A 
HETATM   17  N5  UNL     1      -9.439   6.588  15.284  1.00  0.00    -0.368 N 
HETATM   18  C19 UNL     1      -8.276   6.012  14.888  1.00  0.00     0.102 A 
ATOM     19  H5  UNL     1      -9.625   6.785  16.268  1.00  0.00     0.165 HD
BRANCH  16  20
HETATM   20  C3  UNL     1     -11.643   7.512  14.781  1.00  0.00     0.083 C 
BRANCH  20  21
HETATM   21  C2  UNL     1     -12.880   6.661  14.493  1.00  0.00     0.173 C 
BRANCH  21  22
HETATM   22  O1  UNL     1     -13.402   6.965  13.199  1.00  0.00    -0.396 OA
HETATM   23  C1  UNL     1     -13.719   8.342  13.064  1.00  0.00     0.201 C 
ENDBRANCH  21  22
ENDBRANCH  20  21
ENDBRANCH  16  20
ENDBRANCH   1  13
BRANCH   7  24
HETATM   24  N2  UNL     1      -2.060   4.515  12.296  1.00  0.00    -0.374 N 
HETATM   25  C13 UNL     1      -2.168   3.544  11.179  1.00  0.00     0.149 C 
HETATM   26  C14 UNL     1      -1.136   2.416  11.340  1.00  0.00     0.187 C 
HETATM   27  O2  UNL     1       0.227   2.863  11.372  1.00  0.00    -0.388 OA
HETATM   28  C15 UNL     1       0.362   4.212  11.835  1.00  0.00     0.187 C 
HETATM   29  C16 UNL     1      -0.701   4.613  12.870  1.00  0.00     0.149 C 
ENDBRANCH   7  24
TORSDOF 5
ENDMDL
MODEL 2
REMARK minimizedAffinity -7.58197069
REMARK  5 active torsions:
REMARK  status: ('A' for Active; 'I' for Inactive)
REMARK    1  A    between atoms: O1_2  and  C2_3 
REMARK    2  A    between atoms: C2_3  and  C3_4 
REMARK    3  A    between atoms: C3_4  and  C4_5 
REMARK    4  A    between atoms: C7_8  and  C8_9 
REMARK    5  A    between atoms: C12_15  and  N2_16 
ROOT
HETATM    1  C8  UNL     1      -6.884   5.245  13.379  1.00  0.00     0.092 A 
HETATM    2  C9  UNL     1      -6.567   3.937  13.038  1.00  0.00     0.036 A 
HETATM    3  C10 UNL     1      -7.444   2.744  12.979  1.00  0.00     0.070 C 
HETATM    4  N1  UNL     1      -5.233   3.815  12.738  1.00  0.00    -0.341 N 
ATOM      5  H1  UNL     1      -4.744   2.966  12.453  1.00  0.00     0.167 HD
HETATM    6  C11 UNL     1      -4.710   5.019  12.894  1.00  0.00     0.154 A 
HETATM    7  C12 UNL     1      -3.359   5.494  12.712  1.00  0.00     0.078 A 
HETATM    8  C17 UNL     1      -3.166   6.809  12.926  1.00  0.00     0.052 A 
HETATM    9  C18 UNL     1      -4.303   7.656  13.329  1.00  0.00     0.110 A 
HETATM   10  N3  UNL     1      -5.520   7.268  13.513  1.00  0.00    -0.303 N 
ATOM     11  H3  UNL     1      -6.276   7.891  13.797  1.00  0.00     0.186 HD
HETATM   12  N4  UNL     1      -5.684   5.930  13.282  1.00  0.00    -0.235 N 
ENDROOT
BRANCH   1  13
HETATM   13  C7  UNL     1      -8.161   5.851  13.750  1.00  0.00     0.010 A 
HETATM   14  C6  UNL     1      -9.137   6.153  12.801  1.00  0.00     0.017 A 
HETATM   15  C5  UNL     1     -10.333   6.753  13.195  1.00  0.00     0.026 A 
HETATM   16  C4  UNL     1     -10.530   7.054  14.540  1.00  0.00     0.011 A 
HETATM   17  N5  UNL     1      -9.608   6.752  15.485  1.00  0.00    -0.368 N 
HETATM   18  C19 UNL     1      -8.455   6.170  15.070  1.00  0.00     0.102 A 
ATOM     19  H5  UNL     1      -9.774   6.956  16.471  1.00  0.00     0.165 HD
BRANCH  16  20
HETATM   20  C3  UNL     1     -11.817   7.684  15.019  1.00  0.00     0.083 C 
BRANCH  20  21
HETATM   21  C2  UNL     1     -12.205   8.961  14.273  1.00  0.00     0.173 C 
BRANCH  21  22
HETATM   22  O1  UNL     1     -11.065   9.802  14.102  1.00  0.00    -0.396 OA
HETATM   23  C1  UNL     1     -11.011  10.830  15.080  1.00  0.00     0.201 C 
ENDBRANCH  21  22
ENDBRANCH  20  21
ENDBRANCH  16  20
ENDBRANCH   1  13
BRANCH   7  24
HETATM   24  N2  UNL     1      -2.302   4.636  12.342  1.00  0.00    -0.374 N 
HETATM   25  C13 UNL     1      -2.411   3.697  11.198  1.00  0.00     0.149 C 
HETATM   26  C14 UNL     1      -1.400   2.548  11.341  1.00  0.00     0.187 C 
HETATM   27  O2  UNL     1      -0.030   2.971  11.402  1.00  0.00    -0.388 OA
HETATM   28  C15 UNL     1       0.120   4.304  11.903  1.00  0.00     0.187 C 
HETATM   29  C16 UNL     1      -0.949   4.695  12.935  1.00  0.00     0.149 C 
ENDBRANCH   7  24
TORSDOF 5
ENDMDL
MODEL 3
REMARK minimizedAffinity -7.50952291
REMARK  5 active torsions:
REMARK  status: ('A' for Active; 'I' for Inactive)
REMARK    1  A    between atoms: O1_2  and  C2_3 
REMARK    2  A    between atoms: C2_3  and  C3_4 
REMARK    3  A    between atoms: C3_4  and  C4_5 
REMARK    4  A    between atoms: C7_8  and  C8_9 
REMARK    5  A    between atoms: C12_15  and  N2_16 
ROOT
HETATM    1  C8  UNL     1      -6.747   5.819  13.339  1.00  0.00     0.092 A 
HETATM    2  C9  UNL     1      -5.589   6.567  13.499  1.00  0.00     0.036 A 
HETATM    3  C10 UNL     1      -5.427   7.948  14.012  1.00  0.00     0.070 C 
HETATM    4  N1  UNL     1      -4.484   5.860  13.092  1.00  0.00    -0.341 N 
ATOM      5  H1  UNL     1      -3.515   6.175  13.110  1.00  0.00     0.167 HD
HETATM    6  C11 UNL     1      -4.932   4.689  12.673  1.00  0.00     0.154 A 
HETATM    7  C12 UNL     1      -4.232   3.543  12.146  1.00  0.00     0.078 A 
HETATM    8  C17 UNL     1      -4.996   2.477  11.840  1.00  0.00     0.052 A 
HETATM    9  C18 UNL     1      -6.455   2.545  12.046  1.00  0.00     0.110 A 
HETATM   10  N3  UNL     1      -7.118   3.552  12.504  1.00  0.00    -0.303 N 
ATOM     11  H3  UNL     1      -8.131   3.556  12.625  1.00  0.00     0.186 HD
HETATM   12  N4  UNL     1      -6.313   4.615  12.810  1.00  0.00    -0.235 N 
ENDROOT
BRANCH   1  13
HETATM   13  C7  UNL     1      -8.139   6.138  13.648  1.00  0.00     0.010 A 
HETATM   14  C6  UNL     1      -9.098   6.302  12.649  1.00  0.00     0.017 A 
HETATM   15  C5  UNL     1     -10.411   6.629  12.987  1.00  0.00     0.026 A 
HETATM   16  C4  UNL     1     -10.744   6.801  14.328  1.00  0.00     0.011 A 
HETATM   17  N5  UNL     1      -9.838   6.627  15.320  1.00  0.00    -0.368 N 
HETATM   18  C19 UNL     1      -8.569   6.309  14.959  1.00  0.00     0.102 A 
ATOM     19  H5  UNL     1     -10.099   6.732  16.300  1.00  0.00     0.165 HD
BRANCH  16  20
HETATM   20  C3  UNL     1     -12.156   7.134  14.746  1.00  0.00     0.083 C 
BRANCH  20  21
HETATM   21  C2  UNL     1     -13.231   6.626  13.783  1.00  0.00     0.173 C 
BRANCH  21  22
HETATM   22  O1  UNL     1     -13.898   5.493  14.339  1.00  0.00    -0.396 OA
HETATM   23  C1  UNL     1     -15.101   5.857  15.000  1.00  0.00     0.201 C 
ENDBRANCH  21  22
ENDBRANCH  20  21
ENDBRANCH  16  20
ENDBRANCH   1  13
BRANCH   7  24
HETATM   24  N2  UNL     1      -2.834   3.537  11.952  1.00  0.00    -0.374 N 
HETATM   25  C13 UNL     1      -2.169   2.587  11.026  1.00  0.00     0.149 C 
HETATM   26  C14 UNL     1      -0.687   2.418  11.394  1.00  0.00     0.187 C 
HETATM   27  O2  UNL     1       0.073   3.635  11.356  1.00  0.00    -0.388 OA
HETATM   28  C15 UNL     1      -0.730   4.801  11.572  1.00  0.00     0.187 C 
HETATM   29  C16 UNL     1      -1.923   4.559  12.510  1.00  0.00     0.149 C 
ENDBRANCH   7  24
TORSDOF 5
ENDMDL
MODEL 4
REMARK minimizedAffinity -7.50948668
REMARK  5 active torsions:
REMARK  status: ('A' for Active; 'I' for Inactive)
REMARK    1  A    between atoms: O1_2  and  C2_3 
REMARK    2  A    between atoms: C2_3  and  C3_4 
REMARK    3  A    between atoms: C3_4  and  C4_5 
REMARK    4  A    between atoms: C7_8  and  C8_9 
REMARK    5  A    between atoms: C12_15  and  N2_16 
ROOT
HETATM    1  C8  UNL     1      -1.462   6.354  12.316  1.00  0.00     0.092 A 
HETATM    2  C9  UNL     1      -2.045   7.444  12.945  1.00  0.00     0.036 A 
HETATM    3  C10 UNL     1      -1.499   8.805  13.163  1.00  0.00     0.070 C 
HETATM    4  N1  UNL     1      -3.298   7.133  13.412  1.00  0.00    -0.341 N 
ATOM      5  H1  UNL     1      -3.940   7.753  13.905  1.00  0.00     0.167 HD
HETATM    6  C11 UNL     1      -3.504   5.866  13.094  1.00  0.00     0.154 A 
HETATM    7  C12 UNL     1      -4.641   5.008  13.321  1.00  0.00     0.078 A 
HETATM    8  C17 UNL     1      -4.539   3.757  12.830  1.00  0.00     0.052 A 
HETATM    9  C18 UNL     1      -3.310   3.350  12.124  1.00  0.00     0.110 A 
HETATM   10  N3  UNL     1      -2.271   4.083  11.911  1.00  0.00    -0.303 N 
ATOM     11  H3  UNL     1      -1.438   3.757  11.421  1.00  0.00     0.186 HD
HETATM   12  N4  UNL     1      -2.408   5.348  12.416  1.00  0.00    -0.235 N 
ENDROOT
BRANCH   1  13
HETATM   13  C7  UNL     1      -0.165   6.215  11.656  1.00  0.00     0.010 A 
HETATM   14  C6  UNL     1       0.128   6.871  10.461  1.00  0.00     0.017 A 
HETATM   15  C5  UNL     1       1.371   6.692   9.853  1.00  0.00     0.026 A 
HETATM   16  C4  UNL     1       2.302   5.843  10.448  1.00  0.00     0.011 A 
HETATM   17  N5  UNL     1       2.051   5.211  11.619  1.00  0.00    -0.368 N 
HETATM   18  C19 UNL     1       0.833   5.405  12.185  1.00  0.00     0.102 A 
ATOM     19  H5  UNL     1       2.750   4.611  12.057  1.00  0.00     0.165 HD
BRANCH  16  20
HETATM   20  C3  UNL     1       3.668   5.634   9.839  1.00  0.00     0.083 C 
BRANCH  20  21
HETATM   21  C2  UNL     1       3.845   4.282   9.147  1.00  0.00     0.173 C 
BRANCH  21  22
HETATM   22  O1  UNL     1       3.510   4.384   7.764  1.00  0.00    -0.396 OA
HETATM   23  C1  UNL     1       4.245   3.466   6.969  1.00  0.00     0.201 C 
ENDBRANCH  21  22
ENDBRANCH  20  21
ENDBRANCH  16  20
ENDBRANCH   1  13
BRANCH   7  24
HETATM   24  N2  UNL     1      -5.787   5.443  14.019  1.00  0.00    -0.374 N 
HETATM   25  C13 UNL     1      -5.697   6.139  15.327  1.00  0.00     0.149 C 
HETATM   26  C14 UNL     1      -7.021   6.015  16.099  1.00  0.00     0.187 C 
HETATM   27  O2  UNL     1      -8.157   6.561  15.415  1.00  0.00    -0.388 OA
HETATM   28  C15 UNL     1      -8.001   6.569  13.991  1.00  0.00     0.187 C 
HETATM   29  C16 UNL     1      -7.156   5.401  13.461  1.00  0.00     0.149 C 
ENDBRANCH   7  24
TORSDOF 5
ENDMDL
MODEL 5
REMARK minimizedAffinity -7.49309492
REMARK  5 active torsions:
REMARK  status: ('A' for Active; 'I' for Inactive)
REMARK    1  A    between atoms: O1_2  and  C2_3 
REMARK    2  A    between atoms: C2_3  and  C3_4 
REMARK    3  A    between atoms: C3_4  and  C4_5 
REMARK    4  A    between atoms: C7_8  and  C8_9 
REMARK    5  A    between atoms: C12_15  and  N2_16 
ROOT
HETATM    1  C8  UNL     1      -1.333   6.672  12.352  1.00  0.00     0.092 A 
HETATM    2  C9  UNL     1      -2.022   7.769  12.849  1.00  0.00     0.036 A 
HETATM    3  C10 UNL     1      -1.573   9.175  12.986  1.00  0.00     0.070 C 
HETATM    4  N1  UNL     1      -3.283   7.416  13.259  1.00  0.00    -0.341 N 
ATOM      5  H1  UNL     1      -3.993   8.031  13.656  1.00  0.00     0.167 HD
HETATM    6  C11 UNL     1      -3.391   6.117  13.036  1.00  0.00     0.154 A 
HETATM    7  C12 UNL     1      -4.489   5.207  13.261  1.00  0.00     0.078 A 
HETATM    8  C17 UNL     1      -4.279   3.931  12.885  1.00  0.00     0.052 A 
HETATM    9  C18 UNL     1      -2.982   3.549  12.296  1.00  0.00     0.110 A 
HETATM   10  N3  UNL     1      -1.976   4.329  12.089  1.00  0.00    -0.303 N 
ATOM     11  H3  UNL     1      -1.093   4.018  11.682  1.00  0.00     0.186 HD
HETATM   12  N4  UNL     1      -2.222   5.618  12.476  1.00  0.00    -0.235 N 
ENDROOT
BRANCH   1  13
HETATM   13  C7  UNL     1       0.013   6.564  11.791  1.00  0.00     0.010 A 
HETATM   14  C6  UNL     1       0.243   6.593  10.416  1.00  0.00     0.017 A 
HETATM   15  C5  UNL     1       1.541   6.464   9.922  1.00  0.00     0.026 A 
HETATM   16  C4  UNL     1       2.594   6.295  10.817  1.00  0.00     0.011 A 
HETATM   17  N5  UNL     1       2.402   6.284  12.158  1.00  0.00    -0.368 N 
HETATM   18  C19 UNL     1       1.127   6.412  12.607  1.00  0.00     0.102 A 
ATOM     19  H5  UNL     1       3.184   6.184  12.804  1.00  0.00     0.165 HD
BRANCH  16  20
HETATM   20  C3  UNL     1       4.019   6.172  10.332  1.00  0.00     0.083 C 
BRANCH  20  21
HETATM   21  C2  UNL     1       4.880   7.408  10.597  1.00  0.00     0.173 C 
BRANCH  21  22
HETATM   22  O1  UNL     1       6.265   7.085  10.472  1.00  0.00    -0.396 OA
HETATM   23  C1  UNL     1       6.600   5.901  11.181  1.00  0.00     0.201 C 
ENDBRANCH  21  22
ENDBRANCH  20  21
ENDBRANCH  16  20
ENDBRANCH   1  13
BRANCH   7  24
HETATM   24  N2  UNL     1      -5.704   5.622  13.845  1.00  0.00    -0.374 N 
HETATM   25  C13 UNL     1      -7.018   5.356  13.208  1.00  0.00     0.149 C 
HETATM   26  C14 UNL     1      -8.081   6.338  13.726  1.00  0.00     0.187 C 
HETATM   27  O2  UNL     1      -8.289   6.289  15.145  1.00  0.00    -0.388 OA
HETATM   28  C15 UNL     1      -7.140   5.823  15.862  1.00  0.00     0.187 C 
HETATM   29  C16 UNL     1      -5.808   6.205  15.200  1.00  0.00     0.149 C 
ENDBRANCH   7  24
TORSDOF 5
ENDMDL
MODEL 6
REMARK minimizedAffinity -7.46370173
REMARK  5 active torsions:
REMARK  status: ('A' for Active; 'I' for Inactive)
REMARK    1  A    between atoms: O1_2  and  C2_3 
REMARK    2  A    between atoms: C2_3  and  C3_4 
REMARK    3  A    between atoms: C3_4  and  C4_5 
REMARK    4  A    between atoms: C7_8  and  C8_9 
REMARK    5  A    between atoms: C12_15  and  N2_16 
ROOT
HETATM    1  C8  UNL     1      -2.681   5.759  12.891  1.00  0.00     0.092 A 
HETATM    2  C9  UNL     1      -2.207   4.662  12.185  1.00  0.00     0.036 A 
HETATM    3  C10 UNL     1      -2.753   3.287  12.111  1.00  0.00     0.070 C 
HETATM    4  N1  UNL     1      -1.063   4.977  11.494  1.00  0.00    -0.341 N 
ATOM      5  H1  UNL     1      -0.519   4.356  10.895  1.00  0.00     0.167 HD
HETATM    6  C11 UNL     1      -0.810   6.247  11.762  1.00  0.00     0.154 A 
HETATM    7  C12 UNL     1       0.251   7.114  11.312  1.00  0.00     0.078 A 
HETATM    8  C17 UNL     1       0.198   8.385  11.754  1.00  0.00     0.052 A 
HETATM    9  C18 UNL     1      -0.899   8.799  12.649  1.00  0.00     0.110 A 
HETATM   10  N3  UNL     1      -1.857   8.052  13.082  1.00  0.00    -0.303 N 
ATOM     11  H3  UNL     1      -2.594   8.381  13.706  1.00  0.00     0.186 HD
HETATM   12  N4  UNL     1      -1.778   6.770  12.611  1.00  0.00    -0.235 N 
ENDROOT
BRANCH   1  13
HETATM   13  C7  UNL     1      -3.861   5.909  13.741  1.00  0.00     0.010 A 
HETATM   14  C6  UNL     1      -5.155   5.834  13.227  1.00  0.00     0.017 A 
HETATM   15  C5  UNL     1      -6.253   6.006  14.071  1.00  0.00     0.026 A 
HETATM   16  C4  UNL     1      -6.036   6.264  15.422  1.00  0.00     0.011 A 
HETATM   17  N5  UNL     1      -4.791   6.321  15.951  1.00  0.00    -0.368 N 
HETATM   18  C19 UNL     1      -3.744   6.150  15.105  1.00  0.00     0.102 A 
ATOM     19  H5  UNL     1      -4.646   6.486  16.947  1.00  0.00     0.165 HD
BRANCH  16  20
HETATM   20  C3  UNL     1      -7.192   6.436  16.379  1.00  0.00     0.083 C 
BRANCH  20  21
HETATM   21  C2  UNL     1      -8.376   7.211  15.798  1.00  0.00     0.173 C 
BRANCH  21  22
HETATM   22  O1  UNL     1      -7.994   8.555  15.505  1.00  0.00    -0.396 OA
HETATM   23  C1  UNL     1      -9.117   9.380  15.233  1.00  0.00     0.201 C 
ENDBRANCH  21  22
ENDBRANCH  20  21
ENDBRANCH  16  20
ENDBRANCH   1  13
BRANCH   7  24
HETATM   24  N2  UNL     1       1.288   6.662  10.468  1.00  0.00    -0.374 N 
HETATM   25  C13 UNL     1       1.634   7.355   9.202  1.00  0.00     0.149 C 
HETATM   26  C14 UNL     1       2.373   6.403   8.248  1.00  0.00     0.187 C 
HETATM   27  O2  UNL     1       3.596   5.869   8.776  1.00  0.00    -0.388 OA
HETATM   28  C15 UNL     1       3.610   5.819  10.208  1.00  0.00     0.187 C 
HETATM   29  C16 UNL     1       2.225   5.576  10.826  1.00  0.00     0.149 C 
ENDBRANCH   7  24
TORSDOF 5
ENDMDL
MODEL 7
REMARK minimizedAffinity -7.43444872
REMARK  5 active torsions:
REMARK  status: ('A' for Active; 'I' for Inactive)
REMARK    1  A    between atoms: O1_2  and  C2_3 
REMARK    2  A    between atoms: C2_3  and  C3_4 
REMARK    3  A    between atoms: C3_4  and  C4_5 
REMARK    4  A    between atoms: C7_8  and  C8_9 
REMARK    5  A    between atoms: C12_15  and  N2_16 
ROOT
HETATM    1  C8  UNL     1      -2.244   4.846  12.148  1.00  0.00     0.092 A 
HETATM    2  C9  UNL     1      -1.364   3.894  11.652  1.00  0.00     0.036 A 
HETATM    3  C10 UNL     1      -1.581   2.447  11.417  1.00  0.00     0.070 C 
HETATM    4  N1  UNL     1      -0.140   4.451  11.376  1.00  0.00    -0.341 N 
ATOM      5  H1  UNL     1       0.679   3.974  10.999  1.00  0.00     0.167 HD
HETATM    6  C11 UNL     1      -0.237   5.729  11.699  1.00  0.00     0.154 A 
HETATM    7  C12 UNL     1       0.726   6.801  11.616  1.00  0.00     0.078 A 
HETATM    8  C17 UNL     1       0.288   8.015  12.001  1.00  0.00     0.052 A 
HETATM    9  C18 UNL     1      -1.099   8.171  12.477  1.00  0.00     0.110 A 
HETATM   10  N3  UNL     1      -1.985   7.238  12.575  1.00  0.00    -0.303 N 
ATOM     11  H3  UNL     1      -2.934   7.391  12.916  1.00  0.00     0.186 HD
HETATM   12  N4  UNL     1      -1.511   6.019  12.172  1.00  0.00    -0.235 N 
ENDROOT
BRANCH   1  13
HETATM   13  C7  UNL     1      -3.643   4.730  12.557  1.00  0.00     0.010 A 
HETATM   14  C6  UNL     1      -4.537   3.888  11.897  1.00  0.00     0.017 A 
HETATM   15  C5  UNL     1      -5.869   3.825  12.306  1.00  0.00     0.026 A 
HETATM   16  C4  UNL     1      -6.292   4.621  13.368  1.00  0.00     0.011 A 
HETATM   17  N5  UNL     1      -5.440   5.431  14.040  1.00  0.00    -0.368 N 
HETATM   18  C19 UNL     1      -4.150   5.470  13.618  1.00  0.00     0.102 A 
ATOM     19  H5  UNL     1      -5.755   5.991  14.832  1.00  0.00     0.165 HD
BRANCH  16  20
HETATM   20  C3  UNL     1      -7.718   4.572  13.861  1.00  0.00     0.083 C 
BRANCH  20  21
HETATM   21  C2  UNL     1      -8.521   5.844  13.584  1.00  0.00     0.173 C 
BRANCH  21  22
HETATM   22  O1  UNL     1      -8.202   6.851  14.545  1.00  0.00    -0.396 OA
HETATM   23  C1  UNL     1      -8.470   6.423  15.872  1.00  0.00     0.201 C 
ENDBRANCH  21  22
ENDBRANCH  20  21
ENDBRANCH  16  20
ENDBRANCH   1  13
BRANCH   7  24
HETATM   24  N2  UNL     1       2.048   6.593  11.169  1.00  0.00    -0.374 N 
HETATM   25  C13 UNL     1       2.351   6.075   9.811  1.00  0.00     0.149 C 
HETATM   26  C14 UNL     1       3.752   5.445   9.771  1.00  0.00     0.187 C 
HETATM   27  O2  UNL     1       4.814   6.346  10.118  1.00  0.00    -0.388 OA
HETATM   28  C15 UNL     1       4.385   7.412  10.973  1.00  0.00     0.187 C 
HETATM   29  C16 UNL     1       3.247   7.015  11.925  1.00  0.00     0.149 C 
ENDBRANCH   7  24
TORSDOF 5
ENDMDL
MODEL 8
REMARK minimizedAffinity -7.36657381
REMARK  5 active torsions:
REMARK  status: ('A' for Active; 'I' for Inactive)
REMARK    1  A    between atoms: O1_2  and  C2_3 
REMARK    2  A    between atoms: C2_3  and  C3_4 
REMARK    3  A    between atoms: C3_4  and  C4_5 
REMARK    4  A    between atoms: C7_8  and  C8_9 
REMARK    5  A    between atoms: C12_15  and  N2_16 
ROOT
HETATM    1  C8  UNL     1      -0.956   5.625  12.230  1.00  0.00     0.092 A 
HETATM    2  C9  UNL     1      -1.293   4.283  12.122  1.00  0.00     0.036 A 
HETATM    3  C10 UNL     1      -0.446   3.132  11.732  1.00  0.00     0.070 C 
HETATM    4  N1  UNL     1      -2.616   4.080  12.427  1.00  0.00    -0.341 N 
ATOM      5  H1  UNL     1      -3.114   3.190  12.431  1.00  0.00     0.167 HD
HETATM    6  C11 UNL     1      -3.113   5.271  12.714  1.00  0.00     0.154 A 
HETATM    7  C12 UNL     1      -4.442   5.670  13.111  1.00  0.00     0.078 A 
HETATM    8  C17 UNL     1      -4.610   6.982  13.366  1.00  0.00     0.052 A 
HETATM    9  C18 UNL     1      -3.468   7.904  13.219  1.00  0.00     0.110 A 
HETATM   10  N3  UNL     1      -2.271   7.588  12.857  1.00  0.00    -0.303 N 
ATOM     11  H3  UNL     1      -1.511   8.262  12.764  1.00  0.00     0.186 HD
HETATM   12  N4  UNL     1      -2.132   6.249  12.612  1.00  0.00    -0.235 N 
ENDROOT
BRANCH   1  13
HETATM   13  C7  UNL     1       0.320   6.308  12.026  1.00  0.00     0.010 A 
HETATM   14  C6  UNL     1       0.601   7.014  10.857  1.00  0.00     0.017 A 
HETATM   15  C5  UNL     1       1.841   7.632  10.695  1.00  0.00     0.026 A 
HETATM   16  C4  UNL     1       2.791   7.522  11.707  1.00  0.00     0.011 A 
HETATM   17  N5  UNL     1       2.537   6.861  12.861  1.00  0.00    -0.368 N 
HETATM   18  C19 UNL     1       1.322   6.271  12.989  1.00  0.00     0.102 A 
ATOM     19  H5  UNL     1       3.233   6.808  13.605  1.00  0.00     0.165 HD
BRANCH  16  20
HETATM   20  C3  UNL     1       4.140   8.191  11.586  1.00  0.00     0.083 C 
BRANCH  20  21
HETATM   21  C2  UNL     1       4.916   7.814  10.324  1.00  0.00     0.173 C 
BRANCH  21  22
HETATM   22  O1  UNL     1       5.327   6.449  10.383  1.00  0.00    -0.396 OA
HETATM   23  C1  UNL     1       6.253   6.217  11.434  1.00  0.00     0.201 C 
ENDBRANCH  21  22
ENDBRANCH  20  21
ENDBRANCH  16  20
ENDBRANCH   1  13
BRANCH   7  24
HETATM   24  N2  UNL     1      -5.505   4.749  13.219  1.00  0.00    -0.374 N 
HETATM   25  C13 UNL     1      -6.781   5.090  13.897  1.00  0.00     0.149 C 
HETATM   26  C14 UNL     1      -7.514   3.816  14.347  1.00  0.00     0.187 C 
HETATM   27  O2  UNL     1      -7.840   2.914  13.279  1.00  0.00    -0.388 OA
HETATM   28  C15 UNL     1      -6.959   3.038  12.156  1.00  0.00     0.187 C 
HETATM   29  C16 UNL     1      -5.526   3.434  12.541  1.00  0.00     0.149 C 
ENDBRANCH   7  24
TORSDOF 5
ENDMDL
MODEL 9
REMARK minimizedAffinity -7.30661297
REMARK  5 active torsions:
REMARK  status: ('A' for Active; 'I' for Inactive)
REMARK    1  A    between atoms: O1_2  and  C2_3 
REMARK    2  A    between atoms: C2_3  and  C3_4 
REMARK    3  A    between atoms: C3_4  and  C4_5 
REMARK    4  A    between atoms: C7_8  and  C8_9 
REMARK    5  A    between atoms: C12_15  and  N2_16 
ROOT
HETATM    1  C8  UNL     1      -7.271   5.450  13.157  1.00  0.00     0.092 A 
HETATM    2  C9  UNL     1      -8.386   5.816  12.417  1.00  0.00     0.036 A 
HETATM    3  C10 UNL     1      -8.701   5.541  10.995  1.00  0.00     0.070 C 
HETATM    4  N1  UNL     1      -9.269   6.540  13.180  1.00  0.00    -0.341 N 
ATOM      5  H1  UNL     1     -10.166   6.923  12.882  1.00  0.00     0.167 HD
HETATM    6  C11 UNL     1      -8.720   6.641  14.379  1.00  0.00     0.154 A 
HETATM    7  C12 UNL     1      -9.193   7.280  15.584  1.00  0.00     0.078 A 
HETATM    8  C17 UNL     1      -8.392   7.166  16.661  1.00  0.00     0.052 A 
HETATM    9  C18 UNL     1      -7.119   6.430  16.547  1.00  0.00     0.110 A 
HETATM   10  N3  UNL     1      -6.659   5.856  15.488  1.00  0.00    -0.303 N 
ATOM     11  H3  UNL     1      -5.768   5.360  15.454  1.00  0.00     0.186 HD
HETATM   12  N4  UNL     1      -7.497   5.984  14.415  1.00  0.00    -0.235 N 
ENDROOT
BRANCH   1  13
HETATM   13  C7  UNL     1      -6.093   4.669  12.784  1.00  0.00     0.010 A 
HETATM   14  C6  UNL     1      -4.799   5.164  12.941  1.00  0.00     0.017 A 
HETATM   15  C5  UNL     1      -3.704   4.393  12.551  1.00  0.00     0.026 A 
HETATM   16  C4  UNL     1      -3.923   3.136  11.994  1.00  0.00     0.011 A 
HETATM   17  N5  UNL     1      -5.168   2.622  11.849  1.00  0.00    -0.368 N 
HETATM   18  C19 UNL     1      -6.212   3.396  12.238  1.00  0.00     0.102 A 
ATOM     19  H5  UNL     1      -5.314   1.690  11.462  1.00  0.00     0.165 HD
BRANCH  16  20
HETATM   20  C3  UNL     1      -2.769   2.255  11.575  1.00  0.00     0.083 C 
BRANCH  20  21
HETATM   21  C2  UNL     1      -1.431   2.988  11.461  1.00  0.00     0.173 C 
BRANCH  21  22
HETATM   22  O1  UNL     1      -0.431   2.115  10.938  1.00  0.00    -0.396 OA
HETATM   23  C1  UNL     1      -0.938   0.812  10.690  1.00  0.00     0.201 C 
ENDBRANCH  21  22
ENDBRANCH  20  21
ENDBRANCH  16  20
ENDBRANCH   1  13
BRANCH   7  24
HETATM   24  N2  UNL     1     -10.412   7.988  15.633  1.00  0.00    -0.374 N 
HETATM   25  C13 UNL     1     -10.550   9.273  16.364  1.00  0.00     0.149 C 
HETATM   26  C14 UNL     1     -12.021   9.541  16.717  1.00  0.00     0.187 C 
HETATM   27  O2  UNL     1     -12.897   9.612  15.582  1.00  0.00    -0.388 OA
HETATM   28  C15 UNL     1     -12.414   8.871  14.457  1.00  0.00     0.187 C 
HETATM   29  C16 UNL     1     -11.608   7.621  14.845  1.00  0.00     0.149 C 
ENDBRANCH   7  24
TORSDOF 5
ENDMDL
