MODEL 1
REMARK minimizedAffinity -10.2533703
REMARK CNNscore 0.721509695
REMARK CNNaffinity 7.98707533
REMARK  16 active torsions:
REMARK  status: ('A' for Active; 'I' for Inactive)
REMARK    1  A    between atoms: C2_2  and  C4_4 
REMARK    2  A    between atoms: C4_4  and  C6_6 
REMARK    3  A    between atoms: C7_7  and  C8_8 
REMARK    4  A    between atoms: C8_8  and  C10_10 
REMARK    5  A    between atoms: C15_15  and  O1_16 
REMARK    6  A    between atoms: C19_21  and  O3_22 
REMARK    7  A    between atoms: O3_22  and  C20_23 
REMARK    8  A    between atoms: C20_23  and  C21_24 
REMARK    9  A    between atoms: C21_24  and  N1_25 
REMARK   10  A    between atoms: C21_24  and  C22_26 
REMARK   11  A    between atoms: C22_26  and  O4_27 
REMARK   12  A    between atoms: C22_26  and  C23_32 
REMARK   13  A    between atoms: O4_27  and  S1_28 
REMARK   14  A    between atoms: S1_28  and  O7_31 
REMARK   15  A    between atoms: C33_42  and  C34_43 
REMARK   16  A    between atoms: C34_43  and  O9_45 
ROOT
HETATM    1  C10 UNL     1      -2.531   5.677  12.353  1.00  0.00     0.016 C 
HETATM    2  C11 UNL     1      -2.695   4.146  12.300  1.00  0.00     0.011 C 
HETATM    3  C12 UNL     1      -4.188   3.916  12.486  1.00  0.00     0.036 C 
HETATM    4  C13 UNL     1      -4.659   5.099  13.288  1.00  0.00    -0.055 C 
HETATM    5  C14 UNL     1      -5.923   5.315  13.715  1.00  0.00    -0.040 C 
HETATM    6  C15 UNL     1      -7.053   4.368  13.403  1.00  0.00     0.179 C 
HETATM    7  C16 UNL     1      -8.370   5.011  13.108  1.00  0.00     0.191 A 
HETATM    8  O2  UNL     1      -8.312   6.278  12.422  1.00  0.00    -0.365 OA
HETATM    9  C17 UNL     1      -8.748   6.297  13.791  1.00  0.00     0.100 A 
HETATM   10  C18 UNL     1     -10.208   6.622  13.942  1.00  0.00     0.073 C 
HETATM   11  C19 UNL     1     -10.443   8.132  14.036  1.00  0.00     0.124 C 
HETATM   12  C26 UNL     1      -9.571   8.739  15.143  1.00  0.00     0.033 C 
HETATM   13  C27 UNL     1      -8.090   8.435  14.902  1.00  0.00     0.015 C 
HETATM   14  C28 UNL     1      -7.766   6.913  14.790  1.00  0.00    -0.002 C 
HETATM   15  C29 UNL     1      -8.002   6.265  16.185  1.00  0.00     0.019 C 
HETATM   16  C30 UNL     1      -6.239   6.648  14.406  1.00  0.00     0.029 C 
HETATM   17  C31 UNL     1      -5.578   7.775  13.574  1.00  0.00     0.011 C 
HETATM   18  C32 UNL     1      -4.099   7.546  13.182  1.00  0.00     0.026 C 
HETATM   19  C33 UNL     1      -3.543   6.124  13.453  1.00  0.00     0.073 C 
ENDROOT
BRANCH  11  20
HETATM   20  O3  UNL     1     -11.813   8.385  14.372  1.00  0.00    -0.384 OA
BRANCH  20  21
HETATM   21  C20 UNL     1     -12.696   8.274  13.237  1.00  0.00     0.206 C 
BRANCH  21  22
HETATM   22  C21 UNL     1     -13.043   9.700  12.755  1.00  0.00     0.272 C 
BRANCH  22  23
HETATM   23  N1  UNL     1     -12.330   9.959  11.477  1.00  0.00     0.087 N 
HETATM   24  H32 UNL     1     -11.347   9.733  11.649  1.00  0.00     0.313 HD
HETATM   25  H33 UNL     1     -12.616   9.253  10.786  1.00  0.00     0.313 HD
ENDBRANCH  22  23
BRANCH  22  26
HETATM   26  C22 UNL     1     -14.563   9.986  12.577  1.00  0.00     0.182 C 
BRANCH  26  27
HETATM   27  O4  UNL     1     -15.362   8.856  12.941  1.00  0.00    -0.256 OA
BRANCH  27  28
HETATM   28  S1  UNL     1     -16.291   8.178  11.793  1.00  0.00     0.240 S 
HETATM   29  O5  UNL     1     -15.657   6.953  11.353  1.00  0.00    -0.579 OA
HETATM   30  O6  UNL     1     -17.669   8.227  12.229  1.00  0.00    -0.579 OA
BRANCH  28  31
HETATM   31  O7  UNL     1     -16.120   9.206  10.566  1.00  0.00    -0.274 OA
HETATM   32  H35 UNL     1     -15.357   8.907  10.036  1.00  0.00     0.234 HD
ENDBRANCH  28  31
ENDBRANCH  27  28
ENDBRANCH  26  27
BRANCH  26  33
HETATM   33  C23 UNL     1     -15.068  11.233  13.357  1.00  0.00     0.010 C 
HETATM   34  C24 UNL     1     -14.149  11.519  14.553  1.00  0.00     0.012 C 
HETATM   35  C25 UNL     1     -15.193  12.507  12.519  1.00  0.00     0.012 C 
ENDBRANCH  26  33
ENDBRANCH  22  26
ENDBRANCH  21  22
ENDBRANCH  20  21
ENDBRANCH  11  20
BRANCH   6  36
HETATM   36  O1  UNL     1      -7.203   3.500  14.524  1.00  0.00    -0.388 OA
HETATM   37  H24 UNL     1      -7.696   2.724  14.212  1.00  0.00     0.210 HD
ENDBRANCH   6  36
BRANCH  19  38
HETATM   38  C34 UNL     1      -2.979   6.045  14.887  1.00  0.00     0.153 C 
HETATM   39  O8  UNL     1      -2.942   6.954  15.702  1.00  0.00    -0.649 OA
BRANCH  38  40
HETATM   40  O9  UNL     1      -2.534   4.824  15.258  1.00  0.00    -0.776 OA
HETATM   41  H55 UNL     1      -2.296   4.953  16.199  1.00  0.00     0.167 HD
ENDBRANCH  38  40
ENDBRANCH  19  38
BRANCH   1  42
HETATM   42  C8  UNL     1      -1.039   6.095  12.488  1.00  0.00     0.009 C 
HETATM   43  C9  UNL     1      -0.846   7.552  12.920  1.00  0.00     0.014 C 
BRANCH  42  44
HETATM   44  C7  UNL     1      -0.236   5.852  11.216  1.00  0.00    -0.026 C 
HETATM   45  C6  UNL     1       0.796   6.602  10.792  1.00  0.00    -0.026 C 
BRANCH  45  46
HETATM   46  C4  UNL     1       1.559   6.368   9.505  1.00  0.00     0.007 C 
HETATM   47  C5  UNL     1       2.979   5.897   9.843  1.00  0.00     0.014 C 
BRANCH  46  48
HETATM   48  C2  UNL     1       1.507   7.625   8.590  1.00  0.00    -0.015 C 
HETATM   49  C1  UNL     1       1.937   7.373   7.140  1.00  0.00     0.010 C 
HETATM   50  C3  UNL     1       0.123   8.281   8.601  1.00  0.00     0.010 C 
ENDBRANCH  46  48
ENDBRANCH  45  46
ENDBRANCH  42  44
ENDBRANCH   1  42
TORSDOF 16
ENDMDL
MODEL 2
REMARK minimizedAffinity -10.1726904
REMARK CNNscore 0.669377327
REMARK CNNaffinity 7.88237619
REMARK  16 active torsions:
REMARK  status: ('A' for Active; 'I' for Inactive)
REMARK    1  A    between atoms: C2_2  and  C4_4 
REMARK    2  A    between atoms: C4_4  and  C6_6 
REMARK    3  A    between atoms: C7_7  and  C8_8 
REMARK    4  A    between atoms: C8_8  and  C10_10 
REMARK    5  A    between atoms: C15_15  and  O1_16 
REMARK    6  A    between atoms: C19_21  and  O3_22 
REMARK    7  A    between atoms: O3_22  and  C20_23 
REMARK    8  A    between atoms: C20_23  and  C21_24 
REMARK    9  A    between atoms: C21_24  and  N1_25 
REMARK   10  A    between atoms: C21_24  and  C22_26 
REMARK   11  A    between atoms: C22_26  and  O4_27 
REMARK   12  A    between atoms: C22_26  and  C23_32 
REMARK   13  A    between atoms: O4_27  and  S1_28 
REMARK   14  A    between atoms: S1_28  and  O7_31 
REMARK   15  A    between atoms: C33_42  and  C34_43 
REMARK   16  A    between atoms: C34_43  and  O9_45 
ROOT
HETATM    1  C10 UNL     1      -2.528   6.013  12.356  1.00  0.00     0.016 C 
HETATM    2  C11 UNL     1      -2.639   4.478  12.285  1.00  0.00     0.011 C 
HETATM    3  C12 UNL     1      -4.121   4.194  12.480  1.00  0.00     0.036 C 
HETATM    4  C13 UNL     1      -4.627   5.350  13.300  1.00  0.00    -0.055 C 
HETATM    5  C14 UNL     1      -5.893   5.516  13.739  1.00  0.00    -0.040 C 
HETATM    6  C15 UNL     1      -6.993   4.534  13.425  1.00  0.00     0.179 C 
HETATM    7  C16 UNL     1      -8.333   5.135  13.149  1.00  0.00     0.191 A 
HETATM    8  O2  UNL     1      -8.326   6.411  12.478  1.00  0.00    -0.365 OA
HETATM    9  C17 UNL     1      -8.750   6.399  13.851  1.00  0.00     0.100 A 
HETATM   10  C18 UNL     1     -10.219   6.670  14.017  1.00  0.00     0.073 C 
HETATM   11  C19 UNL     1     -10.506   8.170  14.132  1.00  0.00     0.124 C 
HETATM   12  C26 UNL     1      -9.647   8.793  15.240  1.00  0.00     0.033 C 
HETATM   13  C27 UNL     1      -8.158   8.544  14.983  1.00  0.00     0.015 C 
HETATM   14  C28 UNL     1      -7.782   7.036  14.849  1.00  0.00    -0.002 C 
HETATM   15  C29 UNL     1      -7.984   6.363  16.238  1.00  0.00     0.019 C 
HETATM   16  C30 UNL     1      -6.250   6.829  14.450  1.00  0.00     0.029 C 
HETATM   17  C31 UNL     1      -5.636   7.989  13.627  1.00  0.00     0.011 C 
HETATM   18  C32 UNL     1      -4.153   7.815  13.221  1.00  0.00     0.026 C 
HETATM   19  C33 UNL     1      -3.545   6.411  13.469  1.00  0.00     0.073 C 
ENDROOT
BRANCH  11  20
HETATM   20  O3  UNL     1     -11.881   8.371  14.482  1.00  0.00    -0.384 OA
BRANCH  20  21
HETATM   21  C20 UNL     1     -12.789   7.953  13.442  1.00  0.00     0.206 C 
BRANCH  21  22
HETATM   22  C21 UNL     1     -13.991   8.924  13.432  1.00  0.00     0.272 C 
BRANCH  22  23
HETATM   23  N1  UNL     1     -14.046   9.600  12.110  1.00  0.00     0.087 N 
HETATM   24  H32 UNL     1     -13.112   9.986  11.948  1.00  0.00     0.313 HD
HETATM   25  H33 UNL     1     -14.137   8.889  11.373  1.00  0.00     0.313 HD
ENDBRANCH  22  23
BRANCH  22  26
HETATM   26  C22 UNL     1     -15.369   8.274  13.749  1.00  0.00     0.182 C 
BRANCH  26  27
HETATM   27  O4  UNL     1     -16.426   8.876  12.994  1.00  0.00    -0.256 OA
BRANCH  27  28
HETATM   28  S1  UNL     1     -16.610   8.422  11.444  1.00  0.00     0.240 S 
HETATM   29  O5  UNL     1     -16.734   9.611  10.628  1.00  0.00    -0.579 OA
HETATM   30  O6  UNL     1     -15.654   7.377  11.155  1.00  0.00    -0.579 OA
BRANCH  28  31
HETATM   31  O7  UNL     1     -18.078   7.763  11.455  1.00  0.00    -0.274 OA
HETATM   32  H35 UNL     1     -18.721   8.472  11.258  1.00  0.00     0.234 HD
ENDBRANCH  28  31
ENDBRANCH  27  28
ENDBRANCH  26  27
BRANCH  26  33
HETATM   33  C23 UNL     1     -15.407   6.735  13.533  1.00  0.00     0.010 C 
HETATM   34  C24 UNL     1     -14.194   6.075  14.202  1.00  0.00     0.012 C 
HETATM   35  C25 UNL     1     -16.679   6.048  14.034  1.00  0.00     0.012 C 
ENDBRANCH  26  33
ENDBRANCH  22  26
ENDBRANCH  21  22
ENDBRANCH  20  21
ENDBRANCH  11  20
BRANCH   6  36
HETATM   36  O1  UNL     1      -7.103   3.648  14.536  1.00  0.00    -0.388 OA
HETATM   37  H24 UNL     1      -7.571   2.859  14.218  1.00  0.00     0.210 HD
ENDBRANCH   6  36
BRANCH  19  38
HETATM   38  C34 UNL     1      -2.968   6.334  14.898  1.00  0.00     0.153 C 
HETATM   39  O8  UNL     1      -2.872   7.257  15.691  1.00  0.00    -0.649 OA
BRANCH  38  40
HETATM   40  O9  UNL     1      -2.580   5.101  15.290  1.00  0.00    -0.776 OA
HETATM   41  H55 UNL     1      -2.323   5.237  16.225  1.00  0.00     0.167 HD
ENDBRANCH  38  40
ENDBRANCH  19  38
BRANCH   1  42
HETATM   42  C8  UNL     1      -1.050   6.481  12.484  1.00  0.00     0.009 C 
HETATM   43  C9  UNL     1      -0.901   7.989  12.708  1.00  0.00     0.014 C 
BRANCH  42  44
HETATM   44  C7  UNL     1      -0.193   6.077  11.291  1.00  0.00    -0.026 C 
HETATM   45  C6  UNL     1       0.823   6.797  10.783  1.00  0.00    -0.026 C 
BRANCH  45  46
HETATM   46  C4  UNL     1       1.640   6.398   9.572  1.00  0.00     0.007 C 
HETATM   47  C5  UNL     1       3.031   5.947  10.034  1.00  0.00     0.014 C 
BRANCH  46  48
HETATM   48  C2  UNL     1       1.660   7.537   8.513  1.00  0.00    -0.015 C 
HETATM   49  C1  UNL     1       1.941   7.067   7.080  1.00  0.00     0.010 C 
HETATM   50  C3  UNL     1       0.366   8.357   8.533  1.00  0.00     0.010 C 
ENDBRANCH  46  48
ENDBRANCH  45  46
ENDBRANCH  42  44
ENDBRANCH   1  42
TORSDOF 16
ENDMDL
MODEL 3
REMARK minimizedAffinity -8.84013939
REMARK CNNscore 0.531713247
REMARK CNNaffinity 7.58148432
REMARK  16 active torsions:
REMARK  status: ('A' for Active; 'I' for Inactive)
REMARK    1  A    between atoms: C2_2  and  C4_4 
REMARK    2  A    between atoms: C4_4  and  C6_6 
REMARK    3  A    between atoms: C7_7  and  C8_8 
REMARK    4  A    between atoms: C8_8  and  C10_10 
REMARK    5  A    between atoms: C15_15  and  O1_16 
REMARK    6  A    between atoms: C19_21  and  O3_22 
REMARK    7  A    between atoms: O3_22  and  C20_23 
REMARK    8  A    between atoms: C20_23  and  C21_24 
REMARK    9  A    between atoms: C21_24  and  N1_25 
REMARK   10  A    between atoms: C21_24  and  C22_26 
REMARK   11  A    between atoms: C22_26  and  O4_27 
REMARK   12  A    between atoms: C22_26  and  C23_32 
REMARK   13  A    between atoms: O4_27  and  S1_28 
REMARK   14  A    between atoms: S1_28  and  O7_31 
REMARK   15  A    between atoms: C33_42  and  C34_43 
REMARK   16  A    between atoms: C34_43  and  O9_45 
ROOT
HETATM    1  C10 UNL     1      -2.381   6.264  12.362  1.00  0.00     0.016 C 
HETATM    2  C11 UNL     1      -2.396   4.742  12.128  1.00  0.00     0.011 C 
HETATM    3  C12 UNL     1      -3.865   4.356  12.221  1.00  0.00     0.036 C 
HETATM    4  C13 UNL     1      -4.473   5.388  13.131  1.00  0.00    -0.055 C 
HETATM    5  C14 UNL     1      -5.765   5.436  13.524  1.00  0.00    -0.040 C 
HETATM    6  C15 UNL     1      -6.789   4.432  13.057  1.00  0.00     0.179 C 
HETATM    7  C16 UNL     1      -8.150   4.983  12.780  1.00  0.00     0.191 A 
HETATM    8  O2  UNL     1      -8.192   6.321  12.247  1.00  0.00    -0.365 OA
HETATM    9  C17 UNL     1      -8.672   6.140  13.589  1.00  0.00     0.100 A 
HETATM   10  C18 UNL     1     -10.161   6.309  13.711  1.00  0.00     0.073 C 
HETATM   11  C19 UNL     1     -10.543   7.770  13.967  1.00  0.00     0.124 C 
HETATM   12  C26 UNL     1      -9.770   8.319  15.173  1.00  0.00     0.033 C 
HETATM   13  C27 UNL     1      -8.259   8.183  14.964  1.00  0.00     0.015 C 
HETATM   14  C28 UNL     1      -7.787   6.720  14.693  1.00  0.00    -0.002 C 
HETATM   15  C29 UNL     1      -8.006   5.894  15.994  1.00  0.00     0.019 C 
HETATM   16  C30 UNL     1      -6.230   6.644  14.348  1.00  0.00     0.029 C 
HETATM   17  C31 UNL     1      -5.654   7.917  13.680  1.00  0.00     0.011 C 
HETATM   18  C32 UNL     1      -4.148   7.871  13.330  1.00  0.00     0.026 C 
HETATM   19  C33 UNL     1      -3.467   6.484  13.460  1.00  0.00     0.073 C 
ENDROOT
BRANCH  11  20
HETATM   20  O3  UNL     1     -11.941   7.855  14.270  1.00  0.00    -0.384 OA
BRANCH  20  21
HETATM   21  C20 UNL     1     -12.750   8.116  13.104  1.00  0.00     0.206 C 
BRANCH  21  22
HETATM   22  C21 UNL     1     -13.845   7.029  13.024  1.00  0.00     0.272 C 
BRANCH  22  23
HETATM   23  N1  UNL     1     -13.713   6.131  14.200  1.00  0.00     0.087 N 
HETATM   24  H32 UNL     1     -12.735   5.830  14.221  1.00  0.00     0.313 HD
HETATM   25  H33 UNL     1     -13.806   6.688  15.059  1.00  0.00     0.313 HD
ENDBRANCH  22  23
BRANCH  22  26
HETATM   26  C22 UNL     1     -15.304   7.565  12.932  1.00  0.00     0.182 C 
BRANCH  26  27
HETATM   27  O4  UNL     1     -16.000   7.423  14.174  1.00  0.00    -0.256 OA
BRANCH  27  28
HETATM   28  S1  UNL     1     -17.398   6.593  14.174  1.00  0.00     0.240 S 
HETATM   29  O5  UNL     1     -17.492   5.851  15.413  1.00  0.00    -0.579 OA
HETATM   30  O6  UNL     1     -18.451   7.467  13.709  1.00  0.00    -0.579 OA
BRANCH  28  31
HETATM   31  O7  UNL     1     -17.134   5.483  13.037  1.00  0.00    -0.274 OA
HETATM   32  H35 UNL     1     -16.743   4.702  13.474  1.00  0.00     0.234 HD
ENDBRANCH  28  31
ENDBRANCH  27  28
ENDBRANCH  26  27
BRANCH  26  33
HETATM   33  C23 UNL     1     -15.406   9.044  12.462  1.00  0.00     0.010 C 
HETATM   34  C24 UNL     1     -16.351   9.154  11.258  1.00  0.00     0.012 C 
HETATM   35  C25 UNL     1     -15.864  10.029  13.538  1.00  0.00     0.012 C 
ENDBRANCH  26  33
ENDBRANCH  22  26
ENDBRANCH  21  22
ENDBRANCH  20  21
ENDBRANCH  11  20
BRANCH   6  36
HETATM   36  O1  UNL     1      -6.892   3.429  14.064  1.00  0.00    -0.388 OA
HETATM   37  H24 UNL     1      -7.297   2.653  13.644  1.00  0.00     0.210 HD
ENDBRANCH   6  36
BRANCH  19  38
HETATM   38  C34 UNL     1      -2.945   6.289  14.900  1.00  0.00     0.153 C 
HETATM   39  O8  UNL     1      -3.015   7.098  15.812  1.00  0.00    -0.649 OA
BRANCH  38  40
HETATM   40  O9  UNL     1      -2.406   5.076  15.150  1.00  0.00    -0.776 OA
HETATM   41  H55 UNL     1      -2.211   5.114  16.109  1.00  0.00     0.167 HD
ENDBRANCH  38  40
ENDBRANCH  19  38
BRANCH   1  42
HETATM   42  C8  UNL     1      -0.941   6.799  12.609  1.00  0.00     0.009 C 
HETATM   43  C9  UNL     1      -0.892   8.043  13.500  1.00  0.00     0.014 C 
BRANCH  42  44
HETATM   44  C7  UNL     1      -0.186   7.092  11.318  1.00  0.00    -0.026 C 
HETATM   45  C6  UNL     1       0.987   7.743  11.234  1.00  0.00    -0.026 C 
BRANCH  45  46
HETATM   46  C4  UNL     1       1.704   8.059   9.938  1.00  0.00     0.007 C 
HETATM   47  C5  UNL     1       0.684   8.074   8.792  1.00  0.00     0.014 C 
BRANCH  46  48
HETATM   48  C2  UNL     1       2.900   7.091   9.712  1.00  0.00    -0.015 C 
HETATM   49  C1  UNL     1       3.254   6.224  10.926  1.00  0.00     0.010 C 
HETATM   50  C3  UNL     1       2.680   6.189   8.493  1.00  0.00     0.010 C 
ENDBRANCH  46  48
ENDBRANCH  45  46
ENDBRANCH  42  44
ENDBRANCH   1  42
TORSDOF 16
ENDMDL
MODEL 4
REMARK minimizedAffinity -9.1012373
REMARK CNNscore 0.476605654
REMARK CNNaffinity 7.53211737
REMARK  16 active torsions:
REMARK  status: ('A' for Active; 'I' for Inactive)
REMARK    1  A    between atoms: C2_2  and  C4_4 
REMARK    2  A    between atoms: C4_4  and  C6_6 
REMARK    3  A    between atoms: C7_7  and  C8_8 
REMARK    4  A    between atoms: C8_8  and  C10_10 
REMARK    5  A    between atoms: C15_15  and  O1_16 
REMARK    6  A    between atoms: C19_21  and  O3_22 
REMARK    7  A    between atoms: O3_22  and  C20_23 
REMARK    8  A    between atoms: C20_23  and  C21_24 
REMARK    9  A    between atoms: C21_24  and  N1_25 
REMARK   10  A    between atoms: C21_24  and  C22_26 
REMARK   11  A    between atoms: C22_26  and  O4_27 
REMARK   12  A    between atoms: C22_26  and  C23_32 
REMARK   13  A    between atoms: O4_27  and  S1_28 
REMARK   14  A    between atoms: S1_28  and  O7_31 
REMARK   15  A    between atoms: C33_42  and  C34_43 
REMARK   16  A    between atoms: C34_43  and  O9_45 
ROOT
HETATM    1  C10 UNL     1      -2.464   6.248  12.393  1.00  0.00     0.016 C 
HETATM    2  C11 UNL     1      -2.516   4.726  12.159  1.00  0.00     0.011 C 
HETATM    3  C12 UNL     1      -3.991   4.372  12.278  1.00  0.00     0.036 C 
HETATM    4  C13 UNL     1      -4.561   5.418  13.198  1.00  0.00    -0.055 C 
HETATM    5  C14 UNL     1      -5.844   5.494  13.613  1.00  0.00    -0.040 C 
HETATM    6  C15 UNL     1      -6.898   4.513  13.164  1.00  0.00     0.179 C 
HETATM    7  C16 UNL     1      -8.251   5.093  12.910  1.00  0.00     0.191 A 
HETATM    8  O2  UNL     1      -8.273   6.432  12.378  1.00  0.00    -0.365 OA
HETATM    9  C17 UNL     1      -8.734   6.261  13.728  1.00  0.00     0.100 A 
HETATM   10  C18 UNL     1     -10.216   6.463  13.875  1.00  0.00     0.073 C 
HETATM   11  C19 UNL     1     -10.561   7.932  14.137  1.00  0.00     0.124 C 
HETATM   12  C26 UNL     1      -9.757   8.464  15.330  1.00  0.00     0.033 C 
HETATM   13  C27 UNL     1      -8.253   8.295  15.095  1.00  0.00     0.015 C 
HETATM   14  C28 UNL     1      -7.817   6.822  14.816  1.00  0.00    -0.002 C 
HETATM   15  C29 UNL     1      -8.032   6.001  16.121  1.00  0.00     0.019 C 
HETATM   16  C30 UNL     1      -6.269   6.711  14.445  1.00  0.00     0.029 C 
HETATM   17  C31 UNL     1      -5.676   7.972  13.766  1.00  0.00     0.011 C 
HETATM   18  C32 UNL     1      -4.178   7.893  13.391  1.00  0.00     0.026 C 
HETATM   19  C33 UNL     1      -3.525   6.492  13.510  1.00  0.00     0.073 C 
ENDROOT
BRANCH  11  20
HETATM   20  O3  UNL     1     -11.952   8.047  14.464  1.00  0.00    -0.384 OA
BRANCH  20  21
HETATM   21  C20 UNL     1     -12.649   6.787  14.390  1.00  0.00     0.206 C 
BRANCH  21  22
HETATM   22  C21 UNL     1     -13.995   6.935  15.135  1.00  0.00     0.272 C 
BRANCH  22  23
HETATM   23  N1  UNL     1     -13.781   7.772  16.344  1.00  0.00     0.087 N 
HETATM   24  H32 UNL     1     -12.995   7.351  16.846  1.00  0.00     0.313 HD
HETATM   25  H33 UNL     1     -13.413   8.688  16.056  1.00  0.00     0.313 HD
ENDBRANCH  22  23
BRANCH  22  26
HETATM   26  C22 UNL     1     -15.160   7.524  14.286  1.00  0.00     0.182 C 
BRANCH  26  27
HETATM   27  O4  UNL     1     -14.820   8.800  13.733  1.00  0.00    -0.256 OA
BRANCH  27  28
HETATM   28  S1  UNL     1     -15.381  10.129  14.482  1.00  0.00     0.240 S 
HETATM   29  O5  UNL     1     -14.301  10.715  15.247  1.00  0.00    -0.579 OA
HETATM   30  O6  UNL     1     -16.168  10.890  13.538  1.00  0.00    -0.579 OA
BRANCH  28  31
HETATM   31  O7  UNL     1     -16.383   9.505  15.576  1.00  0.00    -0.274 OA
HETATM   32  H35 UNL     1     -15.867   9.342  16.389  1.00  0.00     0.234 HD
ENDBRANCH  28  31
ENDBRANCH  27  28
ENDBRANCH  26  27
BRANCH  26  33
HETATM   33  C23 UNL     1     -15.643   6.590  13.141  1.00  0.00     0.010 C 
HETATM   34  C24 UNL     1     -16.917   5.846  13.566  1.00  0.00     0.012 C 
HETATM   35  C25 UNL     1     -15.906   7.292  11.808  1.00  0.00     0.012 C 
ENDBRANCH  26  33
ENDBRANCH  22  26
ENDBRANCH  21  22
ENDBRANCH  20  21
ENDBRANCH  11  20
BRANCH   6  36
HETATM   36  O1  UNL     1      -7.005   3.512  14.173  1.00  0.00    -0.388 OA
HETATM   37  H24 UNL     1      -7.434   2.745  13.760  1.00  0.00     0.210 HD
ENDBRANCH   6  36
BRANCH  19  38
HETATM   38  C34 UNL     1      -2.984   6.285  14.940  1.00  0.00     0.153 C 
HETATM   39  O8  UNL     1      -1.811   6.288  15.278  1.00  0.00    -0.649 OA
BRANCH  38  40
HETATM   40  O9  UNL     1      -3.931   6.133  15.891  1.00  0.00    -0.776 OA
HETATM   41  H55 UNL     1      -3.409   6.095  16.719  1.00  0.00     0.167 HD
ENDBRANCH  38  40
ENDBRANCH  19  38
BRANCH   1  42
HETATM   42  C8  UNL     1      -1.008   6.751  12.615  1.00  0.00     0.009 C 
HETATM   43  C9  UNL     1      -0.884   8.277  12.645  1.00  0.00     0.014 C 
BRANCH  42  44
HETATM   44  C7  UNL     1      -0.026   6.200  11.589  1.00  0.00    -0.026 C 
HETATM   45  C6  UNL     1       0.623   6.928  10.663  1.00  0.00    -0.026 C 
BRANCH  45  46
HETATM   46  C4  UNL     1       1.567   6.359   9.625  1.00  0.00     0.007 C 
HETATM   47  C5  UNL     1       2.663   5.554  10.335  1.00  0.00     0.014 C 
BRANCH  46  48
HETATM   48  C2  UNL     1       2.105   7.476   8.688  1.00  0.00    -0.015 C 
HETATM   49  C1  UNL     1       3.514   7.973   9.035  1.00  0.00     0.010 C 
HETATM   50  C3  UNL     1       2.066   7.053   7.215  1.00  0.00     0.010 C 
ENDBRANCH  46  48
ENDBRANCH  45  46
ENDBRANCH  42  44
ENDBRANCH   1  42
TORSDOF 16
ENDMDL
MODEL 5
REMARK minimizedAffinity -7.68420792
REMARK CNNscore 0.403035939
REMARK CNNaffinity 6.55536985
REMARK  16 active torsions:
REMARK  status: ('A' for Active; 'I' for Inactive)
REMARK    1  A    between atoms: C2_2  and  C4_4 
REMARK    2  A    between atoms: C4_4  and  C6_6 
REMARK    3  A    between atoms: C7_7  and  C8_8 
REMARK    4  A    between atoms: C8_8  and  C10_10 
REMARK    5  A    between atoms: C15_15  and  O1_16 
REMARK    6  A    between atoms: C19_21  and  O3_22 
REMARK    7  A    between atoms: O3_22  and  C20_23 
REMARK    8  A    between atoms: C20_23  and  C21_24 
REMARK    9  A    between atoms: C21_24  and  N1_25 
REMARK   10  A    between atoms: C21_24  and  C22_26 
REMARK   11  A    between atoms: C22_26  and  O4_27 
REMARK   12  A    between atoms: C22_26  and  C23_32 
REMARK   13  A    between atoms: O4_27  and  S1_28 
REMARK   14  A    between atoms: S1_28  and  O7_31 
REMARK   15  A    between atoms: C33_42  and  C34_43 
REMARK   16  A    between atoms: C34_43  and  O9_45 
ROOT
HETATM    1  C10 UNL     1       4.195   8.548  11.704  1.00  0.00     0.016 C 
HETATM    2  C11 UNL     1       3.488   7.879  12.899  1.00  0.00     0.011 C 
HETATM    3  C12 UNL     1       4.332   8.264  14.105  1.00  0.00     0.036 C 
HETATM    4  C13 UNL     1       5.716   8.472  13.552  1.00  0.00    -0.055 C 
HETATM    5  C14 UNL     1       6.813   8.806  14.266  1.00  0.00    -0.040 C 
HETATM    6  C15 UNL     1       6.767   9.042  15.754  1.00  0.00     0.179 C 
HETATM    7  C16 UNL     1       7.628  10.155  16.256  1.00  0.00     0.191 A 
HETATM    8  O2  UNL     1       7.773  11.287  15.375  1.00  0.00    -0.365 OA
HETATM    9  C17 UNL     1       8.933  10.463  15.574  1.00  0.00     0.100 A 
HETATM   10  C18 UNL     1      10.011  11.144  16.370  1.00  0.00     0.073 C 
HETATM   11  C19 UNL     1      10.958  11.943  15.470  1.00  0.00     0.124 C 
HETATM   12  C26 UNL     1      11.506  11.051  14.349  1.00  0.00     0.033 C 
HETATM   13  C27 UNL     1      10.367  10.440  13.528  1.00  0.00     0.015 C 
HETATM   14  C28 UNL     1       9.352   9.610  14.375  1.00  0.00    -0.002 C 
HETATM   15  C29 UNL     1      10.086   8.341  14.899  1.00  0.00     0.019 C 
HETATM   16  C30 UNL     1       8.112   9.105  13.506  1.00  0.00     0.029 C 
HETATM   17  C31 UNL     1       7.753  10.015  12.305  1.00  0.00     0.011 C 
HETATM   18  C32 UNL     1       6.552   9.555  11.446  1.00  0.00     0.026 C 
HETATM   19  C33 UNL     1       5.711   8.390  12.030  1.00  0.00     0.073 C 
ENDROOT
BRANCH  11  20
HETATM   20  O3  UNL     1      12.073  12.409  16.240  1.00  0.00    -0.384 OA
BRANCH  20  21
HETATM   21  C20 UNL     1      13.329  12.274  15.544  1.00  0.00     0.206 C 
BRANCH  21  22
HETATM   22  C21 UNL     1      14.316  11.527  16.469  1.00  0.00     0.272 C 
BRANCH  22  23
HETATM   23  N1  UNL     1      15.333  10.844  15.630  1.00  0.00     0.087 N 
HETATM   24  H32 UNL     1      14.812  10.298  14.938  1.00  0.00     0.313 HD
HETATM   25  H33 UNL     1      15.820  11.545  15.056  1.00  0.00     0.313 HD
ENDBRANCH  22  23
BRANCH  22  26
HETATM   26  C22 UNL     1      15.022  12.415  17.535  1.00  0.00     0.182 C 
BRANCH  26  27
HETATM   27  O4  UNL     1      14.935  11.842  18.844  1.00  0.00    -0.256 OA
BRANCH  27  28
HETATM   28  S1  UNL     1      14.227  12.720  20.015  1.00  0.00     0.240 S 
HETATM   29  O5  UNL     1      14.376  14.123  19.691  1.00  0.00    -0.579 OA
HETATM   30  O6  UNL     1      12.947  12.125  20.324  1.00  0.00    -0.579 OA
BRANCH  28  31
HETATM   31  O7  UNL     1      15.207  12.469  21.267  1.00  0.00    -0.274 OA
HETATM   32  H35 UNL     1      15.893  13.165  21.248  1.00  0.00     0.234 HD
ENDBRANCH  28  31
ENDBRANCH  27  28
ENDBRANCH  26  27
BRANCH  26  33
HETATM   33  C23 UNL     1      16.513  12.721  17.216  1.00  0.00     0.010 C 
HETATM   34  C24 UNL     1      16.702  14.221  16.953  1.00  0.00     0.012 C 
HETATM   35  C25 UNL     1      17.503  12.283  18.296  1.00  0.00     0.012 C 
ENDBRANCH  26  33
ENDBRANCH  22  26
ENDBRANCH  21  22
ENDBRANCH  20  21
ENDBRANCH  11  20
BRANCH   6  36
HETATM   36  O1  UNL     1       7.161   7.829  16.391  1.00  0.00    -0.388 OA
HETATM   37  H24 UNL     1       6.843   7.878  17.306  1.00  0.00     0.210 HD
ENDBRANCH   6  36
BRANCH  19  38
HETATM   38  C34 UNL     1       6.307   7.038  11.585  1.00  0.00     0.153 C 
HETATM   39  O8  UNL     1       6.203   5.972  12.171  1.00  0.00    -0.649 OA
BRANCH  38  40
HETATM   40  O9  UNL     1       6.964   7.066  10.404  1.00  0.00    -0.776 OA
HETATM   41  H55 UNL     1       7.195   6.126  10.257  1.00  0.00     0.167 HD
ENDBRANCH  38  40
ENDBRANCH  19  38
BRANCH   1  42
HETATM   42  C8  UNL     1       3.658   8.019  10.343  1.00  0.00     0.009 C 
HETATM   43  C9  UNL     1       4.084   8.869   9.143  1.00  0.00     0.014 C 
BRANCH  42  44
HETATM   44  C7  UNL     1       2.142   7.866  10.321  1.00  0.00    -0.026 C 
HETATM   45  C6  UNL     1       1.332   7.978  11.389  1.00  0.00    -0.026 C 
BRANCH  45  46
HETATM   46  C4  UNL     1      -0.169   7.785  11.355  1.00  0.00     0.007 C 
HETATM   47  C5  UNL     1      -0.840   8.950  12.095  1.00  0.00     0.014 C 
BRANCH  46  48
HETATM   48  C2  UNL     1      -0.563   6.380  11.892  1.00  0.00    -0.015 C 
HETATM   49  C1  UNL     1       0.531   5.684  12.711  1.00  0.00     0.010 C 
HETATM   50  C3  UNL     1      -1.857   6.426  12.712  1.00  0.00     0.010 C 
ENDBRANCH  46  48
ENDBRANCH  45  46
ENDBRANCH  42  44
ENDBRANCH   1  42
TORSDOF 16
ENDMDL
MODEL 6
REMARK minimizedAffinity -8.63099384
REMARK CNNscore 0.300258398
REMARK CNNaffinity 7.19247675
REMARK  16 active torsions:
REMARK  status: ('A' for Active; 'I' for Inactive)
REMARK    1  A    between atoms: C2_2  and  C4_4 
REMARK    2  A    between atoms: C4_4  and  C6_6 
REMARK    3  A    between atoms: C7_7  and  C8_8 
REMARK    4  A    between atoms: C8_8  and  C10_10 
REMARK    5  A    between atoms: C15_15  and  O1_16 
REMARK    6  A    between atoms: C19_21  and  O3_22 
REMARK    7  A    between atoms: O3_22  and  C20_23 
REMARK    8  A    between atoms: C20_23  and  C21_24 
REMARK    9  A    between atoms: C21_24  and  N1_25 
REMARK   10  A    between atoms: C21_24  and  C22_26 
REMARK   11  A    between atoms: C22_26  and  O4_27 
REMARK   12  A    between atoms: C22_26  and  C23_32 
REMARK   13  A    between atoms: O4_27  and  S1_28 
REMARK   14  A    between atoms: S1_28  and  O7_31 
REMARK   15  A    between atoms: C33_42  and  C34_43 
REMARK   16  A    between atoms: C34_43  and  O9_45 
ROOT
HETATM    1  C10 UNL     1     -11.989   9.273  13.277  1.00  0.00     0.016 C 
HETATM    2  C11 UNL     1     -11.729  10.149  14.517  1.00  0.00     0.011 C 
HETATM    3  C12 UNL     1     -10.316   9.785  14.951  1.00  0.00     0.036 C 
HETATM    4  C13 UNL     1     -10.125   8.369  14.478  1.00  0.00    -0.055 C 
HETATM    5  C14 UNL     1      -9.019   7.615  14.661  1.00  0.00    -0.040 C 
HETATM    6  C15 UNL     1      -7.793   8.137  15.368  1.00  0.00     0.179 C 
HETATM    7  C16 UNL     1      -6.484   7.696  14.798  1.00  0.00     0.191 A 
HETATM    8  O2  UNL     1      -6.445   7.528  13.367  1.00  0.00    -0.365 OA
HETATM    9  C17 UNL     1      -6.359   6.337  14.165  1.00  0.00     0.100 A 
HETATM   10  C18 UNL     1      -5.001   5.693  14.121  1.00  0.00     0.073 C 
HETATM   11  C19 UNL     1      -4.884   4.704  12.958  1.00  0.00     0.124 C 
HETATM   12  C26 UNL     1      -6.033   3.689  13.004  1.00  0.00     0.033 C 
HETATM   13  C27 UNL     1      -7.391   4.397  12.978  1.00  0.00     0.015 C 
HETATM   14  C28 UNL     1      -7.590   5.428  14.132  1.00  0.00    -0.002 C 
HETATM   15  C29 UNL     1      -7.665   4.642  15.473  1.00  0.00     0.019 C 
HETATM   16  C30 UNL     1      -8.958   6.238  13.988  1.00  0.00     0.029 C 
HETATM   17  C31 UNL     1      -9.459   6.405  12.532  1.00  0.00     0.011 C 
HETATM   18  C32 UNL     1     -10.781   7.189  12.360  1.00  0.00     0.026 C 
HETATM   19  C33 UNL     1     -11.304   7.916  13.626  1.00  0.00     0.073 C 
ENDROOT
BRANCH  11  20
HETATM   20  O3  UNL     1      -3.655   3.975  13.070  1.00  0.00    -0.384 OA
BRANCH  20  21
HETATM   21  C20 UNL     1      -2.573   4.591  12.341  1.00  0.00     0.206 C 
BRANCH  21  22
HETATM   22  C21 UNL     1      -2.005   5.742  13.202  1.00  0.00     0.272 C 
BRANCH  22  23
HETATM   23  N1  UNL     1      -1.449   5.170  14.456  1.00  0.00     0.087 N 
HETATM   24  H32 UNL     1      -2.190   4.588  14.856  1.00  0.00     0.313 HD
HETATM   25  H33 UNL     1      -0.718   4.488  14.218  1.00  0.00     0.313 HD
ENDBRANCH  22  23
BRANCH  22  26
HETATM   26  C22 UNL     1      -0.928   6.621  12.502  1.00  0.00     0.182 C 
BRANCH  26  27
HETATM   27  O4  UNL     1      -0.485   6.039  11.272  1.00  0.00    -0.256 OA
BRANCH  27  28
HETATM   28  S1  UNL     1       0.974   5.322  11.249  1.00  0.00     0.240 S 
HETATM   29  O5  UNL     1       1.834   6.001  12.195  1.00  0.00    -0.579 OA
HETATM   30  O6  UNL     1       0.782   3.889  11.262  1.00  0.00    -0.579 OA
BRANCH  28  31
HETATM   31  O7  UNL     1       1.533   5.736   9.797  1.00  0.00    -0.274 OA
HETATM   32  H35 UNL     1       2.018   6.578   9.898  1.00  0.00     0.234 HD
ENDBRANCH  28  31
ENDBRANCH  27  28
ENDBRANCH  26  27
BRANCH  26  33
HETATM   33  C23 UNL     1      -1.382   8.084  12.233  1.00  0.00     0.010 C 
HETATM   34  C24 UNL     1      -2.763   8.333  12.856  1.00  0.00     0.012 C 
HETATM   35  C25 UNL     1      -0.416   9.158  12.734  1.00  0.00     0.012 C 
ENDBRANCH  26  33
ENDBRANCH  22  26
ENDBRANCH  21  22
ENDBRANCH  20  21
ENDBRANCH  11  20
BRANCH   6  36
HETATM   36  O1  UNL     1      -7.873   7.713  16.727  1.00  0.00    -0.388 OA
HETATM   37  H24 UNL     1      -7.275   8.286  17.233  1.00  0.00     0.210 HD
ENDBRANCH   6  36
BRANCH  19  38
HETATM   38  C34 UNL     1     -12.196   6.961  14.448  1.00  0.00     0.153 C 
HETATM   39  O8  UNL     1     -12.493   5.814  14.154  1.00  0.00    -0.649 OA
BRANCH  38  40
HETATM   40  O9  UNL     1     -12.636   7.463  15.623  1.00  0.00    -0.776 OA
HETATM   41  H55 UNL     1     -13.106   6.704  16.025  1.00  0.00     0.167 HD
ENDBRANCH  38  40
ENDBRANCH  19  38
BRANCH   1  42
HETATM   42  C8  UNL     1     -13.490   9.276  12.870  1.00  0.00     0.009 C 
HETATM   43  C9  UNL     1     -14.354  10.215  13.717  1.00  0.00     0.014 C 
BRANCH  42  44
HETATM   44  C7  UNL     1     -14.115   7.886  12.889  1.00  0.00    -0.026 C 
HETATM   45  C6  UNL     1     -15.404   7.616  13.158  1.00  0.00    -0.026 C 
BRANCH  45  46
HETATM   46  C4  UNL     1     -15.999   6.225  13.212  1.00  0.00     0.007 C 
HETATM   47  C5  UNL     1     -17.389   6.250  12.563  1.00  0.00     0.014 C 
BRANCH  46  48
HETATM   48  C2  UNL     1     -15.986   5.668  14.664  1.00  0.00    -0.015 C 
HETATM   49  C1  UNL     1     -17.346   5.707  15.371  1.00  0.00     0.010 C 
HETATM   50  C3  UNL     1     -15.425   4.243  14.722  1.00  0.00     0.010 C 
ENDBRANCH  46  48
ENDBRANCH  45  46
ENDBRANCH  42  44
ENDBRANCH   1  42
TORSDOF 16
ENDMDL
MODEL 7
REMARK minimizedAffinity -8.02674389
REMARK CNNscore 0.250826061
REMARK CNNaffinity 5.77132797
REMARK  16 active torsions:
REMARK  status: ('A' for Active; 'I' for Inactive)
REMARK    1  A    between atoms: C2_2  and  C4_4 
REMARK    2  A    between atoms: C4_4  and  C6_6 
REMARK    3  A    between atoms: C7_7  and  C8_8 
REMARK    4  A    between atoms: C8_8  and  C10_10 
REMARK    5  A    between atoms: C15_15  and  O1_16 
REMARK    6  A    between atoms: C19_21  and  O3_22 
REMARK    7  A    between atoms: O3_22  and  C20_23 
REMARK    8  A    between atoms: C20_23  and  C21_24 
REMARK    9  A    between atoms: C21_24  and  N1_25 
REMARK   10  A    between atoms: C21_24  and  C22_26 
REMARK   11  A    between atoms: C22_26  and  O4_27 
REMARK   12  A    between atoms: C22_26  and  C23_32 
REMARK   13  A    between atoms: O4_27  and  S1_28 
REMARK   14  A    between atoms: S1_28  and  O7_31 
REMARK   15  A    between atoms: C33_42  and  C34_43 
REMARK   16  A    between atoms: C34_43  and  O9_45 
ROOT
HETATM    1  C10 UNL     1       6.539   7.842  11.643  1.00  0.00     0.016 C 
HETATM    2  C11 UNL     1       6.064   9.068  10.840  1.00  0.00     0.011 C 
HETATM    3  C12 UNL     1       6.803  10.242  11.464  1.00  0.00     0.036 C 
HETATM    4  C13 UNL     1       7.054   9.823  12.887  1.00  0.00    -0.055 C 
HETATM    5  C14 UNL     1       7.667  10.564  13.835  1.00  0.00    -0.040 C 
HETATM    6  C15 UNL     1       8.213  11.941  13.556  1.00  0.00     0.179 C 
HETATM    7  C16 UNL     1       9.506  12.270  14.230  1.00  0.00     0.191 A 
HETATM    8  O2  UNL     1      10.429  11.174  14.392  1.00  0.00    -0.365 OA
HETATM    9  C17 UNL     1       9.817  11.692  15.585  1.00  0.00     0.100 A 
HETATM   10  C18 UNL     1      10.781  12.431  16.470  1.00  0.00     0.073 C 
HETATM   11  C19 UNL     1      11.477  11.487  17.456  1.00  0.00     0.124 C 
HETATM   12  C26 UNL     1      10.437  10.675  18.239  1.00  0.00     0.033 C 
HETATM   13  C27 UNL     1       9.527   9.890  17.290  1.00  0.00     0.015 C 
HETATM   14  C28 UNL     1       8.782  10.781  16.247  1.00  0.00    -0.002 C 
HETATM   15  C29 UNL     1       7.757  11.666  17.015  1.00  0.00     0.019 C 
HETATM   16  C30 UNL     1       7.952   9.913  15.195  1.00  0.00     0.029 C 
HETATM   17  C31 UNL     1       8.529   8.500  14.927  1.00  0.00     0.011 C 
HETATM   18  C32 UNL     1       7.748   7.636  13.909  1.00  0.00     0.026 C 
HETATM   19  C33 UNL     1       6.644   8.371  13.106  1.00  0.00     0.073 C 
ENDROOT
BRANCH  11  20
HETATM   20  O3  UNL     1      12.233  12.254  18.402  1.00  0.00    -0.384 OA
BRANCH  20  21
HETATM   21  C20 UNL     1      13.222  13.096  17.774  1.00  0.00     0.206 C 
BRANCH  21  22
HETATM   22  C21 UNL     1      14.599  12.766  18.394  1.00  0.00     0.272 C 
BRANCH  22  23
HETATM   23  N1  UNL     1      15.220  11.662  17.616  1.00  0.00     0.087 N 
HETATM   24  H32 UNL     1      14.519  10.917  17.571  1.00  0.00     0.313 HD
HETATM   25  H33 UNL     1      15.315  11.956  16.636  1.00  0.00     0.313 HD
ENDBRANCH  22  23
BRANCH  22  26
HETATM   26  C22 UNL     1      15.587  13.965  18.487  1.00  0.00     0.182 C 
BRANCH  26  27
HETATM   27  O4  UNL     1      16.038  14.178  19.828  1.00  0.00    -0.256 OA
BRANCH  27  28
HETATM   28  S1  UNL     1      15.892  12.952  20.885  1.00  0.00     0.240 S 
HETATM   29  O5  UNL     1      16.670  11.832  20.400  1.00  0.00    -0.579 OA
HETATM   30  O6  UNL     1      16.038  13.479  22.223  1.00  0.00    -0.579 OA
BRANCH  28  31
HETATM   31  O7  UNL     1      14.355  12.515  20.688  1.00  0.00    -0.274 OA
HETATM   32  H35 UNL     1      14.331  11.832  19.989  1.00  0.00     0.234 HD
ENDBRANCH  28  31
ENDBRANCH  27  28
ENDBRANCH  26  27
BRANCH  26  33
HETATM   33  C23 UNL     1      16.823  13.841  17.552  1.00  0.00     0.010 C 
HETATM   34  C24 UNL     1      17.201  12.365  17.367  1.00  0.00     0.012 C 
HETATM   35  C25 UNL     1      16.652  14.481  16.174  1.00  0.00     0.012 C 
ENDBRANCH  26  33
ENDBRANCH  22  26
ENDBRANCH  21  22
ENDBRANCH  20  21
ENDBRANCH  11  20
BRANCH   6  36
HETATM   36  O1  UNL     1       7.225  12.883  13.968  1.00  0.00    -0.388 OA
HETATM   37  H24 UNL     1       7.432  13.718  13.520  1.00  0.00     0.210 HD
ENDBRANCH   6  36
BRANCH  19  38
HETATM   38  C34 UNL     1       5.311   8.324  13.883  1.00  0.00     0.153 C 
HETATM   39  O8  UNL     1       4.385   9.112  13.781  1.00  0.00    -0.649 OA
BRANCH  38  40
HETATM   40  O9  UNL     1       5.175   7.268  14.715  1.00  0.00    -0.776 OA
HETATM   41  H55 UNL     1       4.259   7.366  15.049  1.00  0.00     0.167 HD
ENDBRANCH  38  40
ENDBRANCH  19  38
BRANCH   1  42
HETATM   42  C8  UNL     1       5.666   6.587  11.357  1.00  0.00     0.009 C 
HETATM   43  C9  UNL     1       6.472   5.372  10.889  1.00  0.00     0.014 C 
BRANCH  42  44
HETATM   44  C7  UNL     1       4.554   6.854  10.349  1.00  0.00    -0.026 C 
HETATM   45  C6  UNL     1       3.323   6.315  10.387  1.00  0.00    -0.026 C 
BRANCH  45  46
HETATM   46  C4  UNL     1       2.243   6.561   9.355  1.00  0.00     0.007 C 
HETATM   47  C5  UNL     1       2.753   7.585   8.332  1.00  0.00     0.014 C 
BRANCH  46  48
HETATM   48  C2  UNL     1       0.902   6.957  10.035  1.00  0.00    -0.015 C 
HETATM   49  C1  UNL     1       0.292   5.864  10.921  1.00  0.00     0.010 C 
HETATM   50  C3  UNL     1       1.034   8.251  10.846  1.00  0.00     0.010 C 
ENDBRANCH  46  48
ENDBRANCH  45  46
ENDBRANCH  42  44
ENDBRANCH   1  42
TORSDOF 16
ENDMDL
MODEL 8
REMARK minimizedAffinity -7.19340992
REMARK CNNscore 0.243537143
REMARK CNNaffinity 6.46069479
REMARK  16 active torsions:
REMARK  status: ('A' for Active; 'I' for Inactive)
REMARK    1  A    between atoms: C2_2  and  C4_4 
REMARK    2  A    between atoms: C4_4  and  C6_6 
REMARK    3  A    between atoms: C7_7  and  C8_8 
REMARK    4  A    between atoms: C8_8  and  C10_10 
REMARK    5  A    between atoms: C15_15  and  O1_16 
REMARK    6  A    between atoms: C19_21  and  O3_22 
REMARK    7  A    between atoms: O3_22  and  C20_23 
REMARK    8  A    between atoms: C20_23  and  C21_24 
REMARK    9  A    between atoms: C21_24  and  N1_25 
REMARK   10  A    between atoms: C21_24  and  C22_26 
REMARK   11  A    between atoms: C22_26  and  O4_27 
REMARK   12  A    between atoms: C22_26  and  C23_32 
REMARK   13  A    between atoms: O4_27  and  S1_28 
REMARK   14  A    between atoms: S1_28  and  O7_31 
REMARK   15  A    between atoms: C33_42  and  C34_43 
REMARK   16  A    between atoms: C34_43  and  O9_45 
ROOT
HETATM    1  C10 UNL     1      -1.580   5.387  11.724  1.00  0.00     0.016 C 
HETATM    2  C11 UNL     1      -2.691   4.450  12.235  1.00  0.00     0.011 C 
HETATM    3  C12 UNL     1      -3.570   5.338  13.102  1.00  0.00     0.036 C 
HETATM    4  C13 UNL     1      -2.646   6.414  13.607  1.00  0.00    -0.055 C 
HETATM    5  C14 UNL     1      -2.984   7.423  14.439  1.00  0.00    -0.040 C 
HETATM    6  C15 UNL     1      -4.388   7.607  14.957  1.00  0.00     0.179 C 
HETATM    7  C16 UNL     1      -4.854   9.023  15.065  1.00  0.00     0.191 A 
HETATM    8  O2  UNL     1      -4.360   9.927  14.058  1.00  0.00    -0.365 OA
HETATM    9  C17 UNL     1      -3.874  10.115  15.397  1.00  0.00     0.100 A 
HETATM   10  C18 UNL     1      -4.395  11.368  16.044  1.00  0.00     0.073 C 
HETATM   11  C19 UNL     1      -3.497  12.572  15.744  1.00  0.00     0.124 C 
HETATM   12  C26 UNL     1      -2.043  12.257  16.118  1.00  0.00     0.033 C 
HETATM   13  C27 UNL     1      -1.544  11.013  15.378  1.00  0.00     0.015 C 
HETATM   14  C28 UNL     1      -2.409   9.739  15.628  1.00  0.00    -0.002 C 
HETATM   15  C29 UNL     1      -2.231   9.319  17.116  1.00  0.00     0.019 C 
HETATM   16  C30 UNL     1      -1.935   8.503  14.736  1.00  0.00     0.029 C 
HETATM   17  C31 UNL     1      -1.272   8.895  13.391  1.00  0.00     0.011 C 
HETATM   18  C32 UNL     1      -0.805   7.718  12.502  1.00  0.00     0.026 C 
HETATM   19  C33 UNL     1      -1.277   6.309  12.945  1.00  0.00     0.073 C 
ENDROOT
BRANCH  11  20
HETATM   20  O3  UNL     1      -3.917  13.692  16.533  1.00  0.00    -0.384 OA
BRANCH  20  21
HETATM   21  C20 UNL     1      -3.009  14.809  16.446  1.00  0.00     0.206 C 
BRANCH  21  22
HETATM   22  C21 UNL     1      -3.102  15.395  15.018  1.00  0.00     0.272 C 
BRANCH  22  23
HETATM   23  N1  UNL     1      -4.533  15.616  14.686  1.00  0.00     0.087 N 
HETATM   24  H32 UNL     1      -5.010  14.730  14.876  1.00  0.00     0.313 HD
HETATM   25  H33 UNL     1      -4.943  16.256  15.377  1.00  0.00     0.313 HD
ENDBRANCH  22  23
BRANCH  22  26
HETATM   26  C22 UNL     1      -2.299  16.709  14.790  1.00  0.00     0.182 C 
BRANCH  26  27
HETATM   27  O4  UNL     1      -1.181  16.503  13.922  1.00  0.00    -0.256 OA
BRANCH  27  28
HETATM   28  S1  UNL     1      -0.952  15.013  13.314  1.00  0.00     0.240 S 
HETATM   29  O5  UNL     1      -0.208  14.233  14.279  1.00  0.00    -0.579 OA
HETATM   30  O6  UNL     1      -2.196  14.556  12.738  1.00  0.00    -0.579 OA
BRANCH  28  31
HETATM   31  O7  UNL     1       0.081  15.292  12.111  1.00  0.00    -0.274 OA
HETATM   32  H35 UNL     1       0.984  15.214  12.474  1.00  0.00     0.234 HD
ENDBRANCH  28  31
ENDBRANCH  27  28
ENDBRANCH  26  27
BRANCH  26  33
HETATM   33  C23 UNL     1      -3.155  17.886  14.241  1.00  0.00     0.010 C 
HETATM   34  C24 UNL     1      -2.962  19.134  15.113  1.00  0.00     0.012 C 
HETATM   35  C25 UNL     1      -2.876  18.256  12.784  1.00  0.00     0.012 C 
ENDBRANCH  26  33
ENDBRANCH  22  26
ENDBRANCH  21  22
ENDBRANCH  20  21
ENDBRANCH  11  20
BRANCH   6  36
HETATM   36  O1  UNL     1      -4.448   7.001  16.247  1.00  0.00    -0.388 OA
HETATM   37  H24 UNL     1      -5.387   6.847  16.438  1.00  0.00     0.210 HD
ENDBRANCH   6  36
BRANCH  19  38
HETATM   38  C34 UNL     1      -0.267   5.708  13.945  1.00  0.00     0.153 C 
HETATM   39  O8  UNL     1       0.947   5.839  13.916  1.00  0.00    -0.649 OA
BRANCH  38  40
HETATM   40  O9  UNL     1      -0.819   5.012  14.963  1.00  0.00    -0.776 OA
HETATM   41  H55 UNL     1      -0.045   4.783  15.519  1.00  0.00     0.167 HD
ENDBRANCH  38  40
ENDBRANCH  19  38
BRANCH   1  42
HETATM   42  C8  UNL     1      -0.411   4.597  11.069  1.00  0.00     0.009 C 
HETATM   43  C9  UNL     1      -0.006   3.342  11.848  1.00  0.00     0.014 C 
BRANCH  42  44
HETATM   44  C7  UNL     1       0.830   5.451  10.840  1.00  0.00    -0.026 C 
HETATM   45  C6  UNL     1       0.954   6.409   9.904  1.00  0.00    -0.026 C 
BRANCH  45  46
HETATM   46  C4  UNL     1       2.208   7.222   9.665  1.00  0.00     0.007 C 
HETATM   47  C5  UNL     1       2.466   8.114  10.886  1.00  0.00     0.014 C 
BRANCH  46  48
HETATM   48  C2  UNL     1       2.122   7.997   8.319  1.00  0.00    -0.015 C 
HETATM   49  C1  UNL     1       3.321   8.910   8.035  1.00  0.00     0.010 C 
HETATM   50  C3  UNL     1       1.913   7.052   7.131  1.00  0.00     0.010 C 
ENDBRANCH  46  48
ENDBRANCH  45  46
ENDBRANCH  42  44
ENDBRANCH   1  42
TORSDOF 16
ENDMDL
MODEL 9
REMARK minimizedAffinity -8.48597622
REMARK CNNscore 0.228197351
REMARK CNNaffinity 7.0697484
REMARK  16 active torsions:
REMARK  status: ('A' for Active; 'I' for Inactive)
REMARK    1  A    between atoms: C2_2  and  C4_4 
REMARK    2  A    between atoms: C4_4  and  C6_6 
REMARK    3  A    between atoms: C7_7  and  C8_8 
REMARK    4  A    between atoms: C8_8  and  C10_10 
REMARK    5  A    between atoms: C15_15  and  O1_16 
REMARK    6  A    between atoms: C19_21  and  O3_22 
REMARK    7  A    between atoms: O3_22  and  C20_23 
REMARK    8  A    between atoms: C20_23  and  C21_24 
REMARK    9  A    between atoms: C21_24  and  N1_25 
REMARK   10  A    between atoms: C21_24  and  C22_26 
REMARK   11  A    between atoms: C22_26  and  O4_27 
REMARK   12  A    between atoms: C22_26  and  C23_32 
REMARK   13  A    between atoms: O4_27  and  S1_28 
REMARK   14  A    between atoms: S1_28  and  O7_31 
REMARK   15  A    between atoms: C33_42  and  C34_43 
REMARK   16  A    between atoms: C34_43  and  O9_45 
ROOT
HETATM    1  C10 UNL     1      -2.536   6.084  12.513  1.00  0.00     0.016 C 
HETATM    2  C11 UNL     1      -2.622   4.566  12.266  1.00  0.00     0.011 C 
HETATM    3  C12 UNL     1      -4.111   4.256  12.313  1.00  0.00     0.036 C 
HETATM    4  C13 UNL     1      -4.693   5.314  13.212  1.00  0.00    -0.055 C 
HETATM    5  C14 UNL     1      -5.991   5.426  13.567  1.00  0.00    -0.040 C 
HETATM    6  C15 UNL     1      -7.051   4.480  13.062  1.00  0.00     0.179 C 
HETATM    7  C16 UNL     1      -8.374   5.103  12.750  1.00  0.00     0.191 A 
HETATM    8  O2  UNL     1      -8.330   6.445  12.226  1.00  0.00    -0.365 OA
HETATM    9  C17 UNL     1      -8.859   6.280  13.551  1.00  0.00     0.100 A 
HETATM   10  C18 UNL     1     -10.340   6.526  13.631  1.00  0.00     0.073 C 
HETATM   11  C19 UNL     1     -10.652   8.003  13.887  1.00  0.00     0.124 C 
HETATM   12  C26 UNL     1      -9.889   8.503  15.119  1.00  0.00     0.033 C 
HETATM   13  C27 UNL     1      -8.382   8.290  14.955  1.00  0.00     0.015 C 
HETATM   14  C28 UNL     1      -7.978   6.807  14.686  1.00  0.00    -0.002 C 
HETATM   15  C29 UNL     1      -8.279   5.985  15.973  1.00  0.00     0.019 C 
HETATM   16  C30 UNL     1      -6.418   6.651  14.387  1.00  0.00     0.029 C 
HETATM   17  C31 UNL     1      -5.756   7.897  13.746  1.00  0.00     0.011 C 
HETATM   18  C32 UNL     1      -4.245   7.775  13.441  1.00  0.00     0.026 C 
HETATM   19  C33 UNL     1      -3.641   6.354  13.580  1.00  0.00     0.073 C 
ENDROOT
BRANCH  11  20
HETATM   20  O3  UNL     1     -12.053   8.159  14.149  1.00  0.00    -0.384 OA
BRANCH  20  21
HETATM   21  C20 UNL     1     -12.851   8.146  12.947  1.00  0.00     0.206 C 
BRANCH  21  22
HETATM   22  C21 UNL     1     -14.139   7.341  13.231  1.00  0.00     0.272 C 
BRANCH  22  23
HETATM   23  N1  UNL     1     -13.773   6.095  13.954  1.00  0.00     0.087 N 
HETATM   24  H32 UNL     1     -13.038   5.649  13.398  1.00  0.00     0.313 HD
HETATM   25  H33 UNL     1     -13.290   6.343  14.826  1.00  0.00     0.313 HD
ENDBRANCH  22  23
BRANCH  22  26
HETATM   26  C22 UNL     1     -15.236   8.108  14.027  1.00  0.00     0.182 C 
BRANCH  26  27
HETATM   27  O4  UNL     1     -16.188   8.726  13.156  1.00  0.00    -0.256 OA
BRANCH  27  28
HETATM   28  S1  UNL     1     -16.265   8.205  11.618  1.00  0.00     0.240 S 
HETATM   29  O5  UNL     1     -15.712   9.229  10.758  1.00  0.00    -0.579 OA
HETATM   30  O6  UNL     1     -15.820   6.830  11.576  1.00  0.00    -0.579 OA
BRANCH  28  31
HETATM   31  O7  UNL     1     -17.850   8.224  11.333  1.00  0.00    -0.274 OA
HETATM   32  H35 UNL     1     -18.074   9.106  10.978  1.00  0.00     0.234 HD
ENDBRANCH  28  31
ENDBRANCH  27  28
ENDBRANCH  26  27
BRANCH  26  33
HETATM   33  C23 UNL     1     -15.994   7.232  15.064  1.00  0.00     0.010 C 
HETATM   34  C24 UNL     1     -16.624   8.119  16.148  1.00  0.00     0.012 C 
HETATM   35  C25 UNL     1     -17.080   6.333  14.473  1.00  0.00     0.012 C 
ENDBRANCH  26  33
ENDBRANCH  22  26
ENDBRANCH  21  22
ENDBRANCH  20  21
ENDBRANCH  11  20
BRANCH   6  36
HETATM   36  O1  UNL     1      -7.236   3.477  14.058  1.00  0.00    -0.388 OA
HETATM   37  H24 UNL     1      -7.669   2.726  13.620  1.00  0.00     0.210 HD
ENDBRANCH   6  36
BRANCH  19  38
HETATM   38  C34 UNL     1      -3.174   6.122  15.033  1.00  0.00     0.153 C 
HETATM   39  O8  UNL     1      -3.154   6.952  15.928  1.00  0.00    -0.649 OA
BRANCH  38  40
HETATM   40  O9  UNL     1      -2.801   4.855  15.316  1.00  0.00    -0.776 OA
HETATM   41  H55 UNL     1      -2.619   4.888  16.278  1.00  0.00     0.167 HD
ENDBRANCH  38  40
ENDBRANCH  19  38
BRANCH   1  42
HETATM   42  C8  UNL     1      -1.078   6.541  12.807  1.00  0.00     0.009 C 
HETATM   43  C9  UNL     1      -0.156   5.402  13.253  1.00  0.00     0.014 C 
BRANCH  42  44
HETATM   44  C7  UNL     1      -1.002   7.663  13.835  1.00  0.00    -0.026 C 
HETATM   45  C6  UNL     1      -0.680   8.941  13.571  1.00  0.00    -0.026 C 
BRANCH  45  46
HETATM   46  C4  UNL     1      -0.572  10.035  14.612  1.00  0.00     0.007 C 
HETATM   47  C5  UNL     1      -1.606  11.125  14.301  1.00  0.00     0.014 C 
BRANCH  46  48
HETATM   48  C2  UNL     1       0.888  10.558  14.721  1.00  0.00    -0.015 C 
HETATM   49  C1  UNL     1       1.019  11.946  15.361  1.00  0.00     0.010 C 
HETATM   50  C3  UNL     1       1.793   9.570  15.464  1.00  0.00     0.010 C 
ENDBRANCH  46  48
ENDBRANCH  45  46
ENDBRANCH  42  44
ENDBRANCH   1  42
TORSDOF 16
ENDMDL
