MODEL 1
REMARK minimizedAffinity -6.84738064
REMARK CNNscore 0.512373626
REMARK CNNaffinity 6.5427494
REMARK  8 active torsions:
REMARK  status: ('A' for Active; 'I' for Inactive)
REMARK    1  A    between atoms: C12_14  and  C13_15 
REMARK    2  A    between atoms: C13_15  and  C15_17 
REMARK    3  A    between atoms: C15_17  and  C16_18 
REMARK    4  A    between atoms: C16_18  and  C17_19 
REMARK    5  A    between atoms: C26_28  and  C27_29 
REMARK    6  A    between atoms: C27_29  and  C28_30 
REMARK    7  A    between atoms: C28_30  and  C29_31 
REMARK    8  A    between atoms: C29_31  and  O4_33 
ROOT
HETATM    1  C1  UNL     1      -1.281  50.371 -11.201  1.00  0.00     0.025 C 
HETATM    2  C2  UNL     1      -0.770  51.557 -10.847  1.00  0.00     0.015 C 
HETATM    3  C3  UNL     1      -1.338  52.298  -9.698  1.00  0.00     0.289 C 
HETATM    4  O1  UNL     1      -2.049  51.845  -8.822  1.00  0.00    -0.260 OA
HETATM    5  O2  UNL     1      -0.931  53.588  -9.801  1.00  0.00    -0.311 OA
HETATM    6  C4  UNL     1      -0.246  53.779 -11.047  1.00  0.00     0.142 C 
HETATM    7  C5  UNL     1       0.829  54.838 -10.879  1.00  0.00     0.039 C 
HETATM    8  C6  UNL     1       1.869  54.410  -9.833  1.00  0.00     0.006 C 
HETATM    9  C7  UNL     1       2.583  53.117 -10.301  1.00  0.00    -0.027 A 
HETATM   10  C8  UNL     1       4.104  53.220 -10.513  1.00  0.00     0.011 C 
HETATM   11  C9  UNL     1       4.908  54.076  -9.516  1.00  0.00     0.011 C 
HETATM   12  C10 UNL     1       4.047  54.950  -8.600  1.00  0.00    -0.032 C 
HETATM   13  C11 UNL     1       3.573  54.079  -7.407  1.00  0.00     0.016 C 
HETATM   14  C12 UNL     1       4.741  56.247  -8.082  1.00  0.00    -0.002 C 
HETATM   15  C21 UNL     1       3.562  57.206  -7.790  1.00  0.00     0.006 C 
HETATM   16  C22 UNL     1       2.317  56.599  -8.475  1.00  0.00     0.011 C 
HETATM   17  C23 UNL     1       2.870  55.544  -9.456  1.00  0.00    -0.032 C 
HETATM   18  C24 UNL     1       3.314  56.322 -10.739  1.00  0.00     0.016 C 
HETATM   19  C25 UNL     1       2.107  51.793  -9.736  1.00  0.00     0.022 A 
HETATM   20  C26 UNL     1       1.748  52.109 -11.168  1.00  0.00    -0.021 A 
HETATM   21  C30 UNL     1       0.265  52.415 -11.504  1.00  0.00     0.063 C 
ENDROOT
BRANCH  14  22
HETATM   22  C13 UNL     1       5.921  56.213  -7.069  1.00  0.00    -0.014 C 
HETATM   23  C14 UNL     1       7.124  55.498  -7.713  1.00  0.00     0.010 C 
BRANCH  22  24
HETATM   24  C15 UNL     1       6.389  57.476  -6.304  1.00  0.00     0.008 C 
BRANCH  24  25
HETATM   25  C16 UNL     1       6.143  57.627  -4.796  1.00  0.00     0.028 C 
BRANCH  25  26
HETATM   26  C17 UNL     1       6.259  59.038  -4.287  1.00  0.00    -0.025 C 
HETATM   27  C18 UNL     1       7.347  59.832  -4.283  1.00  0.00    -0.091 C 
HETATM   28  C19 UNL     1       7.276  61.222  -3.704  1.00  0.00     0.042 C 
HETATM   29  C20 UNL     1       8.696  59.467  -4.838  1.00  0.00     0.042 C 
ENDBRANCH  25  26
ENDBRANCH  24  25
ENDBRANCH  22  24
ENDBRANCH  14  22
BRANCH  20  30
HETATM   30  C27 UNL     1       2.516  51.411 -12.306  1.00  0.00     0.021 C 
BRANCH  30  31
HETATM   31  C28 UNL     1       3.082  50.029 -12.011  1.00  0.00     0.111 C 
BRANCH  31  32
HETATM   32  C29 UNL     1       3.551  49.302 -13.243  1.00  0.00     0.139 C 
HETATM   33  O3  UNL     1       2.932  48.493 -13.911  1.00  0.00    -0.650 OA
BRANCH  32  34
HETATM   34  O4  UNL     1       4.835  49.589 -13.535  1.00  0.00    -0.776 OA
HETATM   35  H43 UNL     1       5.023  49.046 -14.330  1.00  0.00     0.167 HD
ENDBRANCH  32  34
ENDBRANCH  31  32
ENDBRANCH  30  31
ENDBRANCH  20  30
TORSDOF 8
ENDMDL
MODEL 2
REMARK minimizedAffinity -7.50189066
REMARK CNNscore 0.242747918
REMARK CNNaffinity 6.2095623
REMARK  8 active torsions:
REMARK  status: ('A' for Active; 'I' for Inactive)
REMARK    1  A    between atoms: C12_14  and  C13_15 
REMARK    2  A    between atoms: C13_15  and  C15_17 
REMARK    3  A    between atoms: C15_17  and  C16_18 
REMARK    4  A    between atoms: C16_18  and  C17_19 
REMARK    5  A    between atoms: C26_28  and  C27_29 
REMARK    6  A    between atoms: C27_29  and  C28_30 
REMARK    7  A    between atoms: C28_30  and  C29_31 
REMARK    8  A    between atoms: C29_31  and  O4_33 
ROOT
HETATM    1  C1  UNL     1      -1.084  51.033 -24.114  1.00  0.00     0.025 C 
HETATM    2  C2  UNL     1      -1.635  50.225 -23.201  1.00  0.00     0.015 C 
HETATM    3  C3  UNL     1      -1.529  50.548 -21.760  1.00  0.00     0.289 C 
HETATM    4  O1  UNL     1      -1.240  51.627 -21.278  1.00  0.00    -0.260 OA
HETATM    5  O2  UNL     1      -1.801  49.416 -21.065  1.00  0.00    -0.311 OA
HETATM    6  C4  UNL     1      -1.933  48.313 -21.972  1.00  0.00     0.142 C 
HETATM    7  C5  UNL     1      -2.936  47.317 -21.419  1.00  0.00     0.039 C 
HETATM    8  C6  UNL     1      -4.322  47.958 -21.257  1.00  0.00     0.006 C 
HETATM    9  C7  UNL     1      -4.856  48.411 -22.638  1.00  0.00    -0.027 A 
HETATM   10  C8  UNL     1      -6.166  47.753 -23.109  1.00  0.00     0.011 C 
HETATM   11  C9  UNL     1      -7.254  47.491 -22.051  1.00  0.00     0.011 C 
HETATM   12  C10 UNL     1      -6.780  47.663 -20.605  1.00  0.00    -0.032 C 
HETATM   13  C11 UNL     1      -6.854  49.171 -20.248  1.00  0.00     0.016 C 
HETATM   14  C12 UNL     1      -7.559  46.818 -19.551  1.00  0.00    -0.002 C 
HETATM   15  C21 UNL     1      -6.545  46.642 -18.396  1.00  0.00     0.006 C 
HETATM   16  C22 UNL     1      -5.161  47.042 -18.955  1.00  0.00     0.011 C 
HETATM   17  C23 UNL     1      -5.335  47.056 -20.489  1.00  0.00    -0.032 C 
HETATM   18  C24 UNL     1      -5.203  45.570 -20.964  1.00  0.00     0.016 C 
HETATM   19  C25 UNL     1      -4.703  49.870 -23.020  1.00  0.00     0.022 A 
HETATM   20  C26 UNL     1      -3.797  48.873 -23.702  1.00  0.00    -0.021 A 
HETATM   21  C30 UNL     1      -2.288  48.886 -23.342  1.00  0.00     0.063 C 
ENDROOT
BRANCH  14  22
HETATM   22  C13 UNL     1      -9.042  47.108 -19.180  1.00  0.00    -0.014 C 
HETATM   23  C14 UNL     1      -9.091  47.878 -17.847  1.00  0.00     0.010 C 
BRANCH  22  24
HETATM   24  C15 UNL     1     -10.043  47.717 -20.194  1.00  0.00     0.008 C 
BRANCH  24  25
HETATM   25  C16 UNL     1     -11.466  47.160 -20.336  1.00  0.00     0.028 C 
BRANCH  25  26
HETATM   26  C17 UNL     1     -12.496  47.870 -19.501  1.00  0.00    -0.025 C 
HETATM   27  C18 UNL     1     -13.783  48.125 -19.808  1.00  0.00    -0.091 C 
HETATM   28  C19 UNL     1     -14.664  48.875 -18.843  1.00  0.00     0.042 C 
HETATM   29  C20 UNL     1     -14.476  47.705 -21.074  1.00  0.00     0.042 C 
ENDBRANCH  25  26
ENDBRANCH  24  25
ENDBRANCH  22  24
ENDBRANCH  14  22
BRANCH  20  30
HETATM   30  C27 UNL     1      -4.090  48.464 -25.158  1.00  0.00     0.021 C 
BRANCH  30  31
HETATM   31  C28 UNL     1      -2.959  48.635 -26.164  1.00  0.00     0.111 C 
BRANCH  31  32
HETATM   32  C29 UNL     1      -3.388  49.328 -27.429  1.00  0.00     0.139 C 
HETATM   33  O3  UNL     1      -3.940  48.837 -28.397  1.00  0.00    -0.650 OA
BRANCH  32  34
HETATM   34  O4  UNL     1      -3.025  50.627 -27.435  1.00  0.00    -0.776 OA
HETATM   35  H43 UNL     1      -3.337  50.954 -28.305  1.00  0.00     0.167 HD
ENDBRANCH  32  34
ENDBRANCH  31  32
ENDBRANCH  30  31
ENDBRANCH  20  30
TORSDOF 8
ENDMDL
MODEL 3
REMARK minimizedAffinity -6.572577
REMARK CNNscore 0.221205592
REMARK CNNaffinity 4.39410257
REMARK  8 active torsions:
REMARK  status: ('A' for Active; 'I' for Inactive)
REMARK    1  A    between atoms: C12_14  and  C13_15 
REMARK    2  A    between atoms: C13_15  and  C15_17 
REMARK    3  A    between atoms: C15_17  and  C16_18 
REMARK    4  A    between atoms: C16_18  and  C17_19 
REMARK    5  A    between atoms: C26_28  and  C27_29 
REMARK    6  A    between atoms: C27_29  and  C28_30 
REMARK    7  A    between atoms: C28_30  and  C29_31 
REMARK    8  A    between atoms: C29_31  and  O4_33 
ROOT
HETATM    1  C1  UNL     1      -7.949  43.283 -24.742  1.00  0.00     0.025 C 
HETATM    2  C2  UNL     1      -9.033  43.410 -25.516  1.00  0.00     0.015 C 
HETATM    3  C3  UNL     1      -9.740  42.206 -26.008  1.00  0.00     0.289 C 
HETATM    4  O1  UNL     1      -9.640  41.075 -25.569  1.00  0.00    -0.260 OA
HETATM    5  O2  UNL     1     -10.519  42.585 -27.052  1.00  0.00    -0.311 OA
HETATM    6  C4  UNL     1     -10.249  43.955 -27.381  1.00  0.00     0.142 C 
HETATM    7  C5  UNL     1     -11.513  44.608 -27.912  1.00  0.00     0.039 C 
HETATM    8  C6  UNL     1     -12.630  44.591 -26.859  1.00  0.00     0.006 C 
HETATM    9  C7  UNL     1     -12.193  45.405 -25.616  1.00  0.00    -0.027 A 
HETATM   10  C8  UNL     1     -13.061  46.628 -25.266  1.00  0.00     0.011 C 
HETATM   11  C9  UNL     1     -14.584  46.498 -25.448  1.00  0.00     0.011 C 
HETATM   12  C10 UNL     1     -15.021  45.255 -26.228  1.00  0.00    -0.032 C 
HETATM   13  C11 UNL     1     -15.080  44.060 -25.240  1.00  0.00     0.016 C 
HETATM   14  C12 UNL     1     -16.375  45.395 -26.990  1.00  0.00    -0.002 C 
HETATM   15  C21 UNL     1     -16.257  44.373 -28.146  1.00  0.00     0.006 C 
HETATM   16  C22 UNL     1     -14.767  43.974 -28.235  1.00  0.00     0.011 C 
HETATM   17  C23 UNL     1     -14.014  45.044 -27.417  1.00  0.00    -0.032 C 
HETATM   18  C24 UNL     1     -13.837  46.281 -28.360  1.00  0.00     0.016 C 
HETATM   19  C25 UNL     1     -11.648  44.648 -24.421  1.00  0.00     0.022 A 
HETATM   20  C26 UNL     1     -10.662  45.418 -25.267  1.00  0.00    -0.021 A 
HETATM   21  C30 UNL     1      -9.659  44.618 -26.139  1.00  0.00     0.063 C 
ENDROOT
BRANCH  14  22
HETATM   22  C13 UNL     1     -17.740  45.505 -26.251  1.00  0.00    -0.014 C 
HETATM   23  C14 UNL     1     -18.354  44.099 -26.107  1.00  0.00     0.010 C 
BRANCH  22  24
HETATM   24  C15 UNL     1     -17.904  46.304 -24.934  1.00  0.00     0.008 C 
BRANCH  24  25
HETATM   25  C16 UNL     1     -19.234  46.309 -24.169  1.00  0.00     0.028 C 
BRANCH  25  26
HETATM   26  C17 UNL     1     -19.130  45.849 -22.741  1.00  0.00    -0.025 C 
HETATM   27  C18 UNL     1     -19.622  44.720 -22.194  1.00  0.00    -0.091 C 
HETATM   28  C19 UNL     1     -19.434  44.439 -20.725  1.00  0.00     0.042 C 
HETATM   29  C20 UNL     1     -20.365  43.643 -22.935  1.00  0.00     0.042 C 
ENDBRANCH  25  26
ENDBRANCH  24  25
ENDBRANCH  22  24
ENDBRANCH  14  22
BRANCH  20  30
HETATM   30  C27 UNL     1     -10.108  46.757 -24.744  1.00  0.00     0.021 C 
BRANCH  30  31
HETATM   31  C28 UNL     1      -9.407  47.655 -25.754  1.00  0.00     0.111 C 
BRANCH  31  32
HETATM   32  C29 UNL     1     -10.206  48.877 -26.120  1.00  0.00     0.139 C 
HETATM   33  O3  UNL     1     -11.344  48.922 -26.550  1.00  0.00    -0.650 OA
BRANCH  32  34
HETATM   34  O4  UNL     1      -9.482  50.007 -25.985  1.00  0.00    -0.776 OA
HETATM   35  H43 UNL     1     -10.097  50.716 -26.269  1.00  0.00     0.167 HD
ENDBRANCH  32  34
ENDBRANCH  31  32
ENDBRANCH  30  31
ENDBRANCH  20  30
TORSDOF 8
ENDMDL
MODEL 4
REMARK minimizedAffinity -7.42471647
REMARK CNNscore 0.218390718
REMARK CNNaffinity 6.30330467
REMARK  8 active torsions:
REMARK  status: ('A' for Active; 'I' for Inactive)
REMARK    1  A    between atoms: C12_14  and  C13_15 
REMARK    2  A    between atoms: C13_15  and  C15_17 
REMARK    3  A    between atoms: C15_17  and  C16_18 
REMARK    4  A    between atoms: C16_18  and  C17_19 
REMARK    5  A    between atoms: C26_28  and  C27_29 
REMARK    6  A    between atoms: C27_29  and  C28_30 
REMARK    7  A    between atoms: C28_30  and  C29_31 
REMARK    8  A    between atoms: C29_31  and  O4_33 
ROOT
HETATM    1  C1  UNL     1      -7.843  46.136 -19.610  1.00  0.00     0.025 C 
HETATM    2  C2  UNL     1      -7.105  47.023 -20.288  1.00  0.00     0.015 C 
HETATM    3  C3  UNL     1      -7.533  48.438 -20.372  1.00  0.00     0.289 C 
HETATM    4  O1  UNL     1      -8.345  48.994 -19.657  1.00  0.00    -0.260 OA
HETATM    5  O2  UNL     1      -6.863  49.009 -21.404  1.00  0.00    -0.311 OA
HETATM    6  C4  UNL     1      -6.122  48.005 -22.113  1.00  0.00     0.142 C 
HETATM    7  C5  UNL     1      -4.854  48.616 -22.681  1.00  0.00     0.039 C 
HETATM    8  C6  UNL     1      -3.953  49.162 -21.565  1.00  0.00     0.006 C 
HETATM    9  C7  UNL     1      -3.514  48.007 -20.632  1.00  0.00    -0.027 A 
HETATM   10  C8  UNL     1      -1.999  47.742 -20.545  1.00  0.00     0.011 C 
HETATM   11  C9  UNL     1      -1.060  48.962 -20.547  1.00  0.00     0.011 C 
HETATM   12  C10 UNL     1      -1.742  50.281 -20.921  1.00  0.00    -0.032 C 
HETATM   13  C11 UNL     1      -2.418  50.855 -19.648  1.00  0.00     0.016 C 
HETATM   14  C12 UNL     1      -0.805  51.349 -21.566  1.00  0.00    -0.002 C 
HETATM   15  C21 UNL     1      -1.765  52.221 -22.411  1.00  0.00     0.006 C 
HETATM   16  C22 UNL     1      -3.092  51.437 -22.525  1.00  0.00     0.011 C 
HETATM   17  C23 UNL     1      -2.747  49.996 -22.096  1.00  0.00    -0.032 C 
HETATM   18  C24 UNL     1      -2.118  49.299 -23.348  1.00  0.00     0.016 C 
HETATM   19  C25 UNL     1      -4.270  47.811 -19.332  1.00  0.00     0.022 A 
HETATM   20  C26 UNL     1      -4.519  46.816 -20.440  1.00  0.00    -0.021 A 
HETATM   21  C30 UNL     1      -5.897  46.839 -21.153  1.00  0.00     0.063 C 
ENDROOT
BRANCH  14  22
HETATM   22  C13 UNL     1       0.316  52.068 -20.762  1.00  0.00    -0.014 C 
HETATM   23  C14 UNL     1       1.139  52.952 -21.719  1.00  0.00     0.010 C 
BRANCH  22  24
HETATM   24  C15 UNL     1       0.030  52.822 -19.439  1.00  0.00     0.008 C 
BRANCH  24  25
HETATM   25  C16 UNL     1       0.434  52.226 -18.084  1.00  0.00     0.028 C 
BRANCH  25  26
HETATM   26  C17 UNL     1       1.826  52.585 -17.639  1.00  0.00    -0.025 C 
HETATM   27  C18 UNL     1       2.398  52.360 -16.440  1.00  0.00    -0.091 C 
HETATM   28  C19 UNL     1       3.809  52.815 -16.170  1.00  0.00     0.042 C 
HETATM   29  C20 UNL     1       1.749  51.650 -15.283  1.00  0.00     0.042 C 
ENDBRANCH  25  26
ENDBRANCH  24  25
ENDBRANCH  22  24
ENDBRANCH  14  22
BRANCH  20  30
HETATM   30  C27 UNL     1      -3.885  45.415 -20.349  1.00  0.00     0.021 C 
BRANCH  30  31
HETATM   31  C28 UNL     1      -4.225  44.583 -19.119  1.00  0.00     0.111 C 
BRANCH  31  32
HETATM   32  C29 UNL     1      -5.252  43.517 -19.386  1.00  0.00     0.139 C 
HETATM   33  O3  UNL     1      -5.868  43.317 -20.418  1.00  0.00    -0.650 OA
BRANCH  32  34
HETATM   34  O4  UNL     1      -5.508  42.782 -18.285  1.00  0.00    -0.776 OA
HETATM   35  H43 UNL     1      -6.197  42.148 -18.579  1.00  0.00     0.167 HD
ENDBRANCH  32  34
ENDBRANCH  31  32
ENDBRANCH  30  31
ENDBRANCH  20  30
TORSDOF 8
ENDMDL
MODEL 5
REMARK minimizedAffinity -6.86089182
REMARK CNNscore 0.210164085
REMARK CNNaffinity 5.45122719
REMARK  8 active torsions:
REMARK  status: ('A' for Active; 'I' for Inactive)
REMARK    1  A    between atoms: C12_14  and  C13_15 
REMARK    2  A    between atoms: C13_15  and  C15_17 
REMARK    3  A    between atoms: C15_17  and  C16_18 
REMARK    4  A    between atoms: C16_18  and  C17_19 
REMARK    5  A    between atoms: C26_28  and  C27_29 
REMARK    6  A    between atoms: C27_29  and  C28_30 
REMARK    7  A    between atoms: C28_30  and  C29_31 
REMARK    8  A    between atoms: C29_31  and  O4_33 
ROOT
HETATM    1  C1  UNL     1     -20.052  44.191 -22.242  1.00  0.00     0.025 C 
HETATM    2  C2  UNL     1     -19.267  44.799 -21.344  1.00  0.00     0.015 C 
HETATM    3  C3  UNL     1     -19.050  44.189 -20.013  1.00  0.00     0.289 C 
HETATM    4  O1  UNL     1     -19.267  43.034 -19.699  1.00  0.00    -0.260 OA
HETATM    5  O2  UNL     1     -18.572  45.158 -19.192  1.00  0.00    -0.311 OA
HETATM    6  C4  UNL     1     -18.606  46.423 -19.868  1.00  0.00     0.142 C 
HETATM    7  C5  UNL     1     -17.457  47.289 -19.383  1.00  0.00     0.039 C 
HETATM    8  C6  UNL     1     -16.102  46.632 -19.684  1.00  0.00     0.006 C 
HETATM    9  C7  UNL     1     -15.925  46.471 -21.214  1.00  0.00    -0.027 A 
HETATM   10  C8  UNL     1     -14.733  47.215 -21.842  1.00  0.00     0.011 C 
HETATM   11  C9  UNL     1     -13.418  47.259 -21.043  1.00  0.00     0.011 C 
HETATM   12  C10 UNL     1     -13.549  46.796 -19.589  1.00  0.00    -0.032 C 
HETATM   13  C11 UNL     1     -13.463  45.247 -19.565  1.00  0.00     0.016 C 
HETATM   14  C12 UNL     1     -12.509  47.412 -18.604  1.00  0.00    -0.002 C 
HETATM   15  C21 UNL     1     -13.217  47.347 -17.230  1.00  0.00     0.006 C 
HETATM   16  C22 UNL     1     -14.710  47.065 -17.513  1.00  0.00     0.011 C 
HETATM   17  C23 UNL     1     -14.898  47.363 -19.015  1.00  0.00    -0.032 C 
HETATM   18  C24 UNL     1     -15.070  48.913 -19.141  1.00  0.00     0.016 C 
HETATM   19  C25 UNL     1     -16.229  45.119 -21.830  1.00  0.00     0.022 A 
HETATM   20  C26 UNL     1     -17.223  46.231 -22.066  1.00  0.00    -0.021 A 
HETATM   21  C30 UNL     1     -18.605  46.141 -21.368  1.00  0.00     0.063 C 
ENDROOT
BRANCH  14  22
HETATM   22  C13 UNL     1     -10.994  47.057 -18.661  1.00  0.00    -0.014 C 
HETATM   23  C14 UNL     1     -10.206  48.276 -19.177  1.00  0.00     0.010 C 
BRANCH  22  24
HETATM   24  C15 UNL     1     -10.255  46.399 -17.469  1.00  0.00     0.008 C 
BRANCH  24  25
HETATM   25  C16 UNL     1      -9.428  47.240 -16.487  1.00  0.00     0.028 C 
BRANCH  25  26
HETATM   26  C17 UNL     1      -8.066  46.678 -16.184  1.00  0.00    -0.025 C 
HETATM   27  C18 UNL     1      -7.562  46.321 -14.987  1.00  0.00    -0.091 C 
HETATM   28  C19 UNL     1      -6.154  45.794 -14.878  1.00  0.00     0.042 C 
HETATM   29  C20 UNL     1      -8.299  46.381 -13.678  1.00  0.00     0.042 C 
ENDBRANCH  25  26
ENDBRANCH  24  25
ENDBRANCH  22  24
ENDBRANCH  14  22
BRANCH  20  30
HETATM   30  C27 UNL     1     -17.259  46.928 -23.439  1.00  0.00     0.021 C 
BRANCH  30  31
HETATM   31  C28 UNL     1     -17.463  46.039 -24.659  1.00  0.00     0.111 C 
BRANCH  31  32
HETATM   32  C29 UNL     1     -18.793  46.247 -25.331  1.00  0.00     0.139 C 
HETATM   33  O3  UNL     1     -19.747  46.879 -24.916  1.00  0.00    -0.650 OA
BRANCH  32  34
HETATM   34  O4  UNL     1     -18.876  45.568 -26.494  1.00  0.00    -0.776 OA
HETATM   35  H43 UNL     1     -19.781  45.765 -26.817  1.00  0.00     0.167 HD
ENDBRANCH  32  34
ENDBRANCH  31  32
ENDBRANCH  30  31
ENDBRANCH  20  30
TORSDOF 8
ENDMDL
MODEL 6
REMARK minimizedAffinity -8.74137592
REMARK CNNscore 0.209146395
REMARK CNNaffinity 6.13564253
REMARK  8 active torsions:
REMARK  status: ('A' for Active; 'I' for Inactive)
REMARK    1  A    between atoms: C12_14  and  C13_15 
REMARK    2  A    between atoms: C13_15  and  C15_17 
REMARK    3  A    between atoms: C15_17  and  C16_18 
REMARK    4  A    between atoms: C16_18  and  C17_19 
REMARK    5  A    between atoms: C26_28  and  C27_29 
REMARK    6  A    between atoms: C27_29  and  C28_30 
REMARK    7  A    between atoms: C28_30  and  C29_31 
REMARK    8  A    between atoms: C29_31  and  O4_33 
ROOT
HETATM    1  C1  UNL     1      -8.002  45.200 -23.216  1.00  0.00     0.025 C 
HETATM    2  C2  UNL     1      -7.231  46.042 -22.516  1.00  0.00     0.015 C 
HETATM    3  C3  UNL     1      -6.147  45.517 -21.656  1.00  0.00     0.289 C 
HETATM    4  O1  UNL     1      -5.654  44.405 -21.707  1.00  0.00    -0.260 OA
HETATM    5  O2  UNL     1      -5.802  46.498 -20.785  1.00  0.00    -0.311 OA
HETATM    6  C4  UNL     1      -6.710  47.601 -20.918  1.00  0.00     0.142 C 
HETATM    7  C5  UNL     1      -5.980  48.898 -20.617  1.00  0.00     0.039 C 
HETATM    8  C6  UNL     1      -4.822  49.123 -21.600  1.00  0.00     0.006 C 
HETATM    9  C7  UNL     1      -5.373  49.243 -23.043  1.00  0.00    -0.027 A 
HETATM   10  C8  UNL     1      -5.106  50.578 -23.762  1.00  0.00     0.011 C 
HETATM   11  C9  UNL     1      -3.740  51.250 -23.535  1.00  0.00     0.011 C 
HETATM   12  C10 UNL     1      -2.921  50.644 -22.392  1.00  0.00    -0.032 C 
HETATM   13  C11 UNL     1      -2.172  49.401 -22.941  1.00  0.00     0.016 C 
HETATM   14  C12 UNL     1      -1.919  51.622 -21.707  1.00  0.00    -0.002 C 
HETATM   15  C21 UNL     1      -1.748  51.039 -20.284  1.00  0.00     0.006 C 
HETATM   16  C22 UNL     1      -2.890  50.019 -20.082  1.00  0.00     0.011 C 
HETATM   17  C23 UNL     1      -3.902  50.319 -21.207  1.00  0.00    -0.032 C 
HETATM   18  C24 UNL     1      -4.767  51.527 -20.716  1.00  0.00     0.016 C 
HETATM   19  C25 UNL     1      -5.318  48.017 -23.933  1.00  0.00     0.022 A 
HETATM   20  C26 UNL     1      -6.667  48.423 -23.388  1.00  0.00    -0.021 A 
HETATM   21  C30 UNL     1      -7.327  47.521 -22.312  1.00  0.00     0.063 C 
ENDROOT
BRANCH  14  22
HETATM   22  C13 UNL     1      -0.651  52.160 -22.431  1.00  0.00    -0.014 C 
HETATM   23  C14 UNL     1       0.600  51.779 -21.616  1.00  0.00     0.010 C 
BRANCH  22  24
HETATM   24  C15 UNL     1      -0.403  51.928 -23.943  1.00  0.00     0.008 C 
BRANCH  24  25
HETATM   25  C16 UNL     1       0.268  53.002 -24.810  1.00  0.00     0.028 C 
BRANCH  25  26
HETATM   26  C17 UNL     1       0.313  52.675 -26.278  1.00  0.00    -0.025 C 
HETATM   27  C18 UNL     1       1.247  51.967 -26.943  1.00  0.00    -0.091 C 
HETATM   28  C19 UNL     1       1.132  51.761 -28.431  1.00  0.00     0.042 C 
HETATM   29  C20 UNL     1       2.450  51.312 -26.322  1.00  0.00     0.042 C 
ENDBRANCH  25  26
ENDBRANCH  24  25
ENDBRANCH  22  24
ENDBRANCH  14  22
BRANCH  20  30
HETATM   30  C27 UNL     1      -7.673  49.125 -24.320  1.00  0.00     0.021 C 
BRANCH  30  31
HETATM   31  C28 UNL     1      -8.437  48.244 -25.300  1.00  0.00     0.111 C 
BRANCH  31  32
HETATM   32  C29 UNL     1      -9.695  48.884 -25.819  1.00  0.00     0.139 C 
HETATM   33  O3  UNL     1     -10.749  48.339 -26.095  1.00  0.00    -0.650 OA
BRANCH  32  34
HETATM   34  O4  UNL     1      -9.532  50.205 -26.036  1.00  0.00    -0.776 OA
HETATM   35  H43 UNL     1     -10.400  50.495 -26.387  1.00  0.00     0.167 HD
ENDBRANCH  32  34
ENDBRANCH  31  32
ENDBRANCH  30  31
ENDBRANCH  20  30
TORSDOF 8
ENDMDL
MODEL 7
REMARK minimizedAffinity -6.49841881
REMARK CNNscore 0.189731687
REMARK CNNaffinity 4.88002396
REMARK  8 active torsions:
REMARK  status: ('A' for Active; 'I' for Inactive)
REMARK    1  A    between atoms: C12_14  and  C13_15 
REMARK    2  A    between atoms: C13_15  and  C15_17 
REMARK    3  A    between atoms: C15_17  and  C16_18 
REMARK    4  A    between atoms: C16_18  and  C17_19 
REMARK    5  A    between atoms: C26_28  and  C27_29 
REMARK    6  A    between atoms: C27_29  and  C28_30 
REMARK    7  A    between atoms: C28_30  and  C29_31 
REMARK    8  A    between atoms: C29_31  and  O4_33 
ROOT
HETATM    1  C1  UNL     1      -7.944  43.649 -25.906  1.00  0.00     0.025 C 
HETATM    2  C2  UNL     1      -9.199  43.592 -26.367  1.00  0.00     0.015 C 
HETATM    3  C3  UNL     1      -9.957  42.321 -26.307  1.00  0.00     0.289 C 
HETATM    4  O1  UNL     1      -9.694  41.351 -25.622  1.00  0.00    -0.260 OA
HETATM    5  O2  UNL     1     -11.000  42.424 -27.168  1.00  0.00    -0.311 OA
HETATM    6  C4  UNL     1     -10.889  43.644 -27.916  1.00  0.00     0.142 C 
HETATM    7  C5  UNL     1     -12.276  44.165 -28.247  1.00  0.00     0.039 C 
HETATM    8  C6  UNL     1     -13.073  44.469 -26.970  1.00  0.00     0.006 C 
HETATM    9  C7  UNL     1     -12.360  45.579 -26.158  1.00  0.00    -0.027 A 
HETATM   10  C8  UNL     1     -13.158  46.876 -25.934  1.00  0.00     0.011 C 
HETATM   11  C9  UNL     1     -14.668  46.747 -25.662  1.00  0.00     0.011 C 
HETATM   12  C10 UNL     1     -15.240  45.352 -25.930  1.00  0.00    -0.032 C 
HETATM   13  C11 UNL     1     -14.981  44.474 -24.677  1.00  0.00     0.016 C 
HETATM   14  C12 UNL     1     -16.752  45.319 -26.312  1.00  0.00    -0.002 C 
HETATM   15  C21 UNL     1     -16.897  44.017 -27.135  1.00  0.00     0.006 C 
HETATM   16  C22 UNL     1     -15.467  43.565 -27.507  1.00  0.00     0.011 C 
HETATM   17  C23 UNL     1     -14.574  44.794 -27.240  1.00  0.00    -0.032 C 
HETATM   18  C24 UNL     1     -14.708  45.720 -28.495  1.00  0.00     0.016 C 
HETATM   19  C25 UNL     1     -11.484  45.161 -24.993  1.00  0.00     0.022 A 
HETATM   20  C26 UNL     1     -10.793  45.640 -26.247  1.00  0.00    -0.021 A 
HETATM   21  C30 UNL     1     -10.022  44.603 -27.104  1.00  0.00     0.063 C 
ENDROOT
BRANCH  14  22
HETATM   22  C13 UNL     1     -17.876  45.668 -25.294  1.00  0.00    -0.014 C 
HETATM   23  C14 UNL     1     -18.672  44.391 -24.960  1.00  0.00     0.010 C 
BRANCH  22  24
HETATM   24  C15 UNL     1     -17.601  46.486 -24.008  1.00  0.00     0.008 C 
BRANCH  24  25
HETATM   25  C16 UNL     1     -17.603  45.817 -22.626  1.00  0.00     0.028 C 
BRANCH  25  26
HETATM   26  C17 UNL     1     -18.496  46.483 -21.616  1.00  0.00    -0.025 C 
HETATM   27  C18 UNL     1     -18.189  46.867 -20.361  1.00  0.00    -0.091 C 
HETATM   28  C19 UNL     1     -19.233  47.504 -19.481  1.00  0.00     0.042 C 
HETATM   29  C20 UNL     1     -16.838  46.734 -19.715  1.00  0.00     0.042 C 
ENDBRANCH  25  26
ENDBRANCH  24  25
ENDBRANCH  22  24
ENDBRANCH  14  22
BRANCH  20  30
HETATM   30  C27 UNL     1     -10.181  47.053 -26.274  1.00  0.00     0.021 C 
BRANCH  30  31
HETATM   31  C28 UNL     1     -10.070  47.732 -27.633  1.00  0.00     0.111 C 
BRANCH  31  32
HETATM   32  C29 UNL     1      -8.656  48.084 -28.008  1.00  0.00     0.139 C 
HETATM   33  O3  UNL     1      -7.641  47.459 -27.760  1.00  0.00    -0.650 OA
BRANCH  32  34
HETATM   34  O4  UNL     1      -8.588  49.276 -28.635  1.00  0.00    -0.776 OA
HETATM   35  H43 UNL     1      -7.629  49.399 -28.805  1.00  0.00     0.167 HD
ENDBRANCH  32  34
ENDBRANCH  31  32
ENDBRANCH  30  31
ENDBRANCH  20  30
TORSDOF 8
ENDMDL
MODEL 8
REMARK minimizedAffinity -7.43238163
REMARK CNNscore 0.181464404
REMARK CNNaffinity 6.06137705
REMARK  8 active torsions:
REMARK  status: ('A' for Active; 'I' for Inactive)
REMARK    1  A    between atoms: C12_14  and  C13_15 
REMARK    2  A    between atoms: C13_15  and  C15_17 
REMARK    3  A    between atoms: C15_17  and  C16_18 
REMARK    4  A    between atoms: C16_18  and  C17_19 
REMARK    5  A    between atoms: C26_28  and  C27_29 
REMARK    6  A    between atoms: C27_29  and  C28_30 
REMARK    7  A    between atoms: C28_30  and  C29_31 
REMARK    8  A    between atoms: C29_31  and  O4_33 
ROOT
HETATM    1  C1  UNL     1      -3.954  50.015  -9.942  1.00  0.00     0.025 C 
HETATM    2  C2  UNL     1      -2.863  50.520  -9.353  1.00  0.00     0.015 C 
HETATM    3  C3  UNL     1      -1.799  49.618  -8.860  1.00  0.00     0.289 C 
HETATM    4  O1  UNL     1      -1.633  48.453  -9.169  1.00  0.00    -0.260 OA
HETATM    5  O2  UNL     1      -1.038  50.322  -7.985  1.00  0.00    -0.311 OA
HETATM    6  C4  UNL     1      -1.634  51.605  -7.751  1.00  0.00     0.142 C 
HETATM    7  C5  UNL     1      -0.546  52.629  -7.479  1.00  0.00     0.039 C 
HETATM    8  C6  UNL     1       0.400  52.764  -8.680  1.00  0.00     0.006 C 
HETATM    9  C7  UNL     1      -0.388  53.265  -9.916  1.00  0.00    -0.027 A 
HETATM   10  C8  UNL     1       0.062  54.614 -10.506  1.00  0.00     0.011 C 
HETATM   11  C9  UNL     1       1.572  54.911 -10.541  1.00  0.00     0.011 C 
HETATM   12  C10 UNL     1       2.424  53.939  -9.719  1.00  0.00    -0.032 C 
HETATM   13  C11 UNL     1       2.693  52.681 -10.587  1.00  0.00     0.016 C 
HETATM   14  C12 UNL     1       3.766  54.526  -9.185  1.00  0.00    -0.002 C 
HETATM   15  C21 UNL     1       4.071  53.670  -7.932  1.00  0.00     0.006 C 
HETATM   16  C22 UNL     1       2.770  52.912  -7.584  1.00  0.00     0.011 C 
HETATM   17  C23 UNL     1       1.660  53.631  -8.380  1.00  0.00    -0.032 C 
HETATM   18  C24 UNL     1       1.261  54.893  -7.543  1.00  0.00     0.016 C 
HETATM   19  C25 UNL     1      -0.840  52.241 -10.939  1.00  0.00     0.022 A 
HETATM   20  C26 UNL     1      -1.893  52.833 -10.032  1.00  0.00    -0.021 A 
HETATM   21  C30 UNL     1      -2.526  51.921  -8.949  1.00  0.00     0.063 C 
ENDROOT
BRANCH  14  22
HETATM   22  C13 UNL     1       4.951  54.889 -10.126  1.00  0.00    -0.014 C 
HETATM   23  C14 UNL     1       4.443  55.813 -11.249  1.00  0.00     0.010 C 
BRANCH  22  24
HETATM   24  C15 UNL     1       6.312  55.393  -9.584  1.00  0.00     0.008 C 
BRANCH  24  25
HETATM   25  C16 UNL     1       6.725  55.147  -8.127  1.00  0.00     0.028 C 
BRANCH  25  26
HETATM   26  C17 UNL     1       6.406  56.281  -7.191  1.00  0.00    -0.025 C 
HETATM   27  C18 UNL     1       7.090  56.674  -6.099  1.00  0.00    -0.091 C 
HETATM   28  C19 UNL     1       6.599  57.830  -5.266  1.00  0.00     0.042 C 
HETATM   29  C20 UNL     1       8.371  56.061  -5.604  1.00  0.00     0.042 C 
ENDBRANCH  25  26
ENDBRANCH  24  25
ENDBRANCH  22  24
ENDBRANCH  14  22
BRANCH  20  30
HETATM   30  C27 UNL     1      -2.853  53.900 -10.592  1.00  0.00     0.021 C 
BRANCH  30  31
HETATM   31  C28 UNL     1      -4.137  53.401 -11.240  1.00  0.00     0.111 C 
BRANCH  31  32
HETATM   32  C29 UNL     1      -3.945  52.923 -12.654  1.00  0.00     0.139 C 
HETATM   33  O3  UNL     1      -3.475  51.863 -13.025  1.00  0.00    -0.650 OA
BRANCH  32  34
HETATM   34  O4  UNL     1      -4.301  53.864 -13.552  1.00  0.00    -0.776 OA
HETATM   35  H43 UNL     1      -4.112  53.446 -14.419  1.00  0.00     0.167 HD
ENDBRANCH  32  34
ENDBRANCH  31  32
ENDBRANCH  30  31
ENDBRANCH  20  30
TORSDOF 8
ENDMDL
MODEL 9
REMARK minimizedAffinity -6.91402721
REMARK CNNscore 0.176012948
REMARK CNNaffinity 6.1710453
REMARK  8 active torsions:
REMARK  status: ('A' for Active; 'I' for Inactive)
REMARK    1  A    between atoms: C12_14  and  C13_15 
REMARK    2  A    between atoms: C13_15  and  C15_17 
REMARK    3  A    between atoms: C15_17  and  C16_18 
REMARK    4  A    between atoms: C16_18  and  C17_19 
REMARK    5  A    between atoms: C26_28  and  C27_29 
REMARK    6  A    between atoms: C27_29  and  C28_30 
REMARK    7  A    between atoms: C28_30  and  C29_31 
REMARK    8  A    between atoms: C29_31  and  O4_33 
ROOT
HETATM    1  C1  UNL     1      -5.112  43.218 -18.043  1.00  0.00     0.025 C 
HETATM    2  C2  UNL     1      -4.877  44.523 -18.223  1.00  0.00     0.015 C 
HETATM    3  C3  UNL     1      -3.733  45.173 -17.546  1.00  0.00     0.289 C 
HETATM    4  O1  UNL     1      -2.773  44.617 -17.047  1.00  0.00    -0.260 OA
HETATM    5  O2  UNL     1      -3.950  46.512 -17.568  1.00  0.00    -0.311 OA
HETATM    6  C4  UNL     1      -5.259  46.780 -18.090  1.00  0.00     0.142 C 
HETATM    7  C5  UNL     1      -5.248  48.103 -18.834  1.00  0.00     0.039 C 
HETATM    8  C6  UNL     1      -4.270  48.066 -20.017  1.00  0.00     0.006 C 
HETATM    9  C7  UNL     1      -4.715  46.985 -21.033  1.00  0.00    -0.027 A 
HETATM   10  C8  UNL     1      -5.061  47.484 -22.448  1.00  0.00     0.011 C 
HETATM   11  C9  UNL     1      -4.191  48.607 -23.042  1.00  0.00     0.011 C 
HETATM   12  C10 UNL     1      -3.262  49.284 -22.031  1.00  0.00    -0.032 C 
HETATM   13  C11 UNL     1      -1.981  48.419 -21.897  1.00  0.00     0.016 C 
HETATM   14  C12 UNL     1      -2.886  50.760 -22.365  1.00  0.00    -0.002 C 
HETATM   15  C21 UNL     1      -2.556  51.379 -20.986  1.00  0.00     0.006 C 
HETATM   16  C22 UNL     1      -3.093  50.399 -19.919  1.00  0.00     0.011 C 
HETATM   17  C23 UNL     1      -4.050  49.459 -20.682  1.00  0.00    -0.032 C 
HETATM   18  C24 UNL     1      -5.413  50.219 -20.808  1.00  0.00     0.016 C 
HETATM   19  C25 UNL     1      -4.030  45.633 -20.984  1.00  0.00     0.022 A 
HETATM   20  C26 UNL     1      -5.444  45.717 -20.460  1.00  0.00    -0.021 A 
HETATM   21  C30 UNL     1      -5.671  45.575 -18.932  1.00  0.00     0.063 C 
ENDROOT
BRANCH  14  22
HETATM   22  C13 UNL     1      -1.976  51.137 -23.570  1.00  0.00    -0.014 C 
HETATM   23  C14 UNL     1      -2.857  51.586 -24.752  1.00  0.00     0.010 C 
BRANCH  22  24
HETATM   24  C15 UNL     1      -0.753  52.075 -23.419  1.00  0.00     0.008 C 
BRANCH  24  25
HETATM   25  C16 UNL     1      -0.223  52.885 -24.610  1.00  0.00     0.028 C 
BRANCH  25  26
HETATM   26  C17 UNL     1       1.047  52.348 -25.211  1.00  0.00    -0.025 C 
HETATM   27  C18 UNL     1       1.298  52.061 -26.503  1.00  0.00    -0.091 C 
HETATM   28  C19 UNL     1       2.636  51.505 -26.916  1.00  0.00     0.042 C 
HETATM   29  C20 UNL     1       0.338  52.263 -27.643  1.00  0.00     0.042 C 
ENDBRANCH  25  26
ENDBRANCH  24  25
ENDBRANCH  22  24
ENDBRANCH  14  22
BRANCH  20  30
HETATM   30  C27 UNL     1      -6.598  45.165 -21.318  1.00  0.00     0.021 C 
BRANCH  30  31
HETATM   31  C28 UNL     1      -6.377  43.813 -21.984  1.00  0.00     0.111 C 
BRANCH  31  32
HETATM   32  C29 UNL     1      -7.185  42.705 -21.364  1.00  0.00     0.139 C 
HETATM   33  O3  UNL     1      -7.353  41.577 -21.790  1.00  0.00    -0.650 OA
BRANCH  32  34
HETATM   34  O4  UNL     1      -7.814  43.112 -20.243  1.00  0.00    -0.776 OA
HETATM   35  H43 UNL     1      -8.314  42.320 -19.952  1.00  0.00     0.167 HD
ENDBRANCH  32  34
ENDBRANCH  31  32
ENDBRANCH  30  31
ENDBRANCH  20  30
TORSDOF 8
ENDMDL
