MODEL 1
REMARK minimizedAffinity -8.35443878
REMARK CNNscore 0.431440383
REMARK CNNaffinity 7.73135996
REMARK  11 active torsions:
REMARK  status: ('A' for Active; 'I' for Inactive)
REMARK    1  A    between atoms: N1_2  and  C2_3 
REMARK    2  A    between atoms: C2_3  and  C3_4 
REMARK    3  A    between atoms: C3_4  and  C4_5 
REMARK    4  A    between atoms: C7_8  and  C8_9 
REMARK    5  A    between atoms: C8_9  and  O1_10 
REMARK    6  A    between atoms: C9_12  and  C10_13 
REMARK    7  A    between atoms: C10_13  and  O3_14 
REMARK    8  A    between atoms: C10_13  and  C11_15 
REMARK    9  A    between atoms: C11_15  and  O4_17 
REMARK   10  A    between atoms: C11_15  and  C13_18 
REMARK   11  A    between atoms: C20_26  and  C21_27 
ROOT
HETATM    1  C13 UNL     1      -9.090   7.565  14.358  1.00  0.00     0.034 C 
HETATM    2  C14 UNL     1     -10.281   6.550  14.201  1.00  0.00     0.012 C 
HETATM    3  C15 UNL     1     -11.516   7.169  14.861  1.00  0.00     0.044 C 
HETATM    4  C16 UNL     1     -11.193   8.667  14.918  1.00  0.00     0.093 C 
HETATM    5  O5  UNL     1     -11.168   9.299  13.615  1.00  0.00    -0.363 OA
HETATM    6  C17 UNL     1     -12.113   8.953  12.615  1.00  0.00     0.263 C 
HETATM    7  C18 UNL     1     -13.144   9.986  12.471  1.00  0.00    -0.080 C 
HETATM    8  C19 UNL     1     -13.998  10.812  12.284  1.00  0.00    -0.093 C 
HETATM    9  C20 UNL     1     -15.052  11.831  12.045  1.00  0.00     0.121 C 
HETATM   10  C27 UNL     1     -14.715  13.195  12.698  1.00  0.00     0.190 C 
HETATM   11  O6  UNL     1     -14.994  13.296  14.101  1.00  0.00    -0.384 OA
HETATM   12  C28 UNL     1     -14.018  12.713  14.959  1.00  0.00     0.122 C 
HETATM   13  C29 UNL     1     -12.868  13.687  15.224  1.00  0.00     0.033 C 
HETATM   14  C30 UNL     1     -12.123  13.408  16.539  1.00  0.00     0.013 C 
HETATM   15  C31 UNL     1     -12.211  11.926  17.016  1.00  0.00    -0.026 C 
HETATM   16  C32 UNL     1     -11.562  11.855  18.424  1.00  0.00     0.016 C 
HETATM   17  C33 UNL     1     -13.723  11.569  17.201  1.00  0.00     0.071 C 
HETATM   18  C34 UNL     1     -14.690  12.305  16.263  1.00  0.00     0.045 C 
HETATM   19  C35 UNL     1     -14.008  10.080  17.182  1.00  0.00     0.154 C 
HETATM   20  O7  UNL     1     -14.978   9.590  17.766  1.00  0.00    -0.293 OA
HETATM   21  C36 UNL     1     -13.146   9.179  16.400  1.00  0.00     0.057 C 
HETATM   22  C37 UNL     1     -12.006   9.581  15.827  1.00  0.00    -0.036 C 
HETATM   23  C38 UNL     1     -11.446  10.990  15.981  1.00  0.00     0.026 C 
HETATM   24  C39 UNL     1      -9.900  11.002  16.200  1.00  0.00     0.011 C 
HETATM   25  C40 UNL     1      -9.116  10.021  15.315  1.00  0.00     0.014 C 
HETATM   26  C41 UNL     1      -9.683   8.592  15.402  1.00  0.00    -0.002 C 
HETATM   27  C42 UNL     1      -9.544   8.084  16.862  1.00  0.00     0.019 C 
ENDROOT
BRANCH   1  28
HETATM   28  C11 UNL     1      -7.729   6.803  14.532  1.00  0.00     0.087 C 
HETATM   29  C12 UNL     1      -7.860   5.771  15.679  1.00  0.00     0.049 C 
BRANCH  28  30
HETATM   30  C10 UNL     1      -7.088   6.067  13.306  1.00  0.00     0.181 C 
BRANCH  30  31
HETATM   31  C9  UNL     1      -6.198   4.837  13.592  1.00  0.00     0.158 C 
HETATM   32  C4  UNL     1      -4.672   4.949  13.341  1.00  0.00     0.025 C 
HETATM   33  C5  UNL     1      -4.484   4.211  12.022  1.00  0.00     0.019 C 
HETATM   34  C6  UNL     1      -3.066   3.714  11.769  1.00  0.00     0.013 C 
HETATM   35  C7  UNL     1      -5.496   3.077  12.200  1.00  0.00     0.149 C 
HETATM   36  O2  UNL     1      -6.640   3.701  12.816  1.00  0.00    -0.375 OA
BRANCH  32  37
HETATM   37  C3  UNL     1      -3.947   6.295  13.551  1.00  0.00     0.037 C 
BRANCH  37  38
HETATM   38  C2  UNL     1      -3.279   6.589  14.905  1.00  0.00     0.269 C 
BRANCH  38  39
HETATM   39  N1  UNL     1      -2.195   5.674  15.272  1.00  0.00     0.079 N 
HETATM   40  C1  UNL     1      -1.080   5.746  14.320  1.00  0.00     0.306 C 
HETATM   41  H4  UNL     1      -1.818   5.985  16.172  1.00  0.00     0.315 HD
ENDBRANCH  38  39
ENDBRANCH  37  38
ENDBRANCH  32  37
BRANCH  35  42
HETATM   42  C8  UNL     1      -5.894   2.386  10.895  1.00  0.00     0.196 C 
BRANCH  42  43
HETATM   43  O1  UNL     1      -6.477   1.112  11.171  1.00  0.00    -0.398 OA
HETATM   44  H17 UNL     1      -7.227   1.002  10.559  1.00  0.00     0.209 HD
ENDBRANCH  42  43
ENDBRANCH  35  42
ENDBRANCH  30  31
BRANCH  30  45
HETATM   45  O3  UNL     1      -8.111   5.794  12.340  1.00  0.00    -0.390 OA
HETATM   46  H20 UNL     1      -7.649   5.760  11.473  1.00  0.00     0.210 HD
ENDBRANCH  30  45
ENDBRANCH  28  30
BRANCH  28  47
HETATM   47  O4  UNL     1      -6.732   7.743  14.995  1.00  0.00    -0.387 OA
HETATM   48  H24 UNL     1      -6.331   8.107  14.183  1.00  0.00     0.210 HD
ENDBRANCH  28  47
ENDBRANCH   1  28
BRANCH   9  49
HETATM   49  C21 UNL     1     -16.456  11.341  12.371  1.00  0.00    -0.040 A 
HETATM   50  C22 UNL     1     -16.812  10.007  12.100  1.00  0.00     0.008 A 
HETATM   51  C23 UNL     1     -18.098   9.543  12.381  1.00  0.00     0.001 A 
HETATM   52  C24 UNL     1     -19.053  10.402  12.925  1.00  0.00     0.000 A 
HETATM   53  C25 UNL     1     -18.715  11.728  13.192  1.00  0.00     0.001 A 
HETATM   54  C26 UNL     1     -17.430  12.192  12.918  1.00  0.00     0.008 A 
ENDBRANCH   9  49
TORSDOF 11
ENDMDL
MODEL 2
REMARK minimizedAffinity -7.48013735
REMARK CNNscore 0.279077113
REMARK CNNaffinity 6.81923628
REMARK  11 active torsions:
REMARK  status: ('A' for Active; 'I' for Inactive)
REMARK    1  A    between atoms: N1_2  and  C2_3 
REMARK    2  A    between atoms: C2_3  and  C3_4 
REMARK    3  A    between atoms: C3_4  and  C4_5 
REMARK    4  A    between atoms: C7_8  and  C8_9 
REMARK    5  A    between atoms: C8_9  and  O1_10 
REMARK    6  A    between atoms: C9_12  and  C10_13 
REMARK    7  A    between atoms: C10_13  and  O3_14 
REMARK    8  A    between atoms: C10_13  and  C11_15 
REMARK    9  A    between atoms: C11_15  and  O4_17 
REMARK   10  A    between atoms: C11_15  and  C13_18 
REMARK   11  A    between atoms: C20_26  and  C21_27 
ROOT
HETATM    1  C13 UNL     1      -9.188  -9.862   5.810  1.00  0.00     0.034 C 
HETATM    2  C14 UNL     1      -8.572 -11.240   5.371  1.00  0.00     0.012 C 
HETATM    3  C15 UNL     1      -9.207 -11.634   4.035  1.00  0.00     0.044 C 
HETATM    4  C16 UNL     1      -9.750 -10.312   3.480  1.00  0.00     0.093 C 
HETATM    5  O5  UNL     1      -8.711  -9.384   3.086  1.00  0.00    -0.363 OA
HETATM    6  C17 UNL     1      -7.531  -9.835   2.440  1.00  0.00     0.263 C 
HETATM    7  C18 UNL     1      -7.559  -9.536   1.005  1.00  0.00    -0.080 C 
HETATM    8  C19 UNL     1      -7.508  -9.290  -0.171  1.00  0.00    -0.093 C 
HETATM    9  C20 UNL     1      -7.436  -8.983  -1.623  1.00  0.00     0.121 C 
HETATM   10  C27 UNL     1      -8.506  -7.951  -2.062  1.00  0.00     0.190 C 
HETATM   11  O6  UNL     1      -9.823  -8.477  -2.280  1.00  0.00    -0.384 OA
HETATM   12  C28 UNL     1     -10.596  -8.686  -1.102  1.00  0.00     0.122 C 
HETATM   13  C29 UNL     1     -11.297  -7.396  -0.669  1.00  0.00     0.033 C 
HETATM   14  C30 UNL     1     -12.560  -7.642   0.171  1.00  0.00     0.013 C 
HETATM   15  C31 UNL     1     -12.558  -8.998   0.940  1.00  0.00    -0.026 C 
HETATM   16  C32 UNL     1     -13.958  -9.163   1.590  1.00  0.00     0.016 C 
HETATM   17  C33 UNL     1     -12.415 -10.147  -0.112  1.00  0.00     0.071 C 
HETATM   18  C34 UNL     1     -11.612  -9.787  -1.371  1.00  0.00     0.045 C 
HETATM   19  C35 UNL     1     -11.916 -11.454   0.470  1.00  0.00     0.154 C 
HETATM   20  O7  UNL     1     -12.185 -12.546  -0.037  1.00  0.00    -0.293 OA
HETATM   21  C36 UNL     1     -11.030 -11.441   1.646  1.00  0.00     0.057 C 
HETATM   22  C37 UNL     1     -10.767 -10.330   2.345  1.00  0.00    -0.036 C 
HETATM   23  C38 UNL     1     -11.410  -8.982   2.041  1.00  0.00     0.026 C 
HETATM   24  C39 UNL     1     -11.836  -8.215   3.332  1.00  0.00     0.011 C 
HETATM   25  C40 UNL     1     -10.818  -8.272   4.482  1.00  0.00     0.014 C 
HETATM   26  C41 UNL     1     -10.397  -9.718   4.802  1.00  0.00    -0.002 C 
HETATM   27  C42 UNL     1     -11.644 -10.513   5.271  1.00  0.00     0.019 C 
ENDROOT
BRANCH   1  28
HETATM   28  C11 UNL     1      -9.317  -9.782   7.373  1.00  0.00     0.087 C 
HETATM   29  C12 UNL     1     -10.571 -10.568   7.826  1.00  0.00     0.049 C 
BRANCH  28  30
HETATM   30  C10 UNL     1      -8.120 -10.242   8.275  1.00  0.00     0.181 C 
BRANCH  30  31
HETATM   31  C9  UNL     1      -7.243  -9.145   8.918  1.00  0.00     0.158 C 
HETATM   32  C4  UNL     1      -5.703  -9.327   8.914  1.00  0.00     0.025 C 
HETATM   33  C5  UNL     1      -5.404  -9.766  10.341  1.00  0.00     0.019 C 
HETATM   34  C6  UNL     1      -3.966  -9.537  10.788  1.00  0.00     0.013 C 
HETATM   35  C7  UNL     1      -6.416  -8.909  11.106  1.00  0.00     0.149 C 
HETATM   36  O2  UNL     1      -7.611  -8.950  10.301  1.00  0.00    -0.375 OA
BRANCH  32  37
HETATM   37  C3  UNL     1      -5.011 -10.061   7.747  1.00  0.00     0.037 C 
BRANCH  37  38
HETATM   38  C2  UNL     1      -3.528 -10.448   7.872  1.00  0.00     0.269 C 
BRANCH  38  39
HETATM   39  N1  UNL     1      -2.592  -9.526   7.224  1.00  0.00     0.079 N 
HETATM   40  C1  UNL     1      -2.819  -9.453   5.775  1.00  0.00     0.306 C 
HETATM   41  H4  UNL     1      -2.782  -8.585   7.586  1.00  0.00     0.315 HD
ENDBRANCH  38  39
ENDBRANCH  37  38
ENDBRANCH  32  37
BRANCH  35  42
HETATM   42  C8  UNL     1      -6.702  -9.401  12.525  1.00  0.00     0.196 C 
BRANCH  42  43
HETATM   43  O1  UNL     1      -6.310  -8.412  13.478  1.00  0.00    -0.398 OA
HETATM   44  H17 UNL     1      -6.994  -8.396  14.171  1.00  0.00     0.209 HD
ENDBRANCH  42  43
ENDBRANCH  35  42
ENDBRANCH  30  31
BRANCH  30  45
HETATM   45  O3  UNL     1      -8.598 -11.197   9.231  1.00  0.00    -0.390 OA
HETATM   46  H20 UNL     1      -7.822 -11.758   9.449  1.00  0.00     0.210 HD
ENDBRANCH  30  45
ENDBRANCH  28  30
BRANCH  28  47
HETATM   47  O4  UNL     1      -9.587  -8.411   7.743  1.00  0.00    -0.387 OA
HETATM   48  H24 UNL     1      -8.710  -8.007   7.876  1.00  0.00     0.210 HD
ENDBRANCH  28  47
ENDBRANCH   1  28
BRANCH   9  49
HETATM   49  C21 UNL     1      -7.403 -10.223  -2.504  1.00  0.00    -0.040 A 
HETATM   50  C22 UNL     1      -6.217 -10.971  -2.615  1.00  0.00     0.008 A 
HETATM   51  C23 UNL     1      -6.164 -12.104  -3.428  1.00  0.00     0.001 A 
HETATM   52  C24 UNL     1      -7.286 -12.504  -4.153  1.00  0.00     0.000 A 
HETATM   53  C25 UNL     1      -8.466 -11.767  -4.059  1.00  0.00     0.001 A 
HETATM   54  C26 UNL     1      -8.523 -10.639  -3.242  1.00  0.00     0.008 A 
ENDBRANCH   9  49
TORSDOF 11
ENDMDL
MODEL 3
REMARK minimizedAffinity -6.92364502
REMARK CNNscore 0.237790763
REMARK CNNaffinity 5.94695473
REMARK  11 active torsions:
REMARK  status: ('A' for Active; 'I' for Inactive)
REMARK    1  A    between atoms: N1_2  and  C2_3 
REMARK    2  A    between atoms: C2_3  and  C3_4 
REMARK    3  A    between atoms: C3_4  and  C4_5 
REMARK    4  A    between atoms: C7_8  and  C8_9 
REMARK    5  A    between atoms: C8_9  and  O1_10 
REMARK    6  A    between atoms: C9_12  and  C10_13 
REMARK    7  A    between atoms: C10_13  and  O3_14 
REMARK    8  A    between atoms: C10_13  and  C11_15 
REMARK    9  A    between atoms: C11_15  and  O4_17 
REMARK   10  A    between atoms: C11_15  and  C13_18 
REMARK   11  A    between atoms: C20_26  and  C21_27 
ROOT
HETATM    1  C13 UNL     1       0.677  11.323  17.524  1.00  0.00     0.034 C 
HETATM    2  C14 UNL     1       0.136  12.799  17.508  1.00  0.00     0.012 C 
HETATM    3  C15 UNL     1       0.640  13.499  18.773  1.00  0.00     0.044 C 
HETATM    4  C16 UNL     1       1.835  12.645  19.215  1.00  0.00     0.093 C 
HETATM    5  O5  UNL     1       2.968  12.735  18.319  1.00  0.00    -0.363 OA
HETATM    6  C17 UNL     1       3.335  13.969  17.722  1.00  0.00     0.263 C 
HETATM    7  C18 UNL     1       4.518  14.546  18.368  1.00  0.00    -0.080 C 
HETATM    8  C19 UNL     1       5.503  15.054  18.835  1.00  0.00    -0.093 C 
HETATM    9  C20 UNL     1       6.723  15.683  19.403  1.00  0.00     0.121 C 
HETATM   10  C27 UNL     1       7.527  14.708  20.301  1.00  0.00     0.190 C 
HETATM   11  O6  UNL     1       7.036  14.549  21.639  1.00  0.00    -0.384 OA
HETATM   12  C28 UNL     1       5.926  13.666  21.778  1.00  0.00     0.122 C 
HETATM   13  C29 UNL     1       6.392  12.212  21.888  1.00  0.00     0.033 C 
HETATM   14  C30 UNL     1       5.388  11.304  22.614  1.00  0.00     0.013 C 
HETATM   15  C31 UNL     1       3.912  11.800  22.537  1.00  0.00    -0.026 C 
HETATM   16  C32 UNL     1       3.065  10.876  23.452  1.00  0.00     0.016 C 
HETATM   17  C33 UNL     1       3.853  13.231  23.167  1.00  0.00     0.071 C 
HETATM   18  C34 UNL     1       5.128  14.070  23.009  1.00  0.00     0.045 C 
HETATM   19  C35 UNL     1       2.640  14.037  22.746  1.00  0.00     0.154 C 
HETATM   20  O7  UNL     1       2.165  14.928  23.454  1.00  0.00    -0.293 OA
HETATM   21  C36 UNL     1       2.030  13.807  21.426  1.00  0.00     0.057 C 
HETATM   22  C37 UNL     1       2.387  12.794  20.628  1.00  0.00    -0.036 C 
HETATM   23  C38 UNL     1       3.409  11.735  21.029  1.00  0.00     0.026 C 
HETATM   24  C39 UNL     1       2.978  10.296  20.607  1.00  0.00     0.011 C 
HETATM   25  C40 UNL     1       2.363  10.190  19.204  1.00  0.00     0.014 C 
HETATM   26  C41 UNL     1       1.217  11.198  19.004  1.00  0.00    -0.002 C 
HETATM   27  C42 UNL     1       0.083  10.876  20.013  1.00  0.00     0.019 C 
ENDROOT
BRANCH   1  28
HETATM   28  C11 UNL     1      -0.359  10.344  16.868  1.00  0.00     0.087 C 
HETATM   29  C12 UNL     1      -1.647  10.306  17.727  1.00  0.00     0.049 C 
BRANCH  28  30
HETATM   30  C10 UNL     1      -0.793  10.556  15.377  1.00  0.00     0.181 C 
BRANCH  30  31
HETATM   31  C9  UNL     1       0.017   9.823  14.282  1.00  0.00     0.158 C 
HETATM   32  C4  UNL     1      -0.395   8.380  13.893  1.00  0.00     0.025 C 
HETATM   33  C5  UNL     1       0.645   7.522  14.600  1.00  0.00     0.019 C 
HETATM   34  C6  UNL     1       0.819   6.126  14.016  1.00  0.00     0.013 C 
HETATM   35  C7  UNL     1       1.885   8.404  14.428  1.00  0.00     0.149 C 
HETATM   36  O2  UNL     1       1.411   9.748  14.651  1.00  0.00    -0.375 OA
BRANCH  32  37
HETATM   37  C3  UNL     1      -1.877   7.953  13.951  1.00  0.00     0.037 C 
BRANCH  37  38
HETATM   38  C2  UNL     1      -2.424   6.980  12.894  1.00  0.00     0.269 C 
BRANCH  38  39
HETATM   39  N1  UNL     1      -2.872   5.687  13.418  1.00  0.00     0.079 N 
HETATM   40  C1  UNL     1      -3.281   4.778  12.340  1.00  0.00     0.306 C 
HETATM   41  H4  UNL     1      -2.069   5.241  13.873  1.00  0.00     0.315 HD
ENDBRANCH  38  39
ENDBRANCH  37  38
ENDBRANCH  32  37
BRANCH  35  42
HETATM   42  C8  UNL     1       3.027   8.067  15.387  1.00  0.00     0.196 C 
BRANCH  42  43
HETATM   43  O1  UNL     1       2.876   6.737  15.886  1.00  0.00    -0.398 OA
HETATM   44  H17 UNL     1       3.764   6.339  15.910  1.00  0.00     0.209 HD
ENDBRANCH  42  43
ENDBRANCH  35  42
ENDBRANCH  30  31
BRANCH  30  45
HETATM   45  O3  UNL     1      -2.203  10.328  15.264  1.00  0.00    -0.390 OA
HETATM   46  H20 UNL     1      -2.494  10.870  14.499  1.00  0.00     0.210 HD
ENDBRANCH  30  45
ENDBRANCH  28  30
BRANCH  28  47
HETATM   47  O4  UNL     1       0.170   9.000  16.939  1.00  0.00    -0.387 OA
HETATM   48  H24 UNL     1       0.679   8.884  16.115  1.00  0.00     0.210 HD
ENDBRANCH  28  47
ENDBRANCH   1  28
BRANCH   9  49
HETATM   49  C21 UNL     1       6.461  17.028  20.065  1.00  0.00    -0.040 A 
HETATM   50  C22 UNL     1       5.598  17.953  19.451  1.00  0.00     0.008 A 
HETATM   51  C23 UNL     1       5.355  19.197  20.036  1.00  0.00     0.001 A 
HETATM   52  C24 UNL     1       5.976  19.543  21.236  1.00  0.00     0.000 A 
HETATM   53  C25 UNL     1       6.840  18.638  21.852  1.00  0.00     0.001 A 
HETATM   54  C26 UNL     1       7.079  17.394  21.272  1.00  0.00     0.008 A 
ENDBRANCH   9  49
TORSDOF 11
ENDMDL
MODEL 4
REMARK minimizedAffinity -9.1723814
REMARK CNNscore 0.235203087
REMARK CNNaffinity 7.15622568
REMARK  11 active torsions:
REMARK  status: ('A' for Active; 'I' for Inactive)
REMARK    1  A    between atoms: N1_2  and  C2_3 
REMARK    2  A    between atoms: C2_3  and  C3_4 
REMARK    3  A    between atoms: C3_4  and  C4_5 
REMARK    4  A    between atoms: C7_8  and  C8_9 
REMARK    5  A    between atoms: C8_9  and  O1_10 
REMARK    6  A    between atoms: C9_12  and  C10_13 
REMARK    7  A    between atoms: C10_13  and  O3_14 
REMARK    8  A    between atoms: C10_13  and  C11_15 
REMARK    9  A    between atoms: C11_15  and  O4_17 
REMARK   10  A    between atoms: C11_15  and  C13_18 
REMARK   11  A    between atoms: C20_26  and  C21_27 
ROOT
HETATM    1  C13 UNL     1      -3.827   8.546  15.201  1.00  0.00     0.034 C 
HETATM    2  C14 UNL     1      -3.551   7.526  16.366  1.00  0.00     0.012 C 
HETATM    3  C15 UNL     1      -2.044   7.517  16.635  1.00  0.00     0.044 C 
HETATM    4  C16 UNL     1      -1.553   8.839  16.033  1.00  0.00     0.093 C 
HETATM    5  O5  UNL     1      -2.006  10.005  16.760  1.00  0.00    -0.363 OA
HETATM    6  C17 UNL     1      -2.065  10.008  18.178  1.00  0.00     0.263 C 
HETATM    7  C18 UNL     1      -0.958  10.774  18.759  1.00  0.00    -0.080 C 
HETATM    8  C19 UNL     1      -0.093  11.415  19.294  1.00  0.00    -0.093 C 
HETATM    9  C20 UNL     1       0.971  12.210  19.960  1.00  0.00     0.121 C 
HETATM   10  C27 UNL     1       1.724  13.137  18.971  1.00  0.00     0.190 C 
HETATM   11  O6  UNL     1       2.745  12.505  18.185  1.00  0.00    -0.384 OA
HETATM   12  C28 UNL     1       2.278  11.777  17.054  1.00  0.00     0.122 C 
HETATM   13  C29 UNL     1       2.073  12.702  15.852  1.00  0.00     0.033 C 
HETATM   14  C30 UNL     1       2.160  11.975  14.501  1.00  0.00     0.013 C 
HETATM   15  C31 UNL     1       1.810  10.458  14.573  1.00  0.00    -0.026 C 
HETATM   16  C32 UNL     1       2.111   9.848  13.177  1.00  0.00     0.016 C 
HETATM   17  C33 UNL     1       2.799   9.783  15.579  1.00  0.00     0.071 C 
HETATM   18  C34 UNL     1       3.284  10.683  16.725  1.00  0.00     0.045 C 
HETATM   19  C35 UNL     1       2.307   8.458  16.128  1.00  0.00     0.154 C 
HETATM   20  O7  UNL     1       3.081   7.579  16.516  1.00  0.00    -0.293 OA
HETATM   21  C36 UNL     1       0.862   8.213  16.265  1.00  0.00     0.057 C 
HETATM   22  C37 UNL     1      -0.065   9.043  15.772  1.00  0.00    -0.036 C 
HETATM   23  C38 UNL     1       0.275  10.286  14.957  1.00  0.00     0.026 C 
HETATM   24  C39 UNL     1      -0.670  10.478  13.731  1.00  0.00     0.011 C 
HETATM   25  C40 UNL     1      -2.155  10.199  14.010  1.00  0.00     0.014 C 
HETATM   26  C41 UNL     1      -2.365   8.824  14.669  1.00  0.00    -0.002 C 
HETATM   27  C42 UNL     1      -1.881   7.719  13.693  1.00  0.00     0.019 C 
ENDROOT
BRANCH   1  28
HETATM   28  C11 UNL     1      -5.023   8.060  14.308  1.00  0.00     0.087 C 
HETATM   29  C12 UNL     1      -4.775   8.486  12.840  1.00  0.00     0.049 C 
BRANCH  28  30
HETATM   30  C10 UNL     1      -5.419   6.543  14.299  1.00  0.00     0.181 C 
BRANCH  30  31
HETATM   31  C9  UNL     1      -5.623   5.863  12.926  1.00  0.00     0.158 C 
HETATM   32  C4  UNL     1      -6.749   4.808  12.780  1.00  0.00     0.025 C 
HETATM   33  C5  UNL     1      -5.992   3.487  12.813  1.00  0.00     0.019 C 
HETATM   34  C6  UNL     1      -6.737   2.312  12.194  1.00  0.00     0.013 C 
HETATM   35  C7  UNL     1      -4.733   3.878  12.035  1.00  0.00     0.149 C 
HETATM   36  O2  UNL     1      -4.409   5.203  12.504  1.00  0.00    -0.375 OA
BRANCH  32  37
HETATM   37  C3  UNL     1      -8.050   4.941  13.599  1.00  0.00     0.037 C 
BRANCH  37  38
HETATM   38  C2  UNL     1      -8.904   6.212  13.457  1.00  0.00     0.269 C 
BRANCH  38  39
HETATM   39  N1  UNL     1      -9.763   6.511  14.606  1.00  0.00     0.079 N 
HETATM   40  C1  UNL     1      -8.975   6.851  15.797  1.00  0.00     0.306 C 
HETATM   41  H4  UNL     1     -10.305   7.351  14.379  1.00  0.00     0.315 HD
ENDBRANCH  38  39
ENDBRANCH  37  38
ENDBRANCH  32  37
BRANCH  35  42
HETATM   42  C8  UNL     1      -3.552   2.928  12.242  1.00  0.00     0.196 C 
BRANCH  42  43
HETATM   43  O1  UNL     1      -3.335   2.150  11.065  1.00  0.00    -0.398 OA
HETATM   44  H17 UNL     1      -2.372   2.085  10.939  1.00  0.00     0.209 HD
ENDBRANCH  42  43
ENDBRANCH  35  42
ENDBRANCH  30  31
BRANCH  30  45
HETATM   45  O3  UNL     1      -4.515   5.820  15.143  1.00  0.00    -0.390 OA
HETATM   46  H20 UNL     1      -5.020   5.038  15.457  1.00  0.00     0.210 HD
ENDBRANCH  30  45
ENDBRANCH  28  30
BRANCH  28  47
HETATM   47  O4  UNL     1      -6.214   8.778  14.704  1.00  0.00    -0.387 OA
HETATM   48  H24 UNL     1      -6.619   8.230  15.402  1.00  0.00     0.210 HD
ENDBRANCH  28  47
ENDBRANCH   1  28
BRANCH   9  49
HETATM   49  C21 UNL     1       1.903  11.374  20.825  1.00  0.00    -0.040 A 
HETATM   50  C22 UNL     1       3.086  11.941  21.330  1.00  0.00     0.008 A 
HETATM   51  C23 UNL     1       3.959  11.186  22.114  1.00  0.00     0.001 A 
HETATM   52  C24 UNL     1       3.674   9.851  22.399  1.00  0.00     0.000 A 
HETATM   53  C25 UNL     1       2.507   9.273  21.899  1.00  0.00     0.001 A 
HETATM   54  C26 UNL     1       1.631  10.028  21.121  1.00  0.00     0.008 A 
ENDBRANCH   9  49
TORSDOF 11
ENDMDL
MODEL 5
REMARK minimizedAffinity -6.8759799
REMARK CNNscore 0.226842031
REMARK CNNaffinity 6.09651423
REMARK  11 active torsions:
REMARK  status: ('A' for Active; 'I' for Inactive)
REMARK    1  A    between atoms: N1_2  and  C2_3 
REMARK    2  A    between atoms: C2_3  and  C3_4 
REMARK    3  A    between atoms: C3_4  and  C4_5 
REMARK    4  A    between atoms: C7_8  and  C8_9 
REMARK    5  A    between atoms: C8_9  and  O1_10 
REMARK    6  A    between atoms: C9_12  and  C10_13 
REMARK    7  A    between atoms: C10_13  and  O3_14 
REMARK    8  A    between atoms: C10_13  and  C11_15 
REMARK    9  A    between atoms: C11_15  and  O4_17 
REMARK   10  A    between atoms: C11_15  and  C13_18 
REMARK   11  A    between atoms: C20_26  and  C21_27 
ROOT
HETATM    1  C13 UNL     1     -16.466   8.197  18.678  1.00  0.00     0.034 C 
HETATM    2  C14 UNL     1     -15.313   7.211  18.263  1.00  0.00     0.012 C 
HETATM    3  C15 UNL     1     -14.324   7.126  19.429  1.00  0.00     0.044 C 
HETATM    4  C16 UNL     1     -15.136   7.611  20.637  1.00  0.00     0.093 C 
HETATM    5  O5  UNL     1     -16.184   6.693  21.031  1.00  0.00    -0.363 OA
HETATM    6  C17 UNL     1     -15.978   5.290  21.005  1.00  0.00     0.263 C 
HETATM    7  C18 UNL     1     -15.777   4.753  22.354  1.00  0.00    -0.080 C 
HETATM    8  C19 UNL     1     -15.638   4.248  23.437  1.00  0.00    -0.093 C 
HETATM    9  C20 UNL     1     -15.472   3.618  24.772  1.00  0.00     0.121 C 
HETATM   10  C27 UNL     1     -15.885   4.565  25.928  1.00  0.00     0.190 C 
HETATM   11  O6  UNL     1     -14.904   5.539  26.311  1.00  0.00    -0.384 OA
HETATM   12  C28 UNL     1     -14.832   6.690  25.475  1.00  0.00     0.122 C 
HETATM   13  C29 UNL     1     -15.875   7.733  25.885  1.00  0.00     0.033 C 
HETATM   14  C30 UNL     1     -15.498   9.165  25.476  1.00  0.00     0.013 C 
HETATM   15  C31 UNL     1     -14.541   9.244  24.248  1.00  0.00    -0.026 C 
HETATM   16  C32 UNL     1     -14.129  10.731  24.078  1.00  0.00     0.016 C 
HETATM   17  C33 UNL     1     -13.238   8.455  24.601  1.00  0.00     0.071 C 
HETATM   18  C34 UNL     1     -13.428   7.271  25.560  1.00  0.00     0.045 C 
HETATM   19  C35 UNL     1     -12.434   8.024  23.391  1.00  0.00     0.154 C 
HETATM   20  O7  UNL     1     -11.215   7.844  23.441  1.00  0.00    -0.293 OA
HETATM   21  C36 UNL     1     -13.119   7.747  22.117  1.00  0.00     0.057 C 
HETATM   22  C37 UNL     1     -14.415   8.019  21.916  1.00  0.00    -0.036 C 
HETATM   23  C38 UNL     1     -15.295   8.705  22.954  1.00  0.00     0.026 C 
HETATM   24  C39 UNL     1     -16.240   9.776  22.327  1.00  0.00     0.011 C 
HETATM   25  C40 UNL     1     -16.899   9.360  21.003  1.00  0.00     0.014 C 
HETATM   26  C41 UNL     1     -15.863   8.859  19.980  1.00  0.00    -0.002 C 
HETATM   27  C42 UNL     1     -14.886  10.018  19.646  1.00  0.00     0.019 C 
ENDROOT
BRANCH   1  28
HETATM   28  C11 UNL     1     -16.989   8.995  17.432  1.00  0.00     0.087 C 
HETATM   29  C12 UNL     1     -17.973  10.094  17.902  1.00  0.00     0.049 C 
BRANCH  28  30
HETATM   30  C10 UNL     1     -15.966   9.666  16.453  1.00  0.00     0.181 C 
BRANCH  30  31
HETATM   31  C9  UNL     1     -15.420   8.810  15.288  1.00  0.00     0.158 C 
HETATM   32  C4  UNL     1     -13.992   9.101  14.758  1.00  0.00     0.025 C 
HETATM   33  C5  UNL     1     -14.252   9.871  13.471  1.00  0.00     0.019 C 
HETATM   34  C6  UNL     1     -13.098   9.856  12.477  1.00  0.00     0.013 C 
HETATM   35  C7  UNL     1     -15.494   9.136  12.961  1.00  0.00     0.149 C 
HETATM   36  O2  UNL     1     -16.292   8.905  14.140  1.00  0.00    -0.375 OA
BRANCH  32  37
HETATM   37  C3  UNL     1     -12.894   9.603  15.718  1.00  0.00     0.037 C 
BRANCH  37  38
HETATM   38  C2  UNL     1     -11.512   8.929  15.704  1.00  0.00     0.269 C 
BRANCH  38  39
HETATM   39  N1  UNL     1     -11.517   7.517  15.315  1.00  0.00     0.079 N 
HETATM   40  C1  UNL     1     -10.823   7.303  14.040  1.00  0.00     0.306 C 
HETATM   41  H4  UNL     1     -10.980   6.999  16.018  1.00  0.00     0.315 HD
ENDBRANCH  38  39
ENDBRANCH  37  38
ENDBRANCH  32  37
BRANCH  35  42
HETATM   42  C8  UNL     1     -16.292   9.912  11.912  1.00  0.00     0.196 C 
BRANCH  42  43
HETATM   43  O1  UNL     1     -16.190   9.269  10.641  1.00  0.00    -0.398 OA
HETATM   44  H17 UNL     1     -17.069   9.315  10.226  1.00  0.00     0.209 HD
ENDBRANCH  42  43
ENDBRANCH  35  42
ENDBRANCH  30  31
BRANCH  30  45
HETATM   45  O3  UNL     1     -16.497  10.922  16.012  1.00  0.00    -0.390 OA
HETATM   46  H20 UNL     1     -15.714  11.475  15.797  1.00  0.00     0.210 HD
ENDBRANCH  30  45
ENDBRANCH  28  30
BRANCH  28  47
HETATM   47  O4  UNL     1     -17.790   8.107  16.620  1.00  0.00    -0.387 OA
HETATM   48  H24 UNL     1     -17.162   7.701  15.993  1.00  0.00     0.210 HD
ENDBRANCH  28  47
ENDBRANCH   1  28
BRANCH   9  49
HETATM   49  C21 UNL     1     -14.105   2.982  24.978  1.00  0.00    -0.040 A 
HETATM   50  C22 UNL     1     -13.138   3.058  23.960  1.00  0.00     0.008 A 
HETATM   51  C23 UNL     1     -11.883   2.470  24.125  1.00  0.00     0.001 A 
HETATM   52  C24 UNL     1     -11.575   1.788  25.302  1.00  0.00     0.000 A 
HETATM   53  C25 UNL     1     -12.527   1.699  26.317  1.00  0.00     0.001 A 
HETATM   54  C26 UNL     1     -13.778   2.290  26.156  1.00  0.00     0.008 A 
ENDBRANCH   9  49
TORSDOF 11
ENDMDL
MODEL 6
REMARK minimizedAffinity -8.30943298
REMARK CNNscore 0.221125215
REMARK CNNaffinity 6.10411692
REMARK  11 active torsions:
REMARK  status: ('A' for Active; 'I' for Inactive)
REMARK    1  A    between atoms: N1_2  and  C2_3 
REMARK    2  A    between atoms: C2_3  and  C3_4 
REMARK    3  A    between atoms: C3_4  and  C4_5 
REMARK    4  A    between atoms: C7_8  and  C8_9 
REMARK    5  A    between atoms: C8_9  and  O1_10 
REMARK    6  A    between atoms: C9_12  and  C10_13 
REMARK    7  A    between atoms: C10_13  and  O3_14 
REMARK    8  A    between atoms: C10_13  and  C11_15 
REMARK    9  A    between atoms: C11_15  and  O4_17 
REMARK   10  A    between atoms: C11_15  and  C13_18 
REMARK   11  A    between atoms: C20_26  and  C21_27 
ROOT
HETATM    1  C13 UNL     1       2.861  11.939  20.726  1.00  0.00     0.034 C 
HETATM    2  C14 UNL     1       2.968  11.349  22.179  1.00  0.00     0.012 C 
HETATM    3  C15 UNL     1       4.316  11.780  22.764  1.00  0.00     0.044 C 
HETATM    4  C16 UNL     1       4.722  12.985  21.906  1.00  0.00     0.093 C 
HETATM    5  O5  UNL     1       3.887  14.149  22.118  1.00  0.00    -0.363 OA
HETATM    6  C17 UNL     1       3.431  14.496  23.416  1.00  0.00     0.263 C 
HETATM    7  C18 UNL     1       4.179  15.633  23.961  1.00  0.00    -0.080 C 
HETATM    8  C19 UNL     1       4.735  16.582  24.449  1.00  0.00    -0.093 C 
HETATM    9  C20 UNL     1       5.413  17.757  25.053  1.00  0.00     0.121 C 
HETATM   10  C27 UNL     1       6.243  18.559  24.018  1.00  0.00     0.190 C 
HETATM   11  O6  UNL     1       7.537  18.021  23.712  1.00  0.00    -0.384 OA
HETATM   12  C28 UNL     1       7.542  16.937  22.787  1.00  0.00     0.122 C 
HETATM   13  C29 UNL     1       7.528  17.448  21.344  1.00  0.00     0.033 C 
HETATM   14  C30 UNL     1       8.117  16.447  20.338  1.00  0.00     0.013 C 
HETATM   15  C31 UNL     1       8.028  14.959  20.796  1.00  0.00    -0.026 C 
HETATM   16  C32 UNL     1       8.811  14.109  19.759  1.00  0.00     0.016 C 
HETATM   17  C33 UNL     1       8.794  14.828  22.153  1.00  0.00     0.071 C 
HETATM   18  C34 UNL     1       8.773  16.079  23.042  1.00  0.00     0.045 C 
HETATM   19  C35 UNL     1       8.403  13.606  22.962  1.00  0.00     0.154 C 
HETATM   20  O7  UNL     1       9.175  13.073  23.763  1.00  0.00    -0.293 OA
HETATM   21  C36 UNL     1       7.043  13.055  22.846  1.00  0.00     0.057 C 
HETATM   22  C37 UNL     1       6.164  13.477  21.929  1.00  0.00    -0.036 C 
HETATM   23  C38 UNL     1       6.501  14.517  20.867  1.00  0.00     0.026 C 
HETATM   24  C39 UNL     1       5.922  14.152  19.464  1.00  0.00     0.011 C 
HETATM   25  C40 UNL     1       4.490  13.596  19.481  1.00  0.00     0.014 C 
HETATM   26  C41 UNL     1       4.344  12.425  20.470  1.00  0.00    -0.002 C 
HETATM   27  C42 UNL     1       5.267  11.264  20.014  1.00  0.00     0.019 C 
ENDROOT
BRANCH   1  28
HETATM   28  C11 UNL     1       2.069  10.962  19.786  1.00  0.00     0.087 C 
HETATM   29  C12 UNL     1       0.598  10.871  20.261  1.00  0.00     0.049 C 
BRANCH  28  30
HETATM   30  C10 UNL     1       2.050  11.217  18.240  1.00  0.00     0.181 C 
BRANCH  30  31
HETATM   31  C9  UNL     1       2.743  10.175  17.332  1.00  0.00     0.158 C 
HETATM   32  C4  UNL     1       3.113  10.582  15.883  1.00  0.00     0.025 C 
HETATM   33  C5  UNL     1       2.027   9.915  15.050  1.00  0.00     0.019 C 
HETATM   34  C6  UNL     1       2.390   9.702  13.585  1.00  0.00     0.013 C 
HETATM   35  C7  UNL     1       1.858   8.605  15.824  1.00  0.00     0.149 C 
HETATM   36  O2  UNL     1       1.928   8.989  17.212  1.00  0.00    -0.375 OA
BRANCH  32  37
HETATM   37  C3  UNL     1       3.510  12.038  15.561  1.00  0.00     0.037 C 
BRANCH  37  38
HETATM   38  C2  UNL     1       2.420  13.047  15.164  1.00  0.00     0.269 C 
BRANCH  38  39
HETATM   39  N1  UNL     1       2.340  13.337  13.730  1.00  0.00     0.079 N 
HETATM   40  C1  UNL     1       3.648  13.204  13.076  1.00  0.00     0.306 C 
HETATM   41  H4  UNL     1       1.738  12.626  13.302  1.00  0.00     0.315 HD
ENDBRANCH  38  39
ENDBRANCH  37  38
ENDBRANCH  32  37
BRANCH  35  42
HETATM   42  C8  UNL     1       0.549   7.871  15.531  1.00  0.00     0.196 C 
BRANCH  42  43
HETATM   43  O1  UNL     1       0.406   6.751  16.405  1.00  0.00    -0.398 OA
HETATM   44  H17 UNL     1      -0.530   6.716  16.673  1.00  0.00     0.209 HD
ENDBRANCH  42  43
ENDBRANCH  35  42
ENDBRANCH  30  31
BRANCH  30  45
HETATM   45  O3  UNL     1       0.706  11.497  17.830  1.00  0.00    -0.390 OA
HETATM   46  H20 UNL     1       0.790  12.056  17.027  1.00  0.00     0.210 HD
ENDBRANCH  30  45
ENDBRANCH  28  30
BRANCH  28  47
HETATM   47  O4  UNL     1       2.596   9.628  19.962  1.00  0.00    -0.387 OA
HETATM   48  H24 UNL     1       3.312   9.549  19.304  1.00  0.00     0.210 HD
ENDBRANCH  28  47
ENDBRANCH   1  28
BRANCH   9  49
HETATM   49  C21 UNL     1       6.192  17.424  26.317  1.00  0.00    -0.040 A 
HETATM   50  C22 UNL     1       7.553  17.081  26.230  1.00  0.00     0.008 A 
HETATM   51  C23 UNL     1       8.281  16.760  27.377  1.00  0.00     0.001 A 
HETATM   52  C24 UNL     1       7.663  16.766  28.627  1.00  0.00     0.000 A 
HETATM   53  C25 UNL     1       6.312  17.097  28.728  1.00  0.00     0.001 A 
HETATM   54  C26 UNL     1       5.586  17.424  27.584  1.00  0.00     0.008 A 
ENDBRANCH   9  49
TORSDOF 11
ENDMDL
MODEL 7
REMARK minimizedAffinity -7.04493713
REMARK CNNscore 0.202079847
REMARK CNNaffinity 5.80870438
REMARK  11 active torsions:
REMARK  status: ('A' for Active; 'I' for Inactive)
REMARK    1  A    between atoms: N1_2  and  C2_3 
REMARK    2  A    between atoms: C2_3  and  C3_4 
REMARK    3  A    between atoms: C3_4  and  C4_5 
REMARK    4  A    between atoms: C7_8  and  C8_9 
REMARK    5  A    between atoms: C8_9  and  O1_10 
REMARK    6  A    between atoms: C9_12  and  C10_13 
REMARK    7  A    between atoms: C10_13  and  O3_14 
REMARK    8  A    between atoms: C10_13  and  C11_15 
REMARK    9  A    between atoms: C11_15  and  O4_17 
REMARK   10  A    between atoms: C11_15  and  C13_18 
REMARK   11  A    between atoms: C20_26  and  C21_27 
ROOT
HETATM    1  C13 UNL     1       1.901  10.877  17.429  1.00  0.00     0.034 C 
HETATM    2  C14 UNL     1       2.410  11.999  16.452  1.00  0.00     0.012 C 
HETATM    3  C15 UNL     1       3.154  13.046  17.285  1.00  0.00     0.044 C 
HETATM    4  C16 UNL     1       3.514  12.303  18.577  1.00  0.00     0.093 C 
HETATM    5  O5  UNL     1       4.510  11.269  18.387  1.00  0.00    -0.363 OA
HETATM    6  C17 UNL     1       5.610  11.463  17.512  1.00  0.00     0.263 C 
HETATM    7  C18 UNL     1       6.845  11.730  18.256  1.00  0.00    -0.080 C 
HETATM    8  C19 UNL     1       7.896  11.921  18.809  1.00  0.00    -0.093 C 
HETATM    9  C20 UNL     1       9.198  12.151  19.487  1.00  0.00     0.121 C 
HETATM   10  C27 UNL     1       9.147  11.806  20.997  1.00  0.00     0.190 C 
HETATM   11  O6  UNL     1       8.575  12.813  21.844  1.00  0.00    -0.384 OA
HETATM   12  C28 UNL     1       7.151  12.851  21.866  1.00  0.00     0.122 C 
HETATM   13  C29 UNL     1       6.591  11.838  22.869  1.00  0.00     0.033 C 
HETATM   14  C30 UNL     1       5.192  12.205  23.387  1.00  0.00     0.013 C 
HETATM   15  C31 UNL     1       4.366  13.097  22.412  1.00  0.00    -0.026 C 
HETATM   16  C32 UNL     1       3.066  13.511  23.152  1.00  0.00     0.016 C 
HETATM   17  C33 UNL     1       5.176  14.411  22.159  1.00  0.00     0.071 C 
HETATM   18  C34 UNL     1       6.703  14.262  22.219  1.00  0.00     0.045 C 
HETATM   19  C35 UNL     1       4.772  15.147  20.897  1.00  0.00     0.154 C 
HETATM   20  O7  UNL     1       4.915  16.366  20.772  1.00  0.00    -0.293 OA
HETATM   21  C36 UNL     1       4.244  14.394  19.747  1.00  0.00     0.057 C 
HETATM   22  C37 UNL     1       3.939  13.093  19.809  1.00  0.00    -0.036 C 
HETATM   23  C38 UNL     1       4.038  12.273  21.090  1.00  0.00     0.026 C 
HETATM   24  C39 UNL     1       2.829  11.304  21.279  1.00  0.00     0.011 C 
HETATM   25  C40 UNL     1       2.382  10.574  20.003  1.00  0.00     0.014 C 
HETATM   26  C41 UNL     1       2.140  11.552  18.839  1.00  0.00    -0.002 C 
HETATM   27  C42 UNL     1       0.990  12.519  19.224  1.00  0.00     0.019 C 
ENDROOT
BRANCH   1  28
HETATM   28  C11 UNL     1       0.528  10.296  16.941  1.00  0.00     0.087 C 
HETATM   29  C12 UNL     1      -0.274  11.406  16.219  1.00  0.00     0.049 C 
BRANCH  28  30
HETATM   30  C10 UNL     1       0.504   9.025  16.024  1.00  0.00     0.181 C 
BRANCH  30  31
HETATM   31  C9  UNL     1       0.409   9.243  14.497  1.00  0.00     0.158 C 
HETATM   32  C4  UNL     1      -0.508   8.307  13.668  1.00  0.00     0.025 C 
HETATM   33  C5  UNL     1       0.478   7.350  13.013  1.00  0.00     0.019 C 
HETATM   34  C6  UNL     1      -0.048   6.651  11.766  1.00  0.00     0.013 C 
HETATM   35  C7  UNL     1       1.634   8.309  12.721  1.00  0.00     0.149 C 
HETATM   36  O2  UNL     1       1.717   9.149  13.891  1.00  0.00    -0.375 OA
BRANCH  32  37
HETATM   37  C3  UNL     1      -1.800   7.736  14.289  1.00  0.00     0.037 C 
BRANCH  37  38
HETATM   38  C2  UNL     1      -1.813   7.341  15.774  1.00  0.00     0.269 C 
BRANCH  38  39
HETATM   39  N1  UNL     1      -3.090   6.815  16.263  1.00  0.00     0.079 N 
HETATM   40  C1  UNL     1      -3.984   6.449  15.157  1.00  0.00     0.306 C 
HETATM   41  H4  UNL     1      -2.895   5.944  16.767  1.00  0.00     0.315 HD
ENDBRANCH  38  39
ENDBRANCH  37  38
ENDBRANCH  32  37
BRANCH  35  42
HETATM   42  C8  UNL     1       2.971   7.615  12.459  1.00  0.00     0.196 C 
BRANCH  42  43
HETATM   43  O1  UNL     1       3.633   7.338  13.694  1.00  0.00    -0.398 OA
HETATM   44  H17 UNL     1       4.035   6.455  13.611  1.00  0.00     0.209 HD
ENDBRANCH  42  43
ENDBRANCH  35  42
ENDBRANCH  30  31
BRANCH  30  45
HETATM   45  O3  UNL     1       1.589   8.165  16.391  1.00  0.00    -0.390 OA
HETATM   46  H20 UNL     1       1.299   7.259  16.146  1.00  0.00     0.210 HD
ENDBRANCH  30  45
ENDBRANCH  28  30
BRANCH  28  47
HETATM   47  O4  UNL     1      -0.268   9.962  18.101  1.00  0.00    -0.387 OA
HETATM   48  H24 UNL     1      -0.041   9.036  18.306  1.00  0.00     0.210 HD
ENDBRANCH  28  47
ENDBRANCH   1  28
BRANCH   9  49
HETATM   49  C21 UNL     1       9.795  13.522  19.205  1.00  0.00    -0.040 A 
HETATM   50  C22 UNL     1       8.947  14.616  18.951  1.00  0.00     0.008 A 
HETATM   51  C23 UNL     1       9.477  15.878  18.679  1.00  0.00     0.001 A 
HETATM   52  C24 UNL     1      10.858  16.069  18.643  1.00  0.00     0.000 A 
HETATM   53  C25 UNL     1      11.710  14.992  18.885  1.00  0.00     0.001 A 
HETATM   54  C26 UNL     1      11.183  13.733  19.164  1.00  0.00     0.008 A 
ENDBRANCH   9  49
TORSDOF 11
ENDMDL
MODEL 8
REMARK minimizedAffinity -7.31559467
REMARK CNNscore 0.192626074
REMARK CNNaffinity 5.58115625
REMARK  11 active torsions:
REMARK  status: ('A' for Active; 'I' for Inactive)
REMARK    1  A    between atoms: N1_2  and  C2_3 
REMARK    2  A    between atoms: C2_3  and  C3_4 
REMARK    3  A    between atoms: C3_4  and  C4_5 
REMARK    4  A    between atoms: C7_8  and  C8_9 
REMARK    5  A    between atoms: C8_9  and  O1_10 
REMARK    6  A    between atoms: C9_12  and  C10_13 
REMARK    7  A    between atoms: C10_13  and  O3_14 
REMARK    8  A    between atoms: C10_13  and  C11_15 
REMARK    9  A    between atoms: C11_15  and  O4_17 
REMARK   10  A    between atoms: C11_15  and  C13_18 
REMARK   11  A    between atoms: C20_26  and  C21_27 
ROOT
HETATM    1  C13 UNL     1       3.042  11.294  19.543  1.00  0.00     0.034 C 
HETATM    2  C14 UNL     1       3.287  11.970  18.144  1.00  0.00     0.012 C 
HETATM    3  C15 UNL     1       4.455  12.949  18.294  1.00  0.00     0.044 C 
HETATM    4  C16 UNL     1       5.179  12.470  19.558  1.00  0.00     0.093 C 
HETATM    5  O5  UNL     1       5.842  11.194  19.391  1.00  0.00    -0.363 OA
HETATM    6  C17 UNL     1       6.518  10.871  18.185  1.00  0.00     0.263 C 
HETATM    7  C18 UNL     1       7.972  10.968  18.344  1.00  0.00    -0.080 C 
HETATM    8  C19 UNL     1       9.172  10.999  18.420  1.00  0.00    -0.093 C 
HETATM    9  C20 UNL     1      10.655  11.030  18.509  1.00  0.00     0.121 C 
HETATM   10  C27 UNL     1      11.157  11.084  19.975  1.00  0.00     0.190 C 
HETATM   11  O6  UNL     1      11.135  12.380  20.590  1.00  0.00    -0.384 OA
HETATM   12  C28 UNL     1       9.863  12.800  21.074  1.00  0.00     0.122 C 
HETATM   13  C29 UNL     1       9.599  12.246  22.476  1.00  0.00     0.033 C 
HETATM   14  C30 UNL     1       8.599  13.086  23.285  1.00  0.00     0.013 C 
HETATM   15  C31 UNL     1       7.602  13.904  22.410  1.00  0.00    -0.026 C 
HETATM   16  C32 UNL     1       6.787  14.816  23.366  1.00  0.00     0.016 C 
HETATM   17  C33 UNL     1       8.438  14.854  21.489  1.00  0.00     0.071 C 
HETATM   18  C34 UNL     1       9.818  14.322  21.080  1.00  0.00     0.045 C 
HETATM   19  C35 UNL     1       7.684  15.346  20.269  1.00  0.00     0.154 C 
HETATM   20  O7  UNL     1       7.954  16.415  19.717  1.00  0.00    -0.293 OA
HETATM   21  C36 UNL     1       6.632  14.508  19.672  1.00  0.00     0.057 C 
HETATM   22  C37 UNL     1       6.177  13.389  20.250  1.00  0.00    -0.036 C 
HETATM   23  C38 UNL     1       6.650  12.906  21.617  1.00  0.00     0.026 C 
HETATM   24  C39 UNL     1       5.481  12.370  22.501  1.00  0.00     0.011 C 
HETATM   25  C40 UNL     1       4.455  11.501  21.758  1.00  0.00     0.014 C 
HETATM   26  C41 UNL     1       3.925  12.198  20.492  1.00  0.00    -0.002 C 
HETATM   27  C42 UNL     1       3.190  13.500  20.906  1.00  0.00     0.019 C 
ENDROOT
BRANCH   1  28
HETATM   28  C11 UNL     1       1.515  11.001  19.759  1.00  0.00     0.087 C 
HETATM   29  C12 UNL     1       0.838  12.240  20.393  1.00  0.00     0.049 C 
BRANCH  28  30
HETATM   30  C10 UNL     1       0.631  10.549  18.546  1.00  0.00     0.181 C 
BRANCH  30  31
HETATM   31  C9  UNL     1      -0.366  11.576  17.962  1.00  0.00     0.158 C 
HETATM   32  C4  UNL     1      -1.526  11.062  17.072  1.00  0.00     0.025 C 
HETATM   33  C5  UNL     1      -1.055  11.399  15.663  1.00  0.00     0.019 C 
HETATM   34  C6  UNL     1      -2.168  11.484  14.626  1.00  0.00     0.013 C 
HETATM   35  C7  UNL     1      -0.370  12.743  15.922  1.00  0.00     0.149 C 
HETATM   36  O2  UNL     1       0.331  12.562  17.169  1.00  0.00    -0.375 OA
BRANCH  32  37
HETATM   37  C3  UNL     1      -2.154   9.678  17.337  1.00  0.00     0.037 C 
BRANCH  37  38
HETATM   38  C2  UNL     1      -1.813   8.503  16.404  1.00  0.00     0.269 C 
BRANCH  38  39
HETATM   39  N1  UNL     1      -2.561   7.270  16.664  1.00  0.00     0.079 N 
HETATM   40  C1  UNL     1      -3.366   6.870  15.503  1.00  0.00     0.306 C 
HETATM   41  H4  UNL     1      -1.879   6.518  16.807  1.00  0.00     0.315 HD
ENDBRANCH  38  39
ENDBRANCH  37  38
ENDBRANCH  32  37
BRANCH  35  42
HETATM   42  C8  UNL     1       0.596  13.172  14.817  1.00  0.00     0.196 C 
BRANCH  42  43
HETATM   43  O1  UNL     1       1.934  13.202  15.316  1.00  0.00    -0.398 OA
HETATM   44  H17 UNL     1       2.508  12.842  14.617  1.00  0.00     0.209 HD
ENDBRANCH  42  43
ENDBRANCH  35  42
ENDBRANCH  30  31
BRANCH  30  45
HETATM   45  O3  UNL     1       1.476   9.971  17.543  1.00  0.00    -0.390 OA
HETATM   46  H20 UNL     1       0.905   9.338  17.054  1.00  0.00     0.210 HD
ENDBRANCH  30  45
ENDBRANCH  28  30
BRANCH  28  47
HETATM   47  O4  UNL     1       1.383   9.960  20.754  1.00  0.00    -0.387 OA
HETATM   48  H24 UNL     1       1.389   9.125  20.249  1.00  0.00     0.210 HD
ENDBRANCH  28  47
ENDBRANCH   1  28
BRANCH   9  49
HETATM   49  C21 UNL     1      11.295  12.082  17.616  1.00  0.00    -0.040 A 
HETATM   50  C22 UNL     1      10.542  13.190  17.188  1.00  0.00     0.008 A 
HETATM   51  C23 UNL     1      11.108  14.159  16.359  1.00  0.00     0.001 A 
HETATM   52  C24 UNL     1      12.431  14.035  15.934  1.00  0.00     0.000 A 
HETATM   53  C25 UNL     1      13.188  12.938  16.345  1.00  0.00     0.001 A 
HETATM   54  C26 UNL     1      12.625  11.973  17.178  1.00  0.00     0.008 A 
ENDBRANCH   9  49
TORSDOF 11
ENDMDL
MODEL 9
REMARK minimizedAffinity -7.59728193
REMARK CNNscore 0.18619594
REMARK CNNaffinity 7.42843294
REMARK  11 active torsions:
REMARK  status: ('A' for Active; 'I' for Inactive)
REMARK    1  A    between atoms: N1_2  and  C2_3 
REMARK    2  A    between atoms: C2_3  and  C3_4 
REMARK    3  A    between atoms: C3_4  and  C4_5 
REMARK    4  A    between atoms: C7_8  and  C8_9 
REMARK    5  A    between atoms: C8_9  and  O1_10 
REMARK    6  A    between atoms: C9_12  and  C10_13 
REMARK    7  A    between atoms: C10_13  and  O3_14 
REMARK    8  A    between atoms: C10_13  and  C11_15 
REMARK    9  A    between atoms: C11_15  and  O4_17 
REMARK   10  A    between atoms: C11_15  and  C13_18 
REMARK   11  A    between atoms: C20_26  and  C21_27 
ROOT
HETATM    1  C13 UNL     1     -10.201   7.776  15.200  1.00  0.00     0.034 C 
HETATM    2  C14 UNL     1      -9.908   9.320  15.215  1.00  0.00     0.012 C 
HETATM    3  C15 UNL     1     -11.148  10.039  14.675  1.00  0.00     0.044 C 
HETATM    4  C16 UNL     1     -12.273   9.011  14.846  1.00  0.00     0.093 C 
HETATM    5  O5  UNL     1     -12.618   8.762  16.229  1.00  0.00    -0.363 OA
HETATM    6  C17 UNL     1     -12.656   9.817  17.178  1.00  0.00     0.263 C 
HETATM    7  C18 UNL     1     -14.034  10.205  17.493  1.00  0.00    -0.080 C 
HETATM    8  C19 UNL     1     -15.141  10.547  17.817  1.00  0.00    -0.093 C 
HETATM    9  C20 UNL     1     -16.505  10.969  18.225  1.00  0.00     0.121 C 
HETATM   10  C27 UNL     1     -17.594   9.957  17.785  1.00  0.00     0.190 C 
HETATM   11  O6  UNL     1     -18.016  10.057  16.418  1.00  0.00    -0.384 OA
HETATM   12  C28 UNL     1     -17.149   9.445  15.468  1.00  0.00     0.122 C 
HETATM   13  C29 UNL     1     -17.443   7.948  15.340  1.00  0.00     0.033 C 
HETATM   14  C30 UNL     1     -17.016   7.357  13.988  1.00  0.00     0.013 C 
HETATM   15  C31 UNL     1     -15.861   8.137  13.289  1.00  0.00    -0.026 C 
HETATM   16  C32 UNL     1     -15.673   7.519  11.878  1.00  0.00     0.016 C 
HETATM   17  C33 UNL     1     -16.339   9.611  13.073  1.00  0.00     0.071 C 
HETATM   18  C34 UNL     1     -17.320  10.144  14.126  1.00  0.00     0.045 C 
HETATM   19  C35 UNL     1     -15.208  10.598  12.865  1.00  0.00     0.154 C 
HETATM   20  O7  UNL     1     -15.356  11.643  12.226  1.00  0.00    -0.293 OA
HETATM   21  C36 UNL     1     -13.897  10.351  13.487  1.00  0.00     0.057 C 
HETATM   22  C37 UNL     1     -13.589   9.202  14.100  1.00  0.00    -0.036 C 
HETATM   23  C38 UNL     1     -14.534   8.007  14.157  1.00  0.00     0.026 C 
HETATM   24  C39 UNL     1     -13.801   6.650  13.921  1.00  0.00     0.011 C 
HETATM   25  C40 UNL     1     -12.446   6.516  14.633  1.00  0.00     0.014 C 
HETATM   26  C41 UNL     1     -11.522   7.711  14.335  1.00  0.00    -0.002 C 
HETATM   27  C42 UNL     1     -11.223   7.747  12.812  1.00  0.00     0.019 C 
ENDROOT
BRANCH   1  28
HETATM   28  C11 UNL     1      -8.893   6.964  14.892  1.00  0.00     0.087 C 
HETATM   29  C12 UNL     1      -7.920   7.849  14.074  1.00  0.00     0.049 C 
BRANCH  28  30
HETATM   30  C10 UNL     1      -8.077   6.329  16.069  1.00  0.00     0.181 C 
BRANCH  30  31
HETATM   31  C9  UNL     1      -7.042   5.236  15.719  1.00  0.00     0.158 C 
HETATM   32  C4  UNL     1      -5.732   5.655  15.004  1.00  0.00     0.025 C 
HETATM   33  C5  UNL     1      -5.981   5.245  13.559  1.00  0.00     0.019 C 
HETATM   34  C6  UNL     1      -4.719   5.059  12.726  1.00  0.00     0.013 C 
HETATM   35  C7  UNL     1      -6.755   3.943  13.777  1.00  0.00     0.149 C 
HETATM   36  O2  UNL     1      -7.641   4.225  14.879  1.00  0.00    -0.375 OA
BRANCH  32  37
HETATM   37  C3  UNL     1      -5.098   7.033  15.289  1.00  0.00     0.037 C 
BRANCH  37  38
HETATM   38  C2  UNL     1      -3.607   7.116  15.657  1.00  0.00     0.269 C 
BRANCH  38  39
HETATM   39  N1  UNL     1      -2.910   5.829  15.708  1.00  0.00     0.079 N 
HETATM   40  C1  UNL     1      -1.814   5.768  14.732  1.00  0.00     0.306 C 
HETATM   41  H4  UNL     1      -2.469   5.750  16.630  1.00  0.00     0.315 HD
ENDBRANCH  38  39
ENDBRANCH  37  38
ENDBRANCH  32  37
BRANCH  35  42
HETATM   42  C8  UNL     1      -7.546   3.476  12.554  1.00  0.00     0.196 C 
BRANCH  42  43
HETATM   43  O1  UNL     1      -8.912   3.256  12.905  1.00  0.00    -0.398 OA
HETATM   44  H17 UNL     1      -9.454   3.590  12.169  1.00  0.00     0.209 HD
ENDBRANCH  42  43
ENDBRANCH  35  42
ENDBRANCH  30  31
BRANCH  30  45
HETATM   45  O3  UNL     1      -7.519   7.379  16.870  1.00  0.00    -0.390 OA
HETATM   46  H20 UNL     1      -7.420   6.996  17.769  1.00  0.00     0.210 HD
ENDBRANCH  30  45
ENDBRANCH  28  30
BRANCH  28  47
HETATM   47  O4  UNL     1      -9.228   5.871  14.007  1.00  0.00    -0.387 OA
HETATM   48  H24 UNL     1      -9.453   5.127  14.597  1.00  0.00     0.210 HD
ENDBRANCH  28  47
ENDBRANCH   1  28
BRANCH   9  49
HETATM   49  C21 UNL     1     -16.835  12.406  17.847  1.00  0.00    -0.040 A 
HETATM   50  C22 UNL     1     -15.813  13.265  17.406  1.00  0.00     0.008 A 
HETATM   51  C23 UNL     1     -16.094  14.590  17.067  1.00  0.00     0.001 A 
HETATM   52  C24 UNL     1     -17.395  15.082  17.171  1.00  0.00     0.000 A 
HETATM   53  C25 UNL     1     -18.417  14.242  17.614  1.00  0.00     0.001 A 
HETATM   54  C26 UNL     1     -18.139  12.918  17.947  1.00  0.00     0.008 A 
ENDBRANCH   9  49
TORSDOF 11
ENDMDL
