MODEL 1
REMARK minimizedAffinity -8.01565933
REMARK CNNscore 0.639971137
REMARK CNNaffinity 7.20002985
REMARK  16 active torsions:
REMARK  status: ('A' for Active; 'I' for Inactive)
REMARK    1  A    between atoms: C2_2  and  C3_3 
REMARK    2  A    between atoms: C4_4  and  C6_6 
REMARK    3  A    between atoms: C6_6  and  C7_7 
REMARK    4  A    between atoms: C7_7  and  C9_9 
REMARK    5  A    between atoms: C9_9  and  C10_10 
REMARK    6  A    between atoms: C9_9  and  O3_30 
REMARK    7  A    between atoms: C10_10  and  C11_11 
REMARK    8  A    between atoms: C23_23  and  C25_25 
REMARK    9  A    between atoms: C25_25  and  C26_27 
REMARK   10  A    between atoms: C26_27  and  C27_28 
REMARK   11  A    between atoms: O3_30  and  C28_31 
REMARK   12  A    between atoms: C29_33  and  C30_34 
REMARK   13  A    between atoms: C30_34  and  O5_35 
REMARK   14  A    between atoms: C31_36  and  O6_37 
REMARK   15  A    between atoms: C32_38  and  O7_39 
REMARK   16  A    between atoms: C33_40  and  O8_41 
ROOT
HETATM    1  C9  UNL     1       2.918   7.387  11.814  1.00  0.00     0.129 C 
ENDROOT
BRANCH   1   2
HETATM    2  C7  UNL     1       2.960   6.621  10.465  1.00  0.00     0.014 C 
HETATM    3  C8  UNL     1       2.484   5.168  10.590  1.00  0.00     0.012 C 
BRANCH   2   4
HETATM    4  C6  UNL     1       2.230   7.374   9.337  1.00  0.00     0.040 C 
BRANCH   4   5
HETATM    5  C4  UNL     1       2.334   6.742   7.963  1.00  0.00    -0.087 C 
HETATM    6  C3  UNL     1       2.986   5.572   7.801  1.00  0.00    -0.025 C 
HETATM    7  C5  UNL     1       1.597   7.454   6.860  1.00  0.00     0.043 C 
BRANCH   6   8
HETATM    8  C2  UNL     1       3.153   4.781   6.532  1.00  0.00     0.023 C 
HETATM    9  C1  UNL     1       4.045   3.568   6.762  1.00  0.00     0.009 C 
ENDBRANCH   6   8
ENDBRANCH   4   5
ENDBRANCH   2   4
ENDBRANCH   1   2
BRANCH   1  10
HETATM   10  C10 UNL     1       1.881   6.969  12.885  1.00  0.00     0.042 C 
BRANCH  10  11
HETATM   11  C11 UNL     1       0.488   7.675  12.923  1.00  0.00     0.032 C 
HETATM   12  C12 UNL     1       0.389   8.949  13.751  1.00  0.00    -0.082 C 
HETATM   13  C13 UNL     1       1.581   9.596  14.397  1.00  0.00     0.043 C 
HETATM   14  C14 UNL     1      -0.812   9.541  13.852  1.00  0.00    -0.019 C 
HETATM   15  C15 UNL     1      -2.078   8.910  13.337  1.00  0.00     0.014 C 
HETATM   16  C16 UNL     1      -3.283   9.634  13.984  1.00  0.00     0.013 C 
HETATM   17  C22 UNL     1      -2.075   7.394  13.650  1.00  0.00     0.013 C 
HETATM   18  C17 UNL     1      -4.596   8.845  13.995  1.00  0.00    -0.018 C 
HETATM   19  C18 UNL     1      -4.961   8.399  15.409  1.00  0.00     0.010 C 
HETATM   20  C19 UNL     1      -4.578   7.682  13.008  1.00  0.00     0.009 C 
HETATM   21  C20 UNL     1      -3.391   6.708  13.147  1.00  0.00    -0.012 C 
HETATM   22  C21 UNL     1      -3.774   5.481  13.986  1.00  0.00     0.010 C 
HETATM   23  C23 UNL     1      -0.701   6.664  13.270  1.00  0.00     0.029 C 
HETATM   24  C24 UNL     1      -0.296   5.808  14.503  1.00  0.00     0.025 C 
BRANCH  23  25
HETATM   25  C25 UNL     1      -0.880   5.713  12.053  1.00  0.00     0.142 C 
HETATM   26  O1  UNL     1      -0.828   6.133  10.892  1.00  0.00    -0.297 OA
BRANCH  25  27
HETATM   27  C26 UNL     1      -1.150   4.246  12.299  1.00  0.00     0.148 C 
BRANCH  27  28
HETATM   28  C27 UNL     1      -0.084   3.356  11.732  1.00  0.00     0.238 C 
HETATM   29  O2  UNL     1      -0.323   2.216  11.336  1.00  0.00    -0.306 OA
ENDBRANCH  27  28
ENDBRANCH  25  27
ENDBRANCH  23  25
ENDBRANCH  10  11
ENDBRANCH   1  10
BRANCH   1  30
HETATM   30  O3  UNL     1       4.214   7.177  12.425  1.00  0.00    -0.353 OA
BRANCH  30  31
HETATM   31  C28 UNL     1       4.742   8.372  13.020  1.00  0.00     0.292 C 
HETATM   32  O4  UNL     1       5.984   8.691  12.399  1.00  0.00    -0.348 OA
HETATM   33  C29 UNL     1       6.649   9.852  12.946  1.00  0.00     0.179 C 
HETATM   34  C31 UNL     1       6.087  10.335  14.295  1.00  0.00     0.180 C 
HETATM   35  C32 UNL     1       5.777   9.157  15.227  1.00  0.00     0.183 C 
HETATM   36  C33 UNL     1       4.953   8.067  14.522  1.00  0.00     0.204 C 
BRANCH  33  37
HETATM   37  C30 UNL     1       8.133   9.469  13.077  1.00  0.00     0.198 C 
BRANCH  37  38
HETATM   38  O5  UNL     1       8.935  10.317  12.254  1.00  0.00    -0.398 OA
HETATM   39  H48 UNL     1       8.455  10.402  11.407  1.00  0.00     0.209 HD
ENDBRANCH  37  38
ENDBRANCH  33  37
BRANCH  34  40
HETATM   40  O6  UNL     1       4.870  11.079  14.085  1.00  0.00    -0.390 OA
HETATM   41  H50 UNL     1       4.501  11.197  14.987  1.00  0.00     0.210 HD
ENDBRANCH  34  40
BRANCH  35  42
HETATM   42  O7  UNL     1       5.046   9.669  16.358  1.00  0.00    -0.390 OA
HETATM   43  H52 UNL     1       5.142   9.005  17.072  1.00  0.00     0.210 HD
ENDBRANCH  35  42
BRANCH  36  44
HETATM   44  O8  UNL     1       5.681   6.827  14.667  1.00  0.00    -0.388 OA
HETATM   45  H54 UNL     1       5.382   6.260  13.924  1.00  0.00     0.210 HD
ENDBRANCH  36  44
ENDBRANCH  30  31
ENDBRANCH   1  30
TORSDOF 16
ENDMDL
MODEL 2
REMARK minimizedAffinity -7.46207571
REMARK CNNscore 0.467934638
REMARK CNNaffinity 7.11227226
REMARK  16 active torsions:
REMARK  status: ('A' for Active; 'I' for Inactive)
REMARK    1  A    between atoms: C2_2  and  C3_3 
REMARK    2  A    between atoms: C4_4  and  C6_6 
REMARK    3  A    between atoms: C6_6  and  C7_7 
REMARK    4  A    between atoms: C7_7  and  C9_9 
REMARK    5  A    between atoms: C9_9  and  C10_10 
REMARK    6  A    between atoms: C9_9  and  O3_30 
REMARK    7  A    between atoms: C10_10  and  C11_11 
REMARK    8  A    between atoms: C23_23  and  C25_25 
REMARK    9  A    between atoms: C25_25  and  C26_27 
REMARK   10  A    between atoms: C26_27  and  C27_28 
REMARK   11  A    between atoms: O3_30  and  C28_31 
REMARK   12  A    between atoms: C29_33  and  C30_34 
REMARK   13  A    between atoms: C30_34  and  O5_35 
REMARK   14  A    between atoms: C31_36  and  O6_37 
REMARK   15  A    between atoms: C32_38  and  O7_39 
REMARK   16  A    between atoms: C33_40  and  O8_41 
ROOT
HETATM    1  C9  UNL     1      -0.198   7.186  13.189  1.00  0.00     0.129 C 
ENDROOT
BRANCH   1   2
HETATM    2  C7  UNL     1       0.433   7.095  11.774  1.00  0.00     0.014 C 
HETATM    3  C8  UNL     1       0.036   5.817  11.026  1.00  0.00     0.012 C 
BRANCH   2   4
HETATM    4  C6  UNL     1       0.179   8.360  10.933  1.00  0.00     0.040 C 
BRANCH   4   5
HETATM    5  C4  UNL     1       0.660   8.291   9.497  1.00  0.00    -0.087 C 
HETATM    6  C3  UNL     1       1.949   7.995   9.226  1.00  0.00    -0.025 C 
HETATM    7  C5  UNL     1      -0.400   8.478   8.444  1.00  0.00     0.043 C 
BRANCH   6   8
HETATM    8  C2  UNL     1       2.591   7.840   7.874  1.00  0.00     0.023 C 
HETATM    9  C1  UNL     1       2.412   6.422   7.347  1.00  0.00     0.009 C 
ENDBRANCH   6   8
ENDBRANCH   4   5
ENDBRANCH   2   4
ENDBRANCH   1   2
BRANCH   1  10
HETATM   10  C10 UNL     1      -1.365   6.235  13.555  1.00  0.00     0.042 C 
BRANCH  10  11
HETATM   11  C11 UNL     1      -2.831   6.774  13.533  1.00  0.00     0.032 C 
HETATM   12  C12 UNL     1      -3.067   8.140  14.161  1.00  0.00    -0.082 C 
HETATM   13  C13 UNL     1      -1.951   9.012  14.661  1.00  0.00     0.043 C 
HETATM   14  C14 UNL     1      -4.329   8.598  14.213  1.00  0.00    -0.019 C 
HETATM   15  C15 UNL     1      -5.519   7.753  13.844  1.00  0.00     0.014 C 
HETATM   16  C16 UNL     1      -6.791   8.425  14.415  1.00  0.00     0.013 C 
HETATM   17  C22 UNL     1      -5.330   6.314  14.383  1.00  0.00     0.013 C 
HETATM   18  C17 UNL     1      -8.000   7.501  14.590  1.00  0.00    -0.018 C 
HETATM   19  C18 UNL     1      -8.286   7.240  16.068  1.00  0.00     0.010 C 
HETATM   20  C19 UNL     1      -7.859   6.210  13.791  1.00  0.00     0.009 C 
HETATM   21  C20 UNL     1      -6.563   5.412  14.035  1.00  0.00    -0.012 C 
HETATM   22  C21 UNL     1      -6.783   4.293  15.062  1.00  0.00     0.010 C 
HETATM   23  C23 UNL     1      -3.885   5.698  14.070  1.00  0.00     0.029 C 
HETATM   24  C24 UNL     1      -3.361   5.095  15.403  1.00  0.00     0.025 C 
BRANCH  23  25
HETATM   25  C25 UNL     1      -3.970   4.557  13.018  1.00  0.00     0.142 C 
HETATM   26  O1  UNL     1      -4.405   3.437  13.313  1.00  0.00    -0.297 OA
BRANCH  25  27
HETATM   27  C26 UNL     1      -3.486   4.817  11.609  1.00  0.00     0.148 C 
BRANCH  27  28
HETATM   28  C27 UNL     1      -3.046   3.568  10.906  1.00  0.00     0.238 C 
HETATM   29  O2  UNL     1      -2.367   3.596   9.881  1.00  0.00    -0.306 OA
ENDBRANCH  27  28
ENDBRANCH  25  27
ENDBRANCH  23  25
ENDBRANCH  10  11
ENDBRANCH   1  10
BRANCH   1  30
HETATM   30  O3  UNL     1       0.868   6.869  14.116  1.00  0.00    -0.353 OA
BRANCH  30  31
HETATM   31  C28 UNL     1       1.691   8.006  14.418  1.00  0.00     0.292 C 
HETATM   32  O4  UNL     1       3.045   7.697  14.101  1.00  0.00    -0.348 OA
HETATM   33  C29 UNL     1       3.989   8.747  14.410  1.00  0.00     0.179 C 
HETATM   34  C31 UNL     1       3.435   9.859  15.318  1.00  0.00     0.180 C 
HETATM   35  C32 UNL     1       2.579   9.282  16.452  1.00  0.00     0.183 C 
HETATM   36  C33 UNL     1       1.539   8.275  15.934  1.00  0.00     0.204 C 
BRANCH  33  37
HETATM   37  C30 UNL     1       5.195   8.054  15.066  1.00  0.00     0.198 C 
BRANCH  37  38
HETATM   38  O5  UNL     1       4.790   6.824  15.667  1.00  0.00    -0.398 OA
HETATM   39  H48 UNL     1       3.942   7.010  16.117  1.00  0.00     0.209 HD
ENDBRANCH  37  38
ENDBRANCH  33  37
BRANCH  34  40
HETATM   40  O6  UNL     1       2.617  10.763  14.549  1.00  0.00    -0.390 OA
HETATM   41  H50 UNL     1       2.178  11.326  15.224  1.00  0.00     0.210 HD
ENDBRANCH  34  40
BRANCH  35  42
HETATM   42  O7  UNL     1       1.915  10.379  17.108  1.00  0.00    -0.390 OA
HETATM   43  H52 UNL     1       1.652  10.054  17.993  1.00  0.00     0.210 HD
ENDBRANCH  35  42
BRANCH  36  44
HETATM   44  O8  UNL     1       1.740   7.045  16.667  1.00  0.00    -0.388 OA
HETATM   45  H54 UNL     1       1.377   6.337  16.093  1.00  0.00     0.210 HD
ENDBRANCH  36  44
ENDBRANCH  30  31
ENDBRANCH   1  30
TORSDOF 16
ENDMDL
MODEL 3
REMARK minimizedAffinity -9.34767246
REMARK CNNscore 0.380751461
REMARK CNNaffinity 7.09632111
REMARK  16 active torsions:
REMARK  status: ('A' for Active; 'I' for Inactive)
REMARK    1  A    between atoms: C2_2  and  C3_3 
REMARK    2  A    between atoms: C4_4  and  C6_6 
REMARK    3  A    between atoms: C6_6  and  C7_7 
REMARK    4  A    between atoms: C7_7  and  C9_9 
REMARK    5  A    between atoms: C9_9  and  C10_10 
REMARK    6  A    between atoms: C9_9  and  O3_30 
REMARK    7  A    between atoms: C10_10  and  C11_11 
REMARK    8  A    between atoms: C23_23  and  C25_25 
REMARK    9  A    between atoms: C25_25  and  C26_27 
REMARK   10  A    between atoms: C26_27  and  C27_28 
REMARK   11  A    between atoms: O3_30  and  C28_31 
REMARK   12  A    between atoms: C29_33  and  C30_34 
REMARK   13  A    between atoms: C30_34  and  O5_35 
REMARK   14  A    between atoms: C31_36  and  O6_37 
REMARK   15  A    between atoms: C32_38  and  O7_39 
REMARK   16  A    between atoms: C33_40  and  O8_41 
ROOT
HETATM    1  C9  UNL     1      -1.047   7.651  12.215  1.00  0.00     0.129 C 
ENDROOT
BRANCH   1   2
HETATM    2  C7  UNL     1      -0.318   7.396  10.868  1.00  0.00     0.014 C 
HETATM    3  C8  UNL     1      -0.009   8.690  10.105  1.00  0.00     0.012 C 
BRANCH   2   4
HETATM    4  C6  UNL     1       0.929   6.508  11.031  1.00  0.00     0.040 C 
BRANCH   4   5
HETATM    5  C4  UNL     1       1.853   6.462   9.830  1.00  0.00    -0.087 C 
HETATM    6  C3  UNL     1       1.701   7.347   8.822  1.00  0.00    -0.025 C 
HETATM    7  C5  UNL     1       2.966   5.451   9.901  1.00  0.00     0.043 C 
BRANCH   6   8
HETATM    8  C2  UNL     1       2.543   7.479   7.582  1.00  0.00     0.023 C 
HETATM    9  C1  UNL     1       1.768   7.029   6.350  1.00  0.00     0.009 C 
ENDBRANCH   6   8
ENDBRANCH   4   5
ENDBRANCH   2   4
ENDBRANCH   1   2
BRANCH   1  10
HETATM   10  C10 UNL     1      -1.117   6.509  13.260  1.00  0.00     0.042 C 
BRANCH  10  11
HETATM   11  C11 UNL     1      -2.424   5.664  13.387  1.00  0.00     0.032 C 
HETATM   12  C12 UNL     1      -2.736   4.709  12.243  1.00  0.00    -0.082 C 
HETATM   13  C13 UNL     1      -1.789   4.467  11.103  1.00  0.00     0.043 C 
HETATM   14  C14 UNL     1      -3.886   4.017  12.298  1.00  0.00    -0.019 C 
HETATM   15  C15 UNL     1      -4.945   4.276  13.337  1.00  0.00     0.014 C 
HETATM   16  C16 UNL     1      -6.266   3.628  12.858  1.00  0.00     0.013 C 
HETATM   17  C22 UNL     1      -5.094   5.799  13.568  1.00  0.00     0.013 C 
HETATM   18  C17 UNL     1      -7.541   4.191  13.493  1.00  0.00    -0.018 C 
HETATM   19  C18 UNL     1      -8.352   4.999  12.481  1.00  0.00     0.010 C 
HETATM   20  C19 UNL     1      -7.252   4.981  14.765  1.00  0.00     0.009 C 
HETATM   21  C20 UNL     1      -6.206   6.105  14.629  1.00  0.00    -0.012 C 
HETATM   22  C21 UNL     1      -6.877   7.467  14.402  1.00  0.00     0.010 C 
HETATM   23  C23 UNL     1      -3.696   6.558  13.760  1.00  0.00     0.029 C 
HETATM   24  C24 UNL     1      -3.734   7.801  12.828  1.00  0.00     0.025 C 
BRANCH  23  25
HETATM   25  C25 UNL     1      -3.514   7.049  15.223  1.00  0.00     0.142 C 
HETATM   26  O1  UNL     1      -3.358   6.255  16.157  1.00  0.00    -0.297 OA
BRANCH  25  27
HETATM   27  C26 UNL     1      -3.553   8.534  15.512  1.00  0.00     0.148 C 
BRANCH  27  28
HETATM   28  C27 UNL     1      -2.550   8.951  16.545  1.00  0.00     0.238 C 
HETATM   29  O2  UNL     1      -2.832   9.723  17.460  1.00  0.00    -0.306 OA
ENDBRANCH  27  28
ENDBRANCH  25  27
ENDBRANCH  23  25
ENDBRANCH  10  11
ENDBRANCH   1  10
BRANCH   1  30
HETATM   30  O3  UNL     1      -0.319   8.724  12.859  1.00  0.00    -0.353 OA
BRANCH  30  31
HETATM   31  C28 UNL     1       0.660   8.243  13.793  1.00  0.00     0.292 C 
HETATM   32  O4  UNL     1       0.404   8.815  15.072  1.00  0.00    -0.348 OA
HETATM   33  C29 UNL     1       1.357   8.450  16.095  1.00  0.00     0.179 C 
HETATM   34  C31 UNL     1       2.645   7.794  15.567  1.00  0.00     0.180 C 
HETATM   35  C32 UNL     1       3.155   8.500  14.305  1.00  0.00     0.183 C 
HETATM   36  C33 UNL     1       2.041   8.697  13.264  1.00  0.00     0.204 C 
BRANCH  33  37
HETATM   37  C30 UNL     1       1.676   9.745  16.861  1.00  0.00     0.198 C 
BRANCH  37  38
HETATM   38  O5  UNL     1       2.452   9.451  18.023  1.00  0.00    -0.398 OA
HETATM   39  H48 UNL     1       2.051   8.654  18.422  1.00  0.00     0.209 HD
ENDBRANCH  37  38
ENDBRANCH  33  37
BRANCH  34  40
HETATM   40  O6  UNL     1       2.398   6.411  15.243  1.00  0.00    -0.390 OA
HETATM   41  H50 UNL     1       3.207   6.127  14.765  1.00  0.00     0.210 HD
ENDBRANCH  34  40
BRANCH  35  42
HETATM   42  O7  UNL     1       4.212   7.697  13.745  1.00  0.00    -0.390 OA
HETATM   43  H52 UNL     1       4.732   8.290  13.165  1.00  0.00     0.210 HD
ENDBRANCH  35  42
BRANCH  36  44
HETATM   44  O8  UNL     1       1.999  10.108  12.951  1.00  0.00    -0.388 OA
HETATM   45  H54 UNL     1       1.090  10.276  12.623  1.00  0.00     0.210 HD
ENDBRANCH  36  44
ENDBRANCH  30  31
ENDBRANCH   1  30
TORSDOF 16
ENDMDL
MODEL 4
REMARK minimizedAffinity -7.68582869
REMARK CNNscore 0.352032006
REMARK CNNaffinity 6.93064499
REMARK  16 active torsions:
REMARK  status: ('A' for Active; 'I' for Inactive)
REMARK    1  A    between atoms: C2_2  and  C3_3 
REMARK    2  A    between atoms: C4_4  and  C6_6 
REMARK    3  A    between atoms: C6_6  and  C7_7 
REMARK    4  A    between atoms: C7_7  and  C9_9 
REMARK    5  A    between atoms: C9_9  and  C10_10 
REMARK    6  A    between atoms: C9_9  and  O3_30 
REMARK    7  A    between atoms: C10_10  and  C11_11 
REMARK    8  A    between atoms: C23_23  and  C25_25 
REMARK    9  A    between atoms: C25_25  and  C26_27 
REMARK   10  A    between atoms: C26_27  and  C27_28 
REMARK   11  A    between atoms: O3_30  and  C28_31 
REMARK   12  A    between atoms: C29_33  and  C30_34 
REMARK   13  A    between atoms: C30_34  and  O5_35 
REMARK   14  A    between atoms: C31_36  and  O6_37 
REMARK   15  A    between atoms: C32_38  and  O7_39 
REMARK   16  A    between atoms: C33_40  and  O8_41 
ROOT
HETATM    1  C9  UNL     1      -1.102   7.560  12.885  1.00  0.00     0.129 C 
ENDROOT
BRANCH   1   2
HETATM    2  C7  UNL     1      -0.090   6.477  12.424  1.00  0.00     0.014 C 
HETATM    3  C8  UNL     1      -0.127   5.217  13.297  1.00  0.00     0.012 C 
BRANCH   2   4
HETATM    4  C6  UNL     1      -0.222   6.146  10.925  1.00  0.00     0.040 C 
BRANCH   4   5
HETATM    5  C4  UNL     1       0.974   6.520  10.072  1.00  0.00    -0.087 C 
HETATM    6  C3  UNL     1       0.884   7.528   9.179  1.00  0.00    -0.025 C 
HETATM    7  C5  UNL     1       2.243   5.764  10.363  1.00  0.00     0.043 C 
BRANCH   6   8
HETATM    8  C2  UNL     1       1.969   8.062   8.285  1.00  0.00     0.023 C 
HETATM    9  C1  UNL     1       1.984   7.327   6.951  1.00  0.00     0.009 C 
ENDBRANCH   6   8
ENDBRANCH   4   5
ENDBRANCH   2   4
ENDBRANCH   1   2
BRANCH   1  10
HETATM   10  C10 UNL     1      -1.949   7.305  14.156  1.00  0.00     0.042 C 
BRANCH  10  11
HETATM   11  C11 UNL     1      -3.458   7.706  14.166  1.00  0.00     0.032 C 
HETATM   12  C12 UNL     1      -3.832   8.945  14.968  1.00  0.00    -0.082 C 
HETATM   13  C13 UNL     1      -2.810   9.837  15.613  1.00  0.00     0.043 C 
HETATM   14  C14 UNL     1      -5.132   9.275  15.045  1.00  0.00    -0.019 C 
HETATM   15  C15 UNL     1      -6.231   8.385  14.531  1.00  0.00     0.014 C 
HETATM   16  C16 UNL     1      -7.569   8.853  15.152  1.00  0.00     0.013 C 
HETATM   17  C22 UNL     1      -5.916   6.909  14.874  1.00  0.00     0.013 C 
HETATM   18  C17 UNL     1      -8.689   7.808  15.165  1.00  0.00    -0.018 C 
HETATM   19  C18 UNL     1      -8.972   7.320  16.584  1.00  0.00     0.010 C 
HETATM   20  C19 UNL     1      -8.415   6.658  14.202  1.00  0.00     0.009 C 
HETATM   21  C20 UNL     1      -7.054   5.955  14.371  1.00  0.00    -0.012 C 
HETATM   22  C21 UNL     1      -7.184   4.689  15.230  1.00  0.00     0.010 C 
HETATM   23  C23 UNL     1      -4.415   6.475  14.521  1.00  0.00     0.029 C 
HETATM   24  C24 UNL     1      -3.858   5.744  15.775  1.00  0.00     0.025 C 
BRANCH  23  25
HETATM   25  C25 UNL     1      -4.376   5.487  13.322  1.00  0.00     0.142 C 
HETATM   26  O1  UNL     1      -5.040   5.687  12.298  1.00  0.00    -0.297 OA
BRANCH  25  27
HETATM   27  C26 UNL     1      -3.525   4.242  13.422  1.00  0.00     0.148 C 
BRANCH  27  28
HETATM   28  C27 UNL     1      -4.014   3.131  12.542  1.00  0.00     0.238 C 
HETATM   29  O2  UNL     1      -3.248   2.432  11.880  1.00  0.00    -0.306 OA
ENDBRANCH  27  28
ENDBRANCH  25  27
ENDBRANCH  23  25
ENDBRANCH  10  11
ENDBRANCH   1  10
BRANCH   1  30
HETATM   30  O3  UNL     1      -0.312   8.738  13.173  1.00  0.00    -0.353 OA
BRANCH  30  31
HETATM   31  C28 UNL     1       0.567   8.552  14.293  1.00  0.00     0.292 C 
HETATM   32  O4  UNL     1       0.390   9.631  15.207  1.00  0.00    -0.348 OA
HETATM   33  C29 UNL     1       1.260   9.590  16.361  1.00  0.00     0.179 C 
HETATM   34  C31 UNL     1       2.433   8.601  16.243  1.00  0.00     0.180 C 
HETATM   35  C32 UNL     1       3.065   8.645  14.846  1.00  0.00     0.183 C 
HETATM   36  C33 UNL     1       2.009   8.550  13.733  1.00  0.00     0.204 C 
BRANCH  33  37
HETATM   37  C30 UNL     1       1.772  11.026  16.558  1.00  0.00     0.198 C 
BRANCH  37  38
HETATM   38  O5  UNL     1       1.711  11.745  15.325  1.00  0.00    -0.398 OA
HETATM   39  H48 UNL     1       2.033  11.129  14.638  1.00  0.00     0.209 HD
ENDBRANCH  37  38
ENDBRANCH  33  37
BRANCH  34  40
HETATM   40  O6  UNL     1       1.973   7.257  16.489  1.00  0.00    -0.390 OA
HETATM   41  H50 UNL     1       2.732   6.691  16.231  1.00  0.00     0.210 HD
ENDBRANCH  34  40
BRANCH  35  42
HETATM   42  O7  UNL     1       3.987   7.543  14.743  1.00  0.00    -0.390 OA
HETATM   43  H52 UNL     1       4.602   7.764  14.014  1.00  0.00     0.210 HD
ENDBRANCH  35  42
BRANCH  36  44
HETATM   44  O8  UNL     1       2.196   9.697  12.874  1.00  0.00    -0.388 OA
HETATM   45  H54 UNL     1       1.330   9.841  12.437  1.00  0.00     0.210 HD
ENDBRANCH  36  44
ENDBRANCH  30  31
ENDBRANCH   1  30
TORSDOF 16
ENDMDL
MODEL 5
REMARK minimizedAffinity -9.22875309
REMARK CNNscore 0.338357866
REMARK CNNaffinity 6.88464689
REMARK  16 active torsions:
REMARK  status: ('A' for Active; 'I' for Inactive)
REMARK    1  A    between atoms: C2_2  and  C3_3 
REMARK    2  A    between atoms: C4_4  and  C6_6 
REMARK    3  A    between atoms: C6_6  and  C7_7 
REMARK    4  A    between atoms: C7_7  and  C9_9 
REMARK    5  A    between atoms: C9_9  and  C10_10 
REMARK    6  A    between atoms: C9_9  and  O3_30 
REMARK    7  A    between atoms: C10_10  and  C11_11 
REMARK    8  A    between atoms: C23_23  and  C25_25 
REMARK    9  A    between atoms: C25_25  and  C26_27 
REMARK   10  A    between atoms: C26_27  and  C27_28 
REMARK   11  A    between atoms: O3_30  and  C28_31 
REMARK   12  A    between atoms: C29_33  and  C30_34 
REMARK   13  A    between atoms: C30_34  and  O5_35 
REMARK   14  A    between atoms: C31_36  and  O6_37 
REMARK   15  A    between atoms: C32_38  and  O7_39 
REMARK   16  A    between atoms: C33_40  and  O8_41 
ROOT
HETATM    1  C9  UNL     1      -0.694   6.966  12.354  1.00  0.00     0.129 C 
ENDROOT
BRANCH   1   2
HETATM    2  C7  UNL     1       0.487   6.732  11.374  1.00  0.00     0.014 C 
HETATM    3  C8  UNL     1       0.925   5.263  11.311  1.00  0.00     0.012 C 
BRANCH   2   4
HETATM    4  C6  UNL     1       0.217   7.316   9.976  1.00  0.00     0.040 C 
BRANCH   4   5
HETATM    5  C4  UNL     1       1.450   7.735   9.200  1.00  0.00    -0.087 C 
HETATM    6  C3  UNL     1       2.621   7.933   9.841  1.00  0.00    -0.025 C 
HETATM    7  C5  UNL     1       1.285   7.813   7.705  1.00  0.00     0.043 C 
BRANCH   6   8
HETATM    8  C2  UNL     1       3.948   8.305   9.236  1.00  0.00     0.023 C 
HETATM    9  C1  UNL     1       4.895   8.847  10.298  1.00  0.00     0.009 C 
ENDBRANCH   6   8
ENDBRANCH   4   5
ENDBRANCH   2   4
ENDBRANCH   1   2
BRANCH   1  10
HETATM   10  C10 UNL     1      -1.050   5.862  13.381  1.00  0.00     0.042 C 
BRANCH  10  11
HETATM   11  C11 UNL     1      -2.490   5.260  13.394  1.00  0.00     0.032 C 
HETATM   12  C12 UNL     1      -2.895   4.426  12.186  1.00  0.00    -0.082 C 
HETATM   13  C13 UNL     1      -1.937   4.068  11.086  1.00  0.00     0.043 C 
HETATM   14  C14 UNL     1      -4.150   3.950  12.143  1.00  0.00    -0.019 C 
HETATM   15  C15 UNL     1      -5.208   4.348  13.137  1.00  0.00     0.014 C 
HETATM   16  C16 UNL     1      -6.591   3.969  12.555  1.00  0.00     0.013 C 
HETATM   17  C22 UNL     1      -5.100   5.862  13.441  1.00  0.00     0.013 C 
HETATM   18  C17 UNL     1      -7.784   4.724  13.151  1.00  0.00    -0.018 C 
HETATM   19  C18 UNL     1      -8.375   5.706  12.143  1.00  0.00     0.010 C 
HETATM   20  C19 UNL     1      -7.438   5.393  14.477  1.00  0.00     0.009 C 
HETATM   21  C20 UNL     1      -6.204   6.316  14.457  1.00  0.00    -0.012 C 
HETATM   22  C21 UNL     1      -6.610   7.785  14.268  1.00  0.00     0.010 C 
HETATM   23  C23 UNL     1      -3.605   6.350  13.747  1.00  0.00     0.029 C 
HETATM   24  C24 UNL     1      -3.367   7.619  12.883  1.00  0.00     0.025 C 
BRANCH  23  25
HETATM   25  C25 UNL     1      -3.430   6.737  15.242  1.00  0.00     0.142 C 
HETATM   26  O1  UNL     1      -3.461   5.886  16.138  1.00  0.00    -0.297 OA
BRANCH  25  27
HETATM   27  C26 UNL     1      -3.240   8.192  15.608  1.00  0.00     0.148 C 
BRANCH  27  28
HETATM   28  C27 UNL     1      -2.334   8.381  16.788  1.00  0.00     0.238 C 
HETATM   29  O2  UNL     1      -1.994   9.495  17.183  1.00  0.00    -0.306 OA
ENDBRANCH  27  28
ENDBRANCH  25  27
ENDBRANCH  23  25
ENDBRANCH  10  11
ENDBRANCH   1  10
BRANCH   1  30
HETATM   30  O3  UNL     1      -0.329   8.126  13.140  1.00  0.00    -0.353 OA
BRANCH  30  31
HETATM   31  C28 UNL     1       0.760   7.863  14.037  1.00  0.00     0.292 C 
HETATM   32  O4  UNL     1       0.521   8.539  15.269  1.00  0.00    -0.348 OA
HETATM   33  C29 UNL     1       1.576   8.397  16.247  1.00  0.00     0.179 C 
HETATM   34  C31 UNL     1       2.896   7.837  15.688  1.00  0.00     0.180 C 
HETATM   35  C32 UNL     1       3.234   8.456  14.326  1.00  0.00     0.183 C 
HETATM   36  C33 UNL     1       2.039   8.411  13.360  1.00  0.00     0.204 C 
BRANCH  33  37
HETATM   37  C30 UNL     1       1.785   9.795  16.852  1.00  0.00     0.198 C 
BRANCH  37  38
HETATM   38  O5  UNL     1       2.332   9.686  18.167  1.00  0.00    -0.398 OA
HETATM   39  H48 UNL     1       1.845   8.959  18.602  1.00  0.00     0.209 HD
ENDBRANCH  37  38
ENDBRANCH  33  37
BRANCH  34  40
HETATM   40  O6  UNL     1       2.798   6.408  15.524  1.00  0.00    -0.390 OA
HETATM   41  H50 UNL     1       3.602   6.168  15.016  1.00  0.00     0.210 HD
ENDBRANCH  34  40
BRANCH  35  42
HETATM   42  O7  UNL     1       4.341   7.722  13.769  1.00  0.00    -0.390 OA
HETATM   43  H52 UNL     1       4.746   8.303  13.093  1.00  0.00     0.210 HD
ENDBRANCH  35  42
BRANCH  36  44
HETATM   44  O8  UNL     1       1.806   9.766  12.912  1.00  0.00    -0.388 OA
HETATM   45  H54 UNL     1       0.864   9.793  12.641  1.00  0.00     0.210 HD
ENDBRANCH  36  44
ENDBRANCH  30  31
ENDBRANCH   1  30
TORSDOF 16
ENDMDL
MODEL 6
REMARK minimizedAffinity -9.22748852
REMARK CNNscore 0.313129753
REMARK CNNaffinity 7.15761137
REMARK  16 active torsions:
REMARK  status: ('A' for Active; 'I' for Inactive)
REMARK    1  A    between atoms: C2_2  and  C3_3 
REMARK    2  A    between atoms: C4_4  and  C6_6 
REMARK    3  A    between atoms: C6_6  and  C7_7 
REMARK    4  A    between atoms: C7_7  and  C9_9 
REMARK    5  A    between atoms: C9_9  and  C10_10 
REMARK    6  A    between atoms: C9_9  and  O3_30 
REMARK    7  A    between atoms: C10_10  and  C11_11 
REMARK    8  A    between atoms: C23_23  and  C25_25 
REMARK    9  A    between atoms: C25_25  and  C26_27 
REMARK   10  A    between atoms: C26_27  and  C27_28 
REMARK   11  A    between atoms: O3_30  and  C28_31 
REMARK   12  A    between atoms: C29_33  and  C30_34 
REMARK   13  A    between atoms: C30_34  and  O5_35 
REMARK   14  A    between atoms: C31_36  and  O6_37 
REMARK   15  A    between atoms: C32_38  and  O7_39 
REMARK   16  A    between atoms: C33_40  and  O8_41 
ROOT
HETATM    1  C9  UNL     1      -0.924   6.603  12.929  1.00  0.00     0.129 C 
ENDROOT
BRANCH   1   2
HETATM    2  C7  UNL     1      -0.634   7.592  11.769  1.00  0.00     0.014 C 
HETATM    3  C8  UNL     1      -0.819   9.059  12.177  1.00  0.00     0.012 C 
BRANCH   2   4
HETATM    4  C6  UNL     1       0.735   7.342  11.110  1.00  0.00     0.040 C 
BRANCH   4   5
HETATM    5  C4  UNL     1       0.807   7.654   9.628  1.00  0.00    -0.087 C 
HETATM    6  C3  UNL     1       1.759   7.084   8.860  1.00  0.00    -0.025 C 
HETATM    7  C5  UNL     1      -0.287   8.539   9.094  1.00  0.00     0.043 C 
BRANCH   6   8
HETATM    8  C2  UNL     1       1.957   7.240   7.376  1.00  0.00     0.023 C 
HETATM    9  C1  UNL     1       2.509   5.959   6.766  1.00  0.00     0.009 C 
ENDBRANCH   6   8
ENDBRANCH   4   5
ENDBRANCH   2   4
ENDBRANCH   1   2
BRANCH   1  10
HETATM   10  C10 UNL     1      -1.247   5.125  12.596  1.00  0.00     0.042 C 
BRANCH  10  11
HETATM   11  C11 UNL     1      -2.710   4.603  12.756  1.00  0.00     0.032 C 
HETATM   12  C12 UNL     1      -3.328   3.914  11.547  1.00  0.00    -0.082 C 
HETATM   13  C13 UNL     1      -2.553   3.614  10.296  1.00  0.00     0.043 C 
HETATM   14  C14 UNL     1      -4.606   3.512  11.638  1.00  0.00    -0.019 C 
HETATM   15  C15 UNL     1      -5.493   3.869  12.802  1.00  0.00     0.014 C 
HETATM   16  C16 UNL     1      -6.963   3.623  12.388  1.00  0.00     0.013 C 
HETATM   17  C22 UNL     1      -5.244   5.338  13.221  1.00  0.00     0.013 C 
HETATM   18  C17 UNL     1      -8.012   4.379  13.210  1.00  0.00    -0.018 C 
HETATM   19  C18 UNL     1      -8.667   5.486  12.385  1.00  0.00     0.010 C 
HETATM   20  C19 UNL     1      -7.448   4.897  14.528  1.00  0.00     0.009 C 
HETATM   21  C20 UNL     1      -6.169   5.750  14.418  1.00  0.00    -0.012 C 
HETATM   22  C21 UNL     1      -6.497   7.249  14.420  1.00  0.00     0.010 C 
HETATM   23  C23 UNL     1      -3.693   5.712  13.357  1.00  0.00     0.029 C 
HETATM   24  C24 UNL     1      -3.488   7.045  12.584  1.00  0.00     0.025 C 
BRANCH  23  25
HETATM   25  C25 UNL     1      -3.292   5.941  14.841  1.00  0.00     0.142 C 
HETATM   26  O1  UNL     1      -2.562   5.147  15.444  1.00  0.00    -0.297 OA
BRANCH  25  27
HETATM   27  C26 UNL     1      -3.830   7.153  15.570  1.00  0.00     0.148 C 
BRANCH  27  28
HETATM   28  C27 UNL     1      -2.761   8.150  15.907  1.00  0.00     0.238 C 
HETATM   29  O2  UNL     1      -2.651   9.220  15.312  1.00  0.00    -0.306 OA
ENDBRANCH  27  28
ENDBRANCH  25  27
ENDBRANCH  23  25
ENDBRANCH  10  11
ENDBRANCH   1  10
BRANCH   1  30
HETATM   30  O3  UNL     1       0.283   6.567  13.727  1.00  0.00    -0.353 OA
BRANCH  30  31
HETATM   31  C28 UNL     1       0.680   7.868  14.184  1.00  0.00     0.292 C 
HETATM   32  O4  UNL     1       2.090   8.006  14.029  1.00  0.00    -0.348 OA
HETATM   33  C29 UNL     1       2.627   9.261  14.504  1.00  0.00     0.179 C 
HETATM   34  C31 UNL     1       1.664  10.078  15.384  1.00  0.00     0.180 C 
HETATM   35  C32 UNL     1       0.910   9.179  16.372  1.00  0.00     0.183 C 
HETATM   36  C33 UNL     1       0.291   7.954  15.680  1.00  0.00     0.204 C 
BRANCH  33  37
HETATM   37  C30 UNL     1       3.910   8.909  15.276  1.00  0.00     0.198 C 
BRANCH  37  38
HETATM   38  O5  UNL     1       4.214   7.522  15.120  1.00  0.00    -0.398 OA
HETATM   39  H48 UNL     1       3.363   7.048  15.208  1.00  0.00     0.209 HD
ENDBRANCH  37  38
ENDBRANCH  33  37
BRANCH  34  40
HETATM   40  O6  UNL     1       0.696  10.756  14.559  1.00  0.00    -0.390 OA
HETATM   41  H50 UNL     1       0.036  11.104  15.197  1.00  0.00     0.210 HD
ENDBRANCH  34  40
BRANCH  35  42
HETATM   42  O7  UNL     1      -0.126   9.970  16.987  1.00  0.00    -0.390 OA
HETATM   43  H52 UNL     1      -0.370   9.509  17.815  1.00  0.00     0.210 HD
ENDBRANCH  35  42
BRANCH  36  44
HETATM   44  O8  UNL     1       0.779   6.784  16.374  1.00  0.00    -0.388 OA
HETATM   45  H54 UNL     1       0.715   6.050  15.727  1.00  0.00     0.210 HD
ENDBRANCH  36  44
ENDBRANCH  30  31
ENDBRANCH   1  30
TORSDOF 16
ENDMDL
MODEL 7
REMARK minimizedAffinity -7.78346062
REMARK CNNscore 0.291812718
REMARK CNNaffinity 6.56614351
REMARK  16 active torsions:
REMARK  status: ('A' for Active; 'I' for Inactive)
REMARK    1  A    between atoms: C2_2  and  C3_3 
REMARK    2  A    between atoms: C4_4  and  C6_6 
REMARK    3  A    between atoms: C6_6  and  C7_7 
REMARK    4  A    between atoms: C7_7  and  C9_9 
REMARK    5  A    between atoms: C9_9  and  C10_10 
REMARK    6  A    between atoms: C9_9  and  O3_30 
REMARK    7  A    between atoms: C10_10  and  C11_11 
REMARK    8  A    between atoms: C23_23  and  C25_25 
REMARK    9  A    between atoms: C25_25  and  C26_27 
REMARK   10  A    between atoms: C26_27  and  C27_28 
REMARK   11  A    between atoms: O3_30  and  C28_31 
REMARK   12  A    between atoms: C29_33  and  C30_34 
REMARK   13  A    between atoms: C30_34  and  O5_35 
REMARK   14  A    between atoms: C31_36  and  O6_37 
REMARK   15  A    between atoms: C32_38  and  O7_39 
REMARK   16  A    between atoms: C33_40  and  O8_41 
ROOT
HETATM    1  C9  UNL     1       1.608   7.768  12.769  1.00  0.00     0.129 C 
ENDROOT
BRANCH   1   2
HETATM    2  C7  UNL     1       2.234   7.452  11.385  1.00  0.00     0.014 C 
HETATM    3  C8  UNL     1       2.420   5.949  11.144  1.00  0.00     0.012 C 
BRANCH   2   4
HETATM    4  C6  UNL     1       1.482   8.135  10.227  1.00  0.00     0.040 C 
BRANCH   4   5
HETATM    5  C4  UNL     1       2.069   7.906   8.848  1.00  0.00    -0.087 C 
HETATM    6  C3  UNL     1       1.343   7.283   7.896  1.00  0.00    -0.025 C 
HETATM    7  C5  UNL     1       3.435   8.494   8.615  1.00  0.00     0.043 C 
BRANCH   6   8
HETATM    8  C2  UNL     1       1.740   7.008   6.471  1.00  0.00     0.023 C 
HETATM    9  C1  UNL     1       2.575   5.738   6.376  1.00  0.00     0.009 C 
ENDBRANCH   6   8
ENDBRANCH   4   5
ENDBRANCH   2   4
ENDBRANCH   1   2
BRANCH   1  10
HETATM   10  C10 UNL     1       1.318   6.603  13.747  1.00  0.00     0.042 C 
BRANCH  10  11
HETATM   11  C11 UNL     1      -0.159   6.167  14.006  1.00  0.00     0.032 C 
HETATM   12  C12 UNL     1      -0.732   5.104  13.078  1.00  0.00    -0.082 C 
HETATM   13  C13 UNL     1       0.095   4.393  12.045  1.00  0.00     0.043 C 
HETATM   14  C14 UNL     1      -2.019   4.757  13.238  1.00  0.00    -0.019 C 
HETATM   15  C15 UNL     1      -2.952   5.491  14.165  1.00  0.00     0.014 C 
HETATM   16  C16 UNL     1      -4.406   5.118  13.789  1.00  0.00     0.013 C 
HETATM   17  C22 UNL     1      -2.699   7.015  14.067  1.00  0.00     0.013 C 
HETATM   18  C17 UNL     1      -5.479   6.109  14.250  1.00  0.00    -0.018 C 
HETATM   19  C18 UNL     1      -6.077   6.865  13.066  1.00  0.00     0.010 C 
HETATM   20  C19 UNL     1      -4.967   7.048  15.338  1.00  0.00     0.009 C 
HETATM   21  C20 UNL     1      -3.671   7.812  15.004  1.00  0.00    -0.012 C 
HETATM   22  C21 UNL     1      -3.975   9.221  14.475  1.00  0.00     0.010 C 
HETATM   23  C23 UNL     1      -1.150   7.414  14.142  1.00  0.00     0.029 C 
HETATM   24  C24 UNL     1      -0.888   8.401  12.970  1.00  0.00     0.025 C 
BRANCH  23  25
HETATM   25  C25 UNL     1      -0.814   8.139  15.475  1.00  0.00     0.142 C 
HETATM   26  O1  UNL     1      -0.277   7.545  16.417  1.00  0.00    -0.297 OA
BRANCH  25  27
HETATM   27  C26 UNL     1      -1.176   9.600  15.630  1.00  0.00     0.148 C 
BRANCH  27  28
HETATM   28  C27 UNL     1      -0.608  10.458  14.540  1.00  0.00     0.238 C 
HETATM   29  O2  UNL     1      -1.188  11.459  14.123  1.00  0.00    -0.306 OA
ENDBRANCH  27  28
ENDBRANCH  25  27
ENDBRANCH  23  25
ENDBRANCH  10  11
ENDBRANCH   1  10
BRANCH   1  30
HETATM   30  O3  UNL     1       2.564   8.618  13.448  1.00  0.00    -0.353 OA
BRANCH  30  31
HETATM   31  C28 UNL     1       3.897   8.085  13.413  1.00  0.00     0.292 C 
HETATM   32  O4  UNL     1       4.447   8.123  14.727  1.00  0.00    -0.348 OA
HETATM   33  C29 UNL     1       5.813   7.660  14.819  1.00  0.00     0.179 C 
HETATM   34  C31 UNL     1       6.537   7.526  13.468  1.00  0.00     0.180 C 
HETATM   35  C32 UNL     1       6.222   8.710  12.545  1.00  0.00     0.183 C 
HETATM   36  C33 UNL     1       4.713   8.989  12.459  1.00  0.00     0.204 C 
BRANCH  33  37
HETATM   37  C30 UNL     1       6.540   8.661  15.734  1.00  0.00     0.198 C 
BRANCH  37  38
HETATM   38  O5  UNL     1       7.334   7.963  16.694  1.00  0.00    -0.398 OA
HETATM   39  H48 UNL     1       6.784   7.219  17.010  1.00  0.00     0.209 HD
ENDBRANCH  37  38
ENDBRANCH  33  37
BRANCH  34  40
HETATM   40  O6  UNL     1       6.127   6.314  12.805  1.00  0.00    -0.390 OA
HETATM   41  H50 UNL     1       6.498   6.396  11.900  1.00  0.00     0.210 HD
ENDBRANCH  34  40
BRANCH  35  42
HETATM   42  O7  UNL     1       6.739   8.400  11.236  1.00  0.00    -0.390 OA
HETATM   43  H52 UNL     1       6.829   9.254  10.765  1.00  0.00     0.210 HD
ENDBRANCH  35  42
BRANCH  36  44
HETATM   44  O8  UNL     1       4.517  10.375  12.820  1.00  0.00    -0.388 OA
HETATM   45  H54 UNL     1       3.591  10.434  13.137  1.00  0.00     0.210 HD
ENDBRANCH  36  44
ENDBRANCH  30  31
ENDBRANCH   1  30
TORSDOF 16
ENDMDL
MODEL 8
REMARK minimizedAffinity -7.43761444
REMARK CNNscore 0.236964375
REMARK CNNaffinity 6.82209778
REMARK  16 active torsions:
REMARK  status: ('A' for Active; 'I' for Inactive)
REMARK    1  A    between atoms: C2_2  and  C3_3 
REMARK    2  A    between atoms: C4_4  and  C6_6 
REMARK    3  A    between atoms: C6_6  and  C7_7 
REMARK    4  A    between atoms: C7_7  and  C9_9 
REMARK    5  A    between atoms: C9_9  and  C10_10 
REMARK    6  A    between atoms: C9_9  and  O3_30 
REMARK    7  A    between atoms: C10_10  and  C11_11 
REMARK    8  A    between atoms: C23_23  and  C25_25 
REMARK    9  A    between atoms: C25_25  and  C26_27 
REMARK   10  A    between atoms: C26_27  and  C27_28 
REMARK   11  A    between atoms: O3_30  and  C28_31 
REMARK   12  A    between atoms: C29_33  and  C30_34 
REMARK   13  A    between atoms: C30_34  and  O5_35 
REMARK   14  A    between atoms: C31_36  and  O6_37 
REMARK   15  A    between atoms: C32_38  and  O7_39 
REMARK   16  A    between atoms: C33_40  and  O8_41 
ROOT
HETATM    1  C9  UNL     1       4.407   8.390  12.757  1.00  0.00     0.129 C 
ENDROOT
BRANCH   1   2
HETATM    2  C7  UNL     1       4.445   8.405  11.205  1.00  0.00     0.014 C 
HETATM    3  C8  UNL     1       5.598   9.247  10.646  1.00  0.00     0.012 C 
BRANCH   2   4
HETATM    4  C6  UNL     1       4.416   6.989  10.601  1.00  0.00     0.040 C 
BRANCH   4   5
HETATM    5  C4  UNL     1       3.476   6.805   9.425  1.00  0.00    -0.087 C 
HETATM    6  C3  UNL     1       3.033   7.878   8.737  1.00  0.00    -0.025 C 
HETATM    7  C5  UNL     1       3.172   5.379   9.050  1.00  0.00     0.043 C 
BRANCH   6   8
HETATM    8  C2  UNL     1       2.139   7.886   7.527  1.00  0.00     0.023 C 
HETATM    9  C1  UNL     1       0.688   8.122   7.926  1.00  0.00     0.009 C 
ENDBRANCH   6   8
ENDBRANCH   4   5
ENDBRANCH   2   4
ENDBRANCH   1   2
BRANCH   1  10
HETATM   10  C10 UNL     1       3.201   7.735  13.474  1.00  0.00     0.042 C 
BRANCH  10  11
HETATM   11  C11 UNL     1       1.813   8.449  13.454  1.00  0.00     0.032 C 
HETATM   12  C12 UNL     1       1.598   9.558  14.475  1.00  0.00    -0.082 C 
HETATM   13  C13 UNL     1       2.690  10.056  15.378  1.00  0.00     0.043 C 
HETATM   14  C14 UNL     1       0.391  10.145  14.521  1.00  0.00    -0.019 C 
HETATM   15  C15 UNL     1      -0.792   9.640  13.739  1.00  0.00     0.014 C 
HETATM   16  C16 UNL     1      -2.075  10.261  14.340  1.00  0.00     0.013 C 
HETATM   17  C22 UNL     1      -0.823   8.093  13.774  1.00  0.00     0.013 C 
HETATM   18  C17 UNL     1      -3.374   9.508  14.036  1.00  0.00    -0.018 C 
HETATM   19  C18 UNL     1      -3.922   8.825  15.288  1.00  0.00     0.010 C 
HETATM   20  C19 UNL     1      -3.219   8.539  12.869  1.00  0.00     0.009 C 
HETATM   21  C20 UNL     1      -2.057   7.533  12.987  1.00  0.00    -0.012 C 
HETATM   22  C21 UNL     1      -2.542   6.183  13.535  1.00  0.00     0.010 C 
HETATM   23  C23 UNL     1       0.593   7.416  13.454  1.00  0.00     0.029 C 
HETATM   24  C24 UNL     1       0.833   6.347  14.557  1.00  0.00     0.025 C 
BRANCH  23  25
HETATM   25  C25 UNL     1       0.582   6.700  12.074  1.00  0.00     0.142 C 
HETATM   26  O1  UNL     1       0.279   7.301  11.037  1.00  0.00    -0.297 OA
BRANCH  25  27
HETATM   27  C26 UNL     1       0.926   5.229  12.005  1.00  0.00     0.148 C 
BRANCH  27  28
HETATM   28  C27 UNL     1      -0.279   4.358  11.816  1.00  0.00     0.238 C 
HETATM   29  O2  UNL     1      -0.441   3.670  10.810  1.00  0.00    -0.306 OA
ENDBRANCH  27  28
ENDBRANCH  25  27
ENDBRANCH  23  25
ENDBRANCH  10  11
ENDBRANCH   1  10
BRANCH   1  30
HETATM   30  O3  UNL     1       5.567   7.629  13.171  1.00  0.00    -0.353 OA
BRANCH  30  31
HETATM   31  C28 UNL     1       6.267   8.244  14.264  1.00  0.00     0.292 C 
HETATM   32  O4  UNL     1       6.342   9.648  14.037  1.00  0.00    -0.348 OA
HETATM   33  C29 UNL     1       7.073  10.381  15.046  1.00  0.00     0.179 C 
HETATM   34  C31 UNL     1       7.914   9.506  15.991  1.00  0.00     0.180 C 
HETATM   35  C32 UNL     1       8.635   8.389  15.225  1.00  0.00     0.183 C 
HETATM   36  C33 UNL     1       7.685   7.624  14.290  1.00  0.00     0.204 C 
BRANCH  33  37
HETATM   37  C30 UNL     1       7.963  11.378  14.285  1.00  0.00     0.198 C 
BRANCH  37  38
HETATM   38  O5  UNL     1       8.199  10.913  12.956  1.00  0.00    -0.398 OA
HETATM   39  H48 UNL     1       8.376   9.955  13.033  1.00  0.00     0.209 HD
ENDBRANCH  37  38
ENDBRANCH  33  37
BRANCH  34  40
HETATM   40  O6  UNL     1       7.067   8.897  16.987  1.00  0.00    -0.390 OA
HETATM   41  H50 UNL     1       7.647   8.239  17.427  1.00  0.00     0.210 HD
ENDBRANCH  34  40
BRANCH  35  42
HETATM   42  O7  UNL     1       9.203   7.485  16.193  1.00  0.00    -0.390 OA
HETATM   43  H52 UNL     1       9.909   6.991  15.728  1.00  0.00     0.210 HD
ENDBRANCH  35  42
BRANCH  36  44
HETATM   44  O8  UNL     1       8.261   7.678  12.966  1.00  0.00    -0.388 OA
HETATM   45  H54 UNL     1       7.509   7.554  12.348  1.00  0.00     0.210 HD
ENDBRANCH  36  44
ENDBRANCH  30  31
ENDBRANCH   1  30
TORSDOF 16
ENDMDL
MODEL 9
REMARK minimizedAffinity -7.04299688
REMARK CNNscore 0.206084684
REMARK CNNaffinity 6.48975134
REMARK  16 active torsions:
REMARK  status: ('A' for Active; 'I' for Inactive)
REMARK    1  A    between atoms: C2_2  and  C3_3 
REMARK    2  A    between atoms: C4_4  and  C6_6 
REMARK    3  A    between atoms: C6_6  and  C7_7 
REMARK    4  A    between atoms: C7_7  and  C9_9 
REMARK    5  A    between atoms: C9_9  and  C10_10 
REMARK    6  A    between atoms: C9_9  and  O3_30 
REMARK    7  A    between atoms: C10_10  and  C11_11 
REMARK    8  A    between atoms: C23_23  and  C25_25 
REMARK    9  A    between atoms: C25_25  and  C26_27 
REMARK   10  A    between atoms: C26_27  and  C27_28 
REMARK   11  A    between atoms: O3_30  and  C28_31 
REMARK   12  A    between atoms: C29_33  and  C30_34 
REMARK   13  A    between atoms: C30_34  and  O5_35 
REMARK   14  A    between atoms: C31_36  and  O6_37 
REMARK   15  A    between atoms: C32_38  and  O7_39 
REMARK   16  A    between atoms: C33_40  and  O8_41 
ROOT
HETATM    1  C9  UNL     1       2.151   7.470  11.962  1.00  0.00     0.129 C 
ENDROOT
BRANCH   1   2
HETATM    2  C7  UNL     1       1.898   7.148  10.465  1.00  0.00     0.014 C 
HETATM    3  C8  UNL     1       1.036   8.207   9.766  1.00  0.00     0.012 C 
BRANCH   2   4
HETATM    4  C6  UNL     1       3.200   6.861   9.695  1.00  0.00     0.040 C 
BRANCH   4   5
HETATM    5  C4  UNL     1       3.164   5.644   8.791  1.00  0.00    -0.087 C 
HETATM    6  C3  UNL     1       2.878   5.780   7.480  1.00  0.00    -0.025 C 
HETATM    7  C5  UNL     1       3.553   4.341   9.438  1.00  0.00     0.043 C 
BRANCH   6   8
HETATM    8  C2  UNL     1       2.840   4.701   6.432  1.00  0.00     0.023 C 
HETATM    9  C1  UNL     1       4.025   3.756   6.582  1.00  0.00     0.009 C 
ENDBRANCH   6   8
ENDBRANCH   4   5
ENDBRANCH   2   4
ENDBRANCH   1   2
BRANCH   1  10
HETATM   10  C10 UNL     1       1.754   6.424  13.033  1.00  0.00     0.042 C 
BRANCH  10  11
HETATM   11  C11 UNL     1       0.251   6.245  13.414  1.00  0.00     0.032 C 
HETATM   12  C12 UNL     1      -0.631   5.527  12.402  1.00  0.00    -0.082 C 
HETATM   13  C13 UNL     1      -0.088   4.890  11.155  1.00  0.00     0.043 C 
HETATM   14  C14 UNL     1      -1.941   5.417  12.677  1.00  0.00    -0.019 C 
HETATM   15  C15 UNL     1      -2.593   6.118  13.839  1.00  0.00     0.014 C 
HETATM   16  C16 UNL     1      -4.123   6.123  13.609  1.00  0.00     0.013 C 
HETATM   17  C22 UNL     1      -2.021   7.549  13.976  1.00  0.00     0.013 C 
HETATM   18  C17 UNL     1      -4.900   7.193  14.382  1.00  0.00    -0.018 C 
HETATM   19  C18 UNL     1      -5.430   8.276  13.445  1.00  0.00     0.010 C 
HETATM   20  C19 UNL     1      -4.089   7.773  15.536  1.00  0.00     0.009 C 
HETATM   21  C20 UNL     1      -2.695   8.317  15.165  1.00  0.00    -0.012 C 
HETATM   22  C21 UNL     1      -2.731   9.835  14.941  1.00  0.00     0.010 C 
HETATM   23  C23 UNL     1      -0.422   7.611  13.904  1.00  0.00     0.029 C 
HETATM   24  C24 UNL     1      -0.066   8.742  12.900  1.00  0.00     0.025 C 
BRANCH  23  25
HETATM   25  C25 UNL     1       0.195   7.971  15.285  1.00  0.00     0.142 C 
HETATM   26  O1  UNL     1       0.183   7.171  16.227  1.00  0.00    -0.297 OA
BRANCH  25  27
HETATM   27  C26 UNL     1       0.803   9.341  15.484  1.00  0.00     0.148 C 
BRANCH  27  28
HETATM   28  C27 UNL     1       1.687   9.415  16.693  1.00  0.00     0.238 C 
HETATM   29  O2  UNL     1       2.869   9.078  16.663  1.00  0.00    -0.306 OA
ENDBRANCH  27  28
ENDBRANCH  25  27
ENDBRANCH  23  25
ENDBRANCH  10  11
ENDBRANCH   1  10
BRANCH   1  30
HETATM   30  O3  UNL     1       3.583   7.637  12.092  1.00  0.00    -0.353 OA
BRANCH  30  31
HETATM   31  C28 UNL     1       3.935   8.834  12.801  1.00  0.00     0.292 C 
HETATM   32  O4  UNL     1       4.505   9.766  11.887  1.00  0.00    -0.348 OA
HETATM   33  C29 UNL     1       4.953  11.002  12.489  1.00  0.00     0.179 C 
HETATM   34  C31 UNL     1       5.048  10.968  14.025  1.00  0.00     0.180 C 
HETATM   35  C32 UNL     1       5.651   9.647  14.519  1.00  0.00     0.183 C 
HETATM   36  C33 UNL     1       4.973   8.427  13.875  1.00  0.00     0.204 C 
BRANCH  33  37
HETATM   37  C30 UNL     1       6.324  11.307  11.862  1.00  0.00     0.198 C 
BRANCH  37  38
HETATM   38  O5  UNL     1       7.089  12.140  12.733  1.00  0.00    -0.398 OA
HETATM   39  H48 UNL     1       6.470  12.816  13.074  1.00  0.00     0.209 HD
ENDBRANCH  37  38
ENDBRANCH  33  37
BRANCH  34  40
HETATM   40  O6  UNL     1       3.736  11.112  14.604  1.00  0.00    -0.390 OA
HETATM   41  H50 UNL     1       3.869  10.912  15.556  1.00  0.00     0.210 HD
ENDBRANCH  34  40
BRANCH  35  42
HETATM   42  O7  UNL     1       5.491   9.597  15.950  1.00  0.00    -0.390 OA
HETATM   43  H52 UNL     1       6.144   8.945  16.278  1.00  0.00     0.210 HD
ENDBRANCH  35  42
BRANCH  36  44
HETATM   44  O8  UNL     1       6.018   7.638  13.262  1.00  0.00    -0.388 OA
HETATM   45  H54 UNL     1       5.575   7.120  12.557  1.00  0.00     0.210 HD
ENDBRANCH  36  44
ENDBRANCH  30  31
ENDBRANCH   1  30
TORSDOF 16
ENDMDL
