MODEL 1
REMARK minimizedAffinity -10.3896475
REMARK CNNscore 0.596488535
REMARK CNNaffinity 7.15167856
REMARK  9 active torsions:
REMARK  status: ('A' for Active; 'I' for Inactive)
REMARK    1  A    between atoms: C2_2  and  C3_3 
REMARK    2  A    between atoms: C2_2  and  C11_13 
REMARK    3  A    between atoms: C3_3  and  C4_4 
REMARK    4  A    between atoms: C4_4  and  C5_5 
REMARK    5  A    between atoms: C5_5  and  C8_9 
REMARK    6  A    between atoms: C6_6  and  C7_7 
REMARK    7  A    between atoms: C7_7  and  O1_8 
REMARK    8  A    between atoms: C8_9  and  O2_12 
REMARK    9  A    between atoms: C25_27  and  O3_28 
ROOT
HETATM    1  C11 UNL     1      -1.545   5.351  11.443  1.00  0.00     0.005 C 
HETATM    2  C12 UNL     1      -2.014   3.963  10.950  1.00  0.00     0.033 C 
HETATM    3  C13 UNL     1      -3.432   3.915  11.409  1.00  0.00    -0.018 C 
HETATM    4  C14 UNL     1      -3.674   4.820  12.366  1.00  0.00    -0.047 C 
HETATM    5  C15 UNL     1      -4.935   5.106  13.032  1.00  0.00    -0.048 C 
HETATM    6  C16 UNL     1      -5.078   6.228  13.781  1.00  0.00    -0.064 C 
HETATM    7  C17 UNL     1      -3.942   7.234  13.925  1.00  0.00     0.036 C 
HETATM    8  C18 UNL     1      -2.793   7.057  12.925  1.00  0.00     0.019 C 
HETATM    9  C19 UNL     1      -2.410   5.585  12.729  1.00  0.00    -0.012 C 
HETATM   10  C20 UNL     1      -1.795   4.975  14.005  1.00  0.00     0.021 C 
HETATM   11  C21 UNL     1      -6.373   6.509  14.579  1.00  0.00    -0.016 C 
HETATM   12  C22 UNL     1      -6.097   6.039  16.031  1.00  0.00     0.020 C 
HETATM   13  C23 UNL     1      -6.767   8.015  14.605  1.00  0.00     0.016 C 
HETATM   14  C24 UNL     1      -8.112   8.283  15.285  1.00  0.00     0.033 C 
HETATM   15  C25 UNL     1      -9.241   7.454  14.681  1.00  0.00     0.118 C 
HETATM   16  C26 UNL     1      -8.900   5.966  14.629  1.00  0.00     0.037 C 
HETATM   17  C27 UNL     1      -7.561   5.741  13.916  1.00  0.00     0.001 C 
HETATM   18  C28 UNL     1      -7.245   4.256  13.770  1.00  0.00     0.010 C 
HETATM   19  C29 UNL     1      -6.026   4.064  12.872  1.00  0.00     0.040 C 
ENDROOT
BRANCH   1  20
HETATM   20  C2  UNL     1       0.000   5.448  11.558  1.00  0.00    -0.013 C 
HETATM   21  C1  UNL     1       0.471   5.822  12.968  1.00  0.00     0.010 C 
BRANCH  20  22
HETATM   22  C3  UNL     1       0.620   6.422  10.514  1.00  0.00     0.009 C 
BRANCH  22  23
HETATM   23  C4  UNL     1       1.898   5.917   9.819  1.00  0.00     0.037 C 
BRANCH  23  24
HETATM   24  C5  UNL     1       2.758   7.048   9.254  1.00  0.00    -0.049 C 
HETATM   25  C6  UNL     1       3.970   7.339   9.783  1.00  0.00     0.004 C 
BRANCH  25  26
HETATM   26  C7  UNL     1       4.665   6.684  10.935  1.00  0.00     0.191 C 
BRANCH  26  27
HETATM   27  O1  UNL     1       5.238   5.473  10.464  1.00  0.00    -0.397 OA
HETATM   28  H12 UNL     1       4.504   4.930  10.126  1.00  0.00     0.209 HD
ENDBRANCH  26  27
ENDBRANCH  25  26
BRANCH  24  29
HETATM   29  C8  UNL     1       2.191   7.776   8.019  1.00  0.00     0.074 C 
HETATM   30  C9  UNL     1       2.040   6.850   6.805  1.00  0.00     0.050 C 
HETATM   31  C10 UNL     1       0.851   8.500   8.233  1.00  0.00     0.050 C 
BRANCH  29  32
HETATM   32  O2  UNL     1       3.139   8.789   7.661  1.00  0.00    -0.386 OA
HETATM   33  H19 UNL     1       3.286   9.328   8.456  1.00  0.00     0.211 HD
ENDBRANCH  29  32
ENDBRANCH  24  29
ENDBRANCH  23  24
ENDBRANCH  22  23
ENDBRANCH  20  22
ENDBRANCH   1  20
BRANCH  15  34
HETATM   34  O3  UNL     1     -10.433   7.644  15.437  1.00  0.00    -0.396 OA
HETATM   35  H39 UNL     1     -10.269   7.333  16.344  1.00  0.00     0.210 HD
ENDBRANCH  15  34
TORSDOF 9
ENDMDL
MODEL 2
REMARK minimizedAffinity -7.32269621
REMARK CNNscore 0.490542978
REMARK CNNaffinity 6.05128527
REMARK  9 active torsions:
REMARK  status: ('A' for Active; 'I' for Inactive)
REMARK    1  A    between atoms: C2_2  and  C3_3 
REMARK    2  A    between atoms: C2_2  and  C11_13 
REMARK    3  A    between atoms: C3_3  and  C4_4 
REMARK    4  A    between atoms: C4_4  and  C5_5 
REMARK    5  A    between atoms: C5_5  and  C8_9 
REMARK    6  A    between atoms: C6_6  and  C7_7 
REMARK    7  A    between atoms: C7_7  and  O1_8 
REMARK    8  A    between atoms: C8_9  and  O2_12 
REMARK    9  A    between atoms: C25_27  and  O3_28 
ROOT
HETATM    1  C11 UNL     1      -6.133  -9.711   5.699  1.00  0.00     0.005 C 
HETATM    2  C12 UNL     1      -4.678 -10.231   5.667  1.00  0.00     0.033 C 
HETATM    3  C13 UNL     1      -4.393 -10.318   4.206  1.00  0.00    -0.018 C 
HETATM    4  C14 UNL     1      -5.520 -10.320   3.481  1.00  0.00    -0.047 C 
HETATM    5  C15 UNL     1      -5.654 -10.351   2.033  1.00  0.00    -0.048 C 
HETATM    6  C16 UNL     1      -6.846 -10.077   1.447  1.00  0.00    -0.064 C 
HETATM    7  C17 UNL     1      -8.068  -9.701   2.277  1.00  0.00     0.036 C 
HETATM    8  C18 UNL     1      -7.770  -9.339   3.738  1.00  0.00     0.019 C 
HETATM    9  C19 UNL     1      -6.748 -10.287   4.377  1.00  0.00    -0.012 C 
HETATM   10  C20 UNL     1      -7.305 -11.717   4.529  1.00  0.00     0.021 C 
HETATM   11  C21 UNL     1      -7.045 -10.198  -0.082  1.00  0.00    -0.016 C 
HETATM   12  C22 UNL     1      -7.680 -11.591  -0.328  1.00  0.00     0.020 C 
HETATM   13  C23 UNL     1      -7.984  -9.106  -0.671  1.00  0.00     0.016 C 
HETATM   14  C24 UNL     1      -8.083  -9.143  -2.198  1.00  0.00     0.033 C 
HETATM   15  C25 UNL     1      -6.715  -9.078  -2.869  1.00  0.00     0.118 C 
HETATM   16  C26 UNL     1      -5.753 -10.129  -2.320  1.00  0.00     0.037 C 
HETATM   17  C27 UNL     1      -5.662 -10.038  -0.793  1.00  0.00     0.001 C 
HETATM   18  C28 UNL     1      -4.636 -11.017  -0.231  1.00  0.00     0.010 C 
HETATM   19  C29 UNL     1      -4.414 -10.749   1.256  1.00  0.00     0.040 C 
ENDROOT
BRANCH   1  20
HETATM   20  C2  UNL     1      -6.843 -10.016   7.045  1.00  0.00    -0.013 C 
HETATM   21  C1  UNL     1      -8.096  -9.161   7.266  1.00  0.00     0.010 C 
BRANCH  20  22
HETATM   22  C3  UNL     1      -5.891  -9.891   8.268  1.00  0.00     0.009 C 
BRANCH  22  23
HETATM   23  C4  UNL     1      -6.345  -8.905   9.361  1.00  0.00     0.037 C 
BRANCH  23  24
HETATM   24  C5  UNL     1      -6.225  -9.477  10.773  1.00  0.00    -0.049 C 
HETATM   25  C6  UNL     1      -5.016  -9.660  11.355  1.00  0.00     0.004 C 
BRANCH  25  26
HETATM   26  C7  UNL     1      -3.659  -9.374  10.793  1.00  0.00     0.191 C 
BRANCH  26  27
HETATM   27  O1  UNL     1      -2.759  -9.234  11.882  1.00  0.00    -0.397 OA
HETATM   28  H12 UNL     1      -3.090  -8.497  12.426  1.00  0.00     0.209 HD
ENDBRANCH  26  27
ENDBRANCH  25  26
BRANCH  24  29
HETATM   29  C8  UNL     1      -7.552  -9.764  11.501  1.00  0.00     0.074 C 
HETATM   30  C9  UNL     1      -8.456 -10.729  10.724  1.00  0.00     0.050 C 
HETATM   31  C10 UNL     1      -7.420 -10.293  12.940  1.00  0.00     0.050 C 
BRANCH  29  32
HETATM   32  O2  UNL     1      -8.252  -8.517  11.599  1.00  0.00    -0.386 OA
HETATM   33  H19 UNL     1      -7.646  -7.890  12.027  1.00  0.00     0.211 HD
ENDBRANCH  29  32
ENDBRANCH  24  29
ENDBRANCH  23  24
ENDBRANCH  22  23
ENDBRANCH  20  22
ENDBRANCH   1  20
BRANCH  15  34
HETATM   34  O3  UNL     1      -6.861  -9.251  -4.275  1.00  0.00    -0.396 OA
HETATM   35  H39 UNL     1      -7.242 -10.131  -4.432  1.00  0.00     0.210 HD
ENDBRANCH  15  34
TORSDOF 9
ENDMDL
MODEL 3
REMARK minimizedAffinity -7.42587233
REMARK CNNscore 0.477962494
REMARK CNNaffinity 7.09675789
REMARK  9 active torsions:
REMARK  status: ('A' for Active; 'I' for Inactive)
REMARK    1  A    between atoms: C2_2  and  C3_3 
REMARK    2  A    between atoms: C2_2  and  C11_13 
REMARK    3  A    between atoms: C3_3  and  C4_4 
REMARK    4  A    between atoms: C4_4  and  C5_5 
REMARK    5  A    between atoms: C5_5  and  C8_9 
REMARK    6  A    between atoms: C6_6  and  C7_7 
REMARK    7  A    between atoms: C7_7  and  O1_8 
REMARK    8  A    between atoms: C8_9  and  O2_12 
REMARK    9  A    between atoms: C25_27  and  O3_28 
ROOT
HETATM    1  C11 UNL     1      -7.311   6.793  14.058  1.00  0.00     0.005 C 
HETATM    2  C12 UNL     1      -7.911   5.591  13.296  1.00  0.00     0.033 C 
HETATM    3  C13 UNL     1      -9.313   6.031  13.041  1.00  0.00    -0.018 C 
HETATM    4  C14 UNL     1      -9.669   7.041  13.847  1.00  0.00    -0.047 C 
HETATM    5  C15 UNL     1     -10.930   7.764  13.874  1.00  0.00    -0.048 C 
HETATM    6  C16 UNL     1     -11.039   8.931  14.558  1.00  0.00    -0.064 C 
HETATM    7  C17 UNL     1      -9.846   9.533  15.291  1.00  0.00     0.036 C 
HETATM    8  C18 UNL     1      -8.488   8.921  14.925  1.00  0.00     0.019 C 
HETATM    9  C19 UNL     1      -8.548   7.393  14.812  1.00  0.00    -0.012 C 
HETATM   10  C20 UNL     1      -8.821   6.725  16.175  1.00  0.00     0.021 C 
HETATM   11  C21 UNL     1     -12.391   9.671  14.687  1.00  0.00    -0.016 C 
HETATM   12  C22 UNL     1     -12.983   9.257  16.059  1.00  0.00     0.020 C 
HETATM   13  C23 UNL     1     -12.252  11.221  14.647  1.00  0.00     0.016 C 
HETATM   14  C24 UNL     1     -13.595  11.956  14.646  1.00  0.00     0.033 C 
HETATM   15  C25 UNL     1     -14.514  11.481  13.525  1.00  0.00     0.118 C 
HETATM   16  C26 UNL     1     -14.679   9.963  13.519  1.00  0.00     0.037 C 
HETATM   17  C27 UNL     1     -13.313   9.268  13.491  1.00  0.00     0.001 C 
HETATM   18  C28 UNL     1     -13.454   7.753  13.390  1.00  0.00     0.010 C 
HETATM   19  C29 UNL     1     -12.090   7.113  13.145  1.00  0.00     0.040 C 
ENDROOT
BRANCH   1  20
HETATM   20  C2  UNL     1      -6.053   6.405  14.882  1.00  0.00    -0.013 C 
HETATM   21  C1  UNL     1      -6.398   5.821  16.257  1.00  0.00     0.010 C 
BRANCH  20  22
HETATM   22  C3  UNL     1      -5.053   7.585  15.041  1.00  0.00     0.009 C 
BRANCH  22  23
HETATM   23  C4  UNL     1      -4.356   8.040  13.745  1.00  0.00     0.037 C 
BRANCH  23  24
HETATM   24  C5  UNL     1      -2.888   7.620  13.674  1.00  0.00    -0.049 C 
HETATM   25  C6  UNL     1      -1.896   8.482  13.996  1.00  0.00     0.004 C 
BRANCH  25  26
HETATM   26  C7  UNL     1      -2.008   9.905  14.445  1.00  0.00     0.191 C 
BRANCH  26  27
HETATM   27  O1  UNL     1      -1.488  10.729  13.412  1.00  0.00    -0.397 OA
HETATM   28  H12 UNL     1      -0.561  10.461  13.280  1.00  0.00     0.209 HD
ENDBRANCH  26  27
ENDBRANCH  25  26
BRANCH  24  29
HETATM   29  C8  UNL     1      -2.623   6.153  13.281  1.00  0.00     0.074 C 
HETATM   30  C9  UNL     1      -1.380   5.993  12.397  1.00  0.00     0.050 C 
HETATM   31  C10 UNL     1      -2.502   5.164  14.454  1.00  0.00     0.050 C 
BRANCH  29  32
HETATM   32  O2  UNL     1      -3.749   5.719  12.508  1.00  0.00    -0.386 OA
HETATM   33  H19 UNL     1      -4.540   5.890  13.046  1.00  0.00     0.211 HD
ENDBRANCH  29  32
ENDBRANCH  24  29
ENDBRANCH  23  24
ENDBRANCH  22  23
ENDBRANCH  20  22
ENDBRANCH   1  20
BRANCH  15  34
HETATM   34  O3  UNL     1     -15.790  12.099  13.657  1.00  0.00    -0.396 OA
HETATM   35  H39 UNL     1     -16.172  11.826  14.509  1.00  0.00     0.210 HD
ENDBRANCH  15  34
TORSDOF 9
ENDMDL
MODEL 4
REMARK minimizedAffinity -7.86830235
REMARK CNNscore 0.469221383
REMARK CNNaffinity 7.09354401
REMARK  9 active torsions:
REMARK  status: ('A' for Active; 'I' for Inactive)
REMARK    1  A    between atoms: C2_2  and  C3_3 
REMARK    2  A    between atoms: C2_2  and  C11_13 
REMARK    3  A    between atoms: C3_3  and  C4_4 
REMARK    4  A    between atoms: C4_4  and  C5_5 
REMARK    5  A    between atoms: C5_5  and  C8_9 
REMARK    6  A    between atoms: C6_6  and  C7_7 
REMARK    7  A    between atoms: C7_7  and  O1_8 
REMARK    8  A    between atoms: C8_9  and  O2_12 
REMARK    9  A    between atoms: C25_27  and  O3_28 
ROOT
HETATM    1  C11 UNL     1      -7.124   6.384  13.992  1.00  0.00     0.005 C 
HETATM    2  C12 UNL     1      -7.833   5.330  13.112  1.00  0.00     0.033 C 
HETATM    3  C13 UNL     1      -9.156   5.965  12.843  1.00  0.00    -0.018 C 
HETATM    4  C14 UNL     1      -9.420   6.947  13.714  1.00  0.00    -0.047 C 
HETATM    5  C15 UNL     1     -10.581   7.822  13.754  1.00  0.00    -0.048 C 
HETATM    6  C16 UNL     1     -10.575   8.937  14.527  1.00  0.00    -0.064 C 
HETATM    7  C17 UNL     1      -9.352   9.324  15.350  1.00  0.00     0.036 C 
HETATM    8  C18 UNL     1      -8.065   8.573  14.985  1.00  0.00     0.019 C 
HETATM    9  C19 UNL     1      -8.310   7.078  14.746  1.00  0.00    -0.012 C 
HETATM   10  C20 UNL     1      -8.729   6.348  16.038  1.00  0.00     0.021 C 
HETATM   11  C21 UNL     1     -11.829   9.833  14.666  1.00  0.00    -0.016 C 
HETATM   12  C22 UNL     1     -12.532   9.394  15.976  1.00  0.00     0.020 C 
HETATM   13  C23 UNL     1     -11.495  11.350  14.757  1.00  0.00     0.016 C 
HETATM   14  C24 UNL     1     -12.735  12.250  14.767  1.00  0.00     0.033 C 
HETATM   15  C25 UNL     1     -13.652  11.983  13.578  1.00  0.00     0.118 C 
HETATM   16  C26 UNL     1     -14.005  10.504  13.442  1.00  0.00     0.037 C 
HETATM   17  C27 UNL     1     -12.736   9.644  13.407  1.00  0.00     0.001 C 
HETATM   18  C28 UNL     1     -13.061   8.172  13.178  1.00  0.00     0.010 C 
HETATM   19  C29 UNL     1     -11.778   7.382  12.932  1.00  0.00     0.040 C 
ENDROOT
BRANCH   1  20
HETATM   20  C2  UNL     1      -5.965   5.776  14.827  1.00  0.00    -0.013 C 
HETATM   21  C1  UNL     1      -6.195   5.890  16.338  1.00  0.00     0.010 C 
BRANCH  20  22
HETATM   22  C3  UNL     1      -4.578   6.373  14.453  1.00  0.00     0.009 C 
BRANCH  22  23
HETATM   23  C4  UNL     1      -4.209   6.299  12.960  1.00  0.00     0.037 C 
BRANCH  23  24
HETATM   24  C5  UNL     1      -3.097   5.290  12.667  1.00  0.00    -0.049 C 
HETATM   25  C6  UNL     1      -3.384   4.017  12.306  1.00  0.00     0.004 C 
BRANCH  25  26
HETATM   26  C7  UNL     1      -4.724   3.376  12.136  1.00  0.00     0.191 C 
BRANCH  26  27
HETATM   27  O1  UNL     1      -4.789   2.847  10.820  1.00  0.00    -0.397 OA
HETATM   28  H12 UNL     1      -4.665   3.597  10.211  1.00  0.00     0.209 HD
ENDBRANCH  26  27
ENDBRANCH  25  26
BRANCH  24  29
HETATM   29  C8  UNL     1      -1.656   5.831  12.745  1.00  0.00     0.074 C 
HETATM   30  C9  UNL     1      -0.976   5.511  14.082  1.00  0.00     0.050 C 
HETATM   31  C10 UNL     1      -0.716   5.379  11.614  1.00  0.00     0.050 C 
BRANCH  29  32
HETATM   32  O2  UNL     1      -1.741   7.258  12.646  1.00  0.00    -0.386 OA
HETATM   33  H19 UNL     1      -2.237   7.453  11.833  1.00  0.00     0.211 HD
ENDBRANCH  29  32
ENDBRANCH  24  29
ENDBRANCH  23  24
ENDBRANCH  22  23
ENDBRANCH  20  22
ENDBRANCH   1  20
BRANCH  15  34
HETATM   34  O3  UNL     1     -14.846  12.749  13.713  1.00  0.00    -0.396 OA
HETATM   35  H39 UNL     1     -15.298  12.462  14.524  1.00  0.00     0.210 HD
ENDBRANCH  15  34
TORSDOF 9
ENDMDL
MODEL 5
REMARK minimizedAffinity -10.3766518
REMARK CNNscore 0.453786165
REMARK CNNaffinity 6.96028519
REMARK  9 active torsions:
REMARK  status: ('A' for Active; 'I' for Inactive)
REMARK    1  A    between atoms: C2_2  and  C3_3 
REMARK    2  A    between atoms: C2_2  and  C11_13 
REMARK    3  A    between atoms: C3_3  and  C4_4 
REMARK    4  A    between atoms: C4_4  and  C5_5 
REMARK    5  A    between atoms: C5_5  and  C8_9 
REMARK    6  A    between atoms: C6_6  and  C7_7 
REMARK    7  A    between atoms: C7_7  and  O1_8 
REMARK    8  A    between atoms: C8_9  and  O2_12 
REMARK    9  A    between atoms: C25_27  and  O3_28 
ROOT
HETATM    1  C11 UNL     1      -0.436   6.129  11.605  1.00  0.00     0.005 C 
HETATM    2  C12 UNL     1      -0.582   4.698  11.041  1.00  0.00     0.033 C 
HETATM    3  C13 UNL     1      -2.006   4.373  11.337  1.00  0.00    -0.018 C 
HETATM    4  C14 UNL     1      -2.515   5.182  12.275  1.00  0.00    -0.047 C 
HETATM    5  C15 UNL     1      -3.871   5.207  12.799  1.00  0.00    -0.048 C 
HETATM    6  C16 UNL     1      -4.301   6.256  13.545  1.00  0.00    -0.064 C 
HETATM    7  C17 UNL     1      -3.395   7.448  13.832  1.00  0.00     0.036 C 
HETATM    8  C18 UNL     1      -2.133   7.522  12.964  1.00  0.00     0.019 C 
HETATM    9  C19 UNL     1      -1.463   6.153  12.789  1.00  0.00    -0.012 C 
HETATM   10  C20 UNL     1      -0.885   5.621  14.116  1.00  0.00     0.021 C 
HETATM   11  C21 UNL     1      -5.704   6.265  14.198  1.00  0.00    -0.016 C 
HETATM   12  C22 UNL     1      -5.503   5.800  15.663  1.00  0.00     0.020 C 
HETATM   13  C23 UNL     1      -6.373   7.670  14.202  1.00  0.00     0.016 C 
HETATM   14  C24 UNL     1      -7.810   7.661  14.731  1.00  0.00     0.033 C 
HETATM   15  C25 UNL     1      -8.693   6.661  13.992  1.00  0.00     0.118 C 
HETATM   16  C26 UNL     1      -8.075   5.264  13.955  1.00  0.00     0.037 C 
HETATM   17  C27 UNL     1      -6.650   5.315  13.393  1.00  0.00     0.001 C 
HETATM   18  C28 UNL     1      -6.048   3.920  13.260  1.00  0.00     0.010 C 
HETATM   19  C29 UNL     1      -4.725   3.989  12.501  1.00  0.00     0.040 C 
ENDROOT
BRANCH   1  20
HETATM   20  C2  UNL     1       1.042   6.505  11.894  1.00  0.00    -0.013 C 
HETATM   21  C1  UNL     1       1.353   6.594  13.392  1.00  0.00     0.010 C 
BRANCH  20  22
HETATM   22  C3  UNL     1       1.478   7.818  11.182  1.00  0.00     0.009 C 
BRANCH  22  23
HETATM   23  C4  UNL     1       2.777   7.723  10.360  1.00  0.00     0.037 C 
BRANCH  23  24
HETATM   24  C5  UNL     1       2.596   6.980   9.036  1.00  0.00    -0.049 C 
HETATM   25  C6  UNL     1       2.964   5.684   8.904  1.00  0.00     0.004 C 
BRANCH  25  26
HETATM   26  C7  UNL     1       3.577   4.781   9.926  1.00  0.00     0.191 C 
BRANCH  26  27
HETATM   27  O1  UNL     1       3.183   3.451   9.623  1.00  0.00    -0.397 OA
HETATM   28  H12 UNL     1       2.210   3.433   9.658  1.00  0.00     0.209 HD
ENDBRANCH  26  27
ENDBRANCH  25  26
BRANCH  24  29
HETATM   29  C8  UNL     1       1.916   7.774   7.904  1.00  0.00     0.074 C 
HETATM   30  C9  UNL     1       1.871   6.997   6.582  1.00  0.00     0.050 C 
HETATM   31  C10 UNL     1       0.494   8.277   8.206  1.00  0.00     0.050 C 
BRANCH  29  32
HETATM   32  O2  UNL     1       2.713   8.943   7.678  1.00  0.00    -0.386 OA
HETATM   33  H19 UNL     1       2.798   9.393   8.535  1.00  0.00     0.211 HD
ENDBRANCH  29  32
ENDBRANCH  24  29
ENDBRANCH  23  24
ENDBRANCH  22  23
ENDBRANCH  20  22
ENDBRANCH   1  20
BRANCH  15  34
HETATM   34  O3  UNL     1      -9.973   6.601  14.612  1.00  0.00    -0.396 OA
HETATM   35  H39 UNL     1      -9.851   6.292  15.526  1.00  0.00     0.210 HD
ENDBRANCH  15  34
TORSDOF 9
ENDMDL
MODEL 6
REMARK minimizedAffinity -7.05249214
REMARK CNNscore 0.441366464
REMARK CNNaffinity 5.51675177
REMARK  9 active torsions:
REMARK  status: ('A' for Active; 'I' for Inactive)
REMARK    1  A    between atoms: C2_2  and  C3_3 
REMARK    2  A    between atoms: C2_2  and  C11_13 
REMARK    3  A    between atoms: C3_3  and  C4_4 
REMARK    4  A    between atoms: C4_4  and  C5_5 
REMARK    5  A    between atoms: C5_5  and  C8_9 
REMARK    6  A    between atoms: C6_6  and  C7_7 
REMARK    7  A    between atoms: C7_7  and  O1_8 
REMARK    8  A    between atoms: C8_9  and  O2_12 
REMARK    9  A    between atoms: C25_27  and  O3_28 
ROOT
HETATM    1  C11 UNL     1      -3.730  -9.859   4.403  1.00  0.00     0.005 C 
HETATM    2  C12 UNL     1      -2.500 -10.417   3.653  1.00  0.00     0.033 C 
HETATM    3  C13 UNL     1      -2.961 -10.436   2.235  1.00  0.00    -0.018 C 
HETATM    4  C14 UNL     1      -4.297 -10.370   2.148  1.00  0.00    -0.047 C 
HETATM    5  C15 UNL     1      -5.115 -10.323   0.947  1.00  0.00    -0.048 C 
HETATM    6  C16 UNL     1      -6.428  -9.986   1.022  1.00  0.00    -0.064 C 
HETATM    7  C17 UNL     1      -7.076  -9.619   2.352  1.00  0.00     0.036 C 
HETATM    8  C18 UNL     1      -6.091  -9.341   3.495  1.00  0.00     0.019 C 
HETATM    9  C19 UNL     1      -4.936 -10.349   3.528  1.00  0.00    -0.012 C 
HETATM   10  C20 UNL     1      -5.419 -11.769   3.886  1.00  0.00     0.021 C 
HETATM   11  C21 UNL     1      -7.346 -10.023  -0.222  1.00  0.00    -0.016 C 
HETATM   12  C22 UNL     1      -8.088 -11.383  -0.172  1.00  0.00     0.020 C 
HETATM   13  C23 UNL     1      -8.398  -8.877  -0.246  1.00  0.00     0.016 C 
HETATM   14  C24 UNL     1      -9.225  -8.832  -1.534  1.00  0.00     0.033 C 
HETATM   15  C25 UNL     1      -8.350  -8.770  -2.782  1.00  0.00     0.118 C 
HETATM   16  C26 UNL     1      -7.295  -9.875  -2.802  1.00  0.00     0.037 C 
HETATM   17  C27 UNL     1      -6.473  -9.865  -1.509  1.00  0.00     0.001 C 
HETATM   18  C28 UNL     1      -5.353 -10.899  -1.546  1.00  0.00     0.010 C 
HETATM   19  C29 UNL     1      -4.427 -10.715  -0.347  1.00  0.00     0.040 C 
ENDROOT
BRANCH   1  20
HETATM   20  C2  UNL     1      -3.715 -10.213   5.914  1.00  0.00    -0.013 C 
HETATM   21  C1  UNL     1      -3.705 -11.724   6.173  1.00  0.00     0.010 C 
BRANCH  20  22
HETATM   22  C3  UNL     1      -4.881  -9.547   6.699  1.00  0.00     0.009 C 
BRANCH  22  23
HETATM   23  C4  UNL     1      -5.622 -10.467   7.687  1.00  0.00     0.037 C 
BRANCH  23  24
HETATM   24  C5  UNL     1      -6.221  -9.712   8.875  1.00  0.00    -0.049 C 
HETATM   25  C6  UNL     1      -5.495  -9.475   9.992  1.00  0.00     0.004 C 
BRANCH  25  26
HETATM   26  C7  UNL     1      -4.081  -9.867  10.286  1.00  0.00     0.191 C 
BRANCH  26  27
HETATM   27  O1  UNL     1      -3.783  -9.458  11.613  1.00  0.00    -0.397 OA
HETATM   28  H12 UNL     1      -3.906  -8.493  11.641  1.00  0.00     0.209 HD
ENDBRANCH  26  27
ENDBRANCH  25  26
BRANCH  24  29
HETATM   29  C8  UNL     1      -7.659  -9.192   8.689  1.00  0.00     0.074 C 
HETATM   30  C9  UNL     1      -8.256  -9.576   7.329  1.00  0.00     0.050 C 
HETATM   31  C10 UNL     1      -8.662  -9.606   9.781  1.00  0.00     0.050 C 
BRANCH  29  32
HETATM   32  O2  UNL     1      -7.594  -7.761   8.731  1.00  0.00    -0.386 OA
HETATM   33  H19 UNL     1      -7.149  -7.526   9.563  1.00  0.00     0.211 HD
ENDBRANCH  29  32
ENDBRANCH  24  29
ENDBRANCH  23  24
ENDBRANCH  22  23
ENDBRANCH  20  22
ENDBRANCH   1  20
BRANCH  15  34
HETATM   34  O3  UNL     1      -9.166  -8.867  -3.945  1.00  0.00    -0.396 OA
HETATM   35  H39 UNL     1      -9.619  -9.727  -3.926  1.00  0.00     0.210 HD
ENDBRANCH  15  34
TORSDOF 9
ENDMDL
MODEL 7
REMARK minimizedAffinity -10.5577898
REMARK CNNscore 0.395128489
REMARK CNNaffinity 6.90464544
REMARK  9 active torsions:
REMARK  status: ('A' for Active; 'I' for Inactive)
REMARK    1  A    between atoms: C2_2  and  C3_3 
REMARK    2  A    between atoms: C2_2  and  C11_13 
REMARK    3  A    between atoms: C3_3  and  C4_4 
REMARK    4  A    between atoms: C4_4  and  C5_5 
REMARK    5  A    between atoms: C5_5  and  C8_9 
REMARK    6  A    between atoms: C6_6  and  C7_7 
REMARK    7  A    between atoms: C7_7  and  O1_8 
REMARK    8  A    between atoms: C8_9  and  O2_12 
REMARK    9  A    between atoms: C25_27  and  O3_28 
ROOT
HETATM    1  C11 UNL     1       0.420   6.777  11.702  1.00  0.00     0.005 C 
HETATM    2  C12 UNL     1       0.527   5.334  11.161  1.00  0.00     0.033 C 
HETATM    3  C13 UNL     1      -0.857   4.811  11.349  1.00  0.00    -0.018 C 
HETATM    4  C14 UNL     1      -1.551   5.549  12.225  1.00  0.00    -0.047 C 
HETATM    5  C15 UNL     1      -2.936   5.384  12.637  1.00  0.00    -0.048 C 
HETATM    6  C16 UNL     1      -3.571   6.369  13.322  1.00  0.00    -0.064 C 
HETATM    7  C17 UNL     1      -2.871   7.682  13.653  1.00  0.00     0.036 C 
HETATM    8  C18 UNL     1      -1.564   7.927  12.888  1.00  0.00     0.019 C 
HETATM    9  C19 UNL     1      -0.695   6.667  12.799  1.00  0.00    -0.012 C 
HETATM   10  C20 UNL     1      -0.159   6.238  14.180  1.00  0.00     0.021 C 
HETATM   11  C21 UNL     1      -5.010   6.184  13.859  1.00  0.00    -0.016 C 
HETATM   12  C22 UNL     1      -4.867   5.769  15.346  1.00  0.00     0.020 C 
HETATM   13  C23 UNL     1      -5.870   7.478  13.778  1.00  0.00     0.016 C 
HETATM   14  C24 UNL     1      -7.330   7.269  14.189  1.00  0.00     0.033 C 
HETATM   15  C25 UNL     1      -7.997   6.143  13.404  1.00  0.00     0.118 C 
HETATM   16  C26 UNL     1      -7.186   4.850  13.449  1.00  0.00     0.037 C 
HETATM   17  C27 UNL     1      -5.741   5.099  13.003  1.00  0.00     0.001 C 
HETATM   18  C28 UNL     1      -4.938   3.804  12.951  1.00  0.00     0.010 C 
HETATM   19  C29 UNL     1      -3.580   4.053  12.300  1.00  0.00     0.040 C 
ENDROOT
BRANCH   1  20
HETATM   20  C2  UNL     1       1.800   7.365  12.100  1.00  0.00    -0.013 C 
HETATM   21  C1  UNL     1       1.876   8.885  11.918  1.00  0.00     0.010 C 
BRANCH  20  22
HETATM   22  C3  UNL     1       2.982   6.681  11.356  1.00  0.00     0.009 C 
BRANCH  22  23
HETATM   23  C4  UNL     1       3.473   7.407  10.089  1.00  0.00     0.037 C 
BRANCH  23  24
HETATM   24  C5  UNL     1       2.971   6.763   8.796  1.00  0.00    -0.049 C 
HETATM   25  C6  UNL     1       3.205   5.458   8.526  1.00  0.00     0.004 C 
BRANCH  25  26
HETATM   26  C7  UNL     1       3.944   4.453   9.353  1.00  0.00     0.191 C 
BRANCH  26  27
HETATM   27  O1  UNL     1       3.021   3.447   9.741  1.00  0.00    -0.397 OA
HETATM   28  H12 UNL     1       2.320   3.892  10.250  1.00  0.00     0.209 HD
ENDBRANCH  26  27
ENDBRANCH  25  26
BRANCH  24  29
HETATM   29  C8  UNL     1       2.136   7.670   7.870  1.00  0.00     0.074 C 
HETATM   30  C9  UNL     1       1.809   7.003   6.528  1.00  0.00     0.050 C 
HETATM   31  C10 UNL     1       0.822   8.200   8.469  1.00  0.00     0.050 C 
BRANCH  29  32
HETATM   32  O2  UNL     1       2.937   8.823   7.584  1.00  0.00    -0.386 OA
HETATM   33  H19 UNL     1       3.202   9.199   8.440  1.00  0.00     0.211 HD
ENDBRANCH  29  32
ENDBRANCH  24  29
ENDBRANCH  23  24
ENDBRANCH  22  23
ENDBRANCH  20  22
ENDBRANCH   1  20
BRANCH  15  34
HETATM   34  O3  UNL     1      -9.303   5.907  13.921  1.00  0.00    -0.396 OA
HETATM   35  H39 UNL     1      -9.215   5.630  14.849  1.00  0.00     0.210 HD
ENDBRANCH  15  34
TORSDOF 9
ENDMDL
MODEL 8
REMARK minimizedAffinity -7.95282125
REMARK CNNscore 0.391409785
REMARK CNNaffinity 6.54444075
REMARK  9 active torsions:
REMARK  status: ('A' for Active; 'I' for Inactive)
REMARK    1  A    between atoms: C2_2  and  C3_3 
REMARK    2  A    between atoms: C2_2  and  C11_13 
REMARK    3  A    between atoms: C3_3  and  C4_4 
REMARK    4  A    between atoms: C4_4  and  C5_5 
REMARK    5  A    between atoms: C5_5  and  C8_9 
REMARK    6  A    between atoms: C6_6  and  C7_7 
REMARK    7  A    between atoms: C7_7  and  O1_8 
REMARK    8  A    between atoms: C8_9  and  O2_12 
REMARK    9  A    between atoms: C25_27  and  O3_28 
ROOT
HETATM    1  C11 UNL     1      -1.527  10.579  18.362  1.00  0.00     0.005 C 
HETATM    2  C12 UNL     1      -2.827  11.378  18.606  1.00  0.00     0.033 C 
HETATM    3  C13 UNL     1      -3.822  10.650  17.768  1.00  0.00    -0.018 C 
HETATM    4  C14 UNL     1      -3.225   9.882  16.847  1.00  0.00    -0.047 C 
HETATM    5  C15 UNL     1      -3.849   8.995  15.877  1.00  0.00    -0.048 C 
HETATM    6  C16 UNL     1      -3.106   8.085  15.199  1.00  0.00    -0.064 C 
HETATM    7  C17 UNL     1      -1.609   7.942  15.448  1.00  0.00     0.036 C 
HETATM    8  C18 UNL     1      -1.096   8.639  16.714  1.00  0.00     0.019 C 
HETATM    9  C19 UNL     1      -1.712  10.031  16.905  1.00  0.00    -0.012 C 
HETATM   10  C20 UNL     1      -1.256  11.018  15.812  1.00  0.00     0.021 C 
HETATM   11  C21 UNL     1      -3.723   7.198  14.092  1.00  0.00    -0.016 C 
HETATM   12  C22 UNL     1      -3.400   7.896  12.746  1.00  0.00     0.020 C 
HETATM   13  C23 UNL     1      -3.141   5.755  14.063  1.00  0.00     0.016 C 
HETATM   14  C24 UNL     1      -3.837   4.835  13.055  1.00  0.00     0.033 C 
HETATM   15  C25 UNL     1      -5.348   4.790  13.260  1.00  0.00     0.118 C 
HETATM   16  C26 UNL     1      -5.966   6.186  13.301  1.00  0.00     0.037 C 
HETATM   17  C27 UNL     1      -5.260   7.062  14.342  1.00  0.00     0.001 C 
HETATM   18  C28 UNL     1      -5.922   8.431  14.466  1.00  0.00     0.010 C 
HETATM   19  C29 UNL     1      -5.336   9.191  15.653  1.00  0.00     0.040 C 
ENDROOT
BRANCH   1  20
HETATM   20  C2  UNL     1      -0.253  11.404  18.690  1.00  0.00    -0.013 C 
HETATM   21  C1  UNL     1       0.824  11.295  17.605  1.00  0.00     0.010 C 
BRANCH  20  22
HETATM   22  C3  UNL     1       0.352  11.048  20.078  1.00  0.00     0.009 C 
BRANCH  22  23
HETATM   23  C4  UNL     1       1.866  10.763  20.084  1.00  0.00     0.037 C 
BRANCH  23  24
HETATM   24  C5  UNL     1       2.529  11.075  21.426  1.00  0.00    -0.049 C 
HETATM   25  C6  UNL     1       2.609  12.344  21.889  1.00  0.00     0.004 C 
BRANCH  25  26
HETATM   26  C7  UNL     1       2.119  13.604  21.247  1.00  0.00     0.191 C 
BRANCH  26  27
HETATM   27  O1  UNL     1       3.021  14.646  21.589  1.00  0.00    -0.397 OA
HETATM   28  H12 UNL     1       3.019  14.708  22.561  1.00  0.00     0.209 HD
ENDBRANCH  26  27
ENDBRANCH  25  26
BRANCH  24  29
HETATM   29  C8  UNL     1       3.029   9.860  22.231  1.00  0.00     0.074 C 
HETATM   30  C9  UNL     1       3.351  10.209  23.690  1.00  0.00     0.050 C 
HETATM   31  C10 UNL     1       2.099   8.634  22.231  1.00  0.00     0.050 C 
BRANCH  29  32
HETATM   32  O2  UNL     1       4.253   9.432  21.621  1.00  0.00    -0.386 OA
HETATM   33  H19 UNL     1       4.059   9.281  20.681  1.00  0.00     0.211 HD
ENDBRANCH  29  32
ENDBRANCH  24  29
ENDBRANCH  23  24
ENDBRANCH  22  23
ENDBRANCH  20  22
ENDBRANCH   1  20
BRANCH  15  34
HETATM   34  O3  UNL     1      -5.950   4.031  12.217  1.00  0.00    -0.396 OA
HETATM   35  H39 UNL     1      -5.764   4.476  11.373  1.00  0.00     0.210 HD
ENDBRANCH  15  34
TORSDOF 9
ENDMDL
MODEL 9
REMARK minimizedAffinity -9.36296272
REMARK CNNscore 0.364817023
REMARK CNNaffinity 6.60236692
REMARK  9 active torsions:
REMARK  status: ('A' for Active; 'I' for Inactive)
REMARK    1  A    between atoms: C2_2  and  C3_3 
REMARK    2  A    between atoms: C2_2  and  C11_13 
REMARK    3  A    between atoms: C3_3  and  C4_4 
REMARK    4  A    between atoms: C4_4  and  C5_5 
REMARK    5  A    between atoms: C5_5  and  C8_9 
REMARK    6  A    between atoms: C6_6  and  C7_7 
REMARK    7  A    between atoms: C7_7  and  O1_8 
REMARK    8  A    between atoms: C8_9  and  O2_12 
REMARK    9  A    between atoms: C25_27  and  O3_28 
ROOT
HETATM    1  C11 UNL     1      -1.484   5.623  13.046  1.00  0.00     0.005 C 
HETATM    2  C12 UNL     1      -1.504   4.895  11.683  1.00  0.00     0.033 C 
HETATM    3  C13 UNL     1      -0.090   5.017  11.226  1.00  0.00    -0.018 C 
HETATM    4  C14 UNL     1       0.562   5.984  11.885  1.00  0.00    -0.047 C 
HETATM    5  C15 UNL     1       1.957   6.376  11.753  1.00  0.00    -0.048 C 
HETATM    6  C16 UNL     1       2.533   7.186  12.676  1.00  0.00    -0.064 C 
HETATM    7  C17 UNL     1       1.755   7.686  13.888  1.00  0.00     0.036 C 
HETATM    8  C18 UNL     1       0.432   6.956  14.151  1.00  0.00     0.019 C 
HETATM    9  C19 UNL     1      -0.359   6.699  12.862  1.00  0.00    -0.012 C 
HETATM   10  C20 UNL     1      -0.860   8.010  12.222  1.00  0.00     0.021 C 
HETATM   11  C21 UNL     1       3.984   7.699  12.511  1.00  0.00    -0.016 C 
HETATM   12  C22 UNL     1       3.874   9.118  11.897  1.00  0.00     0.020 C 
HETATM   13  C23 UNL     1       4.761   7.792  13.856  1.00  0.00     0.016 C 
HETATM   14  C24 UNL     1       6.234   8.176  13.686  1.00  0.00     0.033 C 
HETATM   15  C25 UNL     1       6.965   7.252  12.717  1.00  0.00     0.118 C 
HETATM   16  C26 UNL     1       6.236   7.124  11.381  1.00  0.00     0.037 C 
HETATM   17  C27 UNL     1       4.776   6.710  11.596  1.00  0.00     0.001 C 
HETATM   18  C28 UNL     1       4.054   6.485  10.272  1.00  0.00     0.010 C 
HETATM   19  C29 UNL     1       2.680   5.868  10.521  1.00  0.00     0.040 C 
ENDROOT
BRANCH   1  20
HETATM   20  C2  UNL     1      -2.896   6.091  13.490  1.00  0.00    -0.013 C 
HETATM   21  C1  UNL     1      -3.132   5.931  14.996  1.00  0.00     0.010 C 
BRANCH  20  22
HETATM   22  C3  UNL     1      -4.037   5.392  12.696  1.00  0.00     0.009 C 
BRANCH  22  23
HETATM   23  C4  UNL     1      -4.888   4.394  13.504  1.00  0.00     0.037 C 
BRANCH  23  24
HETATM   24  C5  UNL     1      -6.171   3.980  12.784  1.00  0.00    -0.049 C 
HETATM   25  C6  UNL     1      -6.140   3.133  11.728  1.00  0.00     0.004 C 
BRANCH  25  26
HETATM   26  C7  UNL     1      -4.953   2.482  11.091  1.00  0.00     0.191 C 
BRANCH  26  27
HETATM   27  O1  UNL     1      -5.130   1.076  11.180  1.00  0.00    -0.397 OA
HETATM   28  H12 UNL     1      -5.196   0.862  12.127  1.00  0.00     0.209 HD
ENDBRANCH  26  27
ENDBRANCH  25  26
BRANCH  24  29
HETATM   29  C8  UNL     1      -7.485   4.530  13.373  1.00  0.00     0.074 C 
HETATM   30  C9  UNL     1      -7.317   5.052  14.805  1.00  0.00     0.050 C 
HETATM   31  C10 UNL     1      -8.174   5.629  12.545  1.00  0.00     0.050 C 
BRANCH  29  32
HETATM   32  O2  UNL     1      -8.407   3.436  13.428  1.00  0.00    -0.386 OA
HETATM   33  H19 UNL     1      -8.454   3.064  12.532  1.00  0.00     0.211 HD
ENDBRANCH  29  32
ENDBRANCH  24  29
ENDBRANCH  23  24
ENDBRANCH  22  23
ENDBRANCH  20  22
ENDBRANCH   1  20
BRANCH  15  34
HETATM   34  O3  UNL     1       8.286   7.738  12.496  1.00  0.00    -0.396 OA
HETATM   35  H39 UNL     1       8.220   8.620  12.094  1.00  0.00     0.210 HD
ENDBRANCH  15  34
TORSDOF 9
ENDMDL
