MODEL 1
REMARK minimizedAffinity -8.43070507
REMARK CNNscore 0.540194213
REMARK CNNaffinity 7.23010588
REMARK  5 active torsions:
REMARK  status: ('A' for Active; 'I' for Inactive)
REMARK    1  A    between atoms: C2_2  and  C25_28 
REMARK    2  A    between atoms: C3_3  and  C4_4 
REMARK    3  A    between atoms: C4_4  and  C6_6 
REMARK    4  A    between atoms: C15_15  and  O1_16 
REMARK    5  A    between atoms: C25_28  and  C27_30 
ROOT
HETATM    1  C6  UNL     1      -2.255   5.875  12.881  1.00  0.00     0.001 C 
HETATM    2  C7  UNL     1      -2.813   4.700  12.021  1.00  0.00     0.006 C 
HETATM    3  C8  UNL     1      -4.327   4.635  12.272  1.00  0.00     0.009 C 
HETATM    4  C9  UNL     1      -4.610   5.880  13.104  1.00  0.00     0.036 C 
HETATM    5  C10 UNL     1      -5.962   6.017  13.814  1.00  0.00     0.123 C 
HETATM    6  C11 UNL     1      -6.413   4.864  14.676  1.00  0.00     0.014 C 
HETATM    7  C12 UNL     1      -7.649   5.016  15.171  1.00  0.00     0.014 C 
HETATM    8  C13 UNL     1      -8.287   6.343  14.817  1.00  0.00     0.124 C 
HETATM    9  C14 UNL     1      -9.738   6.446  15.297  1.00  0.00     0.078 C 
HETATM   10  C15 UNL     1     -10.353   7.804  14.952  1.00  0.00     0.121 C 
HETATM   11  C16 UNL     1      -9.503   8.979  15.435  1.00  0.00     0.033 C 
HETATM   12  C17 UNL     1      -8.053   8.875  14.962  1.00  0.00     0.015 C 
HETATM   13  C18 UNL     1      -7.385   7.519  15.334  1.00  0.00     0.001 C 
HETATM   14  C19 UNL     1      -7.222   7.467  16.876  1.00  0.00     0.019 C 
HETATM   15  C20 UNL     1      -6.003   7.390  14.569  1.00  0.00     0.039 C 
HETATM   16  C21 UNL     1      -4.736   7.665  15.405  1.00  0.00     0.010 C 
HETATM   17  C22 UNL     1      -3.431   7.460  14.613  1.00  0.00     0.010 C 
HETATM   18  C23 UNL     1      -3.347   6.054  13.986  1.00  0.00    -0.033 C 
HETATM   19  C24 UNL     1      -3.179   4.992  15.095  1.00  0.00     0.016 C 
HETATM   20  O2  UNL     1      -8.310   6.438  13.366  1.00  0.00    -0.223 OA
HETATM   21  O3  UNL     1      -6.978   6.101  12.777  1.00  0.00    -0.224 OA
ENDROOT
BRANCH   1  22
HETATM   22  C4  UNL     1      -0.778   5.636  13.295  1.00  0.00     0.009 C 
HETATM   23  C5  UNL     1      -0.242   6.699  14.255  1.00  0.00     0.014 C 
BRANCH  22  24
HETATM   24  C3  UNL     1       0.113   5.634  12.064  1.00  0.00    -0.019 C 
HETATM   25  C2  UNL     1       0.454   6.673  11.272  1.00  0.00    -0.083 C 
HETATM   26  C1  UNL     1      -0.046   8.084  11.449  1.00  0.00     0.043 C 
BRANCH  25  27
HETATM   27  C25 UNL     1       1.398   6.490  10.076  1.00  0.00     0.013 C 
HETATM   28  C26 UNL     1       2.606   5.636  10.491  1.00  0.00     0.015 C 
BRANCH  27  29
HETATM   29  C27 UNL     1       1.810   7.839   9.410  1.00  0.00    -0.015 C 
HETATM   30  C28 UNL     1       1.118   8.030   8.052  1.00  0.00     0.010 C 
HETATM   31  C29 UNL     1       3.326   7.944   9.208  1.00  0.00     0.010 C 
ENDBRANCH  27  29
ENDBRANCH  25  27
ENDBRANCH  22  24
ENDBRANCH   1  22
BRANCH  10  32
HETATM   32  O1  UNL     1     -11.654   7.897  15.531  1.00  0.00    -0.395 OA
HETATM   33  H20 UNL     1     -11.560   7.856  16.500  1.00  0.00     0.210 HD
ENDBRANCH  10  32
TORSDOF 5
ENDMDL
MODEL 2
REMARK minimizedAffinity -7.18931341
REMARK CNNscore 0.469058752
REMARK CNNaffinity 6.1843338
REMARK  5 active torsions:
REMARK  status: ('A' for Active; 'I' for Inactive)
REMARK    1  A    between atoms: C2_2  and  C25_28 
REMARK    2  A    between atoms: C3_3  and  C4_4 
REMARK    3  A    between atoms: C4_4  and  C6_6 
REMARK    4  A    between atoms: C15_15  and  O1_16 
REMARK    5  A    between atoms: C25_28  and  C27_30 
ROOT
HETATM    1  C6  UNL     1       3.225   9.059  12.594  1.00  0.00     0.001 C 
HETATM    2  C7  UNL     1       2.818  10.468  13.122  1.00  0.00     0.006 C 
HETATM    3  C8  UNL     1       4.050  11.062  13.822  1.00  0.00     0.009 C 
HETATM    4  C9  UNL     1       5.160  10.069  13.505  1.00  0.00     0.036 C 
HETATM    5  C10 UNL     1       6.482  10.149  14.277  1.00  0.00     0.123 C 
HETATM    6  C11 UNL     1       6.405  10.175  15.784  1.00  0.00     0.014 C 
HETATM    7  C12 UNL     1       7.593  10.355  16.378  1.00  0.00     0.014 C 
HETATM    8  C13 UNL     1       8.755  10.417  15.410  1.00  0.00     0.124 C 
HETATM    9  C14 UNL     1      10.083  10.736  16.102  1.00  0.00     0.078 C 
HETATM   10  C15 UNL     1      11.247  10.768  15.109  1.00  0.00     0.121 C 
HETATM   11  C16 UNL     1      11.332   9.500  14.258  1.00  0.00     0.033 C 
HETATM   12  C17 UNL     1      10.005   9.176  13.571  1.00  0.00     0.015 C 
HETATM   13  C18 UNL     1       8.808   9.097  14.561  1.00  0.00     0.001 C 
HETATM   14  C19 UNL     1       9.009   7.854  15.467  1.00  0.00     0.019 C 
HETATM   15  C20 UNL     1       7.453   9.041  13.740  1.00  0.00     0.039 C 
HETATM   16  C21 UNL     1       6.790   7.653  13.619  1.00  0.00     0.010 C 
HETATM   17  C22 UNL     1       5.449   7.688  12.862  1.00  0.00     0.010 C 
HETATM   18  C23 UNL     1       4.454   8.688  13.486  1.00  0.00    -0.033 C 
HETATM   19  C24 UNL     1       3.991   8.179  14.868  1.00  0.00     0.016 C 
HETATM   20  O2  UNL     1       8.486  11.503  14.480  1.00  0.00    -0.223 OA
HETATM   21  O3  UNL     1       7.098  11.421  13.933  1.00  0.00    -0.224 OA
ENDROOT
BRANCH   1  22
HETATM   22  C4  UNL     1       2.010   8.095  12.526  1.00  0.00     0.009 C 
HETATM   23  C5  UNL     1       2.200   6.826  13.358  1.00  0.00     0.014 C 
BRANCH  22  24
HETATM   24  C3  UNL     1       1.762   7.672  11.088  1.00  0.00    -0.019 C 
HETATM   25  C2  UNL     1       2.505   6.850  10.314  1.00  0.00    -0.083 C 
HETATM   26  C1  UNL     1       3.798   6.207  10.744  1.00  0.00     0.043 C 
BRANCH  25  27
HETATM   27  C25 UNL     1       2.083   6.507   8.879  1.00  0.00     0.013 C 
HETATM   28  C26 UNL     1       3.032   5.449   8.295  1.00  0.00     0.015 C 
BRANCH  27  29
HETATM   29  C27 UNL     1       1.940   7.763   7.966  1.00  0.00    -0.015 C 
HETATM   30  C28 UNL     1       1.718   7.370   6.498  1.00  0.00     0.010 C 
HETATM   31  C29 UNL     1       3.166   8.679   8.051  1.00  0.00     0.010 C 
ENDBRANCH  27  29
ENDBRANCH  25  27
ENDBRANCH  22  24
ENDBRANCH   1  22
BRANCH  10  32
HETATM   32  O1  UNL     1      12.472  10.939  15.819  1.00  0.00    -0.395 OA
HETATM   33  H20 UNL     1      12.601  10.166  16.396  1.00  0.00     0.210 HD
ENDBRANCH  10  32
TORSDOF 5
ENDMDL
MODEL 3
REMARK minimizedAffinity -6.83450699
REMARK CNNscore 0.464330882
REMARK CNNaffinity 6.29674911
REMARK  5 active torsions:
REMARK  status: ('A' for Active; 'I' for Inactive)
REMARK    1  A    between atoms: C2_2  and  C25_28 
REMARK    2  A    between atoms: C3_3  and  C4_4 
REMARK    3  A    between atoms: C4_4  and  C6_6 
REMARK    4  A    between atoms: C15_15  and  O1_16 
REMARK    5  A    between atoms: C25_28  and  C27_30 
ROOT
HETATM    1  C6  UNL     1     -15.526   6.120  24.348  1.00  0.00     0.001 C 
HETATM    2  C7  UNL     1     -14.896   5.873  25.753  1.00  0.00     0.006 C 
HETATM    3  C8  UNL     1     -13.948   7.049  26.036  1.00  0.00     0.009 C 
HETATM    4  C9  UNL     1     -14.213   8.012  24.885  1.00  0.00     0.036 C 
HETATM    5  C10 UNL     1     -13.245   9.175  24.641  1.00  0.00     0.123 C 
HETATM    6  C11 UNL     1     -11.775   8.845  24.540  1.00  0.00     0.014 C 
HETATM    7  C12 UNL     1     -10.989   9.926  24.436  1.00  0.00     0.014 C 
HETATM    8  C13 UNL     1     -11.754  11.230  24.369  1.00  0.00     0.124 C 
HETATM    9  C14 UNL     1     -10.832  12.454  24.365  1.00  0.00     0.078 C 
HETATM   10  C15 UNL     1     -11.625  13.759  24.270  1.00  0.00     0.121 C 
HETATM   11  C16 UNL     1     -12.604  13.773  23.095  1.00  0.00     0.033 C 
HETATM   12  C17 UNL     1     -13.520  12.549  23.093  1.00  0.00     0.015 C 
HETATM   13  C18 UNL     1     -12.741  11.203  23.149  1.00  0.00     0.001 C 
HETATM   14  C19 UNL     1     -11.976  11.030  21.810  1.00  0.00     0.019 C 
HETATM   15  C20 UNL     1     -13.760  10.021  23.426  1.00  0.00     0.039 C 
HETATM   16  C21 UNL     1     -14.152   9.161  22.206  1.00  0.00     0.010 C 
HETATM   17  C22 UNL     1     -15.094   7.997  22.564  1.00  0.00     0.010 C 
HETATM   18  C23 UNL     1     -14.510   7.095  23.671  1.00  0.00    -0.033 C 
HETATM   19  C24 UNL     1     -13.288   6.321  23.129  1.00  0.00     0.016 C 
HETATM   20  O2  UNL     1     -12.571  11.315  25.569  1.00  0.00    -0.223 OA
HETATM   21  O3  UNL     1     -13.330  10.049  25.801  1.00  0.00    -0.224 OA
ENDROOT
BRANCH   1  22
HETATM   22  C4  UNL     1     -15.897   4.788  23.641  1.00  0.00     0.009 C 
HETATM   23  C5  UNL     1     -17.405   4.550  23.557  1.00  0.00     0.014 C 
BRANCH  22  24
HETATM   24  C3  UNL     1     -15.285   3.615  24.389  1.00  0.00    -0.019 C 
HETATM   25  C2  UNL     1     -14.262   2.820  24.009  1.00  0.00    -0.083 C 
HETATM   26  C1  UNL     1     -13.534   2.929  22.694  1.00  0.00     0.043 C 
BRANCH  25  27
HETATM   27  C25 UNL     1     -13.750   1.689  24.913  1.00  0.00     0.013 C 
HETATM   28  C26 UNL     1     -14.815   1.339  25.964  1.00  0.00     0.015 C 
BRANCH  27  29
HETATM   29  C27 UNL     1     -12.356   1.993  25.542  1.00  0.00    -0.015 C 
HETATM   30  C28 UNL     1     -11.248   1.156  24.884  1.00  0.00     0.010 C 
HETATM   31  C29 UNL     1     -12.336   1.735  27.053  1.00  0.00     0.010 C 
ENDBRANCH  27  29
ENDBRANCH  25  27
ENDBRANCH  22  24
ENDBRANCH   1  22
BRANCH  10  32
HETATM   32  O1  UNL     1     -10.721  14.855  24.140  1.00  0.00    -0.395 OA
HETATM   33  H20 UNL     1     -10.231  14.749  23.305  1.00  0.00     0.210 HD
ENDBRANCH  10  32
TORSDOF 5
ENDMDL
MODEL 4
REMARK minimizedAffinity -7.25053596
REMARK CNNscore 0.423169464
REMARK CNNaffinity 6.22591543
REMARK  5 active torsions:
REMARK  status: ('A' for Active; 'I' for Inactive)
REMARK    1  A    between atoms: C2_2  and  C25_28 
REMARK    2  A    between atoms: C3_3  and  C4_4 
REMARK    3  A    between atoms: C4_4  and  C6_6 
REMARK    4  A    between atoms: C15_15  and  O1_16 
REMARK    5  A    between atoms: C25_28  and  C27_30 
ROOT
HETATM    1  C6  UNL     1      -2.255   9.932  15.981  1.00  0.00     0.001 C 
HETATM    2  C7  UNL     1      -1.024   9.913  16.937  1.00  0.00     0.006 C 
HETATM    3  C8  UNL     1       0.131   9.245  16.175  1.00  0.00     0.009 C 
HETATM    4  C9  UNL     1      -0.415   9.083  14.761  1.00  0.00     0.036 C 
HETATM    5  C10 UNL     1       0.327   8.180  13.769  1.00  0.00     0.123 C 
HETATM    6  C11 UNL     1       0.658   6.778  14.220  1.00  0.00     0.014 C 
HETATM    7  C12 UNL     1       1.400   6.093  13.339  1.00  0.00     0.014 C 
HETATM    8  C13 UNL     1       1.677   6.850  12.058  1.00  0.00     0.124 C 
HETATM    9  C14 UNL     1       2.619   6.092  11.117  1.00  0.00     0.078 C 
HETATM   10  C15 UNL     1       2.864   6.864   9.819  1.00  0.00     0.121 C 
HETATM   11  C16 UNL     1       1.566   7.278   9.123  1.00  0.00     0.033 C 
HETATM   12  C17 UNL     1       0.622   8.029  10.061  1.00  0.00     0.015 C 
HETATM   13  C18 UNL     1       0.321   7.251  11.375  1.00  0.00     0.001 C 
HETATM   14  C19 UNL     1      -0.519   5.997  11.015  1.00  0.00     0.019 C 
HETATM   15  C20 UNL     1      -0.423   8.212  12.393  1.00  0.00     0.039 C 
HETATM   16  C21 UNL     1      -1.947   8.014  12.523  1.00  0.00     0.010 C 
HETATM   17  C22 UNL     1      -2.590   8.939  13.573  1.00  0.00     0.010 C 
HETATM   18  C23 UNL     1      -1.926   8.796  14.958  1.00  0.00    -0.033 C 
HETATM   19  C24 UNL     1      -2.251   7.411  15.558  1.00  0.00     0.016 C 
HETATM   20  O2  UNL     1       2.345   8.089  12.424  1.00  0.00    -0.223 OA
HETATM   21  O3  UNL     1       1.626   8.789  13.531  1.00  0.00    -0.224 OA
ENDROOT
BRANCH   1  22
HETATM   22  C4  UNL     1      -3.595   9.892  16.764  1.00  0.00     0.009 C 
HETATM   23  C5  UNL     1      -4.806  10.264  15.908  1.00  0.00     0.014 C 
BRANCH  22  24
HETATM   24  C3  UNL     1      -3.541  10.861  17.934  1.00  0.00    -0.019 C 
HETATM   25  C2  UNL     1      -3.501  12.211  17.905  1.00  0.00    -0.083 C 
HETATM   26  C1  UNL     1      -3.457  13.039  16.648  1.00  0.00     0.043 C 
BRANCH  25  27
HETATM   27  C25 UNL     1      -3.481  13.037  19.199  1.00  0.00     0.013 C 
HETATM   28  C26 UNL     1      -4.873  13.024  19.849  1.00  0.00     0.015 C 
BRANCH  27  29
HETATM   29  C27 UNL     1      -2.920  14.478  18.995  1.00  0.00    -0.015 C 
HETATM   30  C28 UNL     1      -1.570  14.663  19.704  1.00  0.00     0.010 C 
HETATM   31  C29 UNL     1      -3.892  15.551  19.500  1.00  0.00     0.010 C 
ENDBRANCH  27  29
ENDBRANCH  25  27
ENDBRANCH  22  24
ENDBRANCH   1  22
BRANCH  10  32
HETATM   32  O1  UNL     1       3.638   6.061   8.929  1.00  0.00    -0.395 OA
HETATM   33  H20 UNL     1       3.120   5.268   8.704  1.00  0.00     0.210 HD
ENDBRANCH  10  32
TORSDOF 5
ENDMDL
MODEL 5
REMARK minimizedAffinity -7.20039558
REMARK CNNscore 0.375389814
REMARK CNNaffinity 6.49313736
REMARK  5 active torsions:
REMARK  status: ('A' for Active; 'I' for Inactive)
REMARK    1  A    between atoms: C2_2  and  C25_28 
REMARK    2  A    between atoms: C3_3  and  C4_4 
REMARK    3  A    between atoms: C4_4  and  C6_6 
REMARK    4  A    between atoms: C15_15  and  O1_16 
REMARK    5  A    between atoms: C25_28  and  C27_30 
ROOT
HETATM    1  C6  UNL     1      -2.151  11.360  15.281  1.00  0.00     0.001 C 
HETATM    2  C7  UNL     1      -0.843  10.818  14.630  1.00  0.00     0.006 C 
HETATM    3  C8  UNL     1      -1.145   9.400  14.121  1.00  0.00     0.009 C 
HETATM    4  C9  UNL     1      -2.649   9.257  14.322  1.00  0.00     0.036 C 
HETATM    5  C10 UNL     1      -3.292   7.869  14.214  1.00  0.00     0.123 C 
HETATM    6  C11 UNL     1      -2.684   6.757  15.034  1.00  0.00     0.014 C 
HETATM    7  C12 UNL     1      -3.233   5.557  14.801  1.00  0.00     0.014 C 
HETATM    8  C13 UNL     1      -4.389   5.597  13.824  1.00  0.00     0.124 C 
HETATM    9  C14 UNL     1      -4.926   4.202  13.488  1.00  0.00     0.078 C 
HETATM   10  C15 UNL     1      -6.109   4.268  12.521  1.00  0.00     0.121 C 
HETATM   11  C16 UNL     1      -7.215   5.208  13.003  1.00  0.00     0.033 C 
HETATM   12  C17 UNL     1      -6.681   6.599  13.345  1.00  0.00     0.015 C 
HETATM   13  C18 UNL     1      -5.501   6.568  14.358  1.00  0.00     0.001 C 
HETATM   14  C19 UNL     1      -6.052   6.093  15.729  1.00  0.00     0.019 C 
HETATM   15  C20 UNL     1      -4.838   8.006  14.433  1.00  0.00     0.039 C 
HETATM   16  C21 UNL     1      -5.208   8.862  15.662  1.00  0.00     0.010 C 
HETATM   17  C22 UNL     1      -4.479  10.218  15.697  1.00  0.00     0.010 C 
HETATM   18  C23 UNL     1      -2.947  10.057  15.616  1.00  0.00    -0.033 C 
HETATM   19  C24 UNL     1      -2.415   9.411  16.914  1.00  0.00     0.016 C 
HETATM   20  O2  UNL     1      -3.890   6.172  12.585  1.00  0.00    -0.223 OA
HETATM   21  O3  UNL     1      -3.120   7.427  12.839  1.00  0.00    -0.224 OA
ENDROOT
BRANCH   1  22
HETATM   22  C4  UNL     1      -1.852  12.385  16.408  1.00  0.00     0.009 C 
HETATM   23  C5  UNL     1      -1.407  11.730  17.716  1.00  0.00     0.014 C 
BRANCH  22  24
HETATM   24  C3  UNL     1      -3.095  13.210  16.704  1.00  0.00    -0.019 C 
HETATM   25  C2  UNL     1      -3.937  13.111  17.755  1.00  0.00    -0.083 C 
HETATM   26  C1  UNL     1      -3.817  12.089  18.855  1.00  0.00     0.043 C 
BRANCH  25  27
HETATM   27  C25 UNL     1      -5.137  14.057  17.908  1.00  0.00     0.013 C 
HETATM   28  C26 UNL     1      -5.952  13.667  19.150  1.00  0.00     0.015 C 
BRANCH  27  29
HETATM   29  C27 UNL     1      -6.007  14.156  16.618  1.00  0.00    -0.015 C 
HETATM   30  C28 UNL     1      -5.985  15.576  16.032  1.00  0.00     0.010 C 
HETATM   31  C29 UNL     1      -7.463  13.750  16.872  1.00  0.00     0.010 C 
ENDBRANCH  27  29
ENDBRANCH  25  27
ENDBRANCH  22  24
ENDBRANCH   1  22
BRANCH  10  32
HETATM   32  O1  UNL     1      -6.651   2.960  12.344  1.00  0.00    -0.395 OA
HETATM   33  H20 UNL     1      -6.991   2.652  13.202  1.00  0.00     0.210 HD
ENDBRANCH  10  32
TORSDOF 5
ENDMDL
MODEL 6
REMARK minimizedAffinity -7.09231663
REMARK CNNscore 0.366523564
REMARK CNNaffinity 6.39701653
REMARK  5 active torsions:
REMARK  status: ('A' for Active; 'I' for Inactive)
REMARK    1  A    between atoms: C2_2  and  C25_28 
REMARK    2  A    between atoms: C3_3  and  C4_4 
REMARK    3  A    between atoms: C4_4  and  C6_6 
REMARK    4  A    between atoms: C15_15  and  O1_16 
REMARK    5  A    between atoms: C25_28  and  C27_30 
ROOT
HETATM    1  C6  UNL     1     -10.808   8.823  14.180  1.00  0.00     0.001 C 
HETATM    2  C7  UNL     1     -10.754   7.271  14.041  1.00  0.00     0.006 C 
HETATM    3  C8  UNL     1     -12.153   6.807  13.609  1.00  0.00     0.009 C 
HETATM    4  C9  UNL     1     -12.896   8.108  13.331  1.00  0.00     0.036 C 
HETATM    5  C10 UNL     1     -14.420   8.081  13.165  1.00  0.00     0.123 C 
HETATM    6  C11 UNL     1     -15.224   7.399  14.245  1.00  0.00     0.014 C 
HETATM    7  C12 UNL     1     -16.534   7.324  13.971  1.00  0.00     0.014 C 
HETATM    8  C13 UNL     1     -16.925   8.005  12.677  1.00  0.00     0.124 C 
HETATM    9  C14 UNL     1     -18.404   7.807  12.331  1.00  0.00     0.078 C 
HETATM   10  C15 UNL     1     -18.783   8.525  11.034  1.00  0.00     0.121 C 
HETATM   11  C16 UNL     1     -18.385  10.002  11.037  1.00  0.00     0.033 C 
HETATM   12  C17 UNL     1     -16.911  10.202  11.389  1.00  0.00     0.015 C 
HETATM   13  C18 UNL     1     -16.503   9.516  12.725  1.00  0.00     0.001 C 
HETATM   14  C19 UNL     1     -17.211  10.261  13.887  1.00  0.00     0.019 C 
HETATM   15  C20 UNL     1     -14.924   9.534  12.861  1.00  0.00     0.039 C 
HETATM   16  C21 UNL     1     -14.337  10.596  13.813  1.00  0.00     0.010 C 
HETATM   17  C22 UNL     1     -12.804  10.512  13.942  1.00  0.00     0.010 C 
HETATM   18  C23 UNL     1     -12.333   9.108  14.373  1.00  0.00    -0.033 C 
HETATM   19  C24 UNL     1     -12.759   8.834  15.832  1.00  0.00     0.016 C 
HETATM   20  O2  UNL     1     -16.151   7.387  11.612  1.00  0.00    -0.223 OA
HETATM   21  O3  UNL     1     -14.703   7.302  11.970  1.00  0.00    -0.224 OA
ENDROOT
BRANCH   1  22
HETATM   22  C4  UNL     1      -9.793   9.344  15.233  1.00  0.00     0.009 C 
HETATM   23  C5  UNL     1      -9.694  10.870  15.272  1.00  0.00     0.014 C 
BRANCH  22  24
HETATM   24  C3  UNL     1      -8.406   8.798  14.932  1.00  0.00    -0.019 C 
HETATM   25  C2  UNL     1      -7.718   7.844  15.595  1.00  0.00    -0.083 C 
HETATM   26  C1  UNL     1      -8.205   7.143  16.837  1.00  0.00     0.043 C 
BRANCH  25  27
HETATM   27  C25 UNL     1      -6.328   7.391  15.127  1.00  0.00     0.013 C 
HETATM   28  C26 UNL     1      -5.705   8.468  14.225  1.00  0.00     0.015 C 
BRANCH  27  29
HETATM   29  C27 UNL     1      -6.334   5.978  14.469  1.00  0.00    -0.015 C 
HETATM   30  C28 UNL     1      -4.951   5.612  13.908  1.00  0.00     0.010 C 
HETATM   31  C29 UNL     1      -7.366   5.872  13.340  1.00  0.00     0.010 C 
ENDBRANCH  27  29
ENDBRANCH  25  27
ENDBRANCH  22  24
ENDBRANCH   1  22
BRANCH  10  32
HETATM   32  O1  UNL     1     -20.190   8.419  10.826  1.00  0.00    -0.395 OA
HETATM   33  H20 UNL     1     -20.642   8.878  11.557  1.00  0.00     0.210 HD
ENDBRANCH  10  32
TORSDOF 5
ENDMDL
MODEL 7
REMARK minimizedAffinity -7.02166319
REMARK CNNscore 0.356514543
REMARK CNNaffinity 6.49877405
REMARK  5 active torsions:
REMARK  status: ('A' for Active; 'I' for Inactive)
REMARK    1  A    between atoms: C2_2  and  C25_28 
REMARK    2  A    between atoms: C3_3  and  C4_4 
REMARK    3  A    between atoms: C4_4  and  C6_6 
REMARK    4  A    between atoms: C15_15  and  O1_16 
REMARK    5  A    between atoms: C25_28  and  C27_30 
ROOT
HETATM    1  C6  UNL     1     -11.185   8.519  13.819  1.00  0.00     0.001 C 
HETATM    2  C7  UNL     1     -11.712   7.141  13.316  1.00  0.00     0.006 C 
HETATM    3  C8  UNL     1     -13.175   7.344  12.892  1.00  0.00     0.009 C 
HETATM    4  C9  UNL     1     -13.372   8.852  12.983  1.00  0.00     0.036 C 
HETATM    5  C10 UNL     1     -14.792   9.428  12.930  1.00  0.00     0.123 C 
HETATM    6  C11 UNL     1     -15.813   8.846  13.877  1.00  0.00     0.014 C 
HETATM    7  C12 UNL     1     -17.051   9.326  13.692  1.00  0.00     0.014 C 
HETATM    8  C13 UNL     1     -17.134  10.399  12.626  1.00  0.00     0.124 C 
HETATM    9  C14 UNL     1     -18.573  10.850  12.355  1.00  0.00     0.078 C 
HETATM   10  C15 UNL     1     -18.630  11.951  11.295  1.00  0.00     0.121 C 
HETATM   11  C16 UNL     1     -17.709  13.129  11.615  1.00  0.00     0.033 C 
HETATM   12  C17 UNL     1     -16.274  12.681  11.893  1.00  0.00     0.015 C 
HETATM   13  C18 UNL     1     -16.178  11.588  12.996  1.00  0.00     0.001 C 
HETATM   14  C19 UNL     1     -16.579  12.231  14.350  1.00  0.00     0.019 C 
HETATM   15  C20 UNL     1     -14.710  10.991  13.014  1.00  0.00     0.039 C 
HETATM   16  C21 UNL     1     -13.786  11.495  14.143  1.00  0.00     0.010 C 
HETATM   17  C22 UNL     1     -12.399  10.825  14.133  1.00  0.00     0.010 C 
HETATM   18  C23 UNL     1     -12.496   9.287  14.186  1.00  0.00    -0.033 C 
HETATM   19  C24 UNL     1     -13.021   8.839  15.567  1.00  0.00     0.016 C 
HETATM   20  O2  UNL     1     -16.627   9.822  11.391  1.00  0.00    -0.223 OA
HETATM   21  O3  UNL     1     -15.323   9.126  11.610  1.00  0.00    -0.224 OA
ENDROOT
BRANCH   1  22
HETATM   22  C4  UNL     1     -10.069   8.355  14.886  1.00  0.00     0.009 C 
HETATM   23  C5  UNL     1      -9.303   9.649  15.161  1.00  0.00     0.014 C 
BRANCH  22  24
HETATM   24  C3  UNL     1      -9.063   7.310  14.429  1.00  0.00    -0.019 C 
HETATM   25  C2  UNL     1      -8.108   6.691  15.156  1.00  0.00    -0.083 C 
HETATM   26  C1  UNL     1      -7.825   6.966  16.610  1.00  0.00     0.043 C 
BRANCH  25  27
HETATM   27  C25 UNL     1      -7.192   5.629  14.531  1.00  0.00     0.013 C 
HETATM   28  C26 UNL     1      -6.009   6.311  13.826  1.00  0.00     0.015 C 
BRANCH  27  29
HETATM   29  C27 UNL     1      -7.954   4.630  13.607  1.00  0.00    -0.015 C 
HETATM   30  C28 UNL     1      -7.410   3.201  13.753  1.00  0.00     0.010 C 
HETATM   31  C29 UNL     1      -7.879   5.037  12.131  1.00  0.00     0.010 C 
ENDBRANCH  27  29
ENDBRANCH  25  27
ENDBRANCH  22  24
ENDBRANCH   1  22
BRANCH  10  32
HETATM   32  O1  UNL     1     -19.971  12.424  11.174  1.00  0.00    -0.395 OA
HETATM   33  H20 UNL     1     -20.232  12.821  12.023  1.00  0.00     0.210 HD
ENDBRANCH  10  32
TORSDOF 5
ENDMDL
MODEL 8
REMARK minimizedAffinity -8.90049362
REMARK CNNscore 0.334002256
REMARK CNNaffinity 6.87021828
REMARK  5 active torsions:
REMARK  status: ('A' for Active; 'I' for Inactive)
REMARK    1  A    between atoms: C2_2  and  C25_28 
REMARK    2  A    between atoms: C3_3  and  C4_4 
REMARK    3  A    between atoms: C4_4  and  C6_6 
REMARK    4  A    between atoms: C15_15  and  O1_16 
REMARK    5  A    between atoms: C25_28  and  C27_30 
ROOT
HETATM    1  C6  UNL     1       0.249   7.408  14.566  1.00  0.00     0.001 C 
HETATM    2  C7  UNL     1       0.088   8.958  14.507  1.00  0.00     0.006 C 
HETATM    3  C8  UNL     1      -1.419   9.257  14.542  1.00  0.00     0.009 C 
HETATM    4  C9  UNL     1      -2.052   7.898  14.813  1.00  0.00     0.036 C 
HETATM    5  C10 UNL     1      -3.562   7.721  14.622  1.00  0.00     0.123 C 
HETATM    6  C11 UNL     1      -4.152   8.167  13.306  1.00  0.00     0.014 C 
HETATM    7  C12 UNL     1      -5.489   8.081  13.261  1.00  0.00     0.014 C 
HETATM    8  C13 UNL     1      -6.102   7.486  14.510  1.00  0.00     0.124 C 
HETATM    9  C14 UNL     1      -7.634   7.502  14.480  1.00  0.00     0.078 C 
HETATM   10  C15 UNL     1      -8.232   6.873  15.740  1.00  0.00     0.121 C 
HETATM   11  C16 UNL     1      -7.678   5.476  16.023  1.00  0.00     0.033 C 
HETATM   12  C17 UNL     1      -6.149   5.456  16.048  1.00  0.00     0.015 C 
HETATM   13  C18 UNL     1      -5.510   6.054  14.761  1.00  0.00     0.001 C 
HETATM   14  C19 UNL     1      -5.822   5.101  13.577  1.00  0.00     0.019 C 
HETATM   15  C20 UNL     1      -3.954   6.250  14.993  1.00  0.00     0.039 C 
HETATM   16  C21 UNL     1      -3.033   5.192  14.350  1.00  0.00     0.010 C 
HETATM   17  C22 UNL     1      -1.536   5.482  14.565  1.00  0.00     0.010 C 
HETATM   18  C23 UNL     1      -1.140   6.888  14.070  1.00  0.00    -0.033 C 
HETATM   19  C24 UNL     1      -1.225   6.949  12.529  1.00  0.00     0.016 C 
HETATM   20  O2  UNL     1      -5.688   8.314  15.632  1.00  0.00    -0.223 OA
HETATM   21  O3  UNL     1      -4.217   8.569  15.606  1.00  0.00    -0.224 OA
ENDROOT
BRANCH   1  22
HETATM   22  C4  UNL     1       1.543   6.935  13.852  1.00  0.00     0.009 C 
HETATM   23  C5  UNL     1       2.697   7.931  13.973  1.00  0.00     0.014 C 
BRANCH  22  24
HETATM   24  C3  UNL     1       1.272   6.720  12.372  1.00  0.00    -0.019 C 
HETATM   25  C2  UNL     1       1.979   7.172  11.314  1.00  0.00    -0.083 C 
HETATM   26  C1  UNL     1       3.201   8.049  11.413  1.00  0.00     0.043 C 
BRANCH  25  27
HETATM   27  C25 UNL     1       1.571   6.829   9.875  1.00  0.00     0.013 C 
HETATM   28  C26 UNL     1       2.561   5.816   9.279  1.00  0.00     0.015 C 
BRANCH  27  29
HETATM   29  C27 UNL     1       1.380   8.089   8.976  1.00  0.00    -0.015 C 
HETATM   30  C28 UNL     1      -0.081   8.564   8.976  1.00  0.00     0.010 C 
HETATM   31  C29 UNL     1       1.816   7.837   7.528  1.00  0.00     0.010 C 
ENDBRANCH  27  29
ENDBRANCH  25  27
ENDBRANCH  22  24
ENDBRANCH   1  22
BRANCH  10  32
HETATM   32  O1  UNL     1      -9.650   6.796  15.604  1.00  0.00    -0.395 OA
HETATM   33  H20 UNL     1      -9.854   6.205  14.857  1.00  0.00     0.210 HD
ENDBRANCH  10  32
TORSDOF 5
ENDMDL
MODEL 9
REMARK minimizedAffinity -7.23806763
REMARK CNNscore 0.332713038
REMARK CNNaffinity 6.80656958
REMARK  5 active torsions:
REMARK  status: ('A' for Active; 'I' for Inactive)
REMARK    1  A    between atoms: C2_2  and  C25_28 
REMARK    2  A    between atoms: C3_3  and  C4_4 
REMARK    3  A    between atoms: C4_4  and  C6_6 
REMARK    4  A    between atoms: C15_15  and  O1_16 
REMARK    5  A    between atoms: C25_28  and  C27_30 
ROOT
HETATM    1  C6  UNL     1      -2.537   7.423  13.341  1.00  0.00     0.001 C 
HETATM    2  C7  UNL     1      -2.696   6.103  12.526  1.00  0.00     0.006 C 
HETATM    3  C8  UNL     1      -4.162   5.663  12.659  1.00  0.00     0.009 C 
HETATM    4  C9  UNL     1      -4.827   6.832  13.374  1.00  0.00     0.036 C 
HETATM    5  C10 UNL     1      -6.232   6.652  13.961  1.00  0.00     0.123 C 
HETATM    6  C11 UNL     1      -6.459   5.465  14.866  1.00  0.00     0.014 C 
HETATM    7  C12 UNL     1      -7.735   5.319  15.248  1.00  0.00     0.014 C 
HETATM    8  C13 UNL     1      -8.649   6.418  14.749  1.00  0.00     0.124 C 
HETATM    9  C14 UNL     1     -10.119   6.168  15.103  1.00  0.00     0.078 C 
HETATM   10  C15 UNL     1     -11.020   7.303  14.612  1.00  0.00     0.121 C 
HETATM   11  C16 UNL     1     -10.543   8.680  15.075  1.00  0.00     0.033 C 
HETATM   12  C17 UNL     1      -9.075   8.929  14.729  1.00  0.00     0.015 C 
HETATM   13  C18 UNL     1      -8.127   7.811  15.250  1.00  0.00     0.001 C 
HETATM   14  C19 UNL     1      -8.104   7.878  16.800  1.00  0.00     0.019 C 
HETATM   15  C20 UNL     1      -6.690   8.004  14.610  1.00  0.00     0.039 C 
HETATM   16  C21 UNL     1      -5.619   8.637  15.523  1.00  0.00     0.010 C 
HETATM   17  C22 UNL     1      -4.235   8.735  14.854  1.00  0.00     0.010 C 
HETATM   18  C23 UNL     1      -3.739   7.368  14.339  1.00  0.00    -0.033 C 
HETATM   19  C24 UNL     1      -3.417   6.442  15.531  1.00  0.00     0.016 C 
HETATM   20  O2  UNL     1      -8.556   6.432  13.297  1.00  0.00    -0.223 OA
HETATM   21  O3  UNL     1      -7.133   6.420  12.843  1.00  0.00    -0.224 OA
ENDROOT
BRANCH   1  22
HETATM   22  C4  UNL     1      -1.095   7.593  13.888  1.00  0.00     0.009 C 
HETATM   23  C5  UNL     1      -0.936   8.807  14.805  1.00  0.00     0.014 C 
BRANCH  22  24
HETATM   24  C3  UNL     1      -0.117   7.753  12.735  1.00  0.00    -0.019 C 
HETATM   25  C2  UNL     1       0.853   6.904  12.333  1.00  0.00    -0.083 C 
HETATM   26  C1  UNL     1       1.186   5.601  13.012  1.00  0.00     0.043 C 
BRANCH  25  27
HETATM   27  C25 UNL     1       1.735   7.218  11.116  1.00  0.00     0.013 C 
HETATM   28  C26 UNL     1       0.874   7.263   9.845  1.00  0.00     0.015 C 
BRANCH  27  29
HETATM   29  C27 UNL     1       2.960   6.262  10.986  1.00  0.00    -0.015 C 
HETATM   30  C28 UNL     1       4.287   7.032  11.065  1.00  0.00     0.010 C 
HETATM   31  C29 UNL     1       2.932   5.464   9.677  1.00  0.00     0.010 C 
ENDBRANCH  27  29
ENDBRANCH  25  27
ENDBRANCH  22  24
ENDBRANCH   1  22
BRANCH  10  32
HETATM   32  O1  UNL     1     -12.351   7.086  15.077  1.00  0.00    -0.395 OA
HETATM   33  H20 UNL     1     -12.343   7.119  16.050  1.00  0.00     0.210 HD
ENDBRANCH  10  32
TORSDOF 5
ENDMDL
