MODEL 1
REMARK minimizedAffinity -8.21689034
REMARK CNNscore 0.717975378
REMARK CNNaffinity 7.57393026
REMARK  12 active torsions:
REMARK  status: ('A' for Active; 'I' for Inactive)
REMARK    1  A    between atoms: C19_20  and  O2_21 
REMARK    2  A    between atoms: C19_20  and  C20_22 
REMARK    3  A    between atoms: C20_22  and  C21_24 
REMARK    4  A    between atoms: C21_24  and  O4_25 
REMARK    5  A    between atoms: O4_25  and  C22_26 
REMARK    6  A    between atoms: C22_26  and  C23_28 
REMARK    7  A    between atoms: C23_28  and  C24_29 
REMARK    8  A    between atoms: C24_29  and  C25_30 
REMARK       I    between atoms: C25_30  and  N1_32 
REMARK    9  A    between atoms: N1_32  and  C26_33 
REMARK   10  A    between atoms: C26_33  and  C27_34 
REMARK   11  A    between atoms: C30_37  and  C31_38 
REMARK   12  A    between atoms: C31_38  and  O8_40 
ROOT
HETATM    1  C20 UNL     1     -13.630   8.651  13.275  1.00  0.00     0.185 C 
HETATM    2  O3  UNL     1     -13.851   8.586  12.061  1.00  0.00    -0.292 OA
ENDROOT
BRANCH   1   3
HETATM    3  C19 UNL     1     -12.208   8.933  13.832  1.00  0.00     0.128 C 
HETATM    4  C14 UNL     1     -11.282   7.676  13.916  1.00  0.00    -0.002 C 
HETATM    5  C13 UNL     1     -10.531   7.282  12.630  1.00  0.00     0.013 C 
HETATM    6  C15 UNL     1     -12.078   6.454  14.448  1.00  0.00     0.019 C 
HETATM    7  C16 UNL     1     -10.216   8.194  14.915  1.00  0.00     0.002 C 
HETATM    8  C12 UNL     1      -9.420   6.249  12.897  1.00  0.00     0.007 C 
HETATM    9  C11 UNL     1      -8.422   6.690  13.997  1.00  0.00     0.002 C 
HETATM   10  C2  UNL     1      -7.273   5.646  14.277  1.00  0.00    -0.016 C 
HETATM   11  C10 UNL     1      -9.163   7.143  15.292  1.00  0.00    -0.004 C 
HETATM   12  C1  UNL     1      -7.832   4.267  14.691  1.00  0.00     0.020 C 
HETATM   13  C3  UNL     1      -6.437   5.478  12.973  1.00  0.00     0.022 C 
HETATM   14  C7  UNL     1      -6.381   6.166  15.413  1.00  0.00    -0.068 C 
HETATM   15  C4  UNL     1      -5.080   4.826  13.194  1.00  0.00     0.084 C 
HETATM   16  C5  UNL     1      -4.296   5.596  14.222  1.00  0.00     0.149 C 
HETATM   17  O1  UNL     1      -3.073   5.693  14.182  1.00  0.00    -0.293 OA
HETATM   18  C6  UNL     1      -5.038   6.182  15.361  1.00  0.00     0.053 C 
HETATM   19  C8  UNL     1      -7.087   6.670  16.650  1.00  0.00     0.035 C 
HETATM   20  C9  UNL     1      -8.158   7.699  16.310  1.00  0.00     0.010 C 
HETATM   21  C17 UNL     1     -11.043   8.817  16.031  1.00  0.00     0.009 C 
HETATM   22  C18 UNL     1     -12.255   9.432  15.310  1.00  0.00     0.047 C 
BRANCH   3  23
HETATM   23  O2  UNL     1     -11.558   9.957  13.074  1.00  0.00    -0.381 OA
HETATM   24  H27 UNL     1     -12.106  10.759  13.138  1.00  0.00     0.211 HD
ENDBRANCH   3  23
ENDBRANCH   1   3
BRANCH   1  25
HETATM   25  C21 UNL     1     -14.776   8.514  14.267  1.00  0.00     0.260 C 
BRANCH  25  26
HETATM   26  O4  UNL     1     -15.798   7.672  13.739  1.00  0.00    -0.314 OA
BRANCH  26  27
HETATM   27  C22 UNL     1     -16.002   6.538  14.460  1.00  0.00     0.259 C 
HETATM   28  O5  UNL     1     -15.570   6.349  15.591  1.00  0.00    -0.265 OA
BRANCH  27  29
HETATM   29  C23 UNL     1     -16.744   5.480  13.675  1.00  0.00     0.120 C 
BRANCH  29  30
HETATM   30  C24 UNL     1     -17.300   4.328  14.505  1.00  0.00     0.112 C 
BRANCH  30  31
HETATM   31  C25 UNL     1     -16.383   3.123  14.497  1.00  0.00     0.218 C 
HETATM   32  O6  UNL     1     -15.274   3.118  15.019  1.00  0.00    -0.274 OA
HETATM   33  N1  UNL     1     -16.934   2.034  13.859  1.00  0.00    -0.357 N 
HETATM   34  H34 UNL     1     -17.750   2.173  13.280  1.00  0.00     0.162 HD
BRANCH  33  35
HETATM   35  C26 UNL     1     -16.180   0.815  13.661  1.00  0.00     0.161 C 
BRANCH  35  36
HETATM   36  C27 UNL     1     -16.386  -0.139  14.810  1.00  0.00    -0.040 A 
HETATM   37  C28 UNL     1     -17.434  -1.071  14.790  1.00  0.00     0.010 A 
HETATM   38  C29 UNL     1     -17.613  -1.958  15.855  1.00  0.00     0.019 A 
HETATM   39  C30 UNL     1     -16.740  -1.931  16.950  1.00  0.00     0.037 A 
HETATM   40  C32 UNL     1     -15.685  -1.012  16.968  1.00  0.00     0.019 A 
HETATM   41  C33 UNL     1     -15.508  -0.125  15.903  1.00  0.00     0.010 A 
BRANCH  39  42
HETATM   42  C31 UNL     1     -16.893  -2.849  18.103  1.00  0.00     0.176 C 
HETATM   43  O7  UNL     1     -17.400  -3.955  18.073  1.00  0.00    -0.646 OA
BRANCH  42  44
HETATM   44  O8  UNL     1     -16.402  -2.340  19.246  1.00  0.00    -0.773 OA
HETATM   45  H39 UNL     1     -16.565  -3.049  19.903  1.00  0.00     0.167 HD
ENDBRANCH  42  44
ENDBRANCH  39  42
ENDBRANCH  35  36
ENDBRANCH  33  35
ENDBRANCH  30  31
ENDBRANCH  29  30
ENDBRANCH  27  29
ENDBRANCH  26  27
ENDBRANCH  25  26
ENDBRANCH   1  25
TORSDOF 12
ENDMDL
MODEL 2
REMARK minimizedAffinity -9.11077023
REMARK CNNscore 0.597285926
REMARK CNNaffinity 7.58348036
REMARK  12 active torsions:
REMARK  status: ('A' for Active; 'I' for Inactive)
REMARK    1  A    between atoms: C19_20  and  O2_21 
REMARK    2  A    between atoms: C19_20  and  C20_22 
REMARK    3  A    between atoms: C20_22  and  C21_24 
REMARK    4  A    between atoms: C21_24  and  O4_25 
REMARK    5  A    between atoms: O4_25  and  C22_26 
REMARK    6  A    between atoms: C22_26  and  C23_28 
REMARK    7  A    between atoms: C23_28  and  C24_29 
REMARK    8  A    between atoms: C24_29  and  C25_30 
REMARK       I    between atoms: C25_30  and  N1_32 
REMARK    9  A    between atoms: N1_32  and  C26_33 
REMARK   10  A    between atoms: C26_33  and  C27_34 
REMARK   11  A    between atoms: C30_37  and  C31_38 
REMARK   12  A    between atoms: C31_38  and  O8_40 
ROOT
HETATM    1  C20 UNL     1      -6.397   6.685  15.667  1.00  0.00     0.185 C 
HETATM    2  O3  UNL     1      -6.010   5.569  16.029  1.00  0.00    -0.292 OA
ENDROOT
BRANCH   1   3
HETATM    3  C19 UNL     1      -5.524   7.598  14.763  1.00  0.00     0.128 C 
HETATM    4  C14 UNL     1      -4.075   7.068  14.510  1.00  0.00    -0.002 C 
HETATM    5  C13 UNL     1      -3.901   6.041  13.375  1.00  0.00     0.013 C 
HETATM    6  C15 UNL     1      -3.473   6.498  15.822  1.00  0.00     0.019 C 
HETATM    7  C16 UNL     1      -3.389   8.376  14.039  1.00  0.00     0.002 C 
HETATM    8  C12 UNL     1      -2.423   5.831  13.000  1.00  0.00     0.007 C 
HETATM    9  C11 UNL     1      -1.681   7.149  12.661  1.00  0.00     0.002 C 
HETATM   10  C2  UNL     1      -0.167   6.949  12.267  1.00  0.00    -0.016 C 
HETATM   11  C10 UNL     1      -1.886   8.222  13.773  1.00  0.00    -0.004 C 
HETATM   12  C1  UNL     1       0.635   6.247  13.385  1.00  0.00     0.020 C 
HETATM   13  C3  UNL     1      -0.107   6.073  10.980  1.00  0.00     0.022 C 
HETATM   14  C7  UNL     1       0.474   8.320  12.003  1.00  0.00    -0.068 C 
HETATM   15  C4  UNL     1       1.234   6.128  10.262  1.00  0.00     0.084 C 
HETATM   16  C5  UNL     1       1.592   7.554   9.941  1.00  0.00     0.149 C 
HETATM   17  O1  UNL     1       2.225   7.865   8.935  1.00  0.00    -0.293 OA
HETATM   18  C6  UNL     1       1.229   8.597  10.926  1.00  0.00     0.053 C 
HETATM   19  C8  UNL     1       0.229   9.391  13.040  1.00  0.00     0.035 C 
HETATM   20  C9  UNL     1      -1.254   9.555  13.347  1.00  0.00     0.010 C 
HETATM   21  C17 UNL     1      -3.837   9.406  15.065  1.00  0.00     0.009 C 
HETATM   22  C18 UNL     1      -5.277   8.993  15.418  1.00  0.00     0.047 C 
BRANCH   3  23
HETATM   23  O2  UNL     1      -6.171   7.842  13.510  1.00  0.00    -0.381 OA
HETATM   24  H27 UNL     1      -7.021   8.275  13.701  1.00  0.00     0.211 HD
ENDBRANCH   3  23
ENDBRANCH   1   3
BRANCH   1  25
HETATM   25  C21 UNL     1      -7.784   7.174  16.055  1.00  0.00     0.260 C 
BRANCH  25  26
HETATM   26  O4  UNL     1      -8.658   7.149  14.929  1.00  0.00    -0.314 OA
BRANCH  26  27
HETATM   27  C22 UNL     1      -8.396   6.142  14.054  1.00  0.00     0.259 C 
HETATM   28  O5  UNL     1      -8.696   6.161  12.865  1.00  0.00    -0.265 OA
BRANCH  27  29
HETATM   29  C23 UNL     1      -7.778   4.937  14.727  1.00  0.00     0.120 C 
BRANCH  29  30
HETATM   30  C24 UNL     1      -7.924   3.624  13.967  1.00  0.00     0.112 C 
BRANCH  30  31
HETATM   31  C25 UNL     1      -7.068   3.587  12.718  1.00  0.00     0.218 C 
HETATM   32  O6  UNL     1      -6.427   4.550  12.313  1.00  0.00    -0.274 OA
HETATM   33  N1  UNL     1      -7.074   2.357  12.100  1.00  0.00    -0.357 N 
HETATM   34  H34 UNL     1      -7.779   1.684  12.365  1.00  0.00     0.162 HD
BRANCH  33  35
HETATM   35  C26 UNL     1      -6.396   2.143  10.840  1.00  0.00     0.161 C 
BRANCH  35  36
HETATM   36  C27 UNL     1      -4.899   2.190  11.020  1.00  0.00    -0.040 A 
HETATM   37  C28 UNL     1      -4.217   1.134  11.642  1.00  0.00     0.010 A 
HETATM   38  C29 UNL     1      -2.828   1.182  11.795  1.00  0.00     0.019 A 
HETATM   39  C30 UNL     1      -2.104   2.282  11.322  1.00  0.00     0.037 A 
HETATM   40  C32 UNL     1      -2.779   3.332  10.688  1.00  0.00     0.019 A 
HETATM   41  C33 UNL     1      -4.166   3.284  10.536  1.00  0.00     0.010 A 
BRANCH  39  42
HETATM   42  C31 UNL     1      -0.632   2.378  11.466  1.00  0.00     0.176 C 
HETATM   43  O7  UNL     1      -0.033   3.175  12.164  1.00  0.00    -0.646 OA
BRANCH  42  44
HETATM   44  O8  UNL     1       0.026   1.467  10.727  1.00  0.00    -0.773 OA
HETATM   45  H39 UNL     1       0.969   1.646  10.928  1.00  0.00     0.167 HD
ENDBRANCH  42  44
ENDBRANCH  39  42
ENDBRANCH  35  36
ENDBRANCH  33  35
ENDBRANCH  30  31
ENDBRANCH  29  30
ENDBRANCH  27  29
ENDBRANCH  26  27
ENDBRANCH  25  26
ENDBRANCH   1  25
TORSDOF 12
ENDMDL
MODEL 3
REMARK minimizedAffinity -9.84859943
REMARK CNNscore 0.595363736
REMARK CNNaffinity 7.37548494
REMARK  12 active torsions:
REMARK  status: ('A' for Active; 'I' for Inactive)
REMARK    1  A    between atoms: C19_20  and  O2_21 
REMARK    2  A    between atoms: C19_20  and  C20_22 
REMARK    3  A    between atoms: C20_22  and  C21_24 
REMARK    4  A    between atoms: C21_24  and  O4_25 
REMARK    5  A    between atoms: O4_25  and  C22_26 
REMARK    6  A    between atoms: C22_26  and  C23_28 
REMARK    7  A    between atoms: C23_28  and  C24_29 
REMARK    8  A    between atoms: C24_29  and  C25_30 
REMARK       I    between atoms: C25_30  and  N1_32 
REMARK    9  A    between atoms: N1_32  and  C26_33 
REMARK   10  A    between atoms: C26_33  and  C27_34 
REMARK   11  A    between atoms: C30_37  and  C31_38 
REMARK   12  A    between atoms: C31_38  and  O8_40 
ROOT
HETATM    1  C20 UNL     1      -3.994   6.910  15.186  1.00  0.00     0.185 C 
HETATM    2  O3  UNL     1      -3.435   6.144  15.978  1.00  0.00    -0.292 OA
ENDROOT
BRANCH   1   3
HETATM    3  C19 UNL     1      -3.519   7.053  13.714  1.00  0.00     0.128 C 
HETATM    4  C14 UNL     1      -1.980   6.872  13.508  1.00  0.00    -0.002 C 
HETATM    5  C13 UNL     1      -1.464   5.427  13.371  1.00  0.00     0.013 C 
HETATM    6  C15 UNL     1      -1.196   7.599  14.633  1.00  0.00     0.019 C 
HETATM    7  C16 UNL     1      -1.816   7.539  12.118  1.00  0.00     0.002 C 
HETATM    8  C12 UNL     1      -0.013   5.373  12.857  1.00  0.00     0.007 C 
HETATM    9  C11 UNL     1       0.202   6.155  11.537  1.00  0.00     0.002 C 
HETATM   10  C2  UNL     1       1.681   6.102  10.994  1.00  0.00    -0.016 C 
HETATM   11  C10 UNL     1      -0.361   7.606  11.635  1.00  0.00    -0.004 C 
HETATM   12  C1  UNL     1       2.696   6.650  12.021  1.00  0.00     0.020 C 
HETATM   13  C3  UNL     1       2.035   4.616  10.682  1.00  0.00     0.022 C 
HETATM   14  C7  UNL     1       1.784   6.948   9.717  1.00  0.00    -0.068 C 
HETATM   15  C4  UNL     1       3.257   4.451   9.791  1.00  0.00     0.084 C 
HETATM   16  C5  UNL     1       3.076   5.225   8.512  1.00  0.00     0.149 C 
HETATM   17  O1  UNL     1       3.542   4.847   7.441  1.00  0.00    -0.293 OA
HETATM   18  C6  UNL     1       2.375   6.527   8.586  1.00  0.00     0.053 C 
HETATM   19  C8  UNL     1       1.184   8.334   9.775  1.00  0.00     0.035 C 
HETATM   20  C9  UNL     1      -0.255   8.308  10.274  1.00  0.00     0.010 C 
HETATM   21  C17 UNL     1      -2.590   8.842  12.251  1.00  0.00     0.009 C 
HETATM   22  C18 UNL     1      -3.781   8.488  13.159  1.00  0.00     0.047 C 
BRANCH   3  23
HETATM   23  O2  UNL     1      -4.226   6.147  12.861  1.00  0.00    -0.381 OA
HETATM   24  H27 UNL     1      -5.173   6.363  12.928  1.00  0.00     0.211 HD
ENDBRANCH   3  23
ENDBRANCH   1   3
BRANCH   1  25
HETATM   25  C21 UNL     1      -5.218   7.699  15.625  1.00  0.00     0.260 C 
BRANCH  25  26
HETATM   26  O4  UNL     1      -6.338   6.834  15.798  1.00  0.00    -0.314 OA
BRANCH  26  27
HETATM   27  C22 UNL     1      -7.000   6.556  14.643  1.00  0.00     0.259 C 
HETATM   28  O5  UNL     1      -6.919   7.225  13.620  1.00  0.00    -0.265 OA
BRANCH  27  29
HETATM   29  C23 UNL     1      -7.937   5.377  14.784  1.00  0.00     0.120 C 
BRANCH  29  30
HETATM   30  C24 UNL     1      -7.260   4.011  14.817  1.00  0.00     0.112 C 
BRANCH  30  31
HETATM   31  C25 UNL     1      -7.172   3.384  13.441  1.00  0.00     0.218 C 
HETATM   32  O6  UNL     1      -7.795   2.379  13.118  1.00  0.00    -0.274 OA
HETATM   33  N1  UNL     1      -6.334   4.071  12.591  1.00  0.00    -0.357 N 
HETATM   34  H34 UNL     1      -5.702   4.756  12.981  1.00  0.00     0.162 HD
BRANCH  33  35
HETATM   35  C26 UNL     1      -6.040   3.581  11.262  1.00  0.00     0.161 C 
BRANCH  35  36
HETATM   36  C27 UNL     1      -4.668   2.959  11.209  1.00  0.00    -0.040 A 
HETATM   37  C28 UNL     1      -4.456   1.647  11.656  1.00  0.00     0.010 A 
HETATM   38  C29 UNL     1      -3.182   1.075  11.594  1.00  0.00     0.019 A 
HETATM   39  C30 UNL     1      -2.105   1.805  11.076  1.00  0.00     0.037 A 
HETATM   40  C32 UNL     1      -2.315   3.110  10.617  1.00  0.00     0.019 A 
HETATM   41  C33 UNL     1      -3.588   3.681  10.680  1.00  0.00     0.010 A 
BRANCH  39  42
HETATM   42  C31 UNL     1      -0.737   1.241  10.995  1.00  0.00     0.176 C 
HETATM   43  O7  UNL     1      -0.455   0.060  10.908  1.00  0.00    -0.646 OA
BRANCH  42  44
HETATM   44  O8  UNL     1       0.220   2.185  11.026  1.00  0.00    -0.773 OA
HETATM   45  H39 UNL     1       1.052   1.671  10.958  1.00  0.00     0.167 HD
ENDBRANCH  42  44
ENDBRANCH  39  42
ENDBRANCH  35  36
ENDBRANCH  33  35
ENDBRANCH  30  31
ENDBRANCH  29  30
ENDBRANCH  27  29
ENDBRANCH  26  27
ENDBRANCH  25  26
ENDBRANCH   1  25
TORSDOF 12
ENDMDL
MODEL 4
REMARK minimizedAffinity -9.03664112
REMARK CNNscore 0.506183088
REMARK CNNaffinity 7.53194618
REMARK  12 active torsions:
REMARK  status: ('A' for Active; 'I' for Inactive)
REMARK    1  A    between atoms: C19_20  and  O2_21 
REMARK    2  A    between atoms: C19_20  and  C20_22 
REMARK    3  A    between atoms: C20_22  and  C21_24 
REMARK    4  A    between atoms: C21_24  and  O4_25 
REMARK    5  A    between atoms: O4_25  and  C22_26 
REMARK    6  A    between atoms: C22_26  and  C23_28 
REMARK    7  A    between atoms: C23_28  and  C24_29 
REMARK    8  A    between atoms: C24_29  and  C25_30 
REMARK       I    between atoms: C25_30  and  N1_32 
REMARK    9  A    between atoms: N1_32  and  C26_33 
REMARK   10  A    between atoms: C26_33  and  C27_34 
REMARK   11  A    between atoms: C30_37  and  C31_38 
REMARK   12  A    between atoms: C31_38  and  O8_40 
ROOT
HETATM    1  C20 UNL     1      -0.297   4.398  11.396  1.00  0.00     0.185 C 
HETATM    2  O3  UNL     1       0.393   3.389  11.578  1.00  0.00    -0.292 OA
ENDROOT
BRANCH   1   3
HETATM    3  C19 UNL     1      -1.844   4.321  11.284  1.00  0.00     0.128 C 
HETATM    4  C14 UNL     1      -2.614   4.907  12.511  1.00  0.00    -0.002 C 
HETATM    5  C13 UNL     1      -2.846   6.430  12.521  1.00  0.00     0.013 C 
HETATM    6  C15 UNL     1      -1.926   4.478  13.835  1.00  0.00     0.019 C 
HETATM    7  C16 UNL     1      -4.000   4.245  12.300  1.00  0.00     0.002 C 
HETATM    8  C12 UNL     1      -3.874   6.856  13.586  1.00  0.00     0.007 C 
HETATM    9  C11 UNL     1      -5.222   6.101  13.478  1.00  0.00     0.002 C 
HETATM   10  C2  UNL     1      -6.288   6.532  14.557  1.00  0.00    -0.016 C 
HETATM   11  C10 UNL     1      -5.008   4.557  13.414  1.00  0.00    -0.004 C 
HETATM   12  C1  UNL     1      -5.766   6.334  15.997  1.00  0.00     0.020 C 
HETATM   13  C3  UNL     1      -6.617   8.040  14.345  1.00  0.00     0.022 C 
HETATM   14  C7  UNL     1      -7.557   5.686  14.383  1.00  0.00    -0.068 C 
HETATM   15  C4  UNL     1      -7.896   8.492  15.033  1.00  0.00     0.084 C 
HETATM   16  C5  UNL     1      -9.053   7.637  14.588  1.00  0.00     0.149 C 
HETATM   17  O1  UNL     1     -10.195   8.077  14.483  1.00  0.00    -0.293 OA
HETATM   18  C6  UNL     1      -8.800   6.198  14.353  1.00  0.00     0.053 C 
HETATM   19  C8  UNL     1      -7.361   4.193  14.254  1.00  0.00     0.035 C 
HETATM   20  C9  UNL     1      -6.347   3.847  13.171  1.00  0.00     0.010 C 
HETATM   21  C17 UNL     1      -3.663   2.787  12.023  1.00  0.00     0.009 C 
HETATM   22  C18 UNL     1      -2.346   2.844  11.229  1.00  0.00     0.047 C 
BRANCH   3  23
HETATM   23  O2  UNL     1      -2.300   4.955  10.085  1.00  0.00    -0.381 OA
HETATM   24  H27 UNL     1      -1.888   4.491   9.335  1.00  0.00     0.211 HD
ENDBRANCH   3  23
ENDBRANCH   1   3
BRANCH   1  25
HETATM   25  C21 UNL     1       0.360   5.769  11.335  1.00  0.00     0.260 C 
BRANCH  25  26
HETATM   26  O4  UNL     1       0.053   6.418  10.104  1.00  0.00    -0.314 OA
BRANCH  26  27
HETATM   27  C22 UNL     1       0.546   7.681  10.011  1.00  0.00     0.259 C 
HETATM   28  O5  UNL     1       0.849   8.379  10.972  1.00  0.00    -0.265 OA
BRANCH  27  29
HETATM   29  C23 UNL     1       0.592   8.181   8.585  1.00  0.00     0.120 C 
BRANCH  29  30
HETATM   30  C24 UNL     1       1.891   7.896   7.839  1.00  0.00     0.112 C 
BRANCH  30  31
HETATM   31  C25 UNL     1       2.670   6.758   8.464  1.00  0.00     0.218 C 
HETATM   32  O6  UNL     1       2.723   5.632   7.981  1.00  0.00    -0.274 OA
HETATM   33  N1  UNL     1       3.325   7.127   9.618  1.00  0.00    -0.357 N 
HETATM   34  H34 UNL     1       3.071   7.998  10.063  1.00  0.00     0.162 HD
BRANCH  33  35
HETATM   35  C26 UNL     1       4.047   6.161  10.417  1.00  0.00     0.161 C 
BRANCH  35  36
HETATM   36  C27 UNL     1       4.617   6.805  11.656  1.00  0.00    -0.040 A 
HETATM   37  C28 UNL     1       5.980   6.688  11.965  1.00  0.00     0.010 A 
HETATM   38  C29 UNL     1       6.502   7.297  13.109  1.00  0.00     0.019 A 
HETATM   39  C30 UNL     1       5.668   8.038  13.955  1.00  0.00     0.037 A 
HETATM   40  C32 UNL     1       4.310   8.170  13.644  1.00  0.00     0.019 A 
HETATM   41  C33 UNL     1       3.790   7.560  12.500  1.00  0.00     0.010 A 
BRANCH  39  42
HETATM   42  C31 UNL     1       6.176   8.698  15.182  1.00  0.00     0.176 C 
HETATM   43  O7  UNL     1       6.136   9.890  15.421  1.00  0.00    -0.646 OA
BRANCH  42  44
HETATM   44  O8  UNL     1       6.714   7.830  16.057  1.00  0.00    -0.773 OA
HETATM   45  H39 UNL     1       6.993   8.400  16.804  1.00  0.00     0.167 HD
ENDBRANCH  42  44
ENDBRANCH  39  42
ENDBRANCH  35  36
ENDBRANCH  33  35
ENDBRANCH  30  31
ENDBRANCH  29  30
ENDBRANCH  27  29
ENDBRANCH  26  27
ENDBRANCH  25  26
ENDBRANCH   1  25
TORSDOF 12
ENDMDL
MODEL 5
REMARK minimizedAffinity -10.0612535
REMARK CNNscore 0.454266727
REMARK CNNaffinity 7.55241394
REMARK  12 active torsions:
REMARK  status: ('A' for Active; 'I' for Inactive)
REMARK    1  A    between atoms: C19_20  and  O2_21 
REMARK    2  A    between atoms: C19_20  and  C20_22 
REMARK    3  A    between atoms: C20_22  and  C21_24 
REMARK    4  A    between atoms: C21_24  and  O4_25 
REMARK    5  A    between atoms: O4_25  and  C22_26 
REMARK    6  A    between atoms: C22_26  and  C23_28 
REMARK    7  A    between atoms: C23_28  and  C24_29 
REMARK    8  A    between atoms: C24_29  and  C25_30 
REMARK       I    between atoms: C25_30  and  N1_32 
REMARK    9  A    between atoms: N1_32  and  C26_33 
REMARK   10  A    between atoms: C26_33  and  C27_34 
REMARK   11  A    between atoms: C30_37  and  C31_38 
REMARK   12  A    between atoms: C31_38  and  O8_40 
ROOT
HETATM    1  C20 UNL     1      -4.067   8.752  15.767  1.00  0.00     0.185 C 
HETATM    2  O3  UNL     1      -3.915   9.652  16.599  1.00  0.00    -0.292 OA
ENDROOT
BRANCH   1   3
HETATM    3  C19 UNL     1      -2.931   7.745  15.437  1.00  0.00     0.128 C 
HETATM    4  C14 UNL     1      -2.159   8.047  14.111  1.00  0.00    -0.002 C 
HETATM    5  C13 UNL     1      -1.013   9.074  14.194  1.00  0.00     0.013 C 
HETATM    6  C15 UNL     1      -3.152   8.466  12.993  1.00  0.00     0.019 C 
HETATM    7  C16 UNL     1      -1.504   6.665  13.860  1.00  0.00     0.002 C 
HETATM    8  C12 UNL     1      -0.126   9.060  12.936  1.00  0.00     0.007 C 
HETATM    9  C11 UNL     1       0.427   7.654  12.588  1.00  0.00     0.002 C 
HETATM   10  C2  UNL     1       1.344   7.626  11.306  1.00  0.00    -0.016 C 
HETATM   11  C10 UNL     1      -0.711   6.588  12.549  1.00  0.00    -0.004 C 
HETATM   12  C1  UNL     1       0.608   8.151  10.054  1.00  0.00     0.020 C 
HETATM   13  C3  UNL     1       2.587   8.527  11.573  1.00  0.00     0.022 C 
HETATM   14  C7  UNL     1       1.789   6.181  11.033  1.00  0.00    -0.068 C 
HETATM   15  C4  UNL     1       3.738   8.286  10.608  1.00  0.00     0.084 C 
HETATM   16  C5  UNL     1       4.133   6.834  10.624  1.00  0.00     0.149 C 
HETATM   17  O1  UNL     1       5.292   6.464  10.453  1.00  0.00    -0.293 OA
HETATM   18  C6  UNL     1       3.059   5.827  10.771  1.00  0.00     0.053 C 
HETATM   19  C8  UNL     1       0.708   5.126  11.057  1.00  0.00     0.035 C 
HETATM   20  C9  UNL     1      -0.116   5.189  12.337  1.00  0.00     0.010 C 
HETATM   21  C17 UNL     1      -2.647   5.682  14.068  1.00  0.00     0.009 C 
HETATM   22  C18 UNL     1      -3.485   6.306  15.198  1.00  0.00     0.047 C 
BRANCH   3  23
HETATM   23  O2  UNL     1      -2.002   7.652  16.521  1.00  0.00    -0.381 OA
HETATM   24  H27 UNL     1      -2.496   7.352  17.303  1.00  0.00     0.211 HD
ENDBRANCH   3  23
ENDBRANCH   1   3
BRANCH   1  25
HETATM   25  C21 UNL     1      -5.410   8.568  15.078  1.00  0.00     0.260 C 
BRANCH  25  26
HETATM   26  O4  UNL     1      -6.386   8.091  16.002  1.00  0.00    -0.314 OA
BRANCH  26  27
HETATM   27  C22 UNL     1      -7.579   7.780  15.428  1.00  0.00     0.259 C 
HETATM   28  O5  UNL     1      -8.257   8.563  14.773  1.00  0.00    -0.265 OA
BRANCH  27  29
HETATM   29  C23 UNL     1      -8.036   6.379  15.769  1.00  0.00     0.120 C 
BRANCH  29  30
HETATM   30  C24 UNL     1      -7.079   5.267  15.358  1.00  0.00     0.112 C 
BRANCH  30  31
HETATM   31  C25 UNL     1      -7.150   4.971  13.874  1.00  0.00     0.218 C 
HETATM   32  O6  UNL     1      -7.900   5.562  13.105  1.00  0.00    -0.274 OA
HETATM   33  N1  UNL     1      -6.273   3.986  13.482  1.00  0.00    -0.357 N 
HETATM   34  H34 UNL     1      -5.844   3.407  14.190  1.00  0.00     0.162 HD
BRANCH  33  35
HETATM   35  C26 UNL     1      -6.253   3.491  12.122  1.00  0.00     0.161 C 
BRANCH  35  36
HETATM   36  C27 UNL     1      -4.876   3.007  11.745  1.00  0.00    -0.040 A 
HETATM   37  C28 UNL     1      -3.881   3.912  11.345  1.00  0.00     0.010 A 
HETATM   38  C29 UNL     1      -2.604   3.457  11.007  1.00  0.00     0.019 A 
HETATM   39  C30 UNL     1      -2.302   2.091  11.072  1.00  0.00     0.037 A 
HETATM   40  C32 UNL     1      -3.287   1.186  11.483  1.00  0.00     0.019 A 
HETATM   41  C33 UNL     1      -4.564   1.642  11.820  1.00  0.00     0.010 A 
BRANCH  39  42
HETATM   42  C31 UNL     1      -0.964   1.562  10.718  1.00  0.00     0.176 C 
HETATM   43  O7  UNL     1       0.098   1.938  11.180  1.00  0.00    -0.646 OA
BRANCH  42  44
HETATM   44  O8  UNL     1      -1.015   0.583   9.798  1.00  0.00    -0.773 OA
HETATM   45  H39 UNL     1      -0.075   0.335   9.674  1.00  0.00     0.167 HD
ENDBRANCH  42  44
ENDBRANCH  39  42
ENDBRANCH  35  36
ENDBRANCH  33  35
ENDBRANCH  30  31
ENDBRANCH  29  30
ENDBRANCH  27  29
ENDBRANCH  26  27
ENDBRANCH  25  26
ENDBRANCH   1  25
TORSDOF 12
ENDMDL
MODEL 6
REMARK minimizedAffinity -8.73510361
REMARK CNNscore 0.432037443
REMARK CNNaffinity 7.00020981
REMARK  12 active torsions:
REMARK  status: ('A' for Active; 'I' for Inactive)
REMARK    1  A    between atoms: C19_20  and  O2_21 
REMARK    2  A    between atoms: C19_20  and  C20_22 
REMARK    3  A    between atoms: C20_22  and  C21_24 
REMARK    4  A    between atoms: C21_24  and  O4_25 
REMARK    5  A    between atoms: O4_25  and  C22_26 
REMARK    6  A    between atoms: C22_26  and  C23_28 
REMARK    7  A    between atoms: C23_28  and  C24_29 
REMARK    8  A    between atoms: C24_29  and  C25_30 
REMARK       I    between atoms: C25_30  and  N1_32 
REMARK    9  A    between atoms: N1_32  and  C26_33 
REMARK   10  A    between atoms: C26_33  and  C27_34 
REMARK   11  A    between atoms: C30_37  and  C31_38 
REMARK   12  A    between atoms: C31_38  and  O8_40 
ROOT
HETATM    1  C20 UNL     1      -3.104   6.749  13.891  1.00  0.00     0.185 C 
HETATM    2  O3  UNL     1      -3.328   6.861  12.681  1.00  0.00    -0.292 OA
ENDROOT
BRANCH   1   3
HETATM    3  C19 UNL     1      -1.700   7.036  14.491  1.00  0.00     0.128 C 
HETATM    4  C14 UNL     1      -1.558   8.437  15.171  1.00  0.00    -0.002 C 
HETATM    5  C13 UNL     1      -2.035   8.550  16.632  1.00  0.00     0.013 C 
HETATM    6  C15 UNL     1      -2.254   9.526  14.311  1.00  0.00     0.019 C 
HETATM    7  C16 UNL     1      -0.013   8.569  15.193  1.00  0.00     0.002 C 
HETATM    8  C12 UNL     1      -1.562   9.855  17.299  1.00  0.00     0.007 C 
HETATM    9  C11 UNL     1      -0.031  10.074  17.207  1.00  0.00     0.002 C 
HETATM   10  C2  UNL     1       0.469  11.403  17.893  1.00  0.00    -0.016 C 
HETATM   11  C10 UNL     1       0.482   9.912  15.743  1.00  0.00    -0.004 C 
HETATM   12  C1  UNL     1      -0.209  12.655  17.295  1.00  0.00     0.020 C 
HETATM   13  C3  UNL     1       0.131  11.327  19.413  1.00  0.00     0.022 C 
HETATM   14  C7  UNL     1       1.986  11.536  17.696  1.00  0.00    -0.068 C 
HETATM   15  C4  UNL     1       0.894  12.332  20.262  1.00  0.00     0.084 C 
HETATM   16  C5  UNL     1       2.375  12.175  20.048  1.00  0.00     0.149 C 
HETATM   17  O1  UNL     1       3.196  12.379  20.938  1.00  0.00    -0.293 OA
HETATM   18  C6  UNL     1       2.845  11.840  18.685  1.00  0.00     0.053 C 
HETATM   19  C8  UNL     1       2.507  11.317  16.295  1.00  0.00     0.035 C 
HETATM   20  C9  UNL     1       2.014  10.001  15.707  1.00  0.00     0.010 C 
HETATM   21  C17 UNL     1       0.401   8.172  13.783  1.00  0.00     0.009 C 
HETATM   22  C18 UNL     1      -0.596   7.068  13.389  1.00  0.00     0.047 C 
BRANCH   3  23
HETATM   23  O2  UNL     1      -1.325   6.013  15.419  1.00  0.00    -0.381 OA
HETATM   24  H27 UNL     1      -1.314   5.170  14.934  1.00  0.00     0.211 HD
ENDBRANCH   3  23
ENDBRANCH   1   3
BRANCH   1  25
HETATM   25  C21 UNL     1      -4.230   6.380  14.844  1.00  0.00     0.260 C 
BRANCH  25  26
HETATM   26  O4  UNL     1      -5.494   6.732  14.287  1.00  0.00    -0.314 OA
BRANCH  26  27
HETATM   27  C22 UNL     1      -6.337   7.329  15.170  1.00  0.00     0.259 C 
HETATM   28  O5  UNL     1      -6.056   8.320  15.834  1.00  0.00    -0.265 OA
BRANCH  27  29
HETATM   29  C23 UNL     1      -7.640   6.577  15.326  1.00  0.00     0.120 C 
BRANCH  29  30
HETATM   30  C24 UNL     1      -8.645   6.781  14.199  1.00  0.00     0.112 C 
BRANCH  30  31
HETATM   31  C25 UNL     1      -8.581   5.672  13.169  1.00  0.00     0.218 C 
HETATM   32  O6  UNL     1      -8.941   5.813  12.006  1.00  0.00    -0.274 OA
HETATM   33  N1  UNL     1      -8.062   4.501  13.673  1.00  0.00    -0.357 N 
HETATM   34  H34 UNL     1      -7.984   4.396  14.675  1.00  0.00     0.162 HD
BRANCH  33  35
HETATM   35  C26 UNL     1      -8.005   3.296  12.875  1.00  0.00     0.161 C 
BRANCH  35  36
HETATM   36  C27 UNL     1      -6.587   2.988  12.464  1.00  0.00    -0.040 A 
HETATM   37  C28 UNL     1      -5.531   3.830  12.842  1.00  0.00     0.010 A 
HETATM   38  C29 UNL     1      -4.219   3.532  12.465  1.00  0.00     0.019 A 
HETATM   39  C30 UNL     1      -3.945   2.383  11.713  1.00  0.00     0.037 A 
HETATM   40  C32 UNL     1      -4.993   1.533  11.345  1.00  0.00     0.019 A 
HETATM   41  C33 UNL     1      -6.305   1.832  11.722  1.00  0.00     0.010 A 
BRANCH  39  42
HETATM   42  C31 UNL     1      -2.570   2.030  11.287  1.00  0.00     0.176 C 
HETATM   43  O7  UNL     1      -1.650   2.810  11.124  1.00  0.00    -0.646 OA
BRANCH  42  44
HETATM   44  O8  UNL     1      -2.408   0.711  11.085  1.00  0.00    -0.773 OA
HETATM   45  H39 UNL     1      -1.468   0.632  10.820  1.00  0.00     0.167 HD
ENDBRANCH  42  44
ENDBRANCH  39  42
ENDBRANCH  35  36
ENDBRANCH  33  35
ENDBRANCH  30  31
ENDBRANCH  29  30
ENDBRANCH  27  29
ENDBRANCH  26  27
ENDBRANCH  25  26
ENDBRANCH   1  25
TORSDOF 12
ENDMDL
MODEL 7
REMARK minimizedAffinity -8.42249203
REMARK CNNscore 0.411551178
REMARK CNNaffinity 7.38618708
REMARK  12 active torsions:
REMARK  status: ('A' for Active; 'I' for Inactive)
REMARK    1  A    between atoms: C19_20  and  O2_21 
REMARK    2  A    between atoms: C19_20  and  C20_22 
REMARK    3  A    between atoms: C20_22  and  C21_24 
REMARK    4  A    between atoms: C21_24  and  O4_25 
REMARK    5  A    between atoms: O4_25  and  C22_26 
REMARK    6  A    between atoms: C22_26  and  C23_28 
REMARK    7  A    between atoms: C23_28  and  C24_29 
REMARK    8  A    between atoms: C24_29  and  C25_30 
REMARK       I    between atoms: C25_30  and  N1_32 
REMARK    9  A    between atoms: N1_32  and  C26_33 
REMARK   10  A    between atoms: C26_33  and  C27_34 
REMARK   11  A    between atoms: C30_37  and  C31_38 
REMARK   12  A    between atoms: C31_38  and  O8_40 
ROOT
HETATM    1  C20 UNL     1      -1.382   3.782  11.687  1.00  0.00     0.185 C 
HETATM    2  O3  UNL     1      -0.821   2.686  11.792  1.00  0.00    -0.292 OA
ENDROOT
BRANCH   1   3
HETATM    3  C19 UNL     1      -0.729   5.087  12.217  1.00  0.00     0.128 C 
HETATM    4  C14 UNL     1      -1.677   5.985  13.077  1.00  0.00    -0.002 C 
HETATM    5  C13 UNL     1      -1.805   5.628  14.570  1.00  0.00     0.013 C 
HETATM    6  C15 UNL     1      -3.089   6.049  12.435  1.00  0.00     0.019 C 
HETATM    7  C16 UNL     1      -0.911   7.331  13.004  1.00  0.00     0.002 C 
HETATM    8  C12 UNL     1      -2.491   6.743  15.380  1.00  0.00     0.007 C 
HETATM    9  C11 UNL     1      -1.821   8.130  15.208  1.00  0.00     0.002 C 
HETATM   10  C2  UNL     1      -2.508   9.281  16.038  1.00  0.00    -0.016 C 
HETATM   11  C10 UNL     1      -1.634   8.490  13.702  1.00  0.00    -0.004 C 
HETATM   12  C1  UNL     1      -4.000   9.446  15.675  1.00  0.00     0.020 C 
HETATM   13  C3  UNL     1      -2.395   8.929  17.552  1.00  0.00     0.022 C 
HETATM   14  C7  UNL     1      -1.793  10.610  15.751  1.00  0.00    -0.068 C 
HETATM   15  C4  UNL     1      -2.646  10.110  18.477  1.00  0.00     0.084 C 
HETATM   16  C5  UNL     1      -1.718  11.244  18.134  1.00  0.00     0.149 C 
HETATM   17  O1  UNL     1      -1.279  12.017  18.982  1.00  0.00    -0.293 OA
HETATM   18  C6  UNL     1      -1.399  11.469  16.707  1.00  0.00     0.053 C 
HETATM   19  C8  UNL     1      -1.545  10.943  14.298  1.00  0.00     0.035 C 
HETATM   20  C9  UNL     1      -0.848   9.802  13.566  1.00  0.00     0.010 C 
HETATM   21  C17 UNL     1      -0.579   7.476  11.526  1.00  0.00     0.009 C 
HETATM   22  C18 UNL     1      -0.309   6.037  11.053  1.00  0.00     0.047 C 
BRANCH   3  23
HETATM   23  O2  UNL     1       0.459   4.797  12.960  1.00  0.00    -0.381 OA
HETATM   24  H27 UNL     1       1.072   4.337  12.360  1.00  0.00     0.211 HD
ENDBRANCH   3  23
ENDBRANCH   1   3
BRANCH   1  25
HETATM   25  C21 UNL     1      -2.720   3.888  10.972  1.00  0.00     0.260 C 
BRANCH  25  26
HETATM   26  O4  UNL     1      -3.550   2.773  11.291  1.00  0.00    -0.314 OA
BRANCH  26  27
HETATM   27  C22 UNL     1      -4.877   3.067  11.320  1.00  0.00     0.259 C 
HETATM   28  O5  UNL     1      -5.568   3.251  10.325  1.00  0.00    -0.265 OA
BRANCH  27  29
HETATM   29  C23 UNL     1      -5.399   3.242  12.729  1.00  0.00     0.120 C 
BRANCH  29  30
HETATM   30  C24 UNL     1      -6.844   3.715  12.830  1.00  0.00     0.112 C 
BRANCH  30  31
HETATM   31  C25 UNL     1      -6.969   5.013  13.600  1.00  0.00     0.218 C 
HETATM   32  O6  UNL     1      -6.010   5.721  13.886  1.00  0.00    -0.274 OA
HETATM   33  N1  UNL     1      -8.271   5.319  13.928  1.00  0.00    -0.357 N 
HETATM   34  H34 UNL     1      -8.974   4.599  13.846  1.00  0.00     0.162 HD
BRANCH  33  35
HETATM   35  C26 UNL     1      -8.592   6.468  14.746  1.00  0.00     0.161 C 
BRANCH  35  36
HETATM   36  C27 UNL     1      -9.769   7.222  14.178  1.00  0.00    -0.040 A 
HETATM   37  C28 UNL     1     -10.495   6.708  13.093  1.00  0.00     0.010 A 
HETATM   38  C29 UNL     1     -11.590   7.407  12.579  1.00  0.00     0.019 A 
HETATM   39  C30 UNL     1     -11.978   8.626  13.149  1.00  0.00     0.037 A 
HETATM   40  C32 UNL     1     -11.266   9.136  14.240  1.00  0.00     0.019 A 
HETATM   41  C33 UNL     1     -10.171   8.436  14.752  1.00  0.00     0.010 A 
BRANCH  39  42
HETATM   42  C31 UNL     1     -13.130   9.405  12.635  1.00  0.00     0.176 C 
HETATM   43  O7  UNL     1     -13.086  10.254  11.765  1.00  0.00    -0.646 OA
BRANCH  42  44
HETATM   44  O8  UNL     1     -14.289   9.083  13.236  1.00  0.00    -0.773 OA
HETATM   45  H39 UNL     1     -14.945   9.662  12.795  1.00  0.00     0.167 HD
ENDBRANCH  42  44
ENDBRANCH  39  42
ENDBRANCH  35  36
ENDBRANCH  33  35
ENDBRANCH  30  31
ENDBRANCH  29  30
ENDBRANCH  27  29
ENDBRANCH  26  27
ENDBRANCH  25  26
ENDBRANCH   1  25
TORSDOF 12
ENDMDL
MODEL 8
REMARK minimizedAffinity -9.64920044
REMARK CNNscore 0.401468188
REMARK CNNaffinity 6.7403698
REMARK  12 active torsions:
REMARK  status: ('A' for Active; 'I' for Inactive)
REMARK    1  A    between atoms: C19_20  and  O2_21 
REMARK    2  A    between atoms: C19_20  and  C20_22 
REMARK    3  A    between atoms: C20_22  and  C21_24 
REMARK    4  A    between atoms: C21_24  and  O4_25 
REMARK    5  A    between atoms: O4_25  and  C22_26 
REMARK    6  A    between atoms: C22_26  and  C23_28 
REMARK    7  A    between atoms: C23_28  and  C24_29 
REMARK    8  A    between atoms: C24_29  and  C25_30 
REMARK       I    between atoms: C25_30  and  N1_32 
REMARK    9  A    between atoms: N1_32  and  C26_33 
REMARK   10  A    between atoms: C26_33  and  C27_34 
REMARK   11  A    between atoms: C30_37  and  C31_38 
REMARK   12  A    between atoms: C31_38  and  O8_40 
ROOT
HETATM    1  C20 UNL     1      -0.589   8.935  14.534  1.00  0.00     0.185 C 
HETATM    2  O3  UNL     1       0.295   9.622  14.011  1.00  0.00    -0.292 OA
ENDROOT
BRANCH   1   3
HETATM    3  C19 UNL     1      -1.807   8.415  13.723  1.00  0.00     0.128 C 
HETATM    4  C14 UNL     1      -3.096   8.166  14.572  1.00  0.00    -0.002 C 
HETATM    5  C13 UNL     1      -3.995   9.388  14.843  1.00  0.00     0.013 C 
HETATM    6  C15 UNL     1      -2.731   7.482  15.918  1.00  0.00     0.019 C 
HETATM    7  C16 UNL     1      -3.879   7.239  13.607  1.00  0.00     0.002 C 
HETATM    8  C12 UNL     1      -5.373   8.985  15.398  1.00  0.00     0.007 C 
HETATM    9  C11 UNL     1      -6.114   7.948  14.516  1.00  0.00     0.002 C 
HETATM   10  C2  UNL     1      -7.531   7.532  15.068  1.00  0.00    -0.016 C 
HETATM   11  C10 UNL     1      -5.204   6.726  14.186  1.00  0.00    -0.004 C 
HETATM   12  C1  UNL     1      -7.448   6.944  16.493  1.00  0.00     0.020 C 
HETATM   13  C3  UNL     1      -8.436   8.801  15.100  1.00  0.00     0.022 C 
HETATM   14  C7  UNL     1      -8.144   6.470  14.143  1.00  0.00    -0.068 C 
HETATM   15  C4  UNL     1      -9.921   8.492  15.223  1.00  0.00     0.084 C 
HETATM   16  C5  UNL     1     -10.353   7.570  14.115  1.00  0.00     0.149 C 
HETATM   17  O1  UNL     1     -11.473   7.619  13.615  1.00  0.00    -0.293 OA
HETATM   18  C6  UNL     1      -9.405   6.519  13.681  1.00  0.00     0.053 C 
HETATM   19  C8  UNL     1      -7.252   5.312  13.761  1.00  0.00     0.035 C 
HETATM   20  C9  UNL     1      -5.916   5.785  13.204  1.00  0.00     0.010 C 
HETATM   21  C17 UNL     1      -2.840   6.216  13.170  1.00  0.00     0.009 C 
HETATM   22  C18 UNL     1      -1.527   7.015  13.094  1.00  0.00     0.047 C 
BRANCH   3  23
HETATM   23  O2  UNL     1      -2.111   9.298  12.639  1.00  0.00    -0.381 OA
HETATM   24  H27 UNL     1      -1.324   9.341  12.069  1.00  0.00     0.211 HD
ENDBRANCH   3  23
ENDBRANCH   1   3
BRANCH   1  25
HETATM   25  C21 UNL     1      -0.473   8.527  15.995  1.00  0.00     0.260 C 
BRANCH  25  26
HETATM   26  O4  UNL     1       0.492   9.335  16.666  1.00  0.00    -0.314 OA
BRANCH  26  27
HETATM   27  C22 UNL     1      -0.052  10.277  17.481  1.00  0.00     0.259 C 
HETATM   28  O5  UNL     1      -1.255  10.479  17.600  1.00  0.00    -0.265 OA
BRANCH  27  29
HETATM   29  C23 UNL     1       0.997  11.129  18.160  1.00  0.00     0.120 C 
BRANCH  29  30
HETATM   30  C24 UNL     1       0.848  11.258  19.671  1.00  0.00     0.112 C 
BRANCH  30  31
HETATM   31  C25 UNL     1       1.966  10.560  20.417  1.00  0.00     0.218 C 
HETATM   32  O6  UNL     1       2.492   9.524  20.027  1.00  0.00    -0.274 OA
HETATM   33  N1  UNL     1       2.339  11.221  21.566  1.00  0.00    -0.357 N 
HETATM   34  H34 UNL     1       1.731  11.942  21.930  1.00  0.00     0.162 HD
BRANCH  33  35
HETATM   35  C26 UNL     1       3.324  10.668  22.469  1.00  0.00     0.161 C 
BRANCH  35  36
HETATM   36  C27 UNL     1       4.451  11.643  22.700  1.00  0.00    -0.040 A 
HETATM   37  C28 UNL     1       5.768  11.192  22.871  1.00  0.00     0.010 A 
HETATM   38  C29 UNL     1       6.808  12.103  23.074  1.00  0.00     0.019 A 
HETATM   39  C30 UNL     1       6.546  13.478  23.101  1.00  0.00     0.037 A 
HETATM   40  C32 UNL     1       5.236  13.934  22.917  1.00  0.00     0.019 A 
HETATM   41  C33 UNL     1       4.197  13.022  22.714  1.00  0.00     0.010 A 
BRANCH  39  42
HETATM   42  C31 UNL     1       7.616  14.480  23.317  1.00  0.00     0.176 C 
HETATM   43  O7  UNL     1       7.546  15.667  23.057  1.00  0.00    -0.646 OA
BRANCH  42  44
HETATM   44  O8  UNL     1       8.729  13.949  23.852  1.00  0.00    -0.773 OA
HETATM   45  H39 UNL     1       9.331  14.717  23.942  1.00  0.00     0.167 HD
ENDBRANCH  42  44
ENDBRANCH  39  42
ENDBRANCH  35  36
ENDBRANCH  33  35
ENDBRANCH  30  31
ENDBRANCH  29  30
ENDBRANCH  27  29
ENDBRANCH  26  27
ENDBRANCH  25  26
ENDBRANCH   1  25
TORSDOF 12
ENDMDL
MODEL 9
REMARK minimizedAffinity -8.64597416
REMARK CNNscore 0.388527423
REMARK CNNaffinity 7.26898241
REMARK  12 active torsions:
REMARK  status: ('A' for Active; 'I' for Inactive)
REMARK    1  A    between atoms: C19_20  and  O2_21 
REMARK    2  A    between atoms: C19_20  and  C20_22 
REMARK    3  A    between atoms: C20_22  and  C21_24 
REMARK    4  A    between atoms: C21_24  and  O4_25 
REMARK    5  A    between atoms: O4_25  and  C22_26 
REMARK    6  A    between atoms: C22_26  and  C23_28 
REMARK    7  A    between atoms: C23_28  and  C24_29 
REMARK    8  A    between atoms: C24_29  and  C25_30 
REMARK       I    between atoms: C25_30  and  N1_32 
REMARK    9  A    between atoms: N1_32  and  C26_33 
REMARK   10  A    between atoms: C26_33  and  C27_34 
REMARK   11  A    between atoms: C30_37  and  C31_38 
REMARK   12  A    between atoms: C31_38  and  O8_40 
ROOT
HETATM    1  C20 UNL     1      -5.644   4.950  13.806  1.00  0.00     0.185 C 
HETATM    2  O3  UNL     1      -4.509   5.402  13.987  1.00  0.00    -0.292 OA
ENDROOT
BRANCH   1   3
HETATM    3  C19 UNL     1      -6.818   5.283  14.767  1.00  0.00     0.128 C 
HETATM    4  C14 UNL     1      -7.819   6.355  14.223  1.00  0.00    -0.002 C 
HETATM    5  C13 UNL     1      -8.933   5.851  13.286  1.00  0.00     0.013 C 
HETATM    6  C15 UNL     1      -7.047   7.513  13.536  1.00  0.00     0.019 C 
HETATM    7  C16 UNL     1      -8.505   6.778  15.547  1.00  0.00     0.002 C 
HETATM    8  C12 UNL     1     -10.034   6.905  13.070  1.00  0.00     0.007 C 
HETATM    9  C11 UNL     1     -10.637   7.445  14.392  1.00  0.00     0.002 C 
HETATM   10  C2  UNL     1     -11.772   8.520  14.187  1.00  0.00    -0.016 C 
HETATM   11  C10 UNL     1      -9.523   7.913  15.378  1.00  0.00    -0.004 C 
HETATM   12  C1  UNL     1     -11.277   9.739  13.378  1.00  0.00     0.020 C 
HETATM   13  C3  UNL     1     -12.948   7.849  13.415  1.00  0.00     0.022 C 
HETATM   14  C7  UNL     1     -12.255   9.016  15.558  1.00  0.00    -0.068 C 
HETATM   15  C4  UNL     1     -14.255   8.624  13.494  1.00  0.00     0.084 C 
HETATM   16  C5  UNL     1     -14.636   8.853  14.932  1.00  0.00     0.149 C 
HETATM   17  O1  UNL     1     -15.806   8.892  15.306  1.00  0.00    -0.293 OA
HETATM   18  C6  UNL     1     -13.551   9.119  15.901  1.00  0.00     0.053 C 
HETATM   19  C8  UNL     1     -11.185   9.411  16.548  1.00  0.00     0.035 C 
HETATM   20  C9  UNL     1     -10.142   8.315  16.724  1.00  0.00     0.010 C 
HETATM   21  C17 UNL     1      -7.340   6.992  16.503  1.00  0.00     0.009 C 
HETATM   22  C18 UNL     1      -6.312   5.921  16.098  1.00  0.00     0.047 C 
BRANCH   3  23
HETATM   23  O2  UNL     1      -7.535   4.098  15.126  1.00  0.00    -0.381 OA
HETATM   24  H27 UNL     1      -6.906   3.499  15.564  1.00  0.00     0.211 HD
ENDBRANCH   3  23
ENDBRANCH   1   3
BRANCH   1  25
HETATM   25  C21 UNL     1      -5.937   4.090  12.586  1.00  0.00     0.260 C 
BRANCH  25  26
HETATM   26  O4  UNL     1      -4.751   3.444  12.132  1.00  0.00    -0.314 OA
BRANCH  26  27
HETATM   27  C22 UNL     1      -4.625   3.415  10.778  1.00  0.00     0.259 C 
HETATM   28  O5  UNL     1      -5.548   3.199  10.001  1.00  0.00    -0.265 OA
BRANCH  27  29
HETATM   29  C23 UNL     1      -3.191   3.583  10.327  1.00  0.00     0.120 C 
BRANCH  29  30
HETATM   30  C24 UNL     1      -2.233   2.493  10.795  1.00  0.00     0.112 C 
BRANCH  30  31
HETATM   31  C25 UNL     1      -1.082   3.052  11.604  1.00  0.00     0.218 C 
HETATM   32  O6  UNL     1      -0.069   2.414  11.863  1.00  0.00    -0.274 OA
HETATM   33  N1  UNL     1      -1.289   4.354  12.002  1.00  0.00    -0.357 N 
HETATM   34  H34 UNL     1      -2.221   4.740  11.934  1.00  0.00     0.162 HD
BRANCH  33  35
HETATM   35  C26 UNL     1      -0.351   5.038  12.864  1.00  0.00     0.161 C 
BRANCH  35  36
HETATM   36  C27 UNL     1       0.744   5.692  12.059  1.00  0.00    -0.040 A 
HETATM   37  C28 UNL     1       0.749   5.614  10.658  1.00  0.00     0.010 A 
HETATM   38  C29 UNL     1       1.761   6.231   9.918  1.00  0.00     0.019 A 
HETATM   39  C30 UNL     1       2.777   6.941  10.570  1.00  0.00     0.037 A 
HETATM   40  C32 UNL     1       2.769   7.033  11.966  1.00  0.00     0.019 A 
HETATM   41  C33 UNL     1       1.757   6.415  12.704  1.00  0.00     0.010 A 
BRANCH  39  42
HETATM   42  C31 UNL     1       3.873   7.608   9.827  1.00  0.00     0.176 C 
HETATM   43  O7  UNL     1       3.741   8.489   8.998  1.00  0.00    -0.646 OA
BRANCH  42  44
HETATM   44  O8  UNL     1       5.089   7.139  10.157  1.00  0.00    -0.773 OA
HETATM   45  H39 UNL     1       5.698   7.669   9.602  1.00  0.00     0.167 HD
ENDBRANCH  42  44
ENDBRANCH  39  42
ENDBRANCH  35  36
ENDBRANCH  33  35
ENDBRANCH  30  31
ENDBRANCH  29  30
ENDBRANCH  27  29
ENDBRANCH  26  27
ENDBRANCH  25  26
ENDBRANCH   1  25
TORSDOF 12
ENDMDL
