MODEL 1
REMARK minimizedAffinity -6.94042444
REMARK CNNscore 0.534918606
REMARK CNNaffinity 6.40495682
REMARK  7 active torsions:
REMARK  status: ('A' for Active; 'I' for Inactive)
REMARK    1  A    between atoms: C2_2  and  C3_3 
REMARK    2  A    between atoms: C2_2  and  C4_5 
REMARK    3  A    between atoms: C3_3  and  O1_4 
REMARK    4  A    between atoms: C4_5  and  C5_7 
REMARK    5  A    between atoms: C5_7  and  C6_8 
REMARK    6  A    between atoms: C6_8  and  C7_9 
REMARK    7  A    between atoms: C7_9  and  C9_11 
ROOT
HETATM    1  C9  UNL     1       7.993  10.032  15.368  1.00  0.00    -0.002 C 
HETATM    2  C10 UNL     1       9.054   9.108  14.705  1.00  0.00     0.007 C 
HETATM    3  C11 UNL     1       8.365   8.357  13.552  1.00  0.00     0.015 C 
HETATM    4  C12 UNL     1       7.027   9.088  13.339  1.00  0.00    -0.005 C 
HETATM    5  C13 UNL     1       7.320  10.319  12.426  1.00  0.00     0.021 C 
HETATM    6  C14 UNL     1       5.861   8.372  12.667  1.00  0.00    -0.000 C 
HETATM    7  C15 UNL     1       4.574   8.697  12.954  1.00  0.00    -0.060 C 
HETATM    8  C16 UNL     1       4.264   9.763  14.017  1.00  0.00     0.036 C 
HETATM    9  C17 UNL     1       5.448  10.377  14.794  1.00  0.00     0.015 C 
HETATM   10  C18 UNL     1       6.655   9.433  14.836  1.00  0.00    -0.028 C 
HETATM   11  C19 UNL     1       6.282   8.175  15.681  1.00  0.00     0.016 C 
HETATM   12  C20 UNL     1       3.346   8.021  12.281  1.00  0.00    -0.014 C 
HETATM   13  C21 UNL     1       2.758   7.020  13.300  1.00  0.00     0.020 C 
HETATM   14  C22 UNL     1       2.286   9.082  11.904  1.00  0.00     0.021 C 
HETATM   15  C23 UNL     1       1.127   8.595  11.043  1.00  0.00     0.080 C 
HETATM   16  C24 UNL     1       1.239   7.186  10.514  1.00  0.00     0.135 C 
HETATM   17  O3  UNL     1       0.206   6.551  10.288  1.00  0.00    -0.297 OA
HETATM   18  C25 UNL     1       2.620   6.618  10.163  1.00  0.00     0.018 C 
HETATM   19  C26 UNL     1       2.589   5.093  10.418  1.00  0.00     0.023 C 
HETATM   20  C27 UNL     1       2.807   6.833   8.646  1.00  0.00     0.023 C 
HETATM   21  C28 UNL     1       3.769   7.350  10.937  1.00  0.00     0.020 C 
HETATM   22  C29 UNL     1       5.018   6.488  11.128  1.00  0.00     0.090 C 
HETATM   23  C30 UNL     1       6.159   7.325  11.642  1.00  0.00     0.157 C 
HETATM   24  O4  UNL     1       7.304   7.121  11.244  1.00  0.00    -0.293 OA
ENDROOT
BRANCH   1  25
HETATM   25  C7  UNL     1       8.235  10.184  16.903  1.00  0.00    -0.013 C 
HETATM   26  C8  UNL     1       7.753  11.538  17.433  1.00  0.00     0.010 C 
BRANCH  25  27
HETATM   27  C6  UNL     1       9.741   9.980  17.229  1.00  0.00     0.012 C 
BRANCH  27  28
HETATM   28  C5  UNL     1      10.535  11.285  17.371  1.00  0.00     0.084 C 
BRANCH  28  29
HETATM   29  C4  UNL     1      11.484  11.265  18.562  1.00  0.00     0.157 C 
HETATM   30  O2  UNL     1      11.151  10.815  19.660  1.00  0.00    -0.293 OA
BRANCH  29  31
HETATM   31  C2  UNL     1      12.881  11.796  18.396  1.00  0.00     0.002 C 
HETATM   32  C1  UNL     1      13.690  11.393  17.401  1.00  0.00     0.025 C 
BRANCH  31  33
HETATM   33  C3  UNL     1      13.302  12.823  19.410  1.00  0.00     0.205 C 
BRANCH  33  34
HETATM   34  O1  UNL     1      13.709  12.186  20.612  1.00  0.00    -0.396 OA
HETATM   35  H5  UNL     1      12.904  11.757  20.968  1.00  0.00     0.209 HD
ENDBRANCH  33  34
ENDBRANCH  31  33
ENDBRANCH  29  31
ENDBRANCH  28  29
ENDBRANCH  27  28
ENDBRANCH  25  27
ENDBRANCH   1  25
TORSDOF 7
ENDMDL
MODEL 2
REMARK minimizedAffinity -8.74624729
REMARK CNNscore 0.469123662
REMARK CNNaffinity 7.23072243
REMARK  7 active torsions:
REMARK  status: ('A' for Active; 'I' for Inactive)
REMARK    1  A    between atoms: C2_2  and  C3_3 
REMARK    2  A    between atoms: C2_2  and  C4_5 
REMARK    3  A    between atoms: C3_3  and  O1_4 
REMARK    4  A    between atoms: C4_5  and  C5_7 
REMARK    5  A    between atoms: C5_7  and  C6_8 
REMARK    6  A    between atoms: C6_8  and  C7_9 
REMARK    7  A    between atoms: C7_9  and  C9_11 
ROOT
HETATM    1  C9  UNL     1      -5.504   6.575  15.197  1.00  0.00    -0.002 C 
HETATM    2  C10 UNL     1      -5.183   8.059  15.539  1.00  0.00     0.007 C 
HETATM    3  C11 UNL     1      -6.502   8.849  15.474  1.00  0.00     0.015 C 
HETATM    4  C12 UNL     1      -7.609   7.781  15.433  1.00  0.00    -0.005 C 
HETATM    5  C13 UNL     1      -7.884   7.351  16.908  1.00  0.00     0.021 C 
HETATM    6  C14 UNL     1      -8.982   8.121  14.864  1.00  0.00    -0.000 C 
HETATM    7  C15 UNL     1      -9.758   7.172  14.280  1.00  0.00    -0.060 C 
HETATM    8  C16 UNL     1      -9.239   5.733  14.128  1.00  0.00     0.036 C 
HETATM    9  C17 UNL     1      -7.792   5.434  14.576  1.00  0.00     0.015 C 
HETATM   10  C18 UNL     1      -6.910   6.687  14.532  1.00  0.00    -0.028 C 
HETATM   11  C19 UNL     1      -6.741   7.132  13.045  1.00  0.00     0.016 C 
HETATM   12  C20 UNL     1     -11.176   7.454  13.707  1.00  0.00    -0.014 C 
HETATM   13  C21 UNL     1     -11.044   7.526  12.170  1.00  0.00     0.020 C 
HETATM   14  C22 UNL     1     -12.153   6.322  14.104  1.00  0.00     0.021 C 
HETATM   15  C23 UNL     1     -13.625   6.570  13.799  1.00  0.00     0.080 C 
HETATM   16  C24 UNL     1     -13.978   7.954  13.310  1.00  0.00     0.135 C 
HETATM   17  O3  UNL     1     -14.957   8.093  12.572  1.00  0.00    -0.297 OA
HETATM   18  C25 UNL     1     -13.188   9.162  13.827  1.00  0.00     0.018 C 
HETATM   19  C26 UNL     1     -13.156  10.227  12.706  1.00  0.00     0.023 C 
HETATM   20  C27 UNL     1     -14.002   9.745  15.001  1.00  0.00     0.023 C 
HETATM   21  C28 UNL     1     -11.762   8.757  14.334  1.00  0.00     0.020 C 
HETATM   22  C29 UNL     1     -10.745   9.899  14.266  1.00  0.00     0.090 C 
HETATM   23  C30 UNL     1      -9.485   9.523  14.998  1.00  0.00     0.157 C 
HETATM   24  O4  UNL     1      -8.880  10.363  15.660  1.00  0.00    -0.293 OA
ENDROOT
BRANCH   1  25
HETATM   25  C7  UNL     1      -4.324   5.887  14.441  1.00  0.00    -0.013 C 
HETATM   26  C8  UNL     1      -3.167   6.853  14.172  1.00  0.00     0.010 C 
BRANCH  25  27
HETATM   27  C6  UNL     1      -4.833   5.268  13.109  1.00  0.00     0.012 C 
BRANCH  27  28
HETATM   28  C5  UNL     1      -4.266   3.874  12.808  1.00  0.00     0.084 C 
BRANCH  28  29
HETATM   29  C4  UNL     1      -4.878   3.253  11.558  1.00  0.00     0.157 C 
HETATM   30  O2  UNL     1      -4.465   3.511  10.426  1.00  0.00    -0.293 OA
BRANCH  29  31
HETATM   31  C2  UNL     1      -6.014   2.278  11.705  1.00  0.00     0.002 C 
HETATM   32  C1  UNL     1      -6.005   1.070  11.115  1.00  0.00     0.025 C 
BRANCH  31  33
HETATM   33  C3  UNL     1      -7.150   2.743  12.572  1.00  0.00     0.205 C 
BRANCH  33  34
HETATM   34  O1  UNL     1      -8.173   1.758  12.609  1.00  0.00    -0.396 OA
HETATM   35  H5  UNL     1      -8.523   1.708  11.696  1.00  0.00     0.209 HD
ENDBRANCH  33  34
ENDBRANCH  31  33
ENDBRANCH  29  31
ENDBRANCH  28  29
ENDBRANCH  27  28
ENDBRANCH  25  27
ENDBRANCH   1  25
TORSDOF 7
ENDMDL
MODEL 3
REMARK minimizedAffinity -7.15353537
REMARK CNNscore 0.437933534
REMARK CNNaffinity 6.61336756
REMARK  7 active torsions:
REMARK  status: ('A' for Active; 'I' for Inactive)
REMARK    1  A    between atoms: C2_2  and  C3_3 
REMARK    2  A    between atoms: C2_2  and  C4_5 
REMARK    3  A    between atoms: C3_3  and  O1_4 
REMARK    4  A    between atoms: C4_5  and  C5_7 
REMARK    5  A    between atoms: C5_7  and  C6_8 
REMARK    6  A    between atoms: C6_8  and  C7_9 
REMARK    7  A    between atoms: C7_9  and  C9_11 
ROOT
HETATM    1  C9  UNL     1     -10.412   7.668  14.954  1.00  0.00    -0.002 C 
HETATM    2  C10 UNL     1     -10.092   9.160  14.652  1.00  0.00     0.007 C 
HETATM    3  C11 UNL     1     -11.393   9.831  14.179  1.00  0.00     0.015 C 
HETATM    4  C12 UNL     1     -12.511   8.833  14.529  1.00  0.00    -0.005 C 
HETATM    5  C13 UNL     1     -12.878   9.067  16.028  1.00  0.00     0.021 C 
HETATM    6  C14 UNL     1     -13.842   8.882  13.788  1.00  0.00    -0.000 C 
HETATM    7  C15 UNL     1     -14.596   7.765  13.618  1.00  0.00    -0.060 C 
HETATM    8  C16 UNL     1     -14.089   6.405  14.123  1.00  0.00     0.036 C 
HETATM    9  C17 UNL     1     -12.676   6.342  14.741  1.00  0.00     0.015 C 
HETATM   10  C18 UNL     1     -11.774   7.469  14.222  1.00  0.00    -0.028 C 
HETATM   11  C19 UNL     1     -11.512   7.242  12.699  1.00  0.00     0.016 C 
HETATM   12  C20 UNL     1     -15.973   7.759  12.895  1.00  0.00    -0.014 C 
HETATM   13  C21 UNL     1     -15.748   7.173  11.484  1.00  0.00     0.020 C 
HETATM   14  C22 UNL     1     -16.988   6.891  13.676  1.00  0.00     0.021 C 
HETATM   15  C23 UNL     1     -18.436   6.968  13.207  1.00  0.00     0.080 C 
HETATM   16  C24 UNL     1     -18.739   8.008  12.157  1.00  0.00     0.135 C 
HETATM   17  O3  UNL     1     -19.671   7.808  11.373  1.00  0.00    -0.297 OA
HETATM   18  C25 UNL     1     -17.964   9.331  12.158  1.00  0.00     0.018 C 
HETATM   19  C26 UNL     1     -17.850   9.820  10.695  1.00  0.00     0.023 C 
HETATM   20  C27 UNL     1     -18.839  10.348  12.922  1.00  0.00     0.023 C 
HETATM   21  C28 UNL     1     -16.577   9.198  12.873  1.00  0.00     0.020 C 
HETATM   22  C29 UNL     1     -15.542  10.215  12.388  1.00  0.00     0.090 C 
HETATM   23  C30 UNL     1     -14.332  10.201  13.284  1.00  0.00     0.157 C 
HETATM   24  O4  UNL     1     -13.756  11.251  13.561  1.00  0.00    -0.293 OA
ENDROOT
BRANCH   1  25
HETATM   25  C7  UNL     1      -9.200   6.738  14.634  1.00  0.00    -0.013 C 
HETATM   26  C8  UNL     1      -7.861   7.471  14.755  1.00  0.00     0.010 C 
BRANCH  25  27
HETATM   27  C6  UNL     1      -9.356   6.128  13.213  1.00  0.00     0.012 C 
BRANCH  27  28
HETATM   28  C5  UNL     1      -8.029   5.750  12.543  1.00  0.00     0.084 C 
BRANCH  28  29
HETATM   29  C4  UNL     1      -7.704   4.268  12.684  1.00  0.00     0.157 C 
HETATM   30  O2  UNL     1      -8.577   3.419  12.870  1.00  0.00    -0.293 OA
BRANCH  29  31
HETATM   31  C2  UNL     1      -6.272   3.818  12.580  1.00  0.00     0.002 C 
HETATM   32  C1  UNL     1      -5.901   2.774  11.820  1.00  0.00     0.025 C 
BRANCH  31  33
HETATM   33  C3  UNL     1      -5.286   4.629  13.373  1.00  0.00     0.205 C 
BRANCH  33  34
HETATM   34  O1  UNL     1      -4.351   5.250  12.503  1.00  0.00    -0.396 OA
HETATM   35  H5  UNL     1      -3.844   4.518  12.096  1.00  0.00     0.209 HD
ENDBRANCH  33  34
ENDBRANCH  31  33
ENDBRANCH  29  31
ENDBRANCH  28  29
ENDBRANCH  27  28
ENDBRANCH  25  27
ENDBRANCH   1  25
TORSDOF 7
ENDMDL
MODEL 4
REMARK minimizedAffinity -7.25126314
REMARK CNNscore 0.428842992
REMARK CNNaffinity 6.86387634
REMARK  7 active torsions:
REMARK  status: ('A' for Active; 'I' for Inactive)
REMARK    1  A    between atoms: C2_2  and  C3_3 
REMARK    2  A    between atoms: C2_2  and  C4_5 
REMARK    3  A    between atoms: C3_3  and  O1_4 
REMARK    4  A    between atoms: C4_5  and  C5_7 
REMARK    5  A    between atoms: C5_7  and  C6_8 
REMARK    6  A    between atoms: C6_8  and  C7_9 
REMARK    7  A    between atoms: C7_9  and  C9_11 
ROOT
HETATM    1  C9  UNL     1      -1.549   9.860  15.084  1.00  0.00    -0.002 C 
HETATM    2  C10 UNL     1      -0.345   8.964  14.675  1.00  0.00     0.007 C 
HETATM    3  C11 UNL     1      -0.910   7.709  13.986  1.00  0.00     0.015 C 
HETATM    4  C12 UNL     1      -2.386   8.037  13.700  1.00  0.00    -0.005 C 
HETATM    5  C13 UNL     1      -2.423   8.845  12.365  1.00  0.00     0.021 C 
HETATM    6  C14 UNL     1      -3.397   6.914  13.504  1.00  0.00    -0.000 C 
HETATM    7  C15 UNL     1      -4.707   7.080  13.821  1.00  0.00    -0.060 C 
HETATM    8  C16 UNL     1      -5.190   8.400  14.443  1.00  0.00     0.036 C 
HETATM    9  C17 UNL     1      -4.134   9.476  14.772  1.00  0.00     0.015 C 
HETATM   10  C18 UNL     1      -2.746   8.865  14.997  1.00  0.00    -0.028 C 
HETATM   11  C19 UNL     1      -2.784   7.991  16.291  1.00  0.00     0.016 C 
HETATM   12  C20 UNL     1      -5.787   5.981  13.618  1.00  0.00    -0.014 C 
HETATM   13  C21 UNL     1      -6.084   5.368  15.003  1.00  0.00     0.020 C 
HETATM   14  C22 UNL     1      -7.076   6.594  13.020  1.00  0.00     0.021 C 
HETATM   15  C23 UNL     1      -8.141   5.604  12.565  1.00  0.00     0.080 C 
HETATM   16  C24 UNL     1      -7.746   4.148  12.586  1.00  0.00     0.135 C 
HETATM   17  O3  UNL     1      -8.622   3.296  12.753  1.00  0.00    -0.297 OA
HETATM   18  C25 UNL     1      -6.294   3.754  12.288  1.00  0.00     0.018 C 
HETATM   19  C26 UNL     1      -5.971   2.473  13.092  1.00  0.00     0.023 C 
HETATM   20  C27 UNL     1      -6.240   3.390  10.789  1.00  0.00     0.023 C 
HETATM   21  C28 UNL     1      -5.297   4.929  12.574  1.00  0.00     0.020 C 
HETATM   22  C29 UNL     1      -3.879   4.458  12.901  1.00  0.00     0.090 C 
HETATM   23  C30 UNL     1      -2.928   5.624  12.910  1.00  0.00     0.157 C 
HETATM   24  O4  UNL     1      -1.789   5.497  12.465  1.00  0.00    -0.293 OA
ENDROOT
BRANCH   1  25
HETATM   25  C7  UNL     1      -1.267  10.642  16.406  1.00  0.00    -0.013 C 
HETATM   26  C8  UNL     1      -1.366  12.158  16.215  1.00  0.00     0.010 C 
BRANCH  25  27
HETATM   27  C6  UNL     1       0.132  10.258  16.965  1.00  0.00     0.012 C 
BRANCH  27  28
HETATM   28  C5  UNL     1       0.494  10.953  18.284  1.00  0.00     0.084 C 
BRANCH  28  29
HETATM   29  C4  UNL     1       1.911  10.636  18.742  1.00  0.00     0.157 C 
HETATM   30  O2  UNL     1       2.482   9.588  18.434  1.00  0.00    -0.293 OA
BRANCH  29  31
HETATM   31  C2  UNL     1       2.651  11.637  19.586  1.00  0.00     0.002 C 
HETATM   32  C1  UNL     1       2.561  12.961  19.375  1.00  0.00     0.025 C 
BRANCH  31  33
HETATM   33  C3  UNL     1       3.482  11.052  20.693  1.00  0.00     0.205 C 
BRANCH  33  34
HETATM   34  O1  UNL     1       4.732  10.607  20.185  1.00  0.00    -0.396 OA
HETATM   35  H5  UNL     1       4.520   9.869  19.578  1.00  0.00     0.209 HD
ENDBRANCH  33  34
ENDBRANCH  31  33
ENDBRANCH  29  31
ENDBRANCH  28  29
ENDBRANCH  27  28
ENDBRANCH  25  27
ENDBRANCH   1  25
TORSDOF 7
ENDMDL
MODEL 5
REMARK minimizedAffinity -7.85068989
REMARK CNNscore 0.40747422
REMARK CNNaffinity 6.90545464
REMARK  7 active torsions:
REMARK  status: ('A' for Active; 'I' for Inactive)
REMARK    1  A    between atoms: C2_2  and  C3_3 
REMARK    2  A    between atoms: C2_2  and  C4_5 
REMARK    3  A    between atoms: C3_3  and  O1_4 
REMARK    4  A    between atoms: C4_5  and  C5_7 
REMARK    5  A    between atoms: C5_7  and  C6_8 
REMARK    6  A    between atoms: C6_8  and  C7_9 
REMARK    7  A    between atoms: C7_9  and  C9_11 
ROOT
HETATM    1  C9  UNL     1      -5.987   6.061  14.773  1.00  0.00    -0.002 C 
HETATM    2  C10 UNL     1      -6.122   4.994  13.649  1.00  0.00     0.007 C 
HETATM    3  C11 UNL     1      -4.778   4.929  12.903  1.00  0.00     0.015 C 
HETATM    4  C12 UNL     1      -3.785   5.694  13.795  1.00  0.00    -0.005 C 
HETATM    5  C13 UNL     1      -3.285   4.693  14.883  1.00  0.00     0.021 C 
HETATM    6  C14 UNL     1      -2.515   6.286  13.196  1.00  0.00    -0.000 C 
HETATM    7  C15 UNL     1      -1.934   7.393  13.727  1.00  0.00    -0.060 C 
HETATM    8  C16 UNL     1      -2.585   8.111  14.919  1.00  0.00     0.036 C 
HETATM    9  C17 UNL     1      -3.947   7.589  15.425  1.00  0.00     0.015 C 
HETATM   10  C18 UNL     1      -4.720   6.852  14.326  1.00  0.00    -0.028 C 
HETATM   11  C19 UNL     1      -5.117   7.877  13.216  1.00  0.00     0.016 C 
HETATM   12  C20 UNL     1      -0.625   8.026  13.176  1.00  0.00    -0.014 C 
HETATM   13  C21 UNL     1      -1.026   9.279  12.367  1.00  0.00     0.020 C 
HETATM   14  C22 UNL     1       0.315   8.421  14.339  1.00  0.00     0.021 C 
HETATM   15  C23 UNL     1       1.723   8.851  13.947  1.00  0.00     0.080 C 
HETATM   16  C24 UNL     1       2.091   8.674  12.494  1.00  0.00     0.135 C 
HETATM   17  O3  UNL     1       2.929   9.430  11.996  1.00  0.00    -0.297 OA
HETATM   18  C25 UNL     1       1.505   7.497  11.704  1.00  0.00     0.018 C 
HETATM   19  C26 UNL     1       1.357   7.938  10.229  1.00  0.00     0.023 C 
HETATM   20  C27 UNL     1       2.562   6.373  11.751  1.00  0.00     0.023 C 
HETATM   21  C28 UNL     1       0.166   6.978  12.331  1.00  0.00     0.020 C 
HETATM   22  C29 UNL     1      -0.752   6.289  11.320  1.00  0.00     0.090 C 
HETATM   23  C30 UNL     1      -1.886   5.597  12.027  1.00  0.00     0.157 C 
HETATM   24  O4  UNL     1      -2.293   4.509  11.626  1.00  0.00    -0.293 OA
ENDROOT
BRANCH   1  25
HETATM   25  C7  UNL     1      -7.335   6.808  15.028  1.00  0.00    -0.013 C 
HETATM   26  C8  UNL     1      -7.561   7.102  16.514  1.00  0.00     0.010 C 
BRANCH  25  27
HETATM   27  C6  UNL     1      -8.519   5.982  14.454  1.00  0.00     0.012 C 
BRANCH  27  28
HETATM   28  C5  UNL     1      -9.350   6.725  13.399  1.00  0.00     0.084 C 
BRANCH  28  29
HETATM   29  C4  UNL     1     -10.385   7.655  14.019  1.00  0.00     0.157 C 
HETATM   30  O2  UNL     1     -10.068   8.612  14.727  1.00  0.00    -0.293 OA
BRANCH  29  31
HETATM   31  C2  UNL     1     -11.845   7.412  13.750  1.00  0.00     0.002 C 
HETATM   32  C1  UNL     1     -12.512   6.376  14.287  1.00  0.00     0.025 C 
BRANCH  31  33
HETATM   33  C3  UNL     1     -12.508   8.420  12.854  1.00  0.00     0.205 C 
BRANCH  33  34
HETATM   34  O1  UNL     1     -11.544   9.328  12.341  1.00  0.00    -0.396 OA
HETATM   35  H5  UNL     1     -11.211   9.823  13.117  1.00  0.00     0.209 HD
ENDBRANCH  33  34
ENDBRANCH  31  33
ENDBRANCH  29  31
ENDBRANCH  28  29
ENDBRANCH  27  28
ENDBRANCH  25  27
ENDBRANCH   1  25
TORSDOF 7
ENDMDL
MODEL 6
REMARK minimizedAffinity -6.92485857
REMARK CNNscore 0.390839398
REMARK CNNaffinity 5.77649736
REMARK  7 active torsions:
REMARK  status: ('A' for Active; 'I' for Inactive)
REMARK    1  A    between atoms: C2_2  and  C3_3 
REMARK    2  A    between atoms: C2_2  and  C4_5 
REMARK    3  A    between atoms: C3_3  and  O1_4 
REMARK    4  A    between atoms: C4_5  and  C5_7 
REMARK    5  A    between atoms: C5_7  and  C6_8 
REMARK    6  A    between atoms: C6_8  and  C7_9 
REMARK    7  A    between atoms: C7_9  and  C9_11 
ROOT
HETATM    1  C9  UNL     1       3.831  12.854  20.828  1.00  0.00    -0.002 C 
HETATM    2  C10 UNL     1       4.769  11.914  20.019  1.00  0.00     0.007 C 
HETATM    3  C11 UNL     1       3.951  11.325  18.856  1.00  0.00     0.015 C 
HETATM    4  C12 UNL     1       2.669  12.174  18.797  1.00  0.00    -0.005 C 
HETATM    5  C13 UNL     1       3.008  13.456  17.973  1.00  0.00     0.021 C 
HETATM    6  C14 UNL     1       1.409  11.614  18.146  1.00  0.00    -0.000 C 
HETATM    7  C15 UNL     1       0.173  12.010  18.546  1.00  0.00    -0.060 C 
HETATM    8  C16 UNL     1       0.018  12.998  19.714  1.00  0.00     0.036 C 
HETATM    9  C17 UNL     1       1.293  13.445  20.459  1.00  0.00     0.015 C 
HETATM   10  C18 UNL     1       2.418  12.411  20.339  1.00  0.00    -0.028 C 
HETATM   11  C19 UNL     1       1.994  11.114  21.098  1.00  0.00     0.016 C 
HETATM   12  C20 UNL     1      -1.145  11.495  17.903  1.00  0.00    -0.014 C 
HETATM   13  C21 UNL     1      -1.752  10.456  18.870  1.00  0.00     0.020 C 
HETATM   14  C22 UNL     1      -2.135  12.665  17.689  1.00  0.00     0.021 C 
HETATM   15  C23 UNL     1      -3.380  12.349  16.870  1.00  0.00     0.080 C 
HETATM   16  C24 UNL     1      -3.417  10.989  16.217  1.00  0.00     0.135 C 
HETATM   17  O3  UNL     1      -4.511  10.458  16.009  1.00  0.00    -0.297 OA
HETATM   18  C25 UNL     1      -2.112  10.349  15.727  1.00  0.00     0.018 C 
HETATM   19  C26 UNL     1      -2.254   8.815  15.854  1.00  0.00     0.023 C 
HETATM   20  C27 UNL     1      -2.000  10.685  14.225  1.00  0.00     0.023 C 
HETATM   21  C28 UNL     1      -0.861  10.917  16.481  1.00  0.00     0.020 C 
HETATM   22  C29 UNL     1       0.321   9.947  16.514  1.00  0.00     0.090 C 
HETATM   23  C30 UNL     1       1.557  10.643  17.019  1.00  0.00     0.157 C 
HETATM   24  O4  UNL     1       2.655  10.388  16.528  1.00  0.00    -0.293 OA
ENDROOT
BRANCH   1  25
HETATM   25  C7  UNL     1       4.177  12.849  22.351  1.00  0.00    -0.013 C 
HETATM   26  C8  UNL     1       3.345  13.866  23.137  1.00  0.00     0.010 C 
BRANCH  25  27
HETATM   27  C6  UNL     1       5.694  13.117  22.554  1.00  0.00     0.012 C 
BRANCH  27  28
HETATM   28  C5  UNL     1       6.483  11.904  23.064  1.00  0.00     0.084 C 
BRANCH  28  29
HETATM   29  C4  UNL     1       7.981  12.170  23.135  1.00  0.00     0.157 C 
HETATM   30  O2  UNL     1       8.795  11.282  23.401  1.00  0.00    -0.293 OA
BRANCH  29  31
HETATM   31  C2  UNL     1       8.495  13.556  22.858  1.00  0.00     0.002 C 
HETATM   32  C1  UNL     1       8.266  14.587  23.690  1.00  0.00     0.025 C 
BRANCH  31  33
HETATM   33  C3  UNL     1       9.298  13.702  21.596  1.00  0.00     0.205 C 
BRANCH  33  34
HETATM   34  O1  UNL     1       9.978  14.949  21.590  1.00  0.00    -0.396 OA
HETATM   35  H5  UNL     1       9.276  15.631  21.553  1.00  0.00     0.209 HD
ENDBRANCH  33  34
ENDBRANCH  31  33
ENDBRANCH  29  31
ENDBRANCH  28  29
ENDBRANCH  27  28
ENDBRANCH  25  27
ENDBRANCH   1  25
TORSDOF 7
ENDMDL
MODEL 7
REMARK minimizedAffinity -7.6165309
REMARK CNNscore 0.373930037
REMARK CNNaffinity 7.09516907
REMARK  7 active torsions:
REMARK  status: ('A' for Active; 'I' for Inactive)
REMARK    1  A    between atoms: C2_2  and  C3_3 
REMARK    2  A    between atoms: C2_2  and  C4_5 
REMARK    3  A    between atoms: C3_3  and  O1_4 
REMARK    4  A    between atoms: C4_5  and  C5_7 
REMARK    5  A    between atoms: C5_7  and  C6_8 
REMARK    6  A    between atoms: C6_8  and  C7_9 
REMARK    7  A    between atoms: C7_9  and  C9_11 
ROOT
HETATM    1  C9  UNL     1      -5.872   4.067  13.068  1.00  0.00    -0.002 C 
HETATM    2  C10 UNL     1      -4.880   5.106  13.666  1.00  0.00     0.007 C 
HETATM    3  C11 UNL     1      -5.712   6.246  14.280  1.00  0.00     0.015 C 
HETATM    4  C12 UNL     1      -7.152   5.706  14.338  1.00  0.00    -0.005 C 
HETATM    5  C13 UNL     1      -7.268   4.854  15.641  1.00  0.00     0.021 C 
HETATM    6  C14 UNL     1      -8.331   6.671  14.397  1.00  0.00    -0.000 C 
HETATM    7  C15 UNL     1      -9.543   6.336  13.885  1.00  0.00    -0.060 C 
HETATM    8  C16 UNL     1      -9.738   4.986  13.178  1.00  0.00     0.036 C 
HETATM    9  C17 UNL     1      -8.502   4.078  12.996  1.00  0.00     0.015 C 
HETATM   10  C18 UNL     1      -7.198   4.883  12.990  1.00  0.00    -0.028 C 
HETATM   11  C19 UNL     1      -7.171   5.788  11.717  1.00  0.00     0.016 C 
HETATM   12  C20 UNL     1     -10.787   7.268  13.940  1.00  0.00    -0.014 C 
HETATM   13  C21 UNL     1     -10.962   7.883  12.534  1.00  0.00     0.020 C 
HETATM   14  C22 UNL     1     -12.048   6.462  14.329  1.00  0.00     0.021 C 
HETATM   15  C23 UNL     1     -13.298   7.278  14.634  1.00  0.00     0.080 C 
HETATM   16  C24 UNL     1     -13.115   8.775  14.694  1.00  0.00     0.135 C 
HETATM   17  O3  UNL     1     -14.070   9.503  14.410  1.00  0.00    -0.297 OA
HETATM   18  C25 UNL     1     -11.793   9.355  15.211  1.00  0.00     0.018 C 
HETATM   19  C26 UNL     1     -11.542  10.696  14.483  1.00  0.00     0.023 C 
HETATM   20  C27 UNL     1     -12.011   9.669  16.706  1.00  0.00     0.023 C 
HETATM   21  C28 UNL     1     -10.609   8.340  15.061  1.00  0.00     0.020 C 
HETATM   22  C29 UNL     1      -9.240   9.014  14.956  1.00  0.00     0.090 C 
HETATM   23  C30 UNL     1      -8.141   7.992  15.072  1.00  0.00     0.157 C 
HETATM   24  O4  UNL     1      -7.109   8.259  15.685  1.00  0.00    -0.293 OA
ENDROOT
BRANCH   1  25
HETATM   25  C7  UNL     1      -5.291   3.379  11.792  1.00  0.00    -0.013 C 
HETATM   26  C8  UNL     1      -5.986   2.050  11.484  1.00  0.00     0.010 C 
BRANCH  25  27
HETATM   27  C6  UNL     1      -3.760   3.166  11.951  1.00  0.00     0.012 C 
BRANCH  27  28
HETATM   28  C5  UNL     1      -2.922   3.760  10.811  1.00  0.00     0.084 C 
BRANCH  28  29
HETATM   29  C4  UNL     1      -1.439   3.828  11.150  1.00  0.00     0.157 C 
HETATM   30  O2  UNL     1      -0.710   2.835  11.114  1.00  0.00    -0.293 OA
BRANCH  29  31
HETATM   31  C2  UNL     1      -0.832   5.152  11.529  1.00  0.00     0.002 C 
HETATM   32  C1  UNL     1       0.228   5.667  10.884  1.00  0.00     0.025 C 
BRANCH  31  33
HETATM   33  C3  UNL     1      -1.508   5.864  12.666  1.00  0.00     0.205 C 
BRANCH  33  34
HETATM   34  O1  UNL     1      -1.102   5.304  13.906  1.00  0.00    -0.396 OA
HETATM   35  H5  UNL     1      -1.450   4.388  13.907  1.00  0.00     0.209 HD
ENDBRANCH  33  34
ENDBRANCH  31  33
ENDBRANCH  29  31
ENDBRANCH  28  29
ENDBRANCH  27  28
ENDBRANCH  25  27
ENDBRANCH   1  25
TORSDOF 7
ENDMDL
MODEL 8
REMARK minimizedAffinity -6.45556259
REMARK CNNscore 0.36903736
REMARK CNNaffinity 6.4084897
REMARK  7 active torsions:
REMARK  status: ('A' for Active; 'I' for Inactive)
REMARK    1  A    between atoms: C2_2  and  C3_3 
REMARK    2  A    between atoms: C2_2  and  C4_5 
REMARK    3  A    between atoms: C3_3  and  O1_4 
REMARK    4  A    between atoms: C4_5  and  C5_7 
REMARK    5  A    between atoms: C5_7  and  C6_8 
REMARK    6  A    between atoms: C6_8  and  C7_9 
REMARK    7  A    between atoms: C7_9  and  C9_11 
ROOT
HETATM    1  C9  UNL     1      -4.821 -10.074   5.568  1.00  0.00    -0.002 C 
HETATM    2  C10 UNL     1      -3.641 -11.082   5.679  1.00  0.00     0.007 C 
HETATM    3  C11 UNL     1      -3.368 -11.639   4.271  1.00  0.00     0.015 C 
HETATM    4  C12 UNL     1      -4.145 -10.716   3.316  1.00  0.00    -0.005 C 
HETATM    5  C13 UNL     1      -3.243  -9.470   3.051  1.00  0.00     0.021 C 
HETATM    6  C14 UNL     1      -4.546 -11.209   1.930  1.00  0.00    -0.000 C 
HETATM    7  C15 UNL     1      -5.654 -10.733   1.305  1.00  0.00    -0.060 C 
HETATM    8  C16 UNL     1      -6.566  -9.720   2.014  1.00  0.00     0.036 C 
HETATM    9  C17 UNL     1      -6.231  -9.338   3.472  1.00  0.00     0.015 C 
HETATM   10  C18 UNL     1      -5.437 -10.440   4.183  1.00  0.00    -0.028 C 
HETATM   11  C19 UNL     1      -6.350 -11.696   4.341  1.00  0.00     0.016 C 
HETATM   12  C20 UNL     1      -6.097 -11.179  -0.117  1.00  0.00    -0.014 C 
HETATM   13  C21 UNL     1      -7.273 -12.164   0.056  1.00  0.00     0.020 C 
HETATM   14  C22 UNL     1      -6.546  -9.955  -0.950  1.00  0.00     0.021 C 
HETATM   15  C23 UNL     1      -6.800 -10.208  -2.431  1.00  0.00     0.080 C 
HETATM   16  C24 UNL     1      -6.415 -11.574  -2.946  1.00  0.00     0.135 C 
HETATM   17  O3  UNL     1      -7.028 -12.041  -3.910  1.00  0.00    -0.297 OA
HETATM   18  C25 UNL     1      -5.207 -12.298  -2.339  1.00  0.00     0.018 C 
HETATM   19  C26 UNL     1      -5.477 -13.819  -2.410  1.00  0.00     0.023 C 
HETATM   20  C27 UNL     1      -4.008 -11.994  -3.262  1.00  0.00     0.023 C 
HETATM   21  C28 UNL     1      -4.889 -11.795  -0.890  1.00  0.00     0.020 C 
HETATM   22  C29 UNL     1      -4.166 -12.833  -0.030  1.00  0.00     0.090 C 
HETATM   23  C30 UNL     1      -3.667 -12.205   1.243  1.00  0.00     0.157 C 
HETATM   24  O4  UNL     1      -2.578 -12.533   1.710  1.00  0.00    -0.293 OA
ENDROOT
BRANCH   1  25
HETATM   25  C7  UNL     1      -5.709 -10.077   6.852  1.00  0.00    -0.013 C 
HETATM   26  C8  UNL     1      -6.711  -8.919   6.865  1.00  0.00     0.010 C 
BRANCH  25  27
HETATM   27  C6  UNL     1      -4.812 -10.031   8.121  1.00  0.00     0.012 C 
BRANCH  27  28
HETATM   28  C5  UNL     1      -5.397 -10.774   9.330  1.00  0.00     0.084 C 
BRANCH  28  29
HETATM   29  C4  UNL     1      -5.423  -9.914  10.587  1.00  0.00     0.157 C 
HETATM   30  O2  UNL     1      -4.441  -9.796  11.323  1.00  0.00    -0.293 OA
BRANCH  29  31
HETATM   31  C2  UNL     1      -6.681  -9.170  10.941  1.00  0.00     0.002 C 
HETATM   32  C1  UNL     1      -7.879  -9.498  10.429  1.00  0.00     0.025 C 
BRANCH  31  33
HETATM   33  C3  UNL     1      -6.505  -8.044  11.921  1.00  0.00     0.205 C 
BRANCH  33  34
HETATM   34  O1  UNL     1      -6.298  -8.560  13.228  1.00  0.00    -0.396 OA
HETATM   35  H5  UNL     1      -7.134  -9.010  13.468  1.00  0.00     0.209 HD
ENDBRANCH  33  34
ENDBRANCH  31  33
ENDBRANCH  29  31
ENDBRANCH  28  29
ENDBRANCH  27  28
ENDBRANCH  25  27
ENDBRANCH   1  25
TORSDOF 7
ENDMDL
MODEL 9
REMARK minimizedAffinity -7.33918047
REMARK CNNscore 0.326746494
REMARK CNNaffinity 6.42053413
REMARK  7 active torsions:
REMARK  status: ('A' for Active; 'I' for Inactive)
REMARK    1  A    between atoms: C2_2  and  C3_3 
REMARK    2  A    between atoms: C2_2  and  C4_5 
REMARK    3  A    between atoms: C3_3  and  O1_4 
REMARK    4  A    between atoms: C4_5  and  C5_7 
REMARK    5  A    between atoms: C5_7  and  C6_8 
REMARK    6  A    between atoms: C6_8  and  C7_9 
REMARK    7  A    between atoms: C7_9  and  C9_11 
ROOT
HETATM    1  C9  UNL     1       2.242   6.681  10.328  1.00  0.00    -0.002 C 
HETATM    2  C10 UNL     1       2.735   7.361   9.018  1.00  0.00     0.007 C 
HETATM    3  C11 UNL     1       3.830   8.372   9.399  1.00  0.00     0.015 C 
HETATM    4  C12 UNL     1       4.200   8.034  10.854  1.00  0.00    -0.005 C 
HETATM    5  C13 UNL     1       5.231   6.863  10.803  1.00  0.00     0.021 C 
HETATM    6  C14 UNL     1       4.850   9.087  11.744  1.00  0.00    -0.000 C 
HETATM    7  C15 UNL     1       4.674   9.078  13.091  1.00  0.00    -0.060 C 
HETATM    8  C16 UNL     1       3.760   8.029  13.745  1.00  0.00     0.036 C 
HETATM    9  C17 UNL     1       2.993   7.060  12.821  1.00  0.00     0.015 C 
HETATM   10  C18 UNL     1       2.776   7.652  11.424  1.00  0.00    -0.028 C 
HETATM   11  C19 UNL     1       1.814   8.877  11.540  1.00  0.00     0.016 C 
HETATM   12  C20 UNL     1       5.333  10.109  14.050  1.00  0.00    -0.014 C 
HETATM   13  C21 UNL     1       4.241  11.124  14.453  1.00  0.00     0.020 C 
HETATM   14  C22 UNL     1       5.888   9.398  15.307  1.00  0.00     0.021 C 
HETATM   15  C23 UNL     1       6.752  10.247  16.232  1.00  0.00     0.080 C 
HETATM   16  C24 UNL     1       7.108  11.624  15.727  1.00  0.00     0.135 C 
HETATM   17  O3  UNL     1       7.317  12.523  16.547  1.00  0.00    -0.297 OA
HETATM   18  C25 UNL     1       7.314  11.849  14.224  1.00  0.00     0.018 C 
HETATM   19  C26 UNL     1       6.887  13.298  13.895  1.00  0.00     0.023 C 
HETATM   20  C27 UNL     1       8.833  11.741  13.971  1.00  0.00     0.023 C 
HETATM   21  C28 UNL     1       6.566  10.775  13.363  1.00  0.00     0.020 C 
HETATM   22  C29 UNL     1       6.207  11.264  11.958  1.00  0.00     0.090 C 
HETATM   23  C30 UNL     1       5.729  10.116  11.109  1.00  0.00     0.157 C 
HETATM   24  O4  UNL     1       6.037  10.056   9.921  1.00  0.00    -0.293 OA
ENDROOT
BRANCH   1  25
HETATM   25  C7  UNL     1       0.724   6.324  10.260  1.00  0.00    -0.013 C 
HETATM   26  C8  UNL     1      -0.156   7.567  10.095  1.00  0.00     0.010 C 
BRANCH  25  27
HETATM   27  C6  UNL     1       0.305   5.530  11.529  1.00  0.00     0.012 C 
BRANCH  27  28
HETATM   28  C5  UNL     1      -1.175   5.129  11.558  1.00  0.00     0.084 C 
BRANCH  28  29
HETATM   29  C4  UNL     1      -1.393   3.667  11.188  1.00  0.00     0.157 C 
HETATM   30  O2  UNL     1      -0.465   2.858  11.135  1.00  0.00    -0.293 OA
BRANCH  29  31
HETATM   31  C2  UNL     1      -2.786   3.185  10.891  1.00  0.00     0.002 C 
HETATM   32  C1  UNL     1      -3.520   3.685   9.882  1.00  0.00     0.025 C 
BRANCH  31  33
HETATM   33  C3  UNL     1      -3.292   2.092  11.790  1.00  0.00     0.205 C 
BRANCH  33  34
HETATM   34  O1  UNL     1      -2.933   0.822  11.267  1.00  0.00    -0.396 OA
HETATM   35  H5  UNL     1      -3.424   0.737  10.424  1.00  0.00     0.209 HD
ENDBRANCH  33  34
ENDBRANCH  31  33
ENDBRANCH  29  31
ENDBRANCH  28  29
ENDBRANCH  27  28
ENDBRANCH  25  27
ENDBRANCH   1  25
TORSDOF 7
ENDMDL
