MODEL 1
REMARK minimizedAffinity -9.26818657
REMARK  4 active torsions:
REMARK  status: ('A' for Active; 'I' for Inactive)
REMARK    1  A    between atoms: C4_4  and  C5_5 
REMARK    2  A    between atoms: C5_5  and  C6_6 
REMARK    3  A    between atoms: C6_6  and  C7_7 
REMARK    4  A    between atoms: C7_7  and  C9_9 
ROOT
HETATM    1  C9  UNL     1      -2.628   7.980  14.889  1.00  0.00    -0.002 C 
HETATM    2  C10 UNL     1      -2.144   9.399  15.274  1.00  0.00     0.007 C 
HETATM    3  C11 UNL     1      -0.766   9.594  14.599  1.00  0.00     0.015 C 
HETATM    4  C12 UNL     1      -0.338   8.177  14.151  1.00  0.00    -0.013 C 
HETATM    5  C13 UNL     1       0.295   7.497  15.408  1.00  0.00     0.021 C 
HETATM    6  C14 UNL     1       0.701   8.002  13.046  1.00  0.00    -0.070 C 
HETATM    7  C15 UNL     1       1.525   8.995  12.674  1.00  0.00    -0.022 C 
HETATM    8  C16 UNL     1       2.688   8.825  11.747  1.00  0.00     0.035 C 
HETATM    9  C17 UNL     1       3.062   7.345  11.468  1.00  0.00     0.032 C 
HETATM   10  C18 UNL     1       4.304   7.213  10.495  1.00  0.00     0.068 C 
HETATM   11  C19 UNL     1       5.251   8.433  10.484  1.00  0.00     0.047 C 
HETATM   12  C20 UNL     1       5.191   6.023  10.931  1.00  0.00     0.047 C 
HETATM   13  O1  UNL     1       3.911   6.908   9.144  1.00  0.00    -0.310 OA
HETATM   14  C21 UNL     1       2.991   7.739   8.598  1.00  0.00     0.259 C 
HETATM   15  O2  UNL     1       3.207   8.886   8.240  1.00  0.00    -0.265 OA
HETATM   16  C22 UNL     1       1.665   7.052   8.549  1.00  0.00     0.112 C 
HETATM   17  C23 UNL     1       0.963   7.100   9.904  1.00  0.00     0.020 C 
HETATM   18  C24 UNL     1       1.738   6.517  11.140  1.00  0.00    -0.029 C 
HETATM   19  C25 UNL     1       2.041   5.025  10.870  1.00  0.00     0.016 C 
HETATM   20  C26 UNL     1       0.830   6.585  12.465  1.00  0.00     0.024 C 
HETATM   21  C27 UNL     1      -0.530   5.824  12.331  1.00  0.00     0.010 C 
HETATM   22  C28 UNL     1      -1.573   6.096  13.428  1.00  0.00     0.011 C 
HETATM   23  C29 UNL     1      -1.723   7.602  13.681  1.00  0.00    -0.029 C 
HETATM   24  C30 UNL     1      -2.210   8.281  12.367  1.00  0.00     0.016 C 
ENDROOT
BRANCH   1  25
HETATM   25  C7  UNL     1      -4.158   7.709  14.892  1.00  0.00    -0.014 C 
HETATM   26  C8  UNL     1      -4.820   8.489  13.742  1.00  0.00     0.010 C 
BRANCH  25  27
HETATM   27  C6  UNL     1      -4.726   6.274  14.988  1.00  0.00     0.008 C 
BRANCH  27  28
HETATM   28  C5  UNL     1      -5.799   5.783  14.006  1.00  0.00     0.028 C 
BRANCH  28  29
HETATM   29  C4  UNL     1      -5.314   4.769  13.008  1.00  0.00    -0.025 C 
HETATM   30  C2  UNL     1      -5.925   3.638  12.606  1.00  0.00    -0.091 C 
HETATM   31  C1  UNL     1      -7.276   3.166  13.068  1.00  0.00     0.042 C 
HETATM   32  C3  UNL     1      -5.265   2.726  11.605  1.00  0.00     0.042 C 
ENDBRANCH  28  29
ENDBRANCH  27  28
ENDBRANCH  25  27
ENDBRANCH   1  25
TORSDOF 4
ENDMDL
MODEL 2
REMARK minimizedAffinity -9.20082092
REMARK  4 active torsions:
REMARK  status: ('A' for Active; 'I' for Inactive)
REMARK    1  A    between atoms: C4_4  and  C5_5 
REMARK    2  A    between atoms: C5_5  and  C6_6 
REMARK    3  A    between atoms: C6_6  and  C7_7 
REMARK    4  A    between atoms: C7_7  and  C9_9 
ROOT
HETATM    1  C9  UNL     1      -2.026   6.424  12.486  1.00  0.00    -0.002 C 
HETATM    2  C10 UNL     1      -1.666   5.129  11.718  1.00  0.00     0.007 C 
HETATM    3  C11 UNL     1      -0.165   5.231  11.360  1.00  0.00     0.015 C 
HETATM    4  C12 UNL     1       0.204   6.712  11.608  1.00  0.00    -0.013 C 
HETATM    5  C13 UNL     1      -0.229   7.489  10.322  1.00  0.00     0.021 C 
HETATM    6  C14 UNL     1       1.659   7.113  11.837  1.00  0.00    -0.070 C 
HETATM    7  C15 UNL     1       2.684   6.316  11.493  1.00  0.00    -0.022 C 
HETATM    8  C16 UNL     1       4.121   6.734  11.507  1.00  0.00     0.035 C 
HETATM    9  C17 UNL     1       4.332   8.264  11.665  1.00  0.00     0.032 C 
HETATM   10  C18 UNL     1       5.864   8.662  11.661  1.00  0.00     0.068 C 
HETATM   11  C19 UNL     1       6.791   7.663  10.935  1.00  0.00     0.047 C 
HETATM   12  C20 UNL     1       6.058  10.003  10.913  1.00  0.00     0.047 C 
HETATM   13  O1  UNL     1       6.372   8.900  12.987  1.00  0.00    -0.310 OA
HETATM   14  C21 UNL     1       6.163   7.906  13.883  1.00  0.00     0.259 C 
HETATM   15  O2  UNL     1       6.745   6.833  13.890  1.00  0.00    -0.265 OA
HETATM   16  C22 UNL     1       5.077   8.307  14.828  1.00  0.00     0.112 C 
HETATM   17  C23 UNL     1       3.696   8.096  14.211  1.00  0.00     0.020 C 
HETATM   18  C24 UNL     1       3.401   8.807  12.841  1.00  0.00    -0.029 C 
HETATM   19  C25 UNL     1       3.549  10.333  13.039  1.00  0.00     0.016 C 
HETATM   20  C26 UNL     1       1.887   8.535  12.374  1.00  0.00     0.024 C 
HETATM   21  C27 UNL     1       0.817   9.003  13.414  1.00  0.00     0.010 C 
HETATM   22  C28 UNL     1      -0.620   8.506  13.183  1.00  0.00     0.011 C 
HETATM   23  C29 UNL     1      -0.641   6.997  12.901  1.00  0.00    -0.029 C 
HETATM   24  C30 UNL     1      -0.063   6.253  14.141  1.00  0.00     0.016 C 
ENDROOT
BRANCH   1  25
HETATM   25  C7  UNL     1      -3.229   6.375  13.468  1.00  0.00    -0.014 C 
HETATM   26  C8  UNL     1      -4.163   7.569  13.196  1.00  0.00     0.010 C 
BRANCH  25  27
HETATM   27  C6  UNL     1      -4.039   5.078  13.694  1.00  0.00     0.008 C 
BRANCH  27  28
HETATM   28  C5  UNL     1      -5.334   4.810  12.915  1.00  0.00     0.028 C 
BRANCH  28  29
HETATM   29  C4  UNL     1      -5.320   3.548  12.098  1.00  0.00    -0.025 C 
HETATM   30  C2  UNL     1      -6.238   2.562  12.074  1.00  0.00    -0.091 C 
HETATM   31  C1  UNL     1      -7.520   2.545  12.860  1.00  0.00     0.042 C 
HETATM   32  C3  UNL     1      -6.036   1.350  11.201  1.00  0.00     0.042 C 
ENDBRANCH  28  29
ENDBRANCH  27  28
ENDBRANCH  25  27
ENDBRANCH   1  25
TORSDOF 4
ENDMDL
MODEL 3
REMARK minimizedAffinity -9.02756882
REMARK  4 active torsions:
REMARK  status: ('A' for Active; 'I' for Inactive)
REMARK    1  A    between atoms: C4_4  and  C5_5 
REMARK    2  A    between atoms: C5_5  and  C6_6 
REMARK    3  A    between atoms: C6_6  and  C7_7 
REMARK    4  A    between atoms: C7_7  and  C9_9 
ROOT
HETATM    1  C9  UNL     1      -3.136   7.069  14.525  1.00  0.00    -0.002 C 
HETATM    2  C10 UNL     1      -2.784   5.677  15.102  1.00  0.00     0.007 C 
HETATM    3  C11 UNL     1      -1.620   5.126  14.246  1.00  0.00     0.015 C 
HETATM    4  C12 UNL     1      -1.577   6.038  12.998  1.00  0.00    -0.013 C 
HETATM    5  C13 UNL     1      -2.659   5.482  12.015  1.00  0.00     0.021 C 
HETATM    6  C14 UNL     1      -0.303   6.137  12.163  1.00  0.00    -0.070 C 
HETATM    7  C15 UNL     1       0.676   5.220  12.238  1.00  0.00    -0.022 C 
HETATM    8  C16 UNL     1       1.845   5.155  11.306  1.00  0.00     0.035 C 
HETATM    9  C17 UNL     1       1.701   6.052  10.048  1.00  0.00     0.032 C 
HETATM   10  C18 UNL     1       2.954   5.942   9.086  1.00  0.00     0.068 C 
HETATM   11  C19 UNL     1       3.749   4.624   9.205  1.00  0.00     0.047 C 
HETATM   12  C20 UNL     1       2.492   5.998   7.610  1.00  0.00     0.047 C 
HETATM   13  O1  UNL     1       3.858   7.054   9.234  1.00  0.00    -0.310 OA
HETATM   14  C21 UNL     1       4.275   7.306  10.497  1.00  0.00     0.259 C 
HETATM   15  O2  UNL     1       5.068   6.623  11.125  1.00  0.00    -0.265 OA
HETATM   16  C22 UNL     1       3.578   8.521  11.019  1.00  0.00     0.112 C 
HETATM   17  C23 UNL     1       2.171   8.188  11.508  1.00  0.00     0.020 C 
HETATM   18  C24 UNL     1       1.195   7.501  10.486  1.00  0.00    -0.029 C 
HETATM   19  C25 UNL     1       1.012   8.442   9.273  1.00  0.00     0.016 C 
HETATM   20  C26 UNL     1      -0.257   7.286  11.142  1.00  0.00     0.024 C 
HETATM   21  C27 UNL     1      -0.920   8.611  11.643  1.00  0.00     0.010 C 
HETATM   22  C28 UNL     1      -2.154   8.455  12.547  1.00  0.00     0.011 C 
HETATM   23  C29 UNL     1      -1.895   7.428  13.658  1.00  0.00    -0.029 C 
HETATM   24  C30 UNL     1      -0.711   7.932  14.534  1.00  0.00     0.016 C 
ENDROOT
BRANCH   1  25
HETATM   25  C7  UNL     1      -3.807   8.101  15.474  1.00  0.00    -0.014 C 
HETATM   26  C8  UNL     1      -2.720   8.923  16.190  1.00  0.00     0.010 C 
BRANCH  25  27
HETATM   27  C6  UNL     1      -4.964   9.008  14.997  1.00  0.00     0.008 C 
BRANCH  27  28
HETATM   28  C5  UNL     1      -6.334   8.417  14.638  1.00  0.00     0.028 C 
BRANCH  28  29
HETATM   29  C4  UNL     1      -6.274   7.099  13.916  1.00  0.00    -0.025 C 
HETATM   30  C2  UNL     1      -7.280   6.236  13.674  1.00  0.00    -0.091 C 
HETATM   31  C1  UNL     1      -8.718   6.443  14.061  1.00  0.00     0.042 C 
HETATM   32  C3  UNL     1      -7.019   4.941  12.950  1.00  0.00     0.042 C 
ENDBRANCH  28  29
ENDBRANCH  27  28
ENDBRANCH  25  27
ENDBRANCH   1  25
TORSDOF 4
ENDMDL
MODEL 4
REMARK minimizedAffinity -8.79348278
REMARK  4 active torsions:
REMARK  status: ('A' for Active; 'I' for Inactive)
REMARK    1  A    between atoms: C4_4  and  C5_5 
REMARK    2  A    between atoms: C5_5  and  C6_6 
REMARK    3  A    between atoms: C6_6  and  C7_7 
REMARK    4  A    between atoms: C7_7  and  C9_9 
ROOT
HETATM    1  C9  UNL     1      -2.080   6.418  13.494  1.00  0.00    -0.002 C 
HETATM    2  C10 UNL     1      -1.753   7.198  14.790  1.00  0.00     0.007 C 
HETATM    3  C11 UNL     1      -0.236   7.496  14.755  1.00  0.00     0.015 C 
HETATM    4  C12 UNL     1       0.324   6.582  13.640  1.00  0.00    -0.013 C 
HETATM    5  C13 UNL     1       0.541   5.179  14.296  1.00  0.00     0.021 C 
HETATM    6  C14 UNL     1       1.656   6.913  12.973  1.00  0.00    -0.070 C 
HETATM    7  C15 UNL     1       2.546   7.753  13.528  1.00  0.00    -0.022 C 
HETATM    8  C16 UNL     1       3.941   7.957  13.026  1.00  0.00     0.035 C 
HETATM    9  C17 UNL     1       4.398   6.903  11.982  1.00  0.00     0.032 C 
HETATM   10  C18 UNL     1       5.882   7.150  11.489  1.00  0.00     0.068 C 
HETATM   11  C19 UNL     1       6.774   7.926  12.483  1.00  0.00     0.047 C 
HETATM   12  C20 UNL     1       6.601   5.796  11.281  1.00  0.00     0.047 C 
HETATM   13  O1  UNL     1       5.932   7.798  10.204  1.00  0.00    -0.310 OA
HETATM   14  C21 UNL     1       5.220   8.945  10.097  1.00  0.00     0.259 C 
HETATM   15  O2  UNL     1       5.525  10.011  10.607  1.00  0.00    -0.265 OA
HETATM   16  C22 UNL     1       3.981   8.691   9.300  1.00  0.00     0.112 C 
HETATM   17  C23 UNL     1       2.892   8.047  10.155  1.00  0.00     0.020 C 
HETATM   18  C24 UNL     1       3.250   6.706  10.891  1.00  0.00    -0.029 C 
HETATM   19  C25 UNL     1       3.635   5.651   9.829  1.00  0.00     0.016 C 
HETATM   20  C26 UNL     1       1.974   6.135  11.686  1.00  0.00     0.024 C 
HETATM   21  C27 UNL     1       0.730   5.880  10.772  1.00  0.00     0.010 C 
HETATM   22  C28 UNL     1      -0.605   5.631  11.493  1.00  0.00     0.011 C 
HETATM   23  C29 UNL     1      -0.840   6.678  12.590  1.00  0.00    -0.029 C 
HETATM   24  C30 UNL     1      -0.901   8.086  11.928  1.00  0.00     0.016 C 
ENDROOT
BRANCH   1  25
HETATM   25  C7  UNL     1      -3.532   6.494  12.946  1.00  0.00    -0.014 C 
HETATM   26  C8  UNL     1      -4.005   5.085  12.545  1.00  0.00     0.010 C 
BRANCH  25  27
HETATM   27  C6  UNL     1      -4.644   7.257  13.703  1.00  0.00     0.008 C 
BRANCH  27  28
HETATM   28  C5  UNL     1      -6.124   6.910  13.490  1.00  0.00     0.028 C 
BRANCH  28  29
HETATM   29  C4  UNL     1      -6.498   5.507  13.880  1.00  0.00    -0.025 C 
HETATM   30  C2  UNL     1      -7.461   4.725  13.354  1.00  0.00    -0.091 C 
HETATM   31  C1  UNL     1      -8.362   5.102  12.210  1.00  0.00     0.042 C 
HETATM   32  C3  UNL     1      -7.706   3.342  13.900  1.00  0.00     0.042 C 
ENDBRANCH  28  29
ENDBRANCH  27  28
ENDBRANCH  25  27
ENDBRANCH   1  25
TORSDOF 4
ENDMDL
MODEL 5
REMARK minimizedAffinity -8.70410347
REMARK  4 active torsions:
REMARK  status: ('A' for Active; 'I' for Inactive)
REMARK    1  A    between atoms: C4_4  and  C5_5 
REMARK    2  A    between atoms: C5_5  and  C6_6 
REMARK    3  A    between atoms: C6_6  and  C7_7 
REMARK    4  A    between atoms: C7_7  and  C9_9 
ROOT
HETATM    1  C9  UNL     1      -3.160   5.602  12.605  1.00  0.00    -0.002 C 
HETATM    2  C10 UNL     1      -1.723   5.059  12.788  1.00  0.00     0.007 C 
HETATM    3  C11 UNL     1      -0.936   6.145  13.558  1.00  0.00     0.015 C 
HETATM    4  C12 UNL     1      -1.822   7.410  13.480  1.00  0.00    -0.013 C 
HETATM    5  C13 UNL     1      -1.518   8.069  12.095  1.00  0.00     0.021 C 
HETATM    6  C14 UNL     1      -1.646   8.534  14.497  1.00  0.00    -0.070 C 
HETATM    7  C15 UNL     1      -0.538   8.655  15.247  1.00  0.00    -0.022 C 
HETATM    8  C16 UNL     1      -0.225   9.840  16.106  1.00  0.00     0.035 C 
HETATM    9  C17 UNL     1      -1.138  11.068  15.846  1.00  0.00     0.032 C 
HETATM   10  C18 UNL     1      -0.763  12.300  16.767  1.00  0.00     0.068 C 
HETATM   11  C19 UNL     1       0.697  12.313  17.270  1.00  0.00     0.047 C 
HETATM   12  C20 UNL     1      -0.923  13.619  15.973  1.00  0.00     0.047 C 
HETATM   13  O1  UNL     1      -1.652  12.434  17.892  1.00  0.00    -0.310 OA
HETATM   14  C21 UNL     1      -1.803  11.325  18.655  1.00  0.00     0.259 C 
HETATM   15  O2  UNL     1      -0.961  10.877  19.417  1.00  0.00    -0.265 OA
HETATM   16  C22 UNL     1      -3.137  10.711  18.383  1.00  0.00     0.112 C 
HETATM   17  C23 UNL     1      -3.115   9.877  17.104  1.00  0.00     0.020 C 
HETATM   18  C24 UNL     1      -2.660  10.593  15.782  1.00  0.00    -0.029 C 
HETATM   19  C25 UNL     1      -3.623  11.770  15.505  1.00  0.00     0.016 C 
HETATM   20  C26 UNL     1      -2.762   9.592  14.528  1.00  0.00     0.024 C 
HETATM   21  C27 UNL     1      -4.197   9.011  14.305  1.00  0.00     0.010 C 
HETATM   22  C28 UNL     1      -4.309   7.827  13.331  1.00  0.00     0.011 C 
HETATM   23  C29 UNL     1      -3.245   6.763  13.637  1.00  0.00    -0.029 C 
HETATM   24  C30 UNL     1      -3.478   6.229  15.081  1.00  0.00     0.016 C 
ENDROOT
BRANCH   1  25
HETATM   25  C7  UNL     1      -4.309   4.570  12.425  1.00  0.00    -0.014 C 
HETATM   26  C8  UNL     1      -3.723   3.147  12.410  1.00  0.00     0.010 C 
BRANCH  25  27
HETATM   27  C6  UNL     1      -5.595   4.632  13.281  1.00  0.00     0.008 C 
BRANCH  27  28
HETATM   28  C5  UNL     1      -6.972   4.372  12.656  1.00  0.00     0.028 C 
BRANCH  28  29
HETATM   29  C4  UNL     1      -8.094   5.161  13.271  1.00  0.00    -0.025 C 
HETATM   30  C2  UNL     1      -9.026   5.908  12.647  1.00  0.00    -0.091 C 
HETATM   31  C1  UNL     1      -9.153   6.079  11.159  1.00  0.00     0.042 C 
HETATM   32  C3  UNL     1     -10.067   6.654  13.443  1.00  0.00     0.042 C 
ENDBRANCH  28  29
ENDBRANCH  27  28
ENDBRANCH  25  27
ENDBRANCH   1  25
TORSDOF 4
ENDMDL
MODEL 6
REMARK minimizedAffinity -8.62796116
REMARK  4 active torsions:
REMARK  status: ('A' for Active; 'I' for Inactive)
REMARK    1  A    between atoms: C4_4  and  C5_5 
REMARK    2  A    between atoms: C5_5  and  C6_6 
REMARK    3  A    between atoms: C6_6  and  C7_7 
REMARK    4  A    between atoms: C7_7  and  C9_9 
ROOT
HETATM    1  C9  UNL     1      -5.611   7.258  15.380  1.00  0.00    -0.002 C 
HETATM    2  C10 UNL     1      -5.733   8.800  15.335  1.00  0.00     0.007 C 
HETATM    3  C11 UNL     1      -4.357   9.339  14.880  1.00  0.00     0.015 C 
HETATM    4  C12 UNL     1      -3.392   8.139  15.023  1.00  0.00    -0.013 C 
HETATM    5  C13 UNL     1      -2.962   8.104  16.526  1.00  0.00     0.021 C 
HETATM    6  C14 UNL     1      -2.082   8.110  14.239  1.00  0.00    -0.070 C 
HETATM    7  C15 UNL     1      -1.546   9.216  13.698  1.00  0.00    -0.022 C 
HETATM    8  C16 UNL     1      -0.176   9.284  13.099  1.00  0.00     0.035 C 
HETATM    9  C17 UNL     1       0.712   8.050  13.410  1.00  0.00     0.032 C 
HETATM   10  C18 UNL     1       2.154   8.172  12.768  1.00  0.00     0.068 C 
HETATM   11  C19 UNL     1       2.626   9.618  12.504  1.00  0.00     0.047 C 
HETATM   12  C20 UNL     1       3.210   7.575  13.729  1.00  0.00     0.047 C 
HETATM   13  O1  UNL     1       2.280   7.404  11.556  1.00  0.00    -0.310 OA
HETATM   14  C21 UNL     1       1.340   7.642  10.610  1.00  0.00     0.259 C 
HETATM   15  O2  UNL     1       1.273   8.650   9.925  1.00  0.00    -0.265 OA
HETATM   16  C22 UNL     1       0.373   6.504  10.572  1.00  0.00     0.112 C 
HETATM   17  C23 UNL     1      -0.663   6.616  11.688  1.00  0.00     0.020 C 
HETATM   18  C24 UNL     1      -0.129   6.717  13.162  1.00  0.00    -0.029 C 
HETATM   19  C25 UNL     1       0.695   5.446  13.473  1.00  0.00     0.016 C 
HETATM   20  C26 UNL     1      -1.350   6.759  14.208  1.00  0.00     0.024 C 
HETATM   21  C27 UNL     1      -2.300   5.520  14.111  1.00  0.00     0.010 C 
HETATM   22  C28 UNL     1      -3.642   5.632  14.853  1.00  0.00     0.011 C 
HETATM   23  C29 UNL     1      -4.328   6.971  14.547  1.00  0.00    -0.029 C 
HETATM   24  C30 UNL     1      -4.610   7.047  13.018  1.00  0.00     0.016 C 
ENDROOT
BRANCH   1  25
HETATM   25  C7  UNL     1      -6.909   6.421  15.213  1.00  0.00    -0.014 C 
HETATM   26  C8  UNL     1      -8.020   7.308  14.622  1.00  0.00     0.010 C 
BRANCH  25  27
HETATM   27  C6  UNL     1      -6.895   5.029  14.540  1.00  0.00     0.008 C 
BRANCH  27  28
HETATM   28  C5  UNL     1      -7.367   4.848  13.091  1.00  0.00     0.028 C 
BRANCH  28  29
HETATM   29  C4  UNL     1      -7.176   3.461  12.542  1.00  0.00    -0.025 C 
HETATM   30  C2  UNL     1      -6.070   2.932  11.984  1.00  0.00    -0.091 C 
HETATM   31  C1  UNL     1      -4.751   3.637  11.825  1.00  0.00     0.042 C 
HETATM   32  C3  UNL     1      -6.077   1.518  11.463  1.00  0.00     0.042 C 
ENDBRANCH  28  29
ENDBRANCH  27  28
ENDBRANCH  25  27
ENDBRANCH   1  25
TORSDOF 4
ENDMDL
MODEL 7
REMARK minimizedAffinity -8.47753716
REMARK  4 active torsions:
REMARK  status: ('A' for Active; 'I' for Inactive)
REMARK    1  A    between atoms: C4_4  and  C5_5 
REMARK    2  A    between atoms: C5_5  and  C6_6 
REMARK    3  A    between atoms: C6_6  and  C7_7 
REMARK    4  A    between atoms: C7_7  and  C9_9 
ROOT
HETATM    1  C9  UNL     1      -1.504   5.912  12.048  1.00  0.00    -0.002 C 
HETATM    2  C10 UNL     1       0.038   6.036  11.998  1.00  0.00     0.007 C 
HETATM    3  C11 UNL     1       0.406   7.292  12.820  1.00  0.00     0.015 C 
HETATM    4  C12 UNL     1      -0.929   8.049  13.013  1.00  0.00    -0.013 C 
HETATM    5  C13 UNL     1      -1.150   8.879  11.707  1.00  0.00     0.021 C 
HETATM    6  C14 UNL     1      -1.084   9.055  14.150  1.00  0.00    -0.070 C 
HETATM    7  C15 UNL     1      -0.027   9.587  14.785  1.00  0.00    -0.022 C 
HETATM    8  C16 UNL     1      -0.110  10.720  15.760  1.00  0.00     0.035 C 
HETATM    9  C17 UNL     1      -1.482  11.445  15.770  1.00  0.00     0.032 C 
HETATM   10  C18 UNL     1      -1.519  12.643  16.806  1.00  0.00     0.068 C 
HETATM   11  C19 UNL     1      -0.140  13.249  17.145  1.00  0.00     0.047 C 
HETATM   12  C20 UNL     1      -2.340  13.818  16.223  1.00  0.00     0.047 C 
HETATM   13  O1  UNL     1      -2.194  12.289  18.028  1.00  0.00    -0.310 OA
HETATM   14  C21 UNL     1      -1.744  11.170  18.644  1.00  0.00     0.259 C 
HETATM   15  O2  UNL     1      -0.684  11.075  19.241  1.00  0.00    -0.265 OA
HETATM   16  C22 UNL     1      -2.723  10.059  18.435  1.00  0.00     0.112 C 
HETATM   17  C23 UNL     1      -2.553   9.419  17.059  1.00  0.00     0.020 C 
HETATM   18  C24 UNL     1      -2.653  10.363  15.806  1.00  0.00    -0.029 C 
HETATM   19  C25 UNL     1      -4.051  11.022  15.799  1.00  0.00     0.016 C 
HETATM   20  C26 UNL     1      -2.520   9.517  14.446  1.00  0.00     0.024 C 
HETATM   21  C27 UNL     1      -3.595   8.390  14.302  1.00  0.00     0.010 C 
HETATM   22  C28 UNL     1      -3.350   7.353  13.192  1.00  0.00     0.011 C 
HETATM   23  C29 UNL     1      -1.905   6.837  13.232  1.00  0.00    -0.029 C 
HETATM   24  C30 UNL     1      -1.663   6.145  14.606  1.00  0.00     0.016 C 
ENDROOT
BRANCH   1  25
HETATM   25  C7  UNL     1      -2.126   4.501  11.853  1.00  0.00    -0.014 C 
HETATM   26  C8  UNL     1      -1.003   3.465  11.670  1.00  0.00     0.010 C 
BRANCH  25  27
HETATM   27  C6  UNL     1      -3.227   3.964  12.796  1.00  0.00     0.008 C 
BRANCH  27  28
HETATM   28  C5  UNL     1      -4.639   3.668  12.273  1.00  0.00     0.028 C 
BRANCH  28  29
HETATM   29  C4  UNL     1      -5.716   4.541  12.855  1.00  0.00    -0.025 C 
HETATM   30  C2  UNL     1      -6.978   4.200  13.182  1.00  0.00    -0.091 C 
HETATM   31  C1  UNL     1      -7.570   2.823  13.056  1.00  0.00     0.042 C 
HETATM   32  C3  UNL     1      -7.929   5.229  13.736  1.00  0.00     0.042 C 
ENDBRANCH  28  29
ENDBRANCH  27  28
ENDBRANCH  25  27
ENDBRANCH   1  25
TORSDOF 4
ENDMDL
MODEL 8
REMARK minimizedAffinity -8.3999939
REMARK  4 active torsions:
REMARK  status: ('A' for Active; 'I' for Inactive)
REMARK    1  A    between atoms: C4_4  and  C5_5 
REMARK    2  A    between atoms: C5_5  and  C6_6 
REMARK    3  A    between atoms: C6_6  and  C7_7 
REMARK    4  A    between atoms: C7_7  and  C9_9 
ROOT
HETATM    1  C9  UNL     1      -2.341   4.983  12.087  1.00  0.00    -0.002 C 
HETATM    2  C10 UNL     1      -1.080   4.086  12.080  1.00  0.00     0.007 C 
HETATM    3  C11 UNL     1       0.073   4.942  12.654  1.00  0.00     0.015 C 
HETATM    4  C12 UNL     1      -0.461   6.393  12.636  1.00  0.00    -0.013 C 
HETATM    5  C13 UNL     1      -0.229   6.923  11.184  1.00  0.00     0.021 C 
HETATM    6  C14 UNL     1       0.160   7.451  13.544  1.00  0.00    -0.070 C 
HETATM    7  C15 UNL     1       1.369   7.292  14.107  1.00  0.00    -0.022 C 
HETATM    8  C16 UNL     1       2.111   8.369  14.835  1.00  0.00     0.035 C 
HETATM    9  C17 UNL     1       1.513   9.788  14.643  1.00  0.00     0.032 C 
HETATM   10  C18 UNL     1       2.336  10.896  15.419  1.00  0.00     0.068 C 
HETATM   11  C19 UNL     1       3.812  10.535  15.691  1.00  0.00     0.047 C 
HETATM   12  C20 UNL     1       2.390  12.196  14.581  1.00  0.00     0.047 C 
HETATM   13  O1  UNL     1       1.707  11.278  16.657  1.00  0.00    -0.310 OA
HETATM   14  C21 UNL     1       1.404  10.263  17.500  1.00  0.00     0.259 C 
HETATM   15  O2  UNL     1       2.216   9.624  18.150  1.00  0.00    -0.265 OA
HETATM   16  C22 UNL     1      -0.069  10.014  17.473  1.00  0.00     0.112 C 
HETATM   17  C23 UNL     1      -0.471   9.180  16.259  1.00  0.00     0.020 C 
HETATM   18  C24 UNL     1      -0.069   9.727  14.841  1.00  0.00    -0.029 C 
HETATM   19  C25 UNL     1      -0.732  11.110  14.644  1.00  0.00     0.016 C 
HETATM   20  C26 UNL     1      -0.627   8.764  13.681  1.00  0.00     0.024 C 
HETATM   21  C27 UNL     1      -2.180   8.576  13.716  1.00  0.00     0.010 C 
HETATM   22  C28 UNL     1      -2.748   7.444  12.844  1.00  0.00     0.011 C 
HETATM   23  C29 UNL     1      -1.957   6.144  13.047  1.00  0.00    -0.029 C 
HETATM   24  C30 UNL     1      -2.078   5.717  14.540  1.00  0.00     0.016 C 
ENDROOT
BRANCH   1  25
HETATM   25  C7  UNL     1      -3.728   4.285  12.148  1.00  0.00    -0.014 C 
HETATM   26  C8  UNL     1      -3.536   2.757  12.150  1.00  0.00     0.010 C 
BRANCH  25  27
HETATM   27  C6  UNL     1      -4.805   4.709  13.173  1.00  0.00     0.008 C 
BRANCH  27  28
HETATM   28  C5  UNL     1      -6.277   4.325  12.976  1.00  0.00     0.028 C 
BRANCH  28  29
HETATM   29  C4  UNL     1      -7.254   5.204  13.706  1.00  0.00    -0.025 C 
HETATM   30  C2  UNL     1      -8.345   5.823  13.215  1.00  0.00    -0.091 C 
HETATM   31  C1  UNL     1      -8.839   5.726  11.798  1.00  0.00     0.042 C 
HETATM   32  C3  UNL     1      -9.197   6.693  14.104  1.00  0.00     0.042 C 
ENDBRANCH  28  29
ENDBRANCH  27  28
ENDBRANCH  25  27
ENDBRANCH   1  25
TORSDOF 4
ENDMDL
MODEL 9
REMARK minimizedAffinity -8.06734848
REMARK  4 active torsions:
REMARK  status: ('A' for Active; 'I' for Inactive)
REMARK    1  A    between atoms: C4_4  and  C5_5 
REMARK    2  A    between atoms: C5_5  and  C6_6 
REMARK    3  A    between atoms: C6_6  and  C7_7 
REMARK    4  A    between atoms: C7_7  and  C9_9 
ROOT
HETATM    1  C9  UNL     1       2.283   7.959  11.418  1.00  0.00    -0.002 C 
HETATM    2  C10 UNL     1       2.835   6.601  10.921  1.00  0.00     0.007 C 
HETATM    3  C11 UNL     1       4.331   6.564  11.311  1.00  0.00     0.015 C 
HETATM    4  C12 UNL     1       4.680   8.023  11.689  1.00  0.00    -0.013 C 
HETATM    5  C13 UNL     1       4.975   8.762  10.344  1.00  0.00     0.021 C 
HETATM    6  C14 UNL     1       5.890   8.318  12.572  1.00  0.00    -0.070 C 
HETATM    7  C15 UNL     1       6.875   7.425  12.759  1.00  0.00    -0.022 C 
HETATM    8  C16 UNL     1       8.172   7.728  13.443  1.00  0.00     0.035 C 
HETATM    9  C17 UNL     1       8.428   9.242  13.667  1.00  0.00     0.032 C 
HETATM   10  C18 UNL     1       9.815   9.516  14.381  1.00  0.00     0.068 C 
HETATM   11  C19 UNL     1      10.874   8.410  14.186  1.00  0.00     0.047 C 
HETATM   12  C20 UNL     1      10.462  10.796  13.800  1.00  0.00     0.047 C 
HETATM   13  O1  UNL     1       9.664   9.783  15.788  1.00  0.00    -0.310 OA
HETATM   14  C21 UNL     1       8.967   8.857  16.489  1.00  0.00     0.259 C 
HETATM   15  O2  UNL     1       9.373   7.743  16.779  1.00  0.00    -0.265 OA
HETATM   16  C22 UNL     1       7.609   9.393  16.809  1.00  0.00     0.112 C 
HETATM   17  C23 UNL     1       6.664   9.260  15.617  1.00  0.00     0.020 C 
HETATM   18  C24 UNL     1       7.112   9.919  14.263  1.00  0.00    -0.029 C 
HETATM   19  C25 UNL     1       7.295  11.437  14.493  1.00  0.00     0.016 C 
HETATM   20  C26 UNL     1       5.974   9.744  13.140  1.00  0.00     0.024 C 
HETATM   21  C27 UNL     1       4.591  10.349  13.550  1.00  0.00     0.010 C 
HETATM   22  C28 UNL     1       3.390   9.957  12.675  1.00  0.00     0.011 C 
HETATM   23  C29 UNL     1       3.360   8.442  12.431  1.00  0.00    -0.029 C 
HETATM   24  C30 UNL     1       3.218   7.720  13.803  1.00  0.00     0.016 C 
ENDROOT
BRANCH   1  25
HETATM   25  C7  UNL     1       0.761   8.058  11.719  1.00  0.00    -0.014 C 
HETATM   26  C8  UNL     1       0.516   9.156  12.770  1.00  0.00     0.010 C 
BRANCH  25  27
HETATM   27  C6  UNL     1      -0.286   8.134  10.584  1.00  0.00     0.008 C 
BRANCH  27  28
HETATM   28  C5  UNL     1       0.065   8.752   9.225  1.00  0.00     0.028 C 
BRANCH  28  29
HETATM   29  C4  UNL     1       0.541   7.766   8.195  1.00  0.00    -0.025 C 
HETATM   30  C2  UNL     1       1.734   7.725   7.569  1.00  0.00    -0.091 C 
HETATM   31  C1  UNL     1       2.877   8.673   7.809  1.00  0.00     0.042 C 
HETATM   32  C3  UNL     1       2.021   6.664   6.538  1.00  0.00     0.042 C 
ENDBRANCH  28  29
ENDBRANCH  27  28
ENDBRANCH  25  27
ENDBRANCH   1  25
TORSDOF 4
ENDMDL
