MODEL 1
REMARK minimizedAffinity -8.56453514
REMARK CNNscore 0.599021375
REMARK CNNaffinity 7.31204224
REMARK  7 active torsions:
REMARK  status: ('A' for Active; 'I' for Inactive)
REMARK    1  A    between atoms: C4_4  and  C5_5 
REMARK    2  A    between atoms: C5_5  and  O1_6 
REMARK    3  A    between atoms: C5_5  and  C6_7 
REMARK    4  A    between atoms: C6_7  and  C7_8 
REMARK    5  A    between atoms: C7_8  and  C8_9 
REMARK    6  A    between atoms: C7_8  and  C9_11 
REMARK    7  A    between atoms: C8_9  and  O2_10 
ROOT
HETATM    1  C9  UNL     1      -3.307   6.838  14.547  1.00  0.00     0.001 C 
HETATM    2  C10 UNL     1      -3.495   5.473  13.816  1.00  0.00     0.007 C 
HETATM    3  C11 UNL     1      -5.004   5.221  13.670  1.00  0.00     0.015 C 
HETATM    4  C12 UNL     1      -5.670   6.273  14.578  1.00  0.00    -0.013 C 
HETATM    5  C13 UNL     1      -5.670   5.663  16.012  1.00  0.00     0.021 C 
HETATM    6  C14 UNL     1      -7.098   6.677  14.257  1.00  0.00    -0.070 C 
HETATM    7  C15 UNL     1      -7.929   5.963  13.480  1.00  0.00    -0.022 C 
HETATM    8  C16 UNL     1      -9.277   6.489  13.112  1.00  0.00     0.034 C 
HETATM    9  C17 UNL     1     -10.021   7.160  14.292  1.00  0.00     0.013 C 
HETATM   10  C18 UNL     1     -11.309   7.921  13.819  1.00  0.00     0.018 C 
HETATM   11  C19 UNL     1     -12.342   6.904  13.267  1.00  0.00     0.023 C 
HETATM   12  C20 UNL     1     -11.066   8.960  12.710  1.00  0.00     0.023 C 
HETATM   13  C21 UNL     1     -11.937   8.618  15.030  1.00  0.00     0.135 C 
HETATM   14  O3  UNL     1     -13.139   8.520  15.298  1.00  0.00    -0.297 OA
HETATM   15  C22 UNL     1     -11.060   9.486  15.900  1.00  0.00     0.080 C 
HETATM   16  C23 UNL     1      -9.581   9.393  15.567  1.00  0.00     0.017 C 
HETATM   17  C24 UNL     1      -9.072   7.953  15.298  1.00  0.00    -0.031 C 
HETATM   18  C25 UNL     1      -9.117   7.184  16.654  1.00  0.00     0.016 C 
HETATM   19  C26 UNL     1      -7.581   8.031  14.762  1.00  0.00     0.024 C 
HETATM   20  C27 UNL     1      -6.585   8.719  15.733  1.00  0.00     0.010 C 
HETATM   21  C28 UNL     1      -5.084   8.612  15.385  1.00  0.00     0.011 C 
HETATM   22  C29 UNL     1      -4.715   7.507  14.373  1.00  0.00    -0.029 C 
HETATM   23  C30 UNL     1      -4.799   8.126  12.942  1.00  0.00     0.016 C 
ENDROOT
BRANCH   1  24
HETATM   24  C7  UNL     1      -2.006   7.576  14.074  1.00  0.00     0.017 C 
BRANCH  24  25
HETATM   25  C6  UNL     1      -1.967   7.600  12.511  1.00  0.00     0.043 C 
BRANCH  25  26
HETATM   26  C5  UNL     1      -1.247   8.743  11.772  1.00  0.00     0.141 C 
BRANCH  26  27
HETATM   27  C4  UNL     1       0.131   8.393  11.277  1.00  0.00     0.006 C 
HETATM   28  C2  UNL     1       0.527   8.278   9.991  1.00  0.00    -0.089 C 
HETATM   29  C1  UNL     1      -0.369   8.467   8.798  1.00  0.00     0.042 C 
HETATM   30  C3  UNL     1       1.953   7.941   9.650  1.00  0.00     0.042 C 
ENDBRANCH  26  27
BRANCH  26  31
HETATM   31  O1  UNL     1      -1.180   9.915  12.571  1.00  0.00    -0.392 OA
HETATM   32  H9  UNL     1      -0.622   9.686  13.345  1.00  0.00     0.210 HD
ENDBRANCH  26  31
ENDBRANCH  25  26
ENDBRANCH  24  25
BRANCH  24  33
HETATM   33  C8  UNL     1      -0.738   6.954  14.671  1.00  0.00     0.169 C 
BRANCH  33  34
HETATM   34  O2  UNL     1      -0.849   6.882  16.091  1.00  0.00    -0.400 OA
HETATM   35  H15 UNL     1      -0.094   6.350  16.404  1.00  0.00     0.209 HD
ENDBRANCH  33  34
ENDBRANCH  24  33
ENDBRANCH   1  24
TORSDOF 7
ENDMDL
MODEL 2
REMARK minimizedAffinity -9.35256767
REMARK CNNscore 0.568827271
REMARK CNNaffinity 7.16838598
REMARK  7 active torsions:
REMARK  status: ('A' for Active; 'I' for Inactive)
REMARK    1  A    between atoms: C4_4  and  C5_5 
REMARK    2  A    between atoms: C5_5  and  O1_6 
REMARK    3  A    between atoms: C5_5  and  C6_7 
REMARK    4  A    between atoms: C6_7  and  C7_8 
REMARK    5  A    between atoms: C7_8  and  C8_9 
REMARK    6  A    between atoms: C7_8  and  C9_11 
REMARK    7  A    between atoms: C8_9  and  O2_10 
ROOT
HETATM    1  C9  UNL     1       0.721   6.375  12.212  1.00  0.00     0.001 C 
HETATM    2  C10 UNL     1       0.865   4.824  12.131  1.00  0.00     0.007 C 
HETATM    3  C11 UNL     1      -0.487   4.205  12.518  1.00  0.00     0.015 C 
HETATM    4  C12 UNL     1      -1.300   5.371  13.113  1.00  0.00    -0.013 C 
HETATM    5  C13 UNL     1      -0.876   5.470  14.609  1.00  0.00     0.021 C 
HETATM    6  C14 UNL     1      -2.815   5.263  13.077  1.00  0.00    -0.070 C 
HETATM    7  C15 UNL     1      -3.486   4.116  12.890  1.00  0.00    -0.022 C 
HETATM    8  C16 UNL     1      -4.972   4.111  12.745  1.00  0.00     0.034 C 
HETATM    9  C17 UNL     1      -5.694   5.048  13.744  1.00  0.00     0.013 C 
HETATM   10  C18 UNL     1      -7.215   5.216  13.401  1.00  0.00     0.018 C 
HETATM   11  C19 UNL     1      -7.943   3.859  13.583  1.00  0.00     0.023 C 
HETATM   12  C20 UNL     1      -7.498   5.687  11.963  1.00  0.00     0.023 C 
HETATM   13  C21 UNL     1      -7.831   6.215  14.386  1.00  0.00     0.135 C 
HETATM   14  O3  UNL     1      -8.879   5.980  14.996  1.00  0.00    -0.297 OA
HETATM   15  C22 UNL     1      -7.150   7.547  14.584  1.00  0.00     0.080 C 
HETATM   16  C23 UNL     1      -5.793   7.649  13.911  1.00  0.00     0.017 C 
HETATM   17  C24 UNL     1      -4.900   6.392  14.070  1.00  0.00    -0.031 C 
HETATM   18  C25 UNL     1      -4.479   6.308  15.570  1.00  0.00     0.016 C 
HETATM   19  C26 UNL     1      -3.618   6.556  13.151  1.00  0.00     0.024 C 
HETATM   20  C27 UNL     1      -2.752   7.803  13.472  1.00  0.00     0.010 C 
HETATM   21  C28 UNL     1      -1.372   7.891  12.786  1.00  0.00     0.011 C 
HETATM   22  C29 UNL     1      -0.836   6.567  12.202  1.00  0.00    -0.029 C 
HETATM   23  C30 UNL     1      -1.341   6.458  10.728  1.00  0.00     0.016 C 
ENDROOT
BRANCH   1  24
HETATM   24  C7  UNL     1       1.624   7.099  11.154  1.00  0.00     0.017 C 
BRANCH  24  25
HETATM   25  C6  UNL     1       3.036   6.426  11.136  1.00  0.00     0.043 C 
BRANCH  25  26
HETATM   26  C5  UNL     1       3.761   6.183   9.800  1.00  0.00     0.141 C 
BRANCH  26  27
HETATM   27  C4  UNL     1       2.858   6.180   8.594  1.00  0.00     0.006 C 
HETATM   28  C2  UNL     1       2.562   7.231   7.799  1.00  0.00    -0.089 C 
HETATM   29  C1  UNL     1       3.082   8.628   7.996  1.00  0.00     0.042 C 
HETATM   30  C3  UNL     1       1.655   7.067   6.610  1.00  0.00     0.042 C 
ENDBRANCH  26  27
BRANCH  26  31
HETATM   31  O1  UNL     1       4.514   4.979   9.830  1.00  0.00    -0.392 OA
HETATM   32  H9  UNL     1       3.863   4.252   9.933  1.00  0.00     0.210 HD
ENDBRANCH  26  31
ENDBRANCH  25  26
ENDBRANCH  24  25
BRANCH  24  33
HETATM   33  C8  UNL     1       1.711   8.610  11.404  1.00  0.00     0.169 C 
BRANCH  33  34
HETATM   34  O2  UNL     1       2.803   8.900  12.273  1.00  0.00    -0.400 OA
HETATM   35  H15 UNL     1       2.905   9.870  12.279  1.00  0.00     0.209 HD
ENDBRANCH  33  34
ENDBRANCH  24  33
ENDBRANCH   1  24
TORSDOF 7
ENDMDL
MODEL 3
REMARK minimizedAffinity -8.56007195
REMARK CNNscore 0.541342139
REMARK CNNaffinity 6.963943
REMARK  7 active torsions:
REMARK  status: ('A' for Active; 'I' for Inactive)
REMARK    1  A    between atoms: C4_4  and  C5_5 
REMARK    2  A    between atoms: C5_5  and  O1_6 
REMARK    3  A    between atoms: C5_5  and  C6_7 
REMARK    4  A    between atoms: C6_7  and  C7_8 
REMARK    5  A    between atoms: C7_8  and  C8_9 
REMARK    6  A    between atoms: C7_8  and  C9_11 
REMARK    7  A    between atoms: C8_9  and  O2_10 
ROOT
HETATM    1  C9  UNL     1      -3.338   7.010  14.311  1.00  0.00     0.001 C 
HETATM    2  C10 UNL     1      -3.528   5.625  13.619  1.00  0.00     0.007 C 
HETATM    3  C11 UNL     1      -5.035   5.333  13.556  1.00  0.00     0.015 C 
HETATM    4  C12 UNL     1      -5.681   6.387  14.475  1.00  0.00    -0.013 C 
HETATM    5  C13 UNL     1      -5.592   5.808  15.920  1.00  0.00     0.021 C 
HETATM    6  C14 UNL     1      -7.134   6.747  14.221  1.00  0.00    -0.070 C 
HETATM    7  C15 UNL     1      -7.984   5.996  13.502  1.00  0.00    -0.022 C 
HETATM    8  C16 UNL     1      -9.363   6.480  13.194  1.00  0.00     0.034 C 
HETATM    9  C17 UNL     1     -10.063   7.157  14.397  1.00  0.00     0.013 C 
HETATM   10  C18 UNL     1     -11.393   7.875  13.976  1.00  0.00     0.018 C 
HETATM   11  C19 UNL     1     -12.426   6.821  13.499  1.00  0.00     0.023 C 
HETATM   12  C20 UNL     1     -11.235   8.896  12.835  1.00  0.00     0.023 C 
HETATM   13  C21 UNL     1     -11.977   8.582  15.203  1.00  0.00     0.135 C 
HETATM   14  O3  UNL     1     -13.160   8.459  15.535  1.00  0.00    -0.297 OA
HETATM   15  C22 UNL     1     -11.079   9.490  16.009  1.00  0.00     0.080 C 
HETATM   16  C23 UNL     1      -9.618   9.427  15.602  1.00  0.00     0.017 C 
HETATM   17  C24 UNL     1      -9.085   7.995  15.336  1.00  0.00    -0.031 C 
HETATM   18  C25 UNL     1      -9.040   7.255  16.708  1.00  0.00     0.016 C 
HETATM   19  C26 UNL     1      -7.626   8.099  14.723  1.00  0.00     0.024 C 
HETATM   20  C27 UNL     1      -6.600   8.833  15.626  1.00  0.00     0.010 C 
HETATM   21  C28 UNL     1      -5.117   8.757  15.204  1.00  0.00     0.011 C 
HETATM   22  C29 UNL     1      -4.771   7.639  14.197  1.00  0.00    -0.029 C 
HETATM   23  C30 UNL     1      -4.944   8.225  12.760  1.00  0.00     0.016 C 
ENDROOT
BRANCH   1  24
HETATM   24  C7  UNL     1      -2.084   7.771  13.757  1.00  0.00     0.017 C 
BRANCH  24  25
HETATM   25  C6  UNL     1      -1.250   8.330  14.956  1.00  0.00     0.043 C 
BRANCH  25  26
HETATM   26  C5  UNL     1      -1.953   8.745  16.261  1.00  0.00     0.141 C 
BRANCH  26  27
HETATM   27  C4  UNL     1      -1.204   9.767  17.075  1.00  0.00     0.006 C 
HETATM   28  C2  UNL     1      -1.693  10.517  18.085  1.00  0.00    -0.089 C 
HETATM   29  C1  UNL     1      -3.114  10.474  18.576  1.00  0.00     0.042 C 
HETATM   30  C3  UNL     1      -0.811  11.488  18.823  1.00  0.00     0.042 C 
ENDBRANCH  26  27
BRANCH  26  31
HETATM   31  O1  UNL     1      -2.247   7.617  17.073  1.00  0.00    -0.392 OA
HETATM   32  H9  UNL     1      -1.382   7.233  17.331  1.00  0.00     0.210 HD
ENDBRANCH  26  31
ENDBRANCH  25  26
ENDBRANCH  24  25
BRANCH  24  33
HETATM   33  C8  UNL     1      -2.467   8.873  12.761  1.00  0.00     0.169 C 
BRANCH  33  34
HETATM   34  O2  UNL     1      -1.398   9.806  12.628  1.00  0.00    -0.400 OA
HETATM   35  H15 UNL     1      -1.629  10.392  11.884  1.00  0.00     0.209 HD
ENDBRANCH  33  34
ENDBRANCH  24  33
ENDBRANCH   1  24
TORSDOF 7
ENDMDL
MODEL 4
REMARK minimizedAffinity -7.99177313
REMARK CNNscore 0.507632732
REMARK CNNaffinity 6.75864077
REMARK  7 active torsions:
REMARK  status: ('A' for Active; 'I' for Inactive)
REMARK    1  A    between atoms: C4_4  and  C5_5 
REMARK    2  A    between atoms: C5_5  and  O1_6 
REMARK    3  A    between atoms: C5_5  and  C6_7 
REMARK    4  A    between atoms: C6_7  and  C7_8 
REMARK    5  A    between atoms: C7_8  and  C8_9 
REMARK    6  A    between atoms: C7_8  and  C9_11 
REMARK    7  A    between atoms: C8_9  and  O2_10 
ROOT
HETATM    1  C9  UNL     1      -1.431   9.184  14.906  1.00  0.00     0.001 C 
HETATM    2  C10 UNL     1      -0.358   8.067  15.093  1.00  0.00     0.007 C 
HETATM    3  C11 UNL     1      -1.037   6.714  14.828  1.00  0.00     0.015 C 
HETATM    4  C12 UNL     1      -2.546   7.028  14.795  1.00  0.00    -0.013 C 
HETATM    5  C13 UNL     1      -3.018   7.015  16.280  1.00  0.00     0.021 C 
HETATM    6  C14 UNL     1      -3.445   6.077  14.026  1.00  0.00    -0.070 C 
HETATM    7  C15 UNL     1      -3.099   4.831  13.668  1.00  0.00    -0.022 C 
HETATM    8  C16 UNL     1      -3.993   4.002  12.806  1.00  0.00     0.034 C 
HETATM    9  C17 UNL     1      -5.488   4.098  13.194  1.00  0.00     0.013 C 
HETATM   10  C18 UNL     1      -6.419   3.429  12.124  1.00  0.00     0.018 C 
HETATM   11  C19 UNL     1      -6.150   1.902  12.081  1.00  0.00     0.023 C 
HETATM   12  C20 UNL     1      -6.228   3.958  10.691  1.00  0.00     0.023 C 
HETATM   13  C21 UNL     1      -7.877   3.638  12.545  1.00  0.00     0.135 C 
HETATM   14  O3  UNL     1      -8.694   2.712  12.577  1.00  0.00    -0.297 OA
HETATM   15  C22 UNL     1      -8.336   5.033  12.894  1.00  0.00     0.080 C 
HETATM   16  C23 UNL     1      -7.208   6.047  12.978  1.00  0.00     0.017 C 
HETATM   17  C24 UNL     1      -5.939   5.539  13.709  1.00  0.00    -0.031 C 
HETATM   18  C25 UNL     1      -6.304   5.379  15.217  1.00  0.00     0.016 C 
HETATM   19  C26 UNL     1      -4.786   6.613  13.536  1.00  0.00     0.024 C 
HETATM   20  C27 UNL     1      -5.129   8.020  14.093  1.00  0.00     0.010 C 
HETATM   21  C28 UNL     1      -3.972   9.039  14.178  1.00  0.00     0.011 C 
HETATM   22  C29 UNL     1      -2.553   8.439  14.101  1.00  0.00    -0.029 C 
HETATM   23  C30 UNL     1      -2.137   8.393  12.596  1.00  0.00     0.016 C 
ENDROOT
BRANCH   1  24
HETATM   24  C7  UNL     1      -0.799  10.511  14.358  1.00  0.00     0.017 C 
BRANCH  24  25
HETATM   25  C6  UNL     1       0.509  10.826  15.156  1.00  0.00     0.043 C 
BRANCH  25  26
HETATM   26  C5  UNL     1       0.559  10.602  16.679  1.00  0.00     0.141 C 
BRANCH  26  27
HETATM   27  C4  UNL     1       0.174  11.805  17.499  1.00  0.00     0.006 C 
HETATM   28  C2  UNL     1      -0.883  11.915  18.332  1.00  0.00    -0.089 C 
HETATM   29  C1  UNL     1      -1.896  10.831  18.580  1.00  0.00     0.042 C 
HETATM   30  C3  UNL     1      -1.128  13.183  19.105  1.00  0.00     0.042 C 
ENDBRANCH  26  27
BRANCH  26  31
HETATM   31  O1  UNL     1       1.837  10.137  17.092  1.00  0.00    -0.392 OA
HETATM   32  H9  UNL     1       2.468  10.861  16.894  1.00  0.00     0.210 HD
ENDBRANCH  26  31
ENDBRANCH  25  26
ENDBRANCH  24  25
BRANCH  24  33
HETATM   33  C8  UNL     1      -1.790  11.682  14.394  1.00  0.00     0.169 C 
BRANCH  33  34
HETATM   34  O2  UNL     1      -1.209  12.833  13.787  1.00  0.00    -0.400 OA
HETATM   35  H15 UNL     1      -1.921  13.493  13.702  1.00  0.00     0.209 HD
ENDBRANCH  33  34
ENDBRANCH  24  33
ENDBRANCH   1  24
TORSDOF 7
ENDMDL
MODEL 5
REMARK minimizedAffinity -6.42703867
REMARK CNNscore 0.502729058
REMARK CNNaffinity 6.32411242
REMARK  7 active torsions:
REMARK  status: ('A' for Active; 'I' for Inactive)
REMARK    1  A    between atoms: C4_4  and  C5_5 
REMARK    2  A    between atoms: C5_5  and  O1_6 
REMARK    3  A    between atoms: C5_5  and  C6_7 
REMARK    4  A    between atoms: C6_7  and  C7_8 
REMARK    5  A    between atoms: C7_8  and  C8_9 
REMARK    6  A    between atoms: C7_8  and  C9_11 
REMARK    7  A    between atoms: C8_9  and  O2_10 
ROOT
HETATM    1  C9  UNL     1      -9.557  -6.509  -6.134  1.00  0.00     0.001 C 
HETATM    2  C10 UNL     1     -10.082  -7.678  -7.024  1.00  0.00     0.007 C 
HETATM    3  C11 UNL     1      -9.847  -8.991  -6.261  1.00  0.00     0.015 C 
HETATM    4  C12 UNL     1      -8.921  -8.609  -5.090  1.00  0.00    -0.013 C 
HETATM    5  C13 UNL     1      -7.472  -8.640  -5.663  1.00  0.00     0.021 C 
HETATM    6  C14 UNL     1      -8.941  -9.497  -3.859  1.00  0.00    -0.070 C 
HETATM    7  C15 UNL     1      -9.427 -10.748  -3.836  1.00  0.00    -0.022 C 
HETATM    8  C16 UNL     1      -9.523 -11.512  -2.557  1.00  0.00     0.034 C 
HETATM    9  C17 UNL     1      -8.277 -11.359  -1.651  1.00  0.00     0.013 C 
HETATM   10  C18 UNL     1      -8.513 -11.956  -0.220  1.00  0.00     0.018 C 
HETATM   11  C19 UNL     1      -8.704 -13.492  -0.321  1.00  0.00     0.023 C 
HETATM   12  C20 UNL     1      -9.747 -11.398   0.510  1.00  0.00     0.023 C 
HETATM   13  C21 UNL     1      -7.266 -11.693   0.631  1.00  0.00     0.135 C 
HETATM   14  O3  UNL     1      -6.718 -12.582   1.291  1.00  0.00    -0.297 OA
HETATM   15  C22 UNL     1      -6.716 -10.289   0.692  1.00  0.00     0.080 C 
HETATM   16  C23 UNL     1      -7.372  -9.329  -0.285  1.00  0.00     0.017 C 
HETATM   17  C24 UNL     1      -7.605  -9.914  -1.702  1.00  0.00    -0.031 C 
HETATM   18  C25 UNL     1      -6.205 -10.097  -2.365  1.00  0.00     0.016 C 
HETATM   19  C26 UNL     1      -8.477  -8.889  -2.540  1.00  0.00     0.024 C 
HETATM   20  C27 UNL     1      -7.839  -7.483  -2.700  1.00  0.00     0.010 C 
HETATM   21  C28 UNL     1      -8.513  -6.519  -3.701  1.00  0.00     0.011 C 
HETATM   22  C29 UNL     1      -9.466  -7.181  -4.720  1.00  0.00    -0.029 C 
HETATM   23  C30 UNL     1     -10.894  -7.206  -4.088  1.00  0.00     0.016 C 
ENDROOT
BRANCH   1  24
HETATM   24  C7  UNL     1     -10.391  -5.198  -6.346  1.00  0.00     0.017 C 
BRANCH  24  25
HETATM   25  C6  UNL     1     -10.328  -4.333  -5.044  1.00  0.00     0.043 C 
BRANCH  25  26
HETATM   26  C5  UNL     1     -10.818  -2.873  -5.061  1.00  0.00     0.141 C 
BRANCH  26  27
HETATM   27  C4  UNL     1      -9.890  -1.913  -5.758  1.00  0.00     0.006 C 
HETATM   28  C2  UNL     1      -9.772  -0.588  -5.530  1.00  0.00    -0.089 C 
HETATM   29  C1  UNL     1     -10.581   0.184  -4.524  1.00  0.00     0.042 C 
HETATM   30  C3  UNL     1      -8.779   0.242  -6.297  1.00  0.00     0.042 C 
ENDBRANCH  26  27
BRANCH  26  31
HETATM   31  O1  UNL     1     -11.087  -2.402  -3.747  1.00  0.00    -0.392 OA
HETATM   32  H9  UNL     1     -10.227  -2.404  -3.275  1.00  0.00     0.210 HD
ENDBRANCH  26  31
ENDBRANCH  25  26
ENDBRANCH  24  25
BRANCH  24  33
HETATM   33  C8  UNL     1     -11.835  -5.493  -6.771  1.00  0.00     0.169 C 
BRANCH  33  34
HETATM   34  O2  UNL     1     -12.238  -4.588  -7.797  1.00  0.00    -0.400 OA
HETATM   35  H15 UNL     1     -13.095  -4.909  -8.131  1.00  0.00     0.209 HD
ENDBRANCH  33  34
ENDBRANCH  24  33
ENDBRANCH   1  24
TORSDOF 7
ENDMDL
MODEL 6
REMARK minimizedAffinity -7.82920218
REMARK CNNscore 0.465782166
REMARK CNNaffinity 6.79633713
REMARK  7 active torsions:
REMARK  status: ('A' for Active; 'I' for Inactive)
REMARK    1  A    between atoms: C4_4  and  C5_5 
REMARK    2  A    between atoms: C5_5  and  O1_6 
REMARK    3  A    between atoms: C5_5  and  C6_7 
REMARK    4  A    between atoms: C6_7  and  C7_8 
REMARK    5  A    between atoms: C7_8  and  C8_9 
REMARK    6  A    between atoms: C7_8  and  C9_11 
REMARK    7  A    between atoms: C8_9  and  O2_10 
ROOT
HETATM    1  C9  UNL     1      -0.638   8.475  14.532  1.00  0.00     0.001 C 
HETATM    2  C10 UNL     1       0.206   7.205  14.861  1.00  0.00     0.007 C 
HETATM    3  C11 UNL     1      -0.710   5.981  14.716  1.00  0.00     0.015 C 
HETATM    4  C12 UNL     1      -2.133   6.561  14.610  1.00  0.00    -0.013 C 
HETATM    5  C13 UNL     1      -2.612   6.791  16.075  1.00  0.00     0.021 C 
HETATM    6  C14 UNL     1      -3.188   5.718  13.916  1.00  0.00    -0.070 C 
HETATM    7  C15 UNL     1      -3.076   4.398  13.697  1.00  0.00    -0.022 C 
HETATM    8  C16 UNL     1      -4.102   3.663  12.899  1.00  0.00     0.034 C 
HETATM    9  C17 UNL     1      -5.557   4.073  13.234  1.00  0.00     0.013 C 
HETATM   10  C18 UNL     1      -6.586   3.478  12.212  1.00  0.00     0.018 C 
HETATM   11  C19 UNL     1      -6.607   1.932  12.332  1.00  0.00     0.023 C 
HETATM   12  C20 UNL     1      -6.289   3.810  10.739  1.00  0.00     0.023 C 
HETATM   13  C21 UNL     1      -7.984   3.995  12.569  1.00  0.00     0.135 C 
HETATM   14  O3  UNL     1      -8.959   3.243  12.673  1.00  0.00    -0.297 OA
HETATM   15  C22 UNL     1      -8.178   5.479  12.763  1.00  0.00     0.080 C 
HETATM   16  C23 UNL     1      -6.882   6.271  12.774  1.00  0.00     0.017 C 
HETATM   17  C24 UNL     1      -5.736   5.617  13.588  1.00  0.00    -0.031 C 
HETATM   18  C25 UNL     1      -6.136   5.687  15.093  1.00  0.00     0.016 C 
HETATM   19  C26 UNL     1      -4.401   6.436  13.338  1.00  0.00     0.024 C 
HETATM   20  C27 UNL     1      -4.481   7.933  13.740  1.00  0.00     0.010 C 
HETATM   21  C28 UNL     1      -3.156   8.725  13.752  1.00  0.00     0.011 C 
HETATM   22  C29 UNL     1      -1.872   7.869  13.776  1.00  0.00    -0.029 C 
HETATM   23  C30 UNL     1      -1.460   7.590  12.296  1.00  0.00     0.016 C 
ENDROOT
BRANCH   1  24
HETATM   24  C7  UNL     1       0.234   9.598  13.870  1.00  0.00     0.017 C 
BRANCH  24  25
HETATM   25  C6  UNL     1       1.693   9.069  13.676  1.00  0.00     0.043 C 
BRANCH  25  26
HETATM   26  C5  UNL     1       2.185   8.652  12.278  1.00  0.00     0.141 C 
BRANCH  26  27
HETATM   27  C4  UNL     1       3.598   9.069  11.965  1.00  0.00     0.006 C 
HETATM   28  C2  UNL     1       4.358   8.649  10.931  1.00  0.00    -0.089 C 
HETATM   29  C1  UNL     1       3.920   7.651   9.895  1.00  0.00     0.042 C 
HETATM   30  C3  UNL     1       5.755   9.175  10.737  1.00  0.00     0.042 C 
ENDBRANCH  26  27
BRANCH  26  31
HETATM   31  O1  UNL     1       1.315   9.127  11.259  1.00  0.00    -0.392 OA
HETATM   32  H9  UNL     1       1.364  10.106  11.293  1.00  0.00     0.210 HD
ENDBRANCH  26  31
ENDBRANCH  25  26
ENDBRANCH  24  25
BRANCH  24  33
HETATM   33  C8  UNL     1       0.199  10.906  14.671  1.00  0.00     0.169 C 
BRANCH  33  34
HETATM   34  O2  UNL     1       1.290  11.741  14.293  1.00  0.00    -0.400 OA
HETATM   35  H15 UNL     1       1.139  12.607  14.714  1.00  0.00     0.209 HD
ENDBRANCH  33  34
ENDBRANCH  24  33
ENDBRANCH   1  24
TORSDOF 7
ENDMDL
MODEL 7
REMARK minimizedAffinity -8.81379986
REMARK CNNscore 0.442287713
REMARK CNNaffinity 6.88798523
REMARK  7 active torsions:
REMARK  status: ('A' for Active; 'I' for Inactive)
REMARK    1  A    between atoms: C4_4  and  C5_5 
REMARK    2  A    between atoms: C5_5  and  O1_6 
REMARK    3  A    between atoms: C5_5  and  C6_7 
REMARK    4  A    between atoms: C6_7  and  C7_8 
REMARK    5  A    between atoms: C7_8  and  C8_9 
REMARK    6  A    between atoms: C7_8  and  C9_11 
REMARK    7  A    between atoms: C8_9  and  O2_10 
ROOT
HETATM    1  C9  UNL     1      -0.809   5.871  11.921  1.00  0.00     0.001 C 
HETATM    2  C10 UNL     1       0.700   5.868  12.319  1.00  0.00     0.007 C 
HETATM    3  C11 UNL     1       0.907   6.954  13.386  1.00  0.00     0.015 C 
HETATM    4  C12 UNL     1      -0.397   7.775  13.374  1.00  0.00    -0.013 C 
HETATM    5  C13 UNL     1      -0.235   8.819  12.229  1.00  0.00     0.021 C 
HETATM    6  C14 UNL     1      -0.759   8.539  14.635  1.00  0.00    -0.070 C 
HETATM    7  C15 UNL     1       0.108   8.832  15.617  1.00  0.00    -0.022 C 
HETATM    8  C16 UNL     1      -0.353   9.478  16.882  1.00  0.00     0.034 C 
HETATM    9  C17 UNL     1      -1.378  10.617  16.655  1.00  0.00     0.013 C 
HETATM   10  C18 UNL     1      -2.030  11.098  17.998  1.00  0.00     0.018 C 
HETATM   11  C19 UNL     1      -0.949  11.753  18.897  1.00  0.00     0.023 C 
HETATM   12  C20 UNL     1      -2.685   9.979  18.827  1.00  0.00     0.023 C 
HETATM   13  C21 UNL     1      -3.082  12.164  17.676  1.00  0.00     0.135 C 
HETATM   14  O3  UNL     1      -3.127  13.247  18.268  1.00  0.00    -0.297 OA
HETATM   15  C22 UNL     1      -4.122  11.859  16.625  1.00  0.00     0.080 C 
HETATM   16  C23 UNL     1      -3.861  10.574  15.858  1.00  0.00     0.017 C 
HETATM   17  C24 UNL     1      -2.382  10.361  15.443  1.00  0.00    -0.031 C 
HETATM   18  C25 UNL     1      -2.048  11.426  14.354  1.00  0.00     0.016 C 
HETATM   19  C26 UNL     1      -2.225   8.901  14.847  1.00  0.00     0.024 C 
HETATM   20  C27 UNL     1      -3.117   8.612  13.610  1.00  0.00     0.010 C 
HETATM   21  C28 UNL     1      -2.837   7.305  12.837  1.00  0.00     0.011 C 
HETATM   22  C29 UNL     1      -1.467   6.651  13.112  1.00  0.00    -0.029 C 
HETATM   23  C30 UNL     1      -1.642   5.669  14.314  1.00  0.00     0.016 C 
ENDROOT
BRANCH   1  24
HETATM   24  C7  UNL     1      -1.309   4.437  11.529  1.00  0.00     0.017 C 
BRANCH  24  25
HETATM   25  C6  UNL     1      -2.678   4.160  12.234  1.00  0.00     0.043 C 
BRANCH  25  26
HETATM   26  C5  UNL     1      -3.780   3.372  11.502  1.00  0.00     0.141 C 
BRANCH  26  27
HETATM   27  C4  UNL     1      -5.126   3.412  12.177  1.00  0.00     0.006 C 
HETATM   28  C2  UNL     1      -6.142   2.537  12.013  1.00  0.00    -0.089 C 
HETATM   29  C1  UNL     1      -6.111   1.349  11.092  1.00  0.00     0.042 C 
HETATM   30  C3  UNL     1      -7.429   2.698  12.777  1.00  0.00     0.042 C 
ENDBRANCH  26  27
BRANCH  26  31
HETATM   31  O1  UNL     1      -3.397   2.021  11.290  1.00  0.00    -0.392 OA
HETATM   32  H9  UNL     1      -3.309   1.619  12.181  1.00  0.00     0.210 HD
ENDBRANCH  26  31
ENDBRANCH  25  26
ENDBRANCH  24  25
BRANCH  24  33
HETATM   33  C8  UNL     1      -0.270   3.354  11.846  1.00  0.00     0.169 C 
BRANCH  33  34
HETATM   34  O2  UNL     1      -0.474   2.220  11.006  1.00  0.00    -0.400 OA
HETATM   35  H15 UNL     1       0.291   1.632  11.140  1.00  0.00     0.209 HD
ENDBRANCH  33  34
ENDBRANCH  24  33
ENDBRANCH   1  24
TORSDOF 7
ENDMDL
MODEL 8
REMARK minimizedAffinity -7.82315826
REMARK CNNscore 0.435006648
REMARK CNNaffinity 6.80499315
REMARK  7 active torsions:
REMARK  status: ('A' for Active; 'I' for Inactive)
REMARK    1  A    between atoms: C4_4  and  C5_5 
REMARK    2  A    between atoms: C5_5  and  O1_6 
REMARK    3  A    between atoms: C5_5  and  C6_7 
REMARK    4  A    between atoms: C6_7  and  C7_8 
REMARK    5  A    between atoms: C7_8  and  C8_9 
REMARK    6  A    between atoms: C7_8  and  C9_11 
REMARK    7  A    between atoms: C8_9  and  O2_10 
ROOT
HETATM    1  C9  UNL     1      -2.209   6.107  13.295  1.00  0.00     0.001 C 
HETATM    2  C10 UNL     1      -3.732   6.179  12.963  1.00  0.00     0.007 C 
HETATM    3  C11 UNL     1      -4.329   7.357  13.749  1.00  0.00     0.015 C 
HETATM    4  C12 UNL     1      -3.232   7.760  14.753  1.00  0.00    -0.013 C 
HETATM    5  C13 UNL     1      -3.403   6.811  15.977  1.00  0.00     0.021 C 
HETATM    6  C14 UNL     1      -3.248   9.184  15.279  1.00  0.00    -0.070 C 
HETATM    7  C15 UNL     1      -4.310  10.003  15.212  1.00  0.00    -0.022 C 
HETATM    8  C16 UNL     1      -4.208  11.430  15.640  1.00  0.00     0.034 C 
HETATM    9  C17 UNL     1      -3.408  11.626  16.951  1.00  0.00     0.013 C 
HETATM   10  C18 UNL     1      -3.102  13.137  17.233  1.00  0.00     0.018 C 
HETATM   11  C19 UNL     1      -4.427  13.897  17.498  1.00  0.00     0.023 C 
HETATM   12  C20 UNL     1      -2.386  13.871  16.084  1.00  0.00     0.023 C 
HETATM   13  C21 UNL     1      -2.244  13.235  18.499  1.00  0.00     0.135 C 
HETATM   14  O3  UNL     1      -2.517  14.007  19.424  1.00  0.00    -0.297 OA
HETATM   15  C22 UNL     1      -1.002  12.382  18.598  1.00  0.00     0.080 C 
HETATM   16  C23 UNL     1      -0.868  11.362  17.481  1.00  0.00     0.017 C 
HETATM   17  C24 UNL     1      -2.182  10.621  17.125  1.00  0.00    -0.031 C 
HETATM   18  C25 UNL     1      -2.533   9.694  18.329  1.00  0.00     0.016 C 
HETATM   19  C26 UNL     1      -1.942   9.754  15.820  1.00  0.00     0.024 C 
HETATM   20  C27 UNL     1      -0.814   8.695  15.949  1.00  0.00     0.010 C 
HETATM   21  C28 UNL     1      -0.692   7.661  14.810  1.00  0.00     0.011 C 
HETATM   22  C29 UNL     1      -1.931   7.528  13.899  1.00  0.00    -0.029 C 
HETATM   23  C30 UNL     1      -1.769   8.545  12.725  1.00  0.00     0.016 C 
ENDROOT
BRANCH   1  24
HETATM   24  C7  UNL     1      -1.373   5.577  12.078  1.00  0.00     0.017 C 
BRANCH  24  25
HETATM   25  C6  UNL     1      -1.759   4.087  11.799  1.00  0.00     0.043 C 
BRANCH  25  26
HETATM   26  C5  UNL     1      -2.525   3.713  10.517  1.00  0.00     0.141 C 
BRANCH  26  27
HETATM   27  C4  UNL     1      -3.991   3.436  10.726  1.00  0.00     0.006 C 
HETATM   28  C2  UNL     1      -4.535   2.353  11.321  1.00  0.00    -0.089 C 
HETATM   29  C1  UNL     1      -3.753   1.196  11.877  1.00  0.00     0.042 C 
HETATM   30  C3  UNL     1      -6.027   2.226  11.476  1.00  0.00     0.042 C 
ENDBRANCH  26  27
BRANCH  26  31
HETATM   31  O1  UNL     1      -1.924   2.608   9.858  1.00  0.00    -0.392 OA
HETATM   32  H9  UNL     1      -2.010   1.845  10.469  1.00  0.00     0.210 HD
ENDBRANCH  26  31
ENDBRANCH  25  26
ENDBRANCH  24  25
BRANCH  24  33
HETATM   33  C8  UNL     1       0.135   5.749  12.294  1.00  0.00     0.169 C 
BRANCH  33  34
HETATM   34  O2  UNL     1       0.739   6.288  11.120  1.00  0.00    -0.400 OA
HETATM   35  H15 UNL     1       1.657   6.516  11.357  1.00  0.00     0.209 HD
ENDBRANCH  33  34
ENDBRANCH  24  33
ENDBRANCH   1  24
TORSDOF 7
ENDMDL
MODEL 9
REMARK minimizedAffinity -9.30380917
REMARK CNNscore 0.412059784
REMARK CNNaffinity 6.87407827
REMARK  7 active torsions:
REMARK  status: ('A' for Active; 'I' for Inactive)
REMARK    1  A    between atoms: C4_4  and  C5_5 
REMARK    2  A    between atoms: C5_5  and  O1_6 
REMARK    3  A    between atoms: C5_5  and  C6_7 
REMARK    4  A    between atoms: C6_7  and  C7_8 
REMARK    5  A    between atoms: C7_8  and  C8_9 
REMARK    6  A    between atoms: C7_8  and  C9_11 
REMARK    7  A    between atoms: C8_9  and  O2_10 
ROOT
HETATM    1  C9  UNL     1      -3.836   7.109  14.253  1.00  0.00     0.001 C 
HETATM    2  C10 UNL     1      -4.494   8.199  13.354  1.00  0.00     0.007 C 
HETATM    3  C11 UNL     1      -3.422   8.720  12.385  1.00  0.00     0.015 C 
HETATM    4  C12 UNL     1      -2.093   8.161  12.927  1.00  0.00    -0.013 C 
HETATM    5  C13 UNL     1      -1.629   9.157  14.033  1.00  0.00     0.021 C 
HETATM    6  C14 UNL     1      -0.943   8.004  11.948  1.00  0.00    -0.070 C 
HETATM    7  C15 UNL     1      -0.877   8.617  10.755  1.00  0.00    -0.022 C 
HETATM    8  C16 UNL     1       0.228   8.314   9.797  1.00  0.00     0.034 C 
HETATM    9  C17 UNL     1       1.618   8.207  10.470  1.00  0.00     0.013 C 
HETATM   10  C18 UNL     1       2.704   7.642   9.491  1.00  0.00     0.018 C 
HETATM   11  C19 UNL     1       2.936   8.647   8.333  1.00  0.00     0.023 C 
HETATM   12  C20 UNL     1       2.343   6.291   8.846  1.00  0.00     0.023 C 
HETATM   13  C21 UNL     1       4.023   7.494  10.256  1.00  0.00     0.135 C 
HETATM   14  O3  UNL     1       5.093   7.930   9.818  1.00  0.00    -0.297 OA
HETATM   15  C22 UNL     1       4.016   6.756  11.573  1.00  0.00     0.080 C 
HETATM   16  C23 UNL     1       2.625   6.419  12.080  1.00  0.00     0.017 C 
HETATM   17  C24 UNL     1       1.590   7.563  11.929  1.00  0.00    -0.031 C 
HETATM   18  C25 UNL     1       1.999   8.693  12.923  1.00  0.00     0.016 C 
HETATM   19  C26 UNL     1       0.153   7.003  12.297  1.00  0.00     0.024 C 
HETATM   20  C27 UNL     1       0.034   6.436  13.737  1.00  0.00     0.010 C 
HETATM   21  C28 UNL     1      -1.387   6.102  14.241  1.00  0.00     0.011 C 
HETATM   22  C29 UNL     1      -2.542   6.745  13.445  1.00  0.00    -0.029 C 
HETATM   23  C30 UNL     1      -2.933   5.760  12.297  1.00  0.00     0.016 C 
ENDROOT
BRANCH   1  24
HETATM   24  C7  UNL     1      -4.862   5.996  14.665  1.00  0.00     0.017 C 
BRANCH  24  25
HETATM   25  C6  UNL     1      -5.260   5.170  13.398  1.00  0.00     0.043 C 
BRANCH  25  26
HETATM   26  C5  UNL     1      -6.645   4.502  13.314  1.00  0.00     0.141 C 
BRANCH  26  27
HETATM   27  C4  UNL     1      -6.619   3.074  12.837  1.00  0.00     0.006 C 
HETATM   28  C2  UNL     1      -6.040   2.604  11.711  1.00  0.00    -0.089 C 
HETATM   29  C1  UNL     1      -5.316   3.451  10.702  1.00  0.00     0.042 C 
HETATM   30  C3  UNL     1      -6.080   1.137  11.378  1.00  0.00     0.042 C 
ENDBRANCH  26  27
BRANCH  26  31
HETATM   31  O1  UNL     1      -7.536   5.256  12.502  1.00  0.00    -0.392 OA
HETATM   32  H9  UNL     1      -7.160   5.239  11.596  1.00  0.00     0.210 HD
ENDBRANCH  26  31
ENDBRANCH  25  26
ENDBRANCH  24  25
BRANCH  24  33
HETATM   33  C8  UNL     1      -6.088   6.576  15.382  1.00  0.00     0.169 C 
BRANCH  33  34
HETATM   34  O2  UNL     1      -6.254   5.949  16.651  1.00  0.00    -0.400 OA
HETATM   35  H15 UNL     1      -6.945   6.451  17.122  1.00  0.00     0.209 HD
ENDBRANCH  33  34
ENDBRANCH  24  33
ENDBRANCH   1  24
TORSDOF 7
ENDMDL
