MODEL 1
REMARK minimizedAffinity -7.7764945
REMARK  5 active torsions:
REMARK  status: ('A' for Active; 'I' for Inactive)
REMARK    1  A    between atoms: C2_2  and  C11_13 
REMARK    2  A    between atoms: C3_3  and  C4_4 
REMARK    3  A    between atoms: C7_7  and  C8_8 
REMARK    4  A    between atoms: C8_8  and  O2_10 
REMARK    5  A    between atoms: C14_16  and  C15_17 
ROOT
HETATM    1  C1  UNL     1      -1.888  50.027 -22.154  1.00  0.00     0.049 C 
HETATM    2  C2  UNL     1      -0.969  50.936 -22.951  1.00  0.00    -0.044 C 
HETATM    3  C3  UNL     1      -0.084  51.760 -22.345  1.00  0.00     0.019 C 
ENDROOT
BRANCH   3   4
HETATM    4  C4  UNL     1       0.132  51.866 -20.900  1.00  0.00    -0.036 A 
HETATM    5  C5  UNL     1       0.847  52.951 -20.381  1.00  0.00     0.012 A 
HETATM    6  C6  UNL     1       1.061  53.059 -19.003  1.00  0.00     0.019 A 
HETATM    7  C7  UNL     1       0.564  52.080 -18.136  1.00  0.00     0.037 A 
HETATM    8  C9  UNL     1      -0.149  50.992 -18.656  1.00  0.00     0.019 A 
HETATM    9  C10 UNL     1      -0.363  50.885 -20.033  1.00  0.00     0.012 A 
BRANCH   7  10
HETATM   10  C8  UNL     1       0.764  52.151 -16.668  1.00  0.00     0.176 C 
HETATM   11  O1  UNL     1       0.379  51.331 -15.855  1.00  0.00    -0.646 OA
BRANCH  10  12
HETATM   12  O2  UNL     1       1.441  53.249 -16.286  1.00  0.00    -0.773 OA
HETATM   13  H7  UNL     1       1.496  53.161 -15.312  1.00  0.00     0.167 HD
ENDBRANCH  10  12
ENDBRANCH   7  10
ENDBRANCH   3   4
BRANCH   2  14
HETATM   14  C11 UNL     1      -0.997  50.981 -24.394  1.00  0.00     0.011 A 
HETATM   15  C12 UNL     1      -1.924  50.464 -25.284  1.00  0.00     0.020 A 
HETATM   16  C13 UNL     1      -1.598  50.718 -26.648  1.00  0.00     0.016 A 
HETATM   17  C14 UNL     1      -0.419  51.422 -26.784  1.00  0.00    -0.013 A 
HETATM   18  S1  UNL     1       0.276  51.762 -25.257  1.00  0.00    -0.094 SA
BRANCH  17  19
HETATM   19  C15 UNL     1       0.270  51.886 -28.046  1.00  0.00     0.017 C 
HETATM   20  C16 UNL     1       1.788  51.749 -27.923  1.00  0.00     0.015 C 
HETATM   21  C17 UNL     1      -0.119  53.327 -28.384  1.00  0.00     0.015 C 
ENDBRANCH  17  19
ENDBRANCH   2  14
TORSDOF 5
ENDMDL
MODEL 2
REMARK minimizedAffinity -7.68892431
REMARK  5 active torsions:
REMARK  status: ('A' for Active; 'I' for Inactive)
REMARK    1  A    between atoms: C2_2  and  C11_13 
REMARK    2  A    between atoms: C3_3  and  C4_4 
REMARK    3  A    between atoms: C7_7  and  C8_8 
REMARK    4  A    between atoms: C8_8  and  O2_10 
REMARK    5  A    between atoms: C14_16  and  C15_17 
ROOT
HETATM    1  C1  UNL     1      -0.097  52.505 -23.932  1.00  0.00     0.049 C 
HETATM    2  C2  UNL     1      -0.473  51.847 -22.617  1.00  0.00    -0.044 C 
HETATM    3  C3  UNL     1      -1.368  50.834 -22.560  1.00  0.00     0.019 C 
ENDROOT
BRANCH   3   4
HETATM    4  C4  UNL     1      -2.045  50.227 -23.709  1.00  0.00    -0.036 A 
HETATM    5  C5  UNL     1      -2.847  49.095 -23.527  1.00  0.00     0.012 A 
HETATM    6  C6  UNL     1      -3.495  48.508 -24.617  1.00  0.00     0.019 A 
HETATM    7  C7  UNL     1      -3.342  49.048 -25.900  1.00  0.00     0.037 A 
HETATM    8  C9  UNL     1      -2.536  50.179 -26.083  1.00  0.00     0.019 A 
HETATM    9  C10 UNL     1      -1.890  50.766 -24.991  1.00  0.00     0.012 A 
BRANCH   7  10
HETATM   10  C8  UNL     1      -4.009  48.461 -27.087  1.00  0.00     0.176 C 
HETATM   11  O1  UNL     1      -3.463  48.139 -28.126  1.00  0.00    -0.646 OA
BRANCH  10  12
HETATM   12  O2  UNL     1      -5.334  48.305 -26.918  1.00  0.00    -0.773 OA
HETATM   13  H7  UNL     1      -5.633  47.916 -27.766  1.00  0.00     0.167 HD
ENDBRANCH  10  12
ENDBRANCH   7  10
ENDBRANCH   3   4
BRANCH   2  14
HETATM   14  C11 UNL     1       0.088  52.272 -21.356  1.00  0.00     0.011 A 
HETATM   15  C12 UNL     1       0.948  53.320 -21.072  1.00  0.00     0.020 A 
HETATM   16  C13 UNL     1       1.281  53.417 -19.690  1.00  0.00     0.016 A 
HETATM   17  C14 UNL     1       0.674  52.436 -18.934  1.00  0.00    -0.013 A 
HETATM   18  S1  UNL     1      -0.286  51.409 -19.910  1.00  0.00    -0.094 SA
BRANCH  17  19
HETATM   19  C15 UNL     1       0.766  52.191 -17.445  1.00  0.00     0.017 C 
HETATM   20  C16 UNL     1       2.160  52.539 -16.919  1.00  0.00     0.015 C 
HETATM   21  C17 UNL     1       0.405  50.743 -17.106  1.00  0.00     0.015 C 
ENDBRANCH  17  19
ENDBRANCH   2  14
TORSDOF 5
ENDMDL
MODEL 3
REMARK minimizedAffinity -7.64662933
REMARK  5 active torsions:
REMARK  status: ('A' for Active; 'I' for Inactive)
REMARK    1  A    between atoms: C2_2  and  C11_13 
REMARK    2  A    between atoms: C3_3  and  C4_4 
REMARK    3  A    between atoms: C7_7  and  C8_8 
REMARK    4  A    between atoms: C8_8  and  O2_10 
REMARK    5  A    between atoms: C14_16  and  C15_17 
ROOT
HETATM    1  C1  UNL     1      -2.346  51.275 -21.204  1.00  0.00     0.049 C 
HETATM    2  C2  UNL     1      -0.895  51.585 -20.884  1.00  0.00    -0.044 C 
HETATM    3  C3  UNL     1      -0.024  51.981 -21.842  1.00  0.00     0.019 C 
ENDROOT
BRANCH   3   4
HETATM    4  C4  UNL     1      -0.349  52.195 -23.254  1.00  0.00    -0.036 A 
HETATM    5  C5  UNL     1       0.680  52.314 -24.194  1.00  0.00     0.012 A 
HETATM    6  C6  UNL     1       0.381  52.520 -25.545  1.00  0.00     0.019 A 
HETATM    7  C7  UNL     1      -0.952  52.611 -25.963  1.00  0.00     0.037 A 
HETATM    8  C9  UNL     1      -1.982  52.496 -25.020  1.00  0.00     0.019 A 
HETATM    9  C10 UNL     1      -1.681  52.289 -23.672  1.00  0.00     0.012 A 
BRANCH   7  10
HETATM   10  C8  UNL     1      -1.320  52.829 -27.383  1.00  0.00     0.176 C 
HETATM   11  O1  UNL     1      -1.862  53.820 -27.836  1.00  0.00    -0.646 OA
BRANCH  10  12
HETATM   12  O2  UNL     1      -0.991  51.791 -28.172  1.00  0.00    -0.773 OA
HETATM   13  H7  UNL     1      -1.288  52.072 -29.063  1.00  0.00     0.167 HD
ENDBRANCH  10  12
ENDBRANCH   7  10
ENDBRANCH   3   4
BRANCH   2  14
HETATM   14  C11 UNL     1      -0.359  51.462 -19.549  1.00  0.00     0.011 A 
HETATM   15  C12 UNL     1      -0.421  50.403 -18.658  1.00  0.00     0.020 A 
HETATM   16  C13 UNL     1       0.237  50.667 -17.422  1.00  0.00     0.016 A 
HETATM   17  C14 UNL     1       0.789  51.931 -17.381  1.00  0.00    -0.013 A 
HETATM   18  S1  UNL     1       0.499  52.779 -18.839  1.00  0.00    -0.094 SA
BRANCH  17  19
HETATM   19  C15 UNL     1       1.562  52.593 -16.264  1.00  0.00     0.017 C 
HETATM   20  C16 UNL     1       3.065  52.568 -16.548  1.00  0.00     0.015 C 
HETATM   21  C17 UNL     1       1.254  51.931 -14.919  1.00  0.00     0.015 C 
ENDBRANCH  17  19
ENDBRANCH   2  14
TORSDOF 5
ENDMDL
MODEL 4
REMARK minimizedAffinity -7.62550592
REMARK  5 active torsions:
REMARK  status: ('A' for Active; 'I' for Inactive)
REMARK    1  A    between atoms: C2_2  and  C11_13 
REMARK    2  A    between atoms: C3_3  and  C4_4 
REMARK    3  A    between atoms: C7_7  and  C8_8 
REMARK    4  A    between atoms: C8_8  and  O2_10 
REMARK    5  A    between atoms: C14_16  and  C15_17 
ROOT
HETATM    1  C1  UNL     1      -2.167  51.570 -25.226  1.00  0.00     0.049 C 
HETATM    2  C2  UNL     1      -2.058  50.517 -24.138  1.00  0.00    -0.044 C 
HETATM    3  C3  UNL     1      -2.696  49.327 -24.233  1.00  0.00     0.019 C 
ENDROOT
BRANCH   3   4
HETATM    4  C4  UNL     1      -3.516  48.887 -25.364  1.00  0.00    -0.036 A 
HETATM    5  C5  UNL     1      -2.949  48.790 -26.639  1.00  0.00     0.012 A 
HETATM    6  C6  UNL     1      -3.725  48.373 -27.726  1.00  0.00     0.019 A 
HETATM    7  C7  UNL     1      -5.075  48.054 -27.543  1.00  0.00     0.037 A 
HETATM    8  C9  UNL     1      -5.644  48.155 -26.267  1.00  0.00     0.019 A 
HETATM    9  C10 UNL     1      -4.867  48.571 -25.182  1.00  0.00     0.012 A 
BRANCH   7  10
HETATM   10  C8  UNL     1      -5.938  47.607 -28.663  1.00  0.00     0.176 C 
HETATM   11  O1  UNL     1      -6.623  46.601 -28.679  1.00  0.00    -0.646 OA
BRANCH  10  12
HETATM   12  O2  UNL     1      -5.902  48.443 -29.716  1.00  0.00    -0.773 OA
HETATM   13  H7  UNL     1      -6.508  48.027 -30.365  1.00  0.00     0.167 HD
ENDBRANCH  10  12
ENDBRANCH   7  10
ENDBRANCH   3   4
BRANCH   2  14
HETATM   14  C11 UNL     1      -1.283  50.729 -22.938  1.00  0.00     0.011 A 
HETATM   15  C12 UNL     1      -1.096  49.904 -21.841  1.00  0.00     0.020 A 
HETATM   16  C13 UNL     1      -0.251  50.475 -20.844  1.00  0.00     0.016 A 
HETATM   17  C14 UNL     1       0.193  51.733 -21.191  1.00  0.00    -0.013 A 
HETATM   18  S1  UNL     1      -0.423  52.207 -22.716  1.00  0.00    -0.094 SA
BRANCH  17  19
HETATM   19  C15 UNL     1       1.097  52.667 -20.420  1.00  0.00     0.017 C 
HETATM   20  C16 UNL     1       0.594  52.855 -18.987  1.00  0.00     0.015 C 
HETATM   21  C17 UNL     1       1.224  54.016 -21.131  1.00  0.00     0.015 C 
ENDBRANCH  17  19
ENDBRANCH   2  14
TORSDOF 5
ENDMDL
MODEL 5
REMARK minimizedAffinity -7.45987034
REMARK  5 active torsions:
REMARK  status: ('A' for Active; 'I' for Inactive)
REMARK    1  A    between atoms: C2_2  and  C11_13 
REMARK    2  A    between atoms: C3_3  and  C4_4 
REMARK    3  A    between atoms: C7_7  and  C8_8 
REMARK    4  A    between atoms: C8_8  and  O2_10 
REMARK    5  A    between atoms: C14_16  and  C15_17 
ROOT
HETATM    1  C1  UNL     1      -2.141  52.593 -24.350  1.00  0.00     0.049 C 
HETATM    2  C2  UNL     1      -1.693  51.495 -23.402  1.00  0.00    -0.044 C 
HETATM    3  C3  UNL     1      -1.990  50.195 -23.629  1.00  0.00     0.019 C 
ENDROOT
BRANCH   3   4
HETATM    4  C4  UNL     1      -2.721  49.677 -24.789  1.00  0.00    -0.036 A 
HETATM    5  C5  UNL     1      -2.261  49.952 -26.081  1.00  0.00     0.012 A 
HETATM    6  C6  UNL     1      -2.953  49.464 -27.194  1.00  0.00     0.019 A 
HETATM    7  C7  UNL     1      -4.112  48.699 -27.020  1.00  0.00     0.037 A 
HETATM    8  C9  UNL     1      -4.574  48.426 -25.726  1.00  0.00     0.019 A 
HETATM    9  C10 UNL     1      -3.881  48.914 -24.615  1.00  0.00     0.012 A 
BRANCH   7  10
HETATM   10  C8  UNL     1      -4.880  48.159 -28.169  1.00  0.00     0.176 C 
HETATM   11  O1  UNL     1      -4.419  47.844 -29.250  1.00  0.00    -0.646 OA
BRANCH  10  12
HETATM   12  O2  UNL     1      -6.194  48.038 -27.908  1.00  0.00    -0.773 OA
HETATM   13  H7  UNL     1      -6.564  47.677 -28.741  1.00  0.00     0.167 HD
ENDBRANCH  10  12
ENDBRANCH   7  10
ENDBRANCH   3   4
BRANCH   2  14
HETATM   14  C11 UNL     1      -0.941  51.775 -22.201  1.00  0.00     0.011 A 
HETATM   15  C12 UNL     1       0.275  52.421 -22.042  1.00  0.00     0.020 A 
HETATM   16  C13 UNL     1       0.695  52.503 -20.683  1.00  0.00     0.016 A 
HETATM   17  C14 UNL     1      -0.204  51.913 -19.819  1.00  0.00    -0.013 A 
HETATM   18  S1  UNL     1      -1.541  51.264 -20.668  1.00  0.00    -0.094 SA
BRANCH  17  19
HETATM   19  C15 UNL     1      -0.132  51.786 -18.315  1.00  0.00     0.017 C 
HETATM   20  C16 UNL     1       1.103  52.503 -17.764  1.00  0.00     0.015 C 
HETATM   21  C17 UNL     1      -0.140  50.316 -17.889  1.00  0.00     0.015 C 
ENDBRANCH  17  19
ENDBRANCH   2  14
TORSDOF 5
ENDMDL
MODEL 6
REMARK minimizedAffinity -7.4093585
REMARK  5 active torsions:
REMARK  status: ('A' for Active; 'I' for Inactive)
REMARK    1  A    between atoms: C2_2  and  C11_13 
REMARK    2  A    between atoms: C3_3  and  C4_4 
REMARK    3  A    between atoms: C7_7  and  C8_8 
REMARK    4  A    between atoms: C8_8  and  O2_10 
REMARK    5  A    between atoms: C14_16  and  C15_17 
ROOT
HETATM    1  C1  UNL     1      -2.457  48.532 -22.860  1.00  0.00     0.049 C 
HETATM    2  C2  UNL     1      -2.660  49.388 -24.097  1.00  0.00    -0.044 C 
HETATM    3  C3  UNL     1      -2.154  50.640 -24.187  1.00  0.00     0.019 C 
ENDROOT
BRANCH   3   4
HETATM    4  C4  UNL     1      -1.341  51.307 -23.166  1.00  0.00    -0.036 A 
HETATM    5  C5  UNL     1      -1.770  51.320 -21.835  1.00  0.00     0.012 A 
HETATM    6  C6  UNL     1      -1.003  51.957 -20.854  1.00  0.00     0.019 A 
HETATM    7  C7  UNL     1       0.198  52.587 -21.200  1.00  0.00     0.037 A 
HETATM    8  C9  UNL     1       0.625  52.577 -22.535  1.00  0.00     0.019 A 
HETATM    9  C10 UNL     1      -0.142  51.940 -23.514  1.00  0.00     0.012 A 
BRANCH   7  10
HETATM   10  C8  UNL     1       1.045  53.274 -20.196  1.00  0.00     0.176 C 
HETATM   11  O1  UNL     1       1.191  52.938 -19.036  1.00  0.00    -0.646 OA
BRANCH  10  12
HETATM   12  O2  UNL     1       1.674  54.354 -20.694  1.00  0.00    -0.773 OA
HETATM   13  H7  UNL     1       2.186  54.698 -19.933  1.00  0.00     0.167 HD
ENDBRANCH  10  12
ENDBRANCH   7  10
ENDBRANCH   3   4
BRANCH   2  14
HETATM   14  C11 UNL     1      -3.414  48.924 -25.238  1.00  0.00     0.011 A 
HETATM   15  C12 UNL     1      -3.002  48.675 -26.537  1.00  0.00     0.020 A 
HETATM   16  C13 UNL     1      -4.054  48.221 -27.385  1.00  0.00     0.016 A 
HETATM   17  C14 UNL     1      -5.261  48.134 -26.723  1.00  0.00    -0.013 A 
HETATM   18  S1  UNL     1      -5.103  48.607 -25.086  1.00  0.00    -0.094 SA
BRANCH  17  19
HETATM   19  C15 UNL     1      -6.607  47.700 -27.256  1.00  0.00     0.017 C 
HETATM   20  C16 UNL     1      -7.356  46.852 -26.227  1.00  0.00     0.015 C 
HETATM   21  C17 UNL     1      -6.453  46.940 -28.575  1.00  0.00     0.015 C 
ENDBRANCH  17  19
ENDBRANCH   2  14
TORSDOF 5
ENDMDL
MODEL 7
REMARK minimizedAffinity -7.31678152
REMARK  5 active torsions:
REMARK  status: ('A' for Active; 'I' for Inactive)
REMARK    1  A    between atoms: C2_2  and  C11_13 
REMARK    2  A    between atoms: C3_3  and  C4_4 
REMARK    3  A    between atoms: C7_7  and  C8_8 
REMARK    4  A    between atoms: C8_8  and  O2_10 
REMARK    5  A    between atoms: C14_16  and  C15_17 
ROOT
HETATM    1  C1  UNL     1       1.036  54.019 -21.493  1.00  0.00     0.049 C 
HETATM    2  C2  UNL     1       0.329  52.729 -21.117  1.00  0.00    -0.044 C 
HETATM    3  C3  UNL     1      -0.335  51.989 -22.034  1.00  0.00     0.019 C 
ENDROOT
BRANCH   3   4
HETATM    4  C4  UNL     1      -0.433  52.289 -23.465  1.00  0.00    -0.036 A 
HETATM    5  C5  UNL     1      -1.685  52.526 -24.042  1.00  0.00     0.012 A 
HETATM    6  C6  UNL     1      -1.789  52.811 -25.407  1.00  0.00     0.019 A 
HETATM    7  C7  UNL     1      -0.639  52.858 -26.204  1.00  0.00     0.037 A 
HETATM    8  C9  UNL     1       0.614  52.618 -25.627  1.00  0.00     0.019 A 
HETATM    9  C10 UNL     1       0.716  52.333 -24.262  1.00  0.00     0.012 A 
BRANCH   7  10
HETATM   10  C8  UNL     1      -0.699  53.157 -27.656  1.00  0.00     0.176 C 
HETATM   11  O1  UNL     1       0.203  52.990 -28.456  1.00  0.00    -0.646 OA
BRANCH  10  12
HETATM   12  O2  UNL     1      -1.888  53.654 -28.039  1.00  0.00    -0.773 OA
HETATM   13  H7  UNL     1      -1.781  53.800 -29.002  1.00  0.00     0.167 HD
ENDBRANCH  10  12
ENDBRANCH   7  10
ENDBRANCH   3   4
BRANCH   2  14
HETATM   14  C11 UNL     1       0.313  52.229 -19.762  1.00  0.00     0.011 A 
HETATM   15  C12 UNL     1       0.930  52.721 -18.624  1.00  0.00     0.020 A 
HETATM   16  C13 UNL     1       0.672  51.938 -17.461  1.00  0.00     0.016 A 
HETATM   17  C14 UNL     1      -0.136  50.852 -17.727  1.00  0.00    -0.013 A 
HETATM   18  S1  UNL     1      -0.567  50.795 -19.383  1.00  0.00    -0.094 SA
BRANCH  17  19
HETATM   19  C15 UNL     1      -0.638  49.788 -16.780  1.00  0.00     0.017 C 
HETATM   20  C16 UNL     1       0.514  49.184 -15.975  1.00  0.00     0.015 C 
HETATM   21  C17 UNL     1      -1.400  48.697 -17.537  1.00  0.00     0.015 C 
ENDBRANCH  17  19
ENDBRANCH   2  14
TORSDOF 5
ENDMDL
MODEL 8
REMARK minimizedAffinity -7.20113325
REMARK  5 active torsions:
REMARK  status: ('A' for Active; 'I' for Inactive)
REMARK    1  A    between atoms: C2_2  and  C11_13 
REMARK    2  A    between atoms: C3_3  and  C4_4 
REMARK    3  A    between atoms: C7_7  and  C8_8 
REMARK    4  A    between atoms: C8_8  and  O2_10 
REMARK    5  A    between atoms: C14_16  and  C15_17 
ROOT
HETATM    1  C1  UNL     1      -3.660  52.117 -25.186  1.00  0.00     0.049 C 
HETATM    2  C2  UNL     1      -2.585  51.176 -24.671  1.00  0.00    -0.044 C 
HETATM    3  C3  UNL     1      -2.607  49.852 -24.950  1.00  0.00     0.019 C 
ENDROOT
BRANCH   3   4
HETATM    4  C4  UNL     1      -3.603  49.171 -25.780  1.00  0.00    -0.036 A 
HETATM    5  C5  UNL     1      -4.780  48.687 -25.198  1.00  0.00     0.012 A 
HETATM    6  C6  UNL     1      -5.736  48.033 -25.982  1.00  0.00     0.019 A 
HETATM    7  C7  UNL     1      -5.519  47.856 -27.353  1.00  0.00     0.037 A 
HETATM    8  C9  UNL     1      -4.338  48.337 -27.935  1.00  0.00     0.019 A 
HETATM    9  C10 UNL     1      -3.384  48.991 -27.150  1.00  0.00     0.012 A 
BRANCH   7  10
HETATM   10  C8  UNL     1      -6.502  47.170 -28.225  1.00  0.00     0.176 C 
HETATM   11  O1  UNL     1      -7.525  46.624 -27.855  1.00  0.00    -0.646 OA
BRANCH  10  12
HETATM   12  O2  UNL     1      -6.159  47.201 -29.525  1.00  0.00    -0.773 OA
HETATM   13  H7  UNL     1      -6.887  46.719 -29.970  1.00  0.00     0.167 HD
ENDBRANCH  10  12
ENDBRANCH   7  10
ENDBRANCH   3   4
BRANCH   2  14
HETATM   14  C11 UNL     1      -1.491  51.636 -23.848  1.00  0.00     0.011 A 
HETATM   15  C12 UNL     1      -0.231  52.084 -24.210  1.00  0.00     0.020 A 
HETATM   16  C13 UNL     1       0.577  52.454 -23.096  1.00  0.00     0.016 A 
HETATM   17  C14 UNL     1      -0.075  52.278 -21.893  1.00  0.00    -0.013 A 
HETATM   18  S1  UNL     1      -1.655  51.663 -22.132  1.00  0.00    -0.094 SA
BRANCH  17  19
HETATM   19  C15 UNL     1       0.425  52.549 -20.493  1.00  0.00     0.017 C 
HETATM   20  C16 UNL     1      -0.653  52.230 -19.455  1.00  0.00     0.015 C 
HETATM   21  C17 UNL     1       0.901  53.996 -20.353  1.00  0.00     0.015 C 
ENDBRANCH  17  19
ENDBRANCH   2  14
TORSDOF 5
ENDMDL
MODEL 9
REMARK minimizedAffinity -7.17077684
REMARK  5 active torsions:
REMARK  status: ('A' for Active; 'I' for Inactive)
REMARK    1  A    between atoms: C2_2  and  C11_13 
REMARK    2  A    between atoms: C3_3  and  C4_4 
REMARK    3  A    between atoms: C7_7  and  C8_8 
REMARK    4  A    between atoms: C8_8  and  O2_10 
REMARK    5  A    between atoms: C14_16  and  C15_17 
ROOT
HETATM    1  C1  UNL     1      -3.280  51.207 -20.541  1.00  0.00     0.049 C 
HETATM    2  C2  UNL     1      -2.246  50.589 -21.466  1.00  0.00    -0.044 C 
HETATM    3  C3  UNL     1      -0.930  50.576 -21.152  1.00  0.00     0.019 C 
ENDROOT
BRANCH   3   4
HETATM    4  C4  UNL     1      -0.342  51.098 -19.916  1.00  0.00    -0.036 A 
HETATM    5  C5  UNL     1       0.274  52.354 -19.915  1.00  0.00     0.012 A 
HETATM    6  C6  UNL     1       0.841  52.859 -18.741  1.00  0.00     0.019 A 
HETATM    7  C7  UNL     1       0.797  52.109 -17.560  1.00  0.00     0.037 A 
HETATM    8  C9  UNL     1       0.184  50.849 -17.563  1.00  0.00     0.019 A 
HETATM    9  C10 UNL     1      -0.382  50.346 -18.737  1.00  0.00     0.012 A 
BRANCH   7  10
HETATM   10  C8  UNL     1       1.383  52.602 -16.290  1.00  0.00     0.176 C 
HETATM   11  O1  UNL     1       0.890  52.485 -15.184  1.00  0.00    -0.646 OA
BRANCH  10  12
HETATM   12  O2  UNL     1       2.564  53.221 -16.466  1.00  0.00    -0.773 OA
HETATM   13  H7  UNL     1       2.825  53.487 -15.559  1.00  0.00     0.167 HD
ENDBRANCH  10  12
ENDBRANCH   7  10
ENDBRANCH   3   4
BRANCH   2  14
HETATM   14  C11 UNL     1      -2.605  49.996 -22.733  1.00  0.00     0.011 A 
HETATM   15  C12 UNL     1      -2.958  48.692 -23.038  1.00  0.00     0.020 A 
HETATM   16  C13 UNL     1      -3.246  48.494 -24.419  1.00  0.00     0.016 A 
HETATM   17  C14 UNL     1      -3.103  49.652 -25.156  1.00  0.00    -0.013 A 
HETATM   18  S1  UNL     1      -2.619  50.960 -24.163  1.00  0.00    -0.094 SA
BRANCH  17  19
HETATM   19  C15 UNL     1      -3.312  49.866 -26.637  1.00  0.00     0.017 C 
HETATM   20  C16 UNL     1      -3.541  48.535 -27.356  1.00  0.00     0.015 C 
HETATM   21  C17 UNL     1      -2.129  50.617 -27.252  1.00  0.00     0.015 C 
ENDBRANCH  17  19
ENDBRANCH   2  14
TORSDOF 5
ENDMDL
