MODEL 1
REMARK minimizedAffinity -7.60094738
REMARK CNNscore 0.556267619
REMARK CNNaffinity 7.31449747
REMARK  11 active torsions:
REMARK  status: ('A' for Active; 'I' for Inactive)
REMARK    1  A    between atoms: C2_2  and  C4_4 
REMARK    2  A    between atoms: C5_5  and  C6_6 
REMARK    3  A    between atoms: C6_6  and  C7_7 
REMARK    4  A    between atoms: C7_7  and  C9_9 
REMARK    5  A    between atoms: C27_28  and  O2_29 
REMARK    6  A    between atoms: O2_29  and  C28_30 
REMARK    7  A    between atoms: C29_32  and  C30_33 
REMARK    8  A    between atoms: C30_33  and  O4_34 
REMARK    9  A    between atoms: C31_35  and  O5_36 
REMARK   10  A    between atoms: C32_37  and  O6_38 
REMARK   11  A    between atoms: C33_39  and  O7_40 
ROOT
HETATM    1  C9  UNL     1       6.290  54.702  -5.282  1.00  0.00    -0.002 C 
HETATM    2  C10 UNL     1       5.739  56.034  -4.676  1.00  0.00     0.006 C 
HETATM    3  C11 UNL     1       4.649  56.566  -5.627  1.00  0.00     0.011 C 
HETATM    4  C12 UNL     1       4.324  55.376  -6.545  1.00  0.00    -0.029 C 
HETATM    5  C13 UNL     1       3.355  54.455  -5.732  1.00  0.00     0.016 C 
HETATM    6  C14 UNL     1       3.696  55.756  -7.926  1.00  0.00     0.028 C 
HETATM    7  C15 UNL     1       2.348  56.451  -7.808  1.00  0.00    -0.021 C 
HETATM    8  C16 UNL     1       1.283  56.068  -8.534  1.00  0.00     0.008 C 
HETATM    9  C17 UNL     1       1.371  54.901  -9.508  1.00  0.00     0.092 C 
HETATM   10  O1  UNL     1       2.165  55.428 -10.598  1.00  0.00    -0.374 OA
HETATM   11  C18 UNL     1       3.531  55.054 -10.374  1.00  0.00     0.179 C 
HETATM   12  C19 UNL     1       3.656  54.519  -8.928  1.00  0.00    -0.004 C 
HETATM   13  C20 UNL     1       4.918  53.614  -8.860  1.00  0.00     0.014 C 
HETATM   14  C21 UNL     1       5.588  53.419  -7.489  1.00  0.00     0.011 C 
HETATM   15  C22 UNL     1       5.762  54.759  -6.752  1.00  0.00    -0.032 C 
HETATM   16  C23 UNL     1       6.722  55.658  -7.595  1.00  0.00     0.016 C 
HETATM   17  C24 UNL     1       2.272  53.833  -8.815  1.00  0.00     0.036 C 
HETATM   18  C25 UNL     1       2.124  52.443  -9.424  1.00  0.00     0.011 C 
HETATM   19  C26 UNL     1       0.674  51.948  -9.339  1.00  0.00     0.033 C 
HETATM   20  C27 UNL     1      -0.371  53.071  -9.220  1.00  0.00     0.136 C 
HETATM   21  C34 UNL     1       0.013  54.317 -10.070  1.00  0.00     0.014 C 
HETATM   22  C35 UNL     1      -1.153  55.341 -10.021  1.00  0.00     0.021 C 
HETATM   23  C36 UNL     1       0.132  53.935 -11.571  1.00  0.00     0.021 C 
ENDROOT
BRANCH  20  24
HETATM   24  O2  UNL     1      -1.663  52.600  -9.619  1.00  0.00    -0.352 OA
BRANCH  24  25
HETATM   25  C28 UNL     1      -1.669  51.346 -10.289  1.00  0.00     0.292 C 
HETATM   26  O3  UNL     1      -2.041  51.464 -11.662  1.00  0.00    -0.348 OA
HETATM   27  C29 UNL     1      -3.433  51.705 -11.954  1.00  0.00     0.179 C 
HETATM   28  C31 UNL     1      -4.397  50.795 -11.182  1.00  0.00     0.180 C 
HETATM   29  C32 UNL     1      -4.041  50.686  -9.698  1.00  0.00     0.183 C 
HETATM   30  C33 UNL     1      -2.557  50.352  -9.516  1.00  0.00     0.204 C 
BRANCH  27  31
HETATM   31  C30 UNL     1      -3.828  53.193 -11.878  1.00  0.00     0.198 C 
BRANCH  31  32
HETATM   32  O4  UNL     1      -4.266  53.711 -13.131  1.00  0.00    -0.398 OA
HETATM   33  H44 UNL     1      -4.386  54.673 -13.017  1.00  0.00     0.209 HD
ENDBRANCH  31  32
ENDBRANCH  27  31
BRANCH  28  34
HETATM   34  O5  UNL     1      -4.343  49.461 -11.747  1.00  0.00    -0.390 OA
HETATM   35  H46 UNL     1      -4.907  48.937 -11.134  1.00  0.00     0.210 HD
ENDBRANCH  28  34
BRANCH  29  36
HETATM   36  O6  UNL     1      -4.863  49.640  -9.129  1.00  0.00    -0.390 OA
HETATM   37  H48 UNL     1      -4.249  48.965  -8.771  1.00  0.00     0.210 HD
ENDBRANCH  29  36
BRANCH  30  38
HETATM   38  O7  UNL     1      -2.326  48.992  -9.941  1.00  0.00    -0.388 OA
HETATM   39  H50 UNL     1      -2.587  48.956 -10.887  1.00  0.00     0.210 HD
ENDBRANCH  30  38
ENDBRANCH  24  25
ENDBRANCH  20  24
BRANCH   1  40
HETATM   40  C7  UNL     1       7.820  54.538  -5.011  1.00  0.00    -0.010 C 
HETATM   41  C8  UNL     1       8.250  53.073  -4.888  1.00  0.00     0.010 C 
BRANCH  40  42
HETATM   42  C6  UNL     1       8.307  55.335  -3.768  1.00  0.00     0.031 C 
BRANCH  42  43
HETATM   43  C5  UNL     1       9.328  56.408  -4.054  1.00  0.00    -0.026 C 
HETATM   44  C4  UNL     1       8.996  57.622  -4.526  1.00  0.00     0.002 C 
BRANCH  44  45
HETATM   45  C2  UNL     1       9.917  58.709  -4.831  1.00  0.00    -0.072 C 
HETATM   46  C1  UNL     1       9.436  59.879  -5.292  1.00  0.00     0.018 C 
HETATM   47  C3  UNL     1      11.398  58.508  -4.640  1.00  0.00     0.047 C 
ENDBRANCH  44  45
ENDBRANCH  42  43
ENDBRANCH  40  42
ENDBRANCH   1  40
TORSDOF 11
ENDMDL
MODEL 2
REMARK minimizedAffinity -10.346736
REMARK CNNscore 0.552166998
REMARK CNNaffinity 7.22059298
REMARK  11 active torsions:
REMARK  status: ('A' for Active; 'I' for Inactive)
REMARK    1  A    between atoms: C2_2  and  C4_4 
REMARK    2  A    between atoms: C5_5  and  C6_6 
REMARK    3  A    between atoms: C6_6  and  C7_7 
REMARK    4  A    between atoms: C7_7  and  C9_9 
REMARK    5  A    between atoms: C27_28  and  O2_29 
REMARK    6  A    between atoms: O2_29  and  C28_30 
REMARK    7  A    between atoms: C29_32  and  C30_33 
REMARK    8  A    between atoms: C30_33  and  O4_34 
REMARK    9  A    between atoms: C31_35  and  O5_36 
REMARK   10  A    between atoms: C32_37  and  O6_38 
REMARK   11  A    between atoms: C33_39  and  O7_40 
ROOT
HETATM    1  C9  UNL     1      -0.911  51.407 -21.108  1.00  0.00    -0.002 C 
HETATM    2  C10 UNL     1      -0.042  50.108 -21.060  1.00  0.00     0.006 C 
HETATM    3  C11 UNL     1      -0.997  48.909 -20.901  1.00  0.00     0.011 C 
HETATM    4  C12 UNL     1      -2.388  49.477 -21.231  1.00  0.00    -0.029 C 
HETATM    5  C13 UNL     1      -2.478  49.515 -22.793  1.00  0.00     0.016 C 
HETATM    6  C14 UNL     1      -3.590  48.683 -20.626  1.00  0.00     0.028 C 
HETATM    7  C15 UNL     1      -3.693  47.255 -21.141  1.00  0.00    -0.021 C 
HETATM    8  C16 UNL     1      -4.852  46.743 -21.595  1.00  0.00     0.008 C 
HETATM    9  C17 UNL     1      -6.124  47.579 -21.628  1.00  0.00     0.092 C 
HETATM   10  O1  UNL     1      -6.496  47.686 -20.232  1.00  0.00    -0.374 OA
HETATM   11  C18 UNL     1      -5.966  48.917 -19.724  1.00  0.00     0.179 C 
HETATM   12  C19 UNL     1      -4.964  49.477 -20.761  1.00  0.00    -0.004 C 
HETATM   13  C20 UNL     1      -4.831  51.007 -20.519  1.00  0.00     0.014 C 
HETATM   14  C21 UNL     1      -3.541  51.699 -20.991  1.00  0.00     0.011 C 
HETATM   15  C22 UNL     1      -2.290  50.906 -20.567  1.00  0.00    -0.032 C 
HETATM   16  C23 UNL     1      -2.236  50.878 -19.007  1.00  0.00     0.016 C 
HETATM   17  C24 UNL     1      -5.682  49.013 -22.051  1.00  0.00     0.036 C 
HETATM   18  C25 UNL     1      -6.840  49.867 -22.559  1.00  0.00     0.011 C 
HETATM   19  C26 UNL     1      -7.522  49.219 -23.770  1.00  0.00     0.033 C 
HETATM   20  C27 UNL     1      -7.327  47.695 -23.864  1.00  0.00     0.136 C 
HETATM   21  C34 UNL     1      -7.343  47.017 -22.464  1.00  0.00     0.014 C 
HETATM   22  C35 UNL     1      -7.293  45.476 -22.648  1.00  0.00     0.021 C 
HETATM   23  C36 UNL     1      -8.697  47.280 -21.748  1.00  0.00     0.021 C 
ENDROOT
BRANCH  20  24
HETATM   24  O2  UNL     1      -8.339  47.109 -24.690  1.00  0.00    -0.352 OA
BRANCH  24  25
HETATM   25  C28 UNL     1      -9.462  47.941 -24.955  1.00  0.00     0.292 C 
HETATM   26  O3  UNL     1     -10.629  47.189 -25.285  1.00  0.00    -0.348 OA
HETATM   27  C29 UNL     1     -10.681  46.586 -26.595  1.00  0.00     0.179 C 
HETATM   28  C31 UNL     1     -10.275  47.532 -27.731  1.00  0.00     0.180 C 
HETATM   29  C32 UNL     1      -9.002  48.319 -27.415  1.00  0.00     0.183 C 
HETATM   30  C33 UNL     1      -9.095  48.976 -26.035  1.00  0.00     0.204 C 
BRANCH  27  31
HETATM   31  C30 UNL     1      -9.969  45.222 -26.671  1.00  0.00     0.198 C 
BRANCH  31  32
HETATM   32  O4  UNL     1      -8.596  45.336 -27.032  1.00  0.00    -0.398 OA
HETATM   33  H44 UNL     1      -8.258  44.430 -27.165  1.00  0.00     0.209 HD
ENDBRANCH  31  32
ENDBRANCH  27  31
BRANCH  28  34
HETATM   34  O5  UNL     1     -11.340  48.490 -27.954  1.00  0.00    -0.390 OA
HETATM   35  H46 UNL     1     -10.953  49.104 -28.618  1.00  0.00     0.210 HD
ENDBRANCH  28  34
BRANCH  29  36
HETATM   36  O6  UNL     1      -8.847  49.328 -28.441  1.00  0.00    -0.390 OA
HETATM   37  H48 UNL     1      -8.850  50.195 -27.983  1.00  0.00     0.210 HD
ENDBRANCH  29  36
BRANCH  30  38
HETATM   38  O7  UNL     1     -10.059  50.049 -26.090  1.00  0.00    -0.388 OA
HETATM   39  H50 UNL     1     -10.911  49.635 -26.347  1.00  0.00     0.210 HD
ENDBRANCH  30  38
ENDBRANCH  24  25
ENDBRANCH  20  24
BRANCH   1  40
HETATM   40  C7  UNL     1      -0.191  52.605 -20.410  1.00  0.00    -0.010 C 
HETATM   41  C8  UNL     1       1.272  52.754 -20.843  1.00  0.00     0.010 C 
BRANCH  40  42
HETATM   42  C6  UNL     1      -0.277  52.549 -18.860  1.00  0.00     0.031 C 
BRANCH  42  43
HETATM   43  C5  UNL     1       1.049  52.509 -18.143  1.00  0.00    -0.026 C 
HETATM   44  C4  UNL     1       1.162  52.223 -16.835  1.00  0.00     0.002 C 
BRANCH  44  45
HETATM   45  C2  UNL     1       2.400  52.167 -16.069  1.00  0.00    -0.072 C 
HETATM   46  C1  UNL     1       3.454  52.914 -16.452  1.00  0.00     0.018 C 
HETATM   47  C3  UNL     1       2.495  51.264 -14.866  1.00  0.00     0.047 C 
ENDBRANCH  44  45
ENDBRANCH  42  43
ENDBRANCH  40  42
ENDBRANCH   1  40
TORSDOF 11
ENDMDL
MODEL 3
REMARK minimizedAffinity -8.08183765
REMARK CNNscore 0.526777506
REMARK CNNaffinity 7.08130312
REMARK  11 active torsions:
REMARK  status: ('A' for Active; 'I' for Inactive)
REMARK    1  A    between atoms: C2_2  and  C4_4 
REMARK    2  A    between atoms: C5_5  and  C6_6 
REMARK    3  A    between atoms: C6_6  and  C7_7 
REMARK    4  A    between atoms: C7_7  and  C9_9 
REMARK    5  A    between atoms: C27_28  and  O2_29 
REMARK    6  A    between atoms: O2_29  and  C28_30 
REMARK    7  A    between atoms: C29_32  and  C30_33 
REMARK    8  A    between atoms: C30_33  and  O4_34 
REMARK    9  A    between atoms: C31_35  and  O5_36 
REMARK   10  A    between atoms: C32_37  and  O6_38 
REMARK   11  A    between atoms: C33_39  and  O7_40 
ROOT
HETATM    1  C9  UNL     1      -2.765  48.912 -23.984  1.00  0.00    -0.002 C 
HETATM    2  C10 UNL     1      -1.605  49.833 -23.482  1.00  0.00     0.006 C 
HETATM    3  C11 UNL     1      -1.676  49.879 -21.943  1.00  0.00     0.011 C 
HETATM    4  C12 UNL     1      -2.609  48.716 -21.565  1.00  0.00    -0.029 C 
HETATM    5  C13 UNL     1      -1.731  47.422 -21.620  1.00  0.00     0.016 C 
HETATM    6  C14 UNL     1      -3.307  48.852 -20.172  1.00  0.00     0.028 C 
HETATM    7  C15 UNL     1      -2.331  48.876 -19.006  1.00  0.00    -0.021 C 
HETATM    8  C16 UNL     1      -2.500  48.101 -17.919  1.00  0.00     0.008 C 
HETATM    9  C17 UNL     1      -3.679  47.144 -17.809  1.00  0.00     0.092 C 
HETATM   10  O1  UNL     1      -4.811  48.022 -17.595  1.00  0.00    -0.374 OA
HETATM   11  C18 UNL     1      -5.423  48.276 -18.866  1.00  0.00     0.179 C 
HETATM   12  C19 UNL     1      -4.465  47.777 -19.973  1.00  0.00    -0.004 C 
HETATM   13  C20 UNL     1      -5.308  47.517 -21.254  1.00  0.00     0.014 C 
HETATM   14  C21 UNL     1      -4.585  47.566 -22.611  1.00  0.00     0.011 C 
HETATM   15  C22 UNL     1      -3.680  48.807 -22.721  1.00  0.00    -0.032 C 
HETATM   16  C23 UNL     1      -4.584  50.079 -22.650  1.00  0.00     0.016 C 
HETATM   17  C24 UNL     1      -3.880  46.548 -19.236  1.00  0.00     0.036 C 
HETATM   18  C25 UNL     1      -4.709  45.267 -19.235  1.00  0.00     0.011 C 
HETATM   19  C26 UNL     1      -4.058  44.181 -18.369  1.00  0.00     0.033 C 
HETATM   20  C27 UNL     1      -3.108  44.722 -17.286  1.00  0.00     0.136 C 
HETATM   21  C34 UNL     1      -3.627  46.052 -16.666  1.00  0.00     0.014 C 
HETATM   22  C35 UNL     1      -2.702  46.454 -15.485  1.00  0.00     0.021 C 
HETATM   23  C36 UNL     1      -5.021  45.839 -16.014  1.00  0.00     0.021 C 
ENDROOT
BRANCH  20  24
HETATM   24  O2  UNL     1      -2.923  43.752 -16.249  1.00  0.00    -0.352 OA
BRANCH  24  25
HETATM   25  C28 UNL     1      -1.574  43.364 -16.018  1.00  0.00     0.292 C 
HETATM   26  O3  UNL     1      -1.060  42.536 -17.060  1.00  0.00    -0.348 OA
HETATM   27  C29 UNL     1      -1.518  41.169 -17.108  1.00  0.00     0.179 C 
HETATM   28  C31 UNL     1      -1.489  40.455 -15.751  1.00  0.00     0.180 C 
HETATM   29  C32 UNL     1      -2.073  41.310 -14.625  1.00  0.00     0.183 C 
HETATM   30  C33 UNL     1      -1.457  42.712 -14.627  1.00  0.00     0.204 C 
BRANCH  27  31
HETATM   31  C30 UNL     1      -2.860  40.996 -17.844  1.00  0.00     0.198 C 
BRANCH  31  32
HETATM   32  O4  UNL     1      -2.737  41.136 -19.256  1.00  0.00    -0.398 OA
HETATM   33  H44 UNL     1      -3.641  41.124 -19.626  1.00  0.00     0.209 HD
ENDBRANCH  31  32
ENDBRANCH  27  31
BRANCH  28  34
HETATM   34  O5  UNL     1      -0.114  40.152 -15.405  1.00  0.00    -0.390 OA
HETATM   35  H46 UNL     1      -0.188  39.794 -14.491  1.00  0.00     0.210 HD
ENDBRANCH  28  34
BRANCH  29  36
HETATM   36  O6  UNL     1      -1.787  40.638 -13.375  1.00  0.00    -0.390 OA
HETATM   37  H48 UNL     1      -1.253  41.261 -12.839  1.00  0.00     0.210 HD
ENDBRANCH  29  36
BRANCH  30  38
HETATM   38  O7  UNL     1      -0.081  42.620 -14.199  1.00  0.00    -0.388 OA
HETATM   39  H50 UNL     1       0.366  42.032 -14.845  1.00  0.00     0.210 HD
ENDBRANCH  30  38
ENDBRANCH  24  25
ENDBRANCH  20  24
BRANCH   1  40
HETATM   40  C7  UNL     1      -3.359  49.425 -25.335  1.00  0.00    -0.010 C 
HETATM   41  C8  UNL     1      -4.571  48.610 -25.800  1.00  0.00     0.010 C 
BRANCH  40  42
HETATM   42  C6  UNL     1      -2.306  49.498 -26.476  1.00  0.00     0.031 C 
BRANCH  42  43
HETATM   43  C5  UNL     1      -1.460  50.747 -26.488  1.00  0.00    -0.026 C 
HETATM   44  C4  UNL     1      -0.118  50.716 -26.554  1.00  0.00     0.002 C 
BRANCH  44  45
HETATM   45  C2  UNL     1       0.770  51.871 -26.567  1.00  0.00    -0.072 C 
HETATM   46  C1  UNL     1       2.008  51.753 -27.084  1.00  0.00     0.018 C 
HETATM   47  C3  UNL     1       0.300  53.181 -25.990  1.00  0.00     0.047 C 
ENDBRANCH  44  45
ENDBRANCH  42  43
ENDBRANCH  40  42
ENDBRANCH   1  40
TORSDOF 11
ENDMDL
MODEL 4
REMARK minimizedAffinity -10.1355381
REMARK CNNscore 0.461922437
REMARK CNNaffinity 7.35461569
REMARK  11 active torsions:
REMARK  status: ('A' for Active; 'I' for Inactive)
REMARK    1  A    between atoms: C2_2  and  C4_4 
REMARK    2  A    between atoms: C5_5  and  C6_6 
REMARK    3  A    between atoms: C6_6  and  C7_7 
REMARK    4  A    between atoms: C7_7  and  C9_9 
REMARK    5  A    between atoms: C27_28  and  O2_29 
REMARK    6  A    between atoms: O2_29  and  C28_30 
REMARK    7  A    between atoms: C29_32  and  C30_33 
REMARK    8  A    between atoms: C30_33  and  O4_34 
REMARK    9  A    between atoms: C31_35  and  O5_36 
REMARK   10  A    between atoms: C32_37  and  O6_38 
REMARK   11  A    between atoms: C33_39  and  O7_40 
ROOT
HETATM    1  C9  UNL     1      -0.755  50.679 -20.946  1.00  0.00    -0.002 C 
HETATM    2  C10 UNL     1      -0.023  49.298 -20.878  1.00  0.00     0.006 C 
HETATM    3  C11 UNL     1      -1.097  48.205 -20.708  1.00  0.00     0.011 C 
HETATM    4  C12 UNL     1      -2.420  48.909 -21.053  1.00  0.00    -0.029 C 
HETATM    5  C13 UNL     1      -2.501  48.935 -22.616  1.00  0.00     0.016 C 
HETATM    6  C14 UNL     1      -3.701  48.250 -20.445  1.00  0.00     0.028 C 
HETATM    7  C15 UNL     1      -3.948  46.834 -20.942  1.00  0.00    -0.021 C 
HETATM    8  C16 UNL     1      -5.151  46.437 -21.395  1.00  0.00     0.008 C 
HETATM    9  C17 UNL     1      -6.330  47.399 -21.445  1.00  0.00     0.092 C 
HETATM   10  O1  UNL     1      -6.695  47.561 -20.053  1.00  0.00    -0.374 OA
HETATM   11  C18 UNL     1      -6.044  48.738 -19.557  1.00  0.00     0.179 C 
HETATM   12  C19 UNL     1      -4.985  49.179 -20.596  1.00  0.00    -0.004 C 
HETATM   13  C20 UNL     1      -4.697  50.690 -20.373  1.00  0.00     0.014 C 
HETATM   14  C21 UNL     1      -3.340  51.240 -20.847  1.00  0.00     0.011 C 
HETATM   15  C22 UNL     1      -2.180  50.329 -20.407  1.00  0.00    -0.032 C 
HETATM   16  C23 UNL     1      -2.135  50.315 -18.845  1.00  0.00     0.016 C 
HETATM   17  C24 UNL     1      -5.742  48.774 -21.884  1.00  0.00     0.036 C 
HETATM   18  C25 UNL     1      -6.804  49.736 -22.408  1.00  0.00     0.011 C 
HETATM   19  C26 UNL     1      -7.545  49.145 -23.615  1.00  0.00     0.033 C 
HETATM   20  C27 UNL     1      -7.507  47.609 -23.689  1.00  0.00     0.136 C 
HETATM   21  C34 UNL     1      -7.598  46.954 -22.280  1.00  0.00     0.014 C 
HETATM   22  C35 UNL     1      -7.705  45.413 -22.445  1.00  0.00     0.021 C 
HETATM   23  C36 UNL     1      -8.920  47.363 -21.575  1.00  0.00     0.021 C 
ENDROOT
BRANCH  20  24
HETATM   24  O2  UNL     1      -8.570  47.118 -24.513  1.00  0.00    -0.352 OA
BRANCH  24  25
HETATM   25  C28 UNL     1      -9.605  48.055 -24.786  1.00  0.00     0.292 C 
HETATM   26  O3  UNL     1     -10.873  47.425 -24.969  1.00  0.00    -0.348 OA
HETATM   27  C29 UNL     1     -11.090  46.720 -26.208  1.00  0.00     0.179 C 
HETATM   28  C31 UNL     1     -10.662  47.505 -27.454  1.00  0.00     0.180 C 
HETATM   29  C32 UNL     1      -9.286  48.155 -27.295  1.00  0.00     0.183 C 
HETATM   30  C33 UNL     1      -9.201  48.938 -25.981  1.00  0.00     0.204 C 
BRANCH  27  31
HETATM   31  C30 UNL     1     -10.549  45.277 -26.198  1.00  0.00     0.198 C 
BRANCH  31  32
HETATM   32  O4  UNL     1      -9.796  44.962 -27.365  1.00  0.00    -0.398 OA
HETATM   33  H44 UNL     1      -9.591  44.008 -27.326  1.00  0.00     0.209 HD
ENDBRANCH  31  32
ENDBRANCH  27  31
BRANCH  28  34
HETATM   34  O5  UNL     1     -11.622  48.562 -27.701  1.00  0.00    -0.390 OA
HETATM   35  H46 UNL     1     -11.216  49.063 -28.444  1.00  0.00     0.210 HD
ENDBRANCH  28  34
BRANCH  29  36
HETATM   36  O6  UNL     1      -9.091  49.043 -28.421  1.00  0.00    -0.390 OA
HETATM   37  H48 UNL     1      -8.960  49.941 -28.049  1.00  0.00     0.210 HD
ENDBRANCH  29  36
BRANCH  30  38
HETATM   38  O7  UNL     1     -10.035  50.112 -26.079  1.00  0.00    -0.388 OA
HETATM   39  H50 UNL     1     -10.946  49.784 -26.242  1.00  0.00     0.210 HD
ENDBRANCH  30  38
ENDBRANCH  24  25
ENDBRANCH  20  24
BRANCH   1  40
HETATM   40  C7  UNL     1       0.083  51.805 -20.260  1.00  0.00    -0.010 C 
HETATM   41  C8  UNL     1      -0.629  52.425 -19.053  1.00  0.00     0.010 C 
BRANCH  40  42
HETATM   42  C6  UNL     1       0.520  52.925 -21.244  1.00  0.00     0.031 C 
BRANCH  42  43
HETATM   43  C5  UNL     1       0.823  52.463 -22.648  1.00  0.00    -0.026 C 
HETATM   44  C4  UNL     1      -0.133  52.263 -23.571  1.00  0.00     0.002 C 
BRANCH  44  45
HETATM   45  C2  UNL     1       0.074  51.816 -24.942  1.00  0.00    -0.072 C 
HETATM   46  C1  UNL     1      -0.817  50.981 -25.511  1.00  0.00     0.018 C 
HETATM   47  C3  UNL     1       1.288  52.280 -25.704  1.00  0.00     0.047 C 
ENDBRANCH  44  45
ENDBRANCH  42  43
ENDBRANCH  40  42
ENDBRANCH   1  40
TORSDOF 11
ENDMDL
MODEL 5
REMARK minimizedAffinity -7.68023348
REMARK CNNscore 0.430346578
REMARK CNNaffinity 7.08337641
REMARK  11 active torsions:
REMARK  status: ('A' for Active; 'I' for Inactive)
REMARK    1  A    between atoms: C2_2  and  C4_4 
REMARK    2  A    between atoms: C5_5  and  C6_6 
REMARK    3  A    between atoms: C6_6  and  C7_7 
REMARK    4  A    between atoms: C7_7  and  C9_9 
REMARK    5  A    between atoms: C27_28  and  O2_29 
REMARK    6  A    between atoms: O2_29  and  C28_30 
REMARK    7  A    between atoms: C29_32  and  C30_33 
REMARK    8  A    between atoms: C30_33  and  O4_34 
REMARK    9  A    between atoms: C31_35  and  O5_36 
REMARK   10  A    between atoms: C32_37  and  O6_38 
REMARK   11  A    between atoms: C33_39  and  O7_40 
ROOT
HETATM    1  C9  UNL     1      -0.493  50.526 -20.870  1.00  0.00    -0.002 C 
HETATM    2  C10 UNL     1      -0.103  49.942 -19.472  1.00  0.00     0.006 C 
HETATM    3  C11 UNL     1      -1.378  49.352 -18.838  1.00  0.00     0.011 C 
HETATM    4  C12 UNL     1      -2.380  49.261 -20.000  1.00  0.00    -0.029 C 
HETATM    5  C13 UNL     1      -2.009  47.962 -20.790  1.00  0.00     0.016 C 
HETATM    6  C14 UNL     1      -3.886  49.240 -19.578  1.00  0.00     0.028 C 
HETATM    7  C15 UNL     1      -4.261  48.034 -18.732  1.00  0.00    -0.021 C 
HETATM    8  C16 UNL     1      -5.341  47.279 -19.005  1.00  0.00     0.008 C 
HETATM    9  C17 UNL     1      -6.240  47.592 -20.193  1.00  0.00     0.092 C 
HETATM   10  O1  UNL     1      -6.943  48.789 -19.781  1.00  0.00    -0.374 OA
HETATM   11  C18 UNL     1      -6.236  49.922 -20.303  1.00  0.00     0.179 C 
HETATM   12  C19 UNL     1      -4.861  49.437 -20.821  1.00  0.00    -0.004 C 
HETATM   13  C20 UNL     1      -4.351  50.472 -21.863  1.00  0.00     0.014 C 
HETATM   14  C21 UNL     1      -2.834  50.556 -22.107  1.00  0.00     0.011 C 
HETATM   15  C22 UNL     1      -2.053  50.593 -20.781  1.00  0.00    -0.032 C 
HETATM   16  C23 UNL     1      -2.454  51.893 -20.013  1.00  0.00     0.016 C 
HETATM   17  C24 UNL     1      -5.289  48.043 -21.343  1.00  0.00     0.036 C 
HETATM   18  C25 UNL     1      -5.944  47.977 -22.718  1.00  0.00     0.011 C 
HETATM   19  C26 UNL     1      -6.417  46.554 -23.043  1.00  0.00     0.033 C 
HETATM   20  C27 UNL     1      -6.668  45.674 -21.806  1.00  0.00     0.136 C 
HETATM   21  C34 UNL     1      -7.283  46.485 -20.629  1.00  0.00     0.014 C 
HETATM   22  C35 UNL     1      -7.646  45.508 -19.478  1.00  0.00     0.021 C 
HETATM   23  C36 UNL     1      -8.640  47.111 -21.051  1.00  0.00     0.021 C 
ENDROOT
BRANCH  20  24
HETATM   24  O2  UNL     1      -7.531  44.580 -22.134  1.00  0.00    -0.352 OA
BRANCH  24  25
HETATM   25  C28 UNL     1      -6.869  43.370 -22.484  1.00  0.00     0.292 C 
HETATM   26  O3  UNL     1      -7.283  42.872 -23.755  1.00  0.00    -0.348 OA
HETATM   27  C29 UNL     1      -8.588  42.262 -23.835  1.00  0.00     0.179 C 
HETATM   28  C31 UNL     1      -8.875  41.258 -22.712  1.00  0.00     0.180 C 
HETATM   29  C32 UNL     1      -8.476  41.788 -21.334  1.00  0.00     0.183 C 
HETATM   30  C33 UNL     1      -7.047  42.339 -21.353  1.00  0.00     0.204 C 
BRANCH  27  31
HETATM   31  C30 UNL     1      -9.730  43.277 -24.034  1.00  0.00     0.198 C 
BRANCH  31  32
HETATM   32  O4  UNL     1     -11.006  42.745 -23.691  1.00  0.00    -0.398 OA
HETATM   33  H44 UNL     1     -11.673  43.409 -23.951  1.00  0.00     0.209 HD
ENDBRANCH  31  32
ENDBRANCH  27  31
BRANCH  28  34
HETATM   34  O5  UNL     1      -8.116  40.046 -22.953  1.00  0.00    -0.390 OA
HETATM   35  H46 UNL     1      -8.284  39.513 -22.144  1.00  0.00     0.210 HD
ENDBRANCH  28  34
BRANCH  29  36
HETATM   36  O6  UNL     1      -8.576  40.689 -20.398  1.00  0.00    -0.390 OA
HETATM   37  H48 UNL     1      -7.683  40.568 -20.012  1.00  0.00     0.210 HD
ENDBRANCH  29  36
BRANCH  30  38
HETATM   38  O7  UNL     1      -6.121  41.239 -21.488  1.00  0.00    -0.388 OA
HETATM   39  H50 UNL     1      -6.347  40.798 -22.336  1.00  0.00     0.210 HD
ENDBRANCH  30  38
ENDBRANCH  24  25
ENDBRANCH  20  24
BRANCH   1  40
HETATM   40  C7  UNL     1       0.324  51.815 -21.202  1.00  0.00    -0.010 C 
HETATM   41  C8  UNL     1       0.364  52.811 -20.038  1.00  0.00     0.010 C 
BRANCH  40  42
HETATM   42  C6  UNL     1      -0.164  52.532 -22.491  1.00  0.00     0.031 C 
BRANCH  42  43
HETATM   43  C5  UNL     1       0.164  51.825 -23.782  1.00  0.00    -0.026 C 
HETATM   44  C4  UNL     1       0.652  52.465 -24.859  1.00  0.00     0.002 C 
BRANCH  44  45
HETATM   45  C2  UNL     1       0.989  51.860 -26.140  1.00  0.00    -0.072 C 
HETATM   46  C1  UNL     1       0.041  51.737 -27.089  1.00  0.00     0.018 C 
HETATM   47  C3  UNL     1       2.392  51.366 -26.386  1.00  0.00     0.047 C 
ENDBRANCH  44  45
ENDBRANCH  42  43
ENDBRANCH  40  42
ENDBRANCH   1  40
TORSDOF 11
ENDMDL
MODEL 6
REMARK minimizedAffinity -7.95826769
REMARK CNNscore 0.319067091
REMARK CNNaffinity 7.02117109
REMARK  11 active torsions:
REMARK  status: ('A' for Active; 'I' for Inactive)
REMARK    1  A    between atoms: C2_2  and  C4_4 
REMARK    2  A    between atoms: C5_5  and  C6_6 
REMARK    3  A    between atoms: C6_6  and  C7_7 
REMARK    4  A    between atoms: C7_7  and  C9_9 
REMARK    5  A    between atoms: C27_28  and  O2_29 
REMARK    6  A    between atoms: O2_29  and  C28_30 
REMARK    7  A    between atoms: C29_32  and  C30_33 
REMARK    8  A    between atoms: C30_33  and  O4_34 
REMARK    9  A    between atoms: C31_35  and  O5_36 
REMARK   10  A    between atoms: C32_37  and  O6_38 
REMARK   11  A    between atoms: C33_39  and  O7_40 
ROOT
HETATM    1  C9  UNL     1      -0.146  50.829 -16.408  1.00  0.00    -0.002 C 
HETATM    2  C10 UNL     1      -0.185  49.360 -16.945  1.00  0.00     0.006 C 
HETATM    3  C11 UNL     1      -0.500  48.434 -15.754  1.00  0.00     0.011 C 
HETATM    4  C12 UNL     1      -1.001  49.381 -14.650  1.00  0.00    -0.029 C 
HETATM    5  C13 UNL     1      -2.500  49.682 -14.987  1.00  0.00     0.016 C 
HETATM    6  C14 UNL     1      -0.861  48.834 -13.193  1.00  0.00     0.028 C 
HETATM    7  C15 UNL     1      -1.678  47.577 -12.936  1.00  0.00    -0.021 C 
HETATM    8  C16 UNL     1      -2.475  47.452 -11.859  1.00  0.00     0.008 C 
HETATM    9  C17 UNL     1      -2.610  48.578 -10.844  1.00  0.00     0.092 C 
HETATM   10  O1  UNL     1      -1.341  48.559 -10.145  1.00  0.00    -0.374 OA
HETATM   11  C18 UNL     1      -0.477  49.521 -10.764  1.00  0.00     0.179 C 
HETATM   12  C19 UNL     1      -1.123  49.962 -12.100  1.00  0.00    -0.004 C 
HETATM   13  C20 UNL     1      -0.537  51.351 -12.478  1.00  0.00     0.014 C 
HETATM   14  C21 UNL     1      -0.554  51.757 -13.962  1.00  0.00     0.011 C 
HETATM   15  C22 UNL     1      -0.043  50.617 -14.862  1.00  0.00    -0.032 C 
HETATM   16  C23 UNL     1       1.448  50.334 -14.493  1.00  0.00     0.016 C 
HETATM   17  C24 UNL     1      -2.609  49.901 -11.669  1.00  0.00     0.036 C 
HETATM   18  C25 UNL     1      -3.165  51.089 -10.891  1.00  0.00     0.011 C 
HETATM   19  C26 UNL     1      -4.608  50.831 -10.435  1.00  0.00     0.033 C 
HETATM   20  C27 UNL     1      -4.979  49.342 -10.328  1.00  0.00     0.136 C 
HETATM   21  C34 UNL     1      -3.795  48.481  -9.801  1.00  0.00     0.014 C 
HETATM   22  C35 UNL     1      -4.287  47.026  -9.577  1.00  0.00     0.021 C 
HETATM   23  C36 UNL     1      -3.357  48.965  -8.391  1.00  0.00     0.021 C 
ENDROOT
BRANCH  20  24
HETATM   24  O2  UNL     1      -6.114  49.167  -9.473  1.00  0.00    -0.352 OA
BRANCH  24  25
HETATM   25  C28 UNL     1      -7.350  49.628 -10.005  1.00  0.00     0.292 C 
HETATM   26  O3  UNL     1      -8.279  49.994  -8.985  1.00  0.00    -0.348 OA
HETATM   27  C29 UNL     1      -8.913  48.927  -8.252  1.00  0.00     0.179 C 
HETATM   28  C31 UNL     1      -9.461  47.803  -9.139  1.00  0.00     0.180 C 
HETATM   29  C32 UNL     1      -8.466  47.365 -10.215  1.00  0.00     0.183 C 
HETATM   30  C33 UNL     1      -7.918  48.576 -10.977  1.00  0.00     0.204 C 
BRANCH  27  31
HETATM   31  C30 UNL     1      -8.067  48.400  -7.076  1.00  0.00     0.198 C 
BRANCH  31  32
HETATM   32  O4  UNL     1      -8.235  49.168  -5.889  1.00  0.00    -0.398 OA
HETATM   33  H44 UNL     1      -7.586  48.837  -5.239  1.00  0.00     0.209 HD
ENDBRANCH  31  32
ENDBRANCH  27  31
BRANCH  28  34
HETATM   34  O5  UNL     1     -10.658  48.269  -9.811  1.00  0.00    -0.390 OA
HETATM   35  H46 UNL     1     -10.874  47.529 -10.422  1.00  0.00     0.210 HD
ENDBRANCH  28  34
BRANCH  29  36
HETATM   36  O6  UNL     1      -9.164  46.478 -11.121  1.00  0.00    -0.390 OA
HETATM   37  H48 UNL     1      -9.116  46.890 -12.009  1.00  0.00     0.210 HD
ENDBRANCH  29  36
BRANCH  30  38
HETATM   38  O7  UNL     1      -8.968  49.127 -11.800  1.00  0.00    -0.388 OA
HETATM   39  H50 UNL     1      -9.687  49.387 -11.185  1.00  0.00     0.210 HD
ENDBRANCH  30  38
ENDBRANCH  24  25
ENDBRANCH  20  24
BRANCH   1  40
HETATM   40  C7  UNL     1       0.933  51.681 -17.150  1.00  0.00    -0.010 C 
HETATM   41  C8  UNL     1       1.955  52.309 -16.197  1.00  0.00     0.010 C 
BRANCH  40  42
HETATM   42  C6  UNL     1       0.320  52.780 -18.062  1.00  0.00     0.031 C 
BRANCH  42  43
HETATM   43  C5  UNL     1       0.999  52.959 -19.397  1.00  0.00    -0.026 C 
HETATM   44  C4  UNL     1       0.321  53.200 -20.532  1.00  0.00     0.002 C 
BRANCH  44  45
HETATM   45  C2  UNL     1       0.898  53.381 -21.858  1.00  0.00    -0.072 C 
HETATM   46  C1  UNL     1       1.684  54.446 -22.102  1.00  0.00     0.018 C 
HETATM   47  C3  UNL     1       0.598  52.381 -22.945  1.00  0.00     0.047 C 
ENDBRANCH  44  45
ENDBRANCH  42  43
ENDBRANCH  40  42
ENDBRANCH   1  40
TORSDOF 11
ENDMDL
MODEL 7
REMARK minimizedAffinity -9.79849339
REMARK CNNscore 0.301235467
REMARK CNNaffinity 6.81900787
REMARK  11 active torsions:
REMARK  status: ('A' for Active; 'I' for Inactive)
REMARK    1  A    between atoms: C2_2  and  C4_4 
REMARK    2  A    between atoms: C5_5  and  C6_6 
REMARK    3  A    between atoms: C6_6  and  C7_7 
REMARK    4  A    between atoms: C7_7  and  C9_9 
REMARK    5  A    between atoms: C27_28  and  O2_29 
REMARK    6  A    between atoms: O2_29  and  C28_30 
REMARK    7  A    between atoms: C29_32  and  C30_33 
REMARK    8  A    between atoms: C30_33  and  O4_34 
REMARK    9  A    between atoms: C31_35  and  O5_36 
REMARK   10  A    between atoms: C32_37  and  O6_38 
REMARK   11  A    between atoms: C33_39  and  O7_40 
ROOT
HETATM    1  C9  UNL     1      -1.438  50.808 -20.346  1.00  0.00    -0.002 C 
HETATM    2  C10 UNL     1      -0.638  49.465 -20.398  1.00  0.00     0.006 C 
HETATM    3  C11 UNL     1      -1.657  48.316 -20.521  1.00  0.00     0.011 C 
HETATM    4  C12 UNL     1      -2.974  49.008 -20.912  1.00  0.00    -0.029 C 
HETATM    5  C13 UNL     1      -2.883  49.272 -22.452  1.00  0.00     0.016 C 
HETATM    6  C14 UNL     1      -4.272  48.209 -20.564  1.00  0.00     0.028 C 
HETATM    7  C15 UNL     1      -4.378  46.878 -21.292  1.00  0.00    -0.021 C 
HETATM    8  C16 UNL     1      -5.498  46.507 -21.939  1.00  0.00     0.008 C 
HETATM    9  C17 UNL     1      -6.720  47.414 -21.984  1.00  0.00     0.092 C 
HETATM   10  O1  UNL     1      -7.245  47.344 -20.636  1.00  0.00    -0.374 OA
HETATM   11  C18 UNL     1      -6.724  48.456 -19.898  1.00  0.00     0.179 C 
HETATM   12  C19 UNL     1      -5.585  49.096 -20.726  1.00  0.00    -0.004 C 
HETATM   13  C20 UNL     1      -5.413  50.566 -20.248  1.00  0.00     0.014 C 
HETATM   14  C21 UNL     1      -4.048  51.238 -20.471  1.00  0.00     0.011 C 
HETATM   15  C22 UNL     1      -2.891  50.320 -20.037  1.00  0.00    -0.032 C 
HETATM   16  C23 UNL     1      -3.018  50.066 -18.501  1.00  0.00     0.016 C 
HETATM   17  C24 UNL     1      -6.169  48.864 -22.141  1.00  0.00     0.036 C 
HETATM   18  C25 UNL     1      -7.222  49.850 -22.638  1.00  0.00     0.011 C 
HETATM   19  C26 UNL     1      -7.789  49.423 -23.998  1.00  0.00     0.033 C 
HETATM   20  C27 UNL     1      -7.651  47.919 -24.296  1.00  0.00     0.136 C 
HETATM   21  C34 UNL     1      -7.858  47.051 -23.020  1.00  0.00     0.014 C 
HETATM   22  C35 UNL     1      -7.855  45.552 -23.424  1.00  0.00     0.021 C 
HETATM   23  C36 UNL     1      -9.272  47.291 -22.424  1.00  0.00     0.021 C 
ENDROOT
BRANCH  20  24
HETATM   24  O2  UNL     1      -8.586  47.518 -25.303  1.00  0.00    -0.352 OA
BRANCH  24  25
HETATM   25  C28 UNL     1      -8.938  48.530 -26.239  1.00  0.00     0.292 C 
HETATM   26  O3  UNL     1     -10.297  48.946 -26.103  1.00  0.00    -0.348 OA
HETATM   27  C29 UNL     1     -11.317  48.047 -26.586  1.00  0.00     0.179 C 
HETATM   28  C31 UNL     1     -11.034  47.479 -27.982  1.00  0.00     0.180 C 
HETATM   29  C32 UNL     1      -9.593  46.989 -28.137  1.00  0.00     0.183 C 
HETATM   30  C33 UNL     1      -8.600  48.055 -27.665  1.00  0.00     0.204 C 
BRANCH  27  31
HETATM   31  C30 UNL     1     -11.710  46.960 -25.568  1.00  0.00     0.198 C 
BRANCH  31  32
HETATM   32  O4  UNL     1     -12.918  47.263 -24.877  1.00  0.00    -0.398 OA
HETATM   33  H44 UNL     1     -13.029  46.586 -24.182  1.00  0.00     0.209 HD
ENDBRANCH  31  32
ENDBRANCH  27  31
BRANCH  28  34
HETATM   34  O5  UNL     1     -11.254  48.516 -28.970  1.00  0.00    -0.390 OA
HETATM   35  H46 UNL     1     -10.956  48.094 -29.807  1.00  0.00     0.210 HD
ENDBRANCH  28  34
BRANCH  29  36
HETATM   36  O6  UNL     1      -9.382  46.693 -29.538  1.00  0.00    -0.390 OA
HETATM   37  H48 UNL     1      -8.647  47.268 -29.837  1.00  0.00     0.210 HD
ENDBRANCH  29  36
BRANCH  30  38
HETATM   38  O7  UNL     1      -8.606  49.151 -28.604  1.00  0.00    -0.388 OA
HETATM   39  H50 UNL     1      -9.525  49.496 -28.612  1.00  0.00     0.210 HD
ENDBRANCH  30  38
ENDBRANCH  24  25
ENDBRANCH  20  24
BRANCH   1  40
HETATM   40  C7  UNL     1      -0.751  51.849 -19.406  1.00  0.00    -0.010 C 
HETATM   41  C8  UNL     1       0.413  52.583 -20.080  1.00  0.00     0.010 C 
BRANCH  40  42
HETATM   42  C6  UNL     1      -0.276  51.234 -18.060  1.00  0.00     0.031 C 
BRANCH  42  43
HETATM   43  C5  UNL     1       0.979  51.841 -17.485  1.00  0.00    -0.026 C 
HETATM   44  C4  UNL     1       1.504  51.451 -16.310  1.00  0.00     0.002 C 
BRANCH  44  45
HETATM   45  C2  UNL     1       2.706  51.987 -15.684  1.00  0.00    -0.072 C 
HETATM   46  C1  UNL     1       3.068  51.555 -14.461  1.00  0.00     0.018 C 
HETATM   47  C3  UNL     1       3.524  53.026 -16.406  1.00  0.00     0.047 C 
ENDBRANCH  44  45
ENDBRANCH  42  43
ENDBRANCH  40  42
ENDBRANCH   1  40
TORSDOF 11
ENDMDL
MODEL 8
REMARK minimizedAffinity -9.83668995
REMARK CNNscore 0.296053976
REMARK CNNaffinity 6.1746974
REMARK  11 active torsions:
REMARK  status: ('A' for Active; 'I' for Inactive)
REMARK    1  A    between atoms: C2_2  and  C4_4 
REMARK    2  A    between atoms: C5_5  and  C6_6 
REMARK    3  A    between atoms: C6_6  and  C7_7 
REMARK    4  A    between atoms: C7_7  and  C9_9 
REMARK    5  A    between atoms: C27_28  and  O2_29 
REMARK    6  A    between atoms: O2_29  and  C28_30 
REMARK    7  A    between atoms: C29_32  and  C30_33 
REMARK    8  A    between atoms: C30_33  and  O4_34 
REMARK    9  A    between atoms: C31_35  and  O5_36 
REMARK   10  A    between atoms: C32_37  and  O6_38 
REMARK   11  A    between atoms: C33_39  and  O7_40 
ROOT
HETATM    1  C9  UNL     1       8.036  62.545 -35.276  1.00  0.00    -0.002 C 
HETATM    2  C10 UNL     1       6.896  61.854 -34.458  1.00  0.00     0.006 C 
HETATM    3  C11 UNL     1       5.751  62.873 -34.296  1.00  0.00     0.011 C 
HETATM    4  C12 UNL     1       6.071  63.977 -35.317  1.00  0.00    -0.029 C 
HETATM    5  C13 UNL     1       5.579  63.440 -36.703  1.00  0.00     0.016 C 
HETATM    6  C14 UNL     1       5.435  65.372 -35.007  1.00  0.00     0.028 C 
HETATM    7  C15 UNL     1       3.914  65.358 -35.010  1.00  0.00    -0.021 C 
HETATM    8  C16 UNL     1       3.195  66.275 -35.684  1.00  0.00     0.008 C 
HETATM    9  C17 UNL     1       3.874  67.371 -36.493  1.00  0.00     0.092 C 
HETATM   10  O1  UNL     1       4.412  68.256 -35.481  1.00  0.00    -0.374 OA
HETATM   11  C18 UNL     1       5.778  67.890 -35.250  1.00  0.00     0.179 C 
HETATM   12  C19 UNL     1       6.034  66.524 -35.930  1.00  0.00    -0.004 C 
HETATM   13  C20 UNL     1       7.563  66.395 -36.183  1.00  0.00     0.014 C 
HETATM   14  C21 UNL     1       8.152  64.980 -36.310  1.00  0.00     0.011 C 
HETATM   15  C22 UNL     1       7.643  64.055 -35.189  1.00  0.00    -0.032 C 
HETATM   16  C23 UNL     1       8.140  64.624 -33.822  1.00  0.00     0.016 C 
HETATM   17  C24 UNL     1       5.114  66.702 -37.162  1.00  0.00     0.036 C 
HETATM   18  C25 UNL     1       5.661  67.505 -38.338  1.00  0.00     0.011 C 
HETATM   19  C26 UNL     1       4.597  67.695 -39.427  1.00  0.00     0.033 C 
HETATM   20  C27 UNL     1       3.148  67.581 -38.921  1.00  0.00     0.136 C 
HETATM   21  C34 UNL     1       2.976  68.195 -37.501  1.00  0.00     0.014 C 
HETATM   22  C35 UNL     1       1.470  68.180 -37.123  1.00  0.00     0.021 C 
HETATM   23  C36 UNL     1       3.360  69.700 -37.510  1.00  0.00     0.021 C 
ENDROOT
BRANCH  20  24
HETATM   24  O2  UNL     1       2.246  68.220 -39.830  1.00  0.00    -0.352 OA
BRANCH  24  25
HETATM   25  C28 UNL     1       1.501  67.340 -40.663  1.00  0.00     0.292 C 
HETATM   26  O3  UNL     1       1.779  67.539 -42.049  1.00  0.00    -0.348 OA
HETATM   27  C29 UNL     1       1.222  68.713 -42.675  1.00  0.00     0.179 C 
HETATM   28  C31 UNL     1      -0.259  68.945 -42.354  1.00  0.00     0.180 C 
HETATM   29  C32 UNL     1      -0.573  68.777 -40.866  1.00  0.00     0.183 C 
HETATM   30  C33 UNL     1       0.001  67.461 -40.333  1.00  0.00     0.204 C 
BRANCH  27  31
HETATM   31  C30 UNL     1       2.080  69.978 -42.480  1.00  0.00     0.198 C 
BRANCH  31  32
HETATM   32  O4  UNL     1       2.715  70.404 -43.682  1.00  0.00    -0.398 OA
HETATM   33  H44 UNL     1       3.318  71.134 -43.445  1.00  0.00     0.209 HD
ENDBRANCH  31  32
ENDBRANCH  27  31
BRANCH  28  34
HETATM   34  O5  UNL     1      -1.059  67.981 -43.083  1.00  0.00    -0.390 OA
HETATM   35  H46 UNL     1      -1.968  68.141 -42.742  1.00  0.00     0.210 HD
ENDBRANCH  28  34
BRANCH  29  36
HETATM   36  O6  UNL     1      -2.012  68.792 -40.719  1.00  0.00    -0.390 OA
HETATM   37  H48 UNL     1      -2.261  67.934 -40.315  1.00  0.00     0.210 HD
ENDBRANCH  29  36
BRANCH  30  38
HETATM   38  O7  UNL     1      -0.754  66.362 -40.885  1.00  0.00    -0.388 OA
HETATM   39  H50 UNL     1      -0.654  66.427 -41.859  1.00  0.00     0.210 HD
ENDBRANCH  30  38
ENDBRANCH  24  25
ENDBRANCH  20  24
BRANCH   1  40
HETATM   40  C7  UNL     1       9.449  62.080 -34.796  1.00  0.00    -0.010 C 
HETATM   41  C8  UNL     1       9.458  61.612 -33.337  1.00  0.00     0.010 C 
BRANCH  40  42
HETATM   42  C6  UNL     1      10.550  63.155 -35.010  1.00  0.00     0.031 C 
BRANCH  42  43
HETATM   43  C5  UNL     1      11.584  62.817 -36.054  1.00  0.00    -0.026 C 
HETATM   44  C4  UNL     1      11.364  61.923 -37.034  1.00  0.00     0.002 C 
BRANCH  44  45
HETATM   45  C2  UNL     1      12.307  61.537 -38.075  1.00  0.00    -0.072 C 
HETATM   46  C1  UNL     1      11.848  61.182 -39.290  1.00  0.00     0.018 C 
HETATM   47  C3  UNL     1      13.785  61.526 -37.778  1.00  0.00     0.047 C 
ENDBRANCH  44  45
ENDBRANCH  42  43
ENDBRANCH  40  42
ENDBRANCH   1  40
TORSDOF 11
ENDMDL
MODEL 9
REMARK minimizedAffinity -8.36752224
REMARK CNNscore 0.268610835
REMARK CNNaffinity 6.6880455
REMARK  11 active torsions:
REMARK  status: ('A' for Active; 'I' for Inactive)
REMARK    1  A    between atoms: C2_2  and  C4_4 
REMARK    2  A    between atoms: C5_5  and  C6_6 
REMARK    3  A    between atoms: C6_6  and  C7_7 
REMARK    4  A    between atoms: C7_7  and  C9_9 
REMARK    5  A    between atoms: C27_28  and  O2_29 
REMARK    6  A    between atoms: O2_29  and  C28_30 
REMARK    7  A    between atoms: C29_32  and  C30_33 
REMARK    8  A    between atoms: C30_33  and  O4_34 
REMARK    9  A    between atoms: C31_35  and  O5_36 
REMARK   10  A    between atoms: C32_37  and  O6_38 
REMARK   11  A    between atoms: C33_39  and  O7_40 
ROOT
HETATM    1  C9  UNL     1      -2.432  49.182 -19.621  1.00  0.00    -0.002 C 
HETATM    2  C10 UNL     1      -1.885  47.721 -19.511  1.00  0.00     0.006 C 
HETATM    3  C11 UNL     1      -3.036  46.761 -19.874  1.00  0.00     0.011 C 
HETATM    4  C12 UNL     1      -4.092  47.660 -20.540  1.00  0.00    -0.029 C 
HETATM    5  C13 UNL     1      -3.616  47.864 -22.017  1.00  0.00     0.016 C 
HETATM    6  C14 UNL     1      -5.553  47.106 -20.502  1.00  0.00     0.028 C 
HETATM    7  C15 UNL     1      -5.724  45.795 -21.253  1.00  0.00    -0.021 C 
HETATM    8  C16 UNL     1      -6.720  45.605 -22.138  1.00  0.00     0.008 C 
HETATM    9  C17 UNL     1      -7.724  46.708 -22.443  1.00  0.00     0.092 C 
HETATM   10  O1  UNL     1      -8.540  46.764 -21.247  1.00  0.00    -0.374 OA
HETATM   11  C18 UNL     1      -8.011  47.789 -20.396  1.00  0.00     0.179 C 
HETATM   12  C19 UNL     1      -6.622  48.202 -20.941  1.00  0.00    -0.004 C 
HETATM   13  C20 UNL     1      -6.309  49.631 -20.417  1.00  0.00     0.014 C 
HETATM   14  C21 UNL     1      -4.833  50.052 -20.320  1.00  0.00     0.011 C 
HETATM   15  C22 UNL     1      -3.979  48.960 -19.651  1.00  0.00    -0.032 C 
HETATM   16  C23 UNL     1      -4.486  48.772 -18.186  1.00  0.00     0.016 C 
HETATM   17  C24 UNL     1      -6.909  48.037 -22.453  1.00  0.00     0.036 C 
HETATM   18  C25 UNL     1      -7.637  49.176 -23.160  1.00  0.00     0.011 C 
HETATM   19  C26 UNL     1      -7.953  48.818 -24.618  1.00  0.00     0.033 C 
HETATM   20  C27 UNL     1      -8.016  47.306 -24.897  1.00  0.00     0.136 C 
HETATM   21  C34 UNL     1      -8.649  46.520 -23.712  1.00  0.00     0.014 C 
HETATM   22  C35 UNL     1      -8.817  45.032 -24.125  1.00  0.00     0.021 C 
HETATM   23  C36 UNL     1     -10.097  47.015 -23.443  1.00  0.00     0.021 C 
ENDROOT
BRANCH  20  24
HETATM   24  O2  UNL     1      -8.758  47.046 -26.093  1.00  0.00    -0.352 OA
BRANCH  24  25
HETATM   25  C28 UNL     1      -9.179  48.201 -26.808  1.00  0.00     0.292 C 
HETATM   26  O3  UNL     1     -10.596  48.370 -26.783  1.00  0.00    -0.348 OA
HETATM   27  C29 UNL     1     -11.384  47.488 -27.609  1.00  0.00     0.179 C 
HETATM   28  C31 UNL     1     -10.855  47.341 -29.041  1.00  0.00     0.180 C 
HETATM   29  C32 UNL     1      -9.342  47.118 -29.090  1.00  0.00     0.183 C 
HETATM   30  C33 UNL     1      -8.609  48.159 -28.238  1.00  0.00     0.204 C 
BRANCH  27  31
HETATM   31  C30 UNL     1     -11.689  46.132 -26.944  1.00  0.00     0.198 C 
BRANCH  31  32
HETATM   32  O4  UNL     1     -12.735  45.421 -27.598  1.00  0.00    -0.398 OA
HETATM   33  H44 UNL     1     -12.935  44.637 -27.050  1.00  0.00     0.209 HD
ENDBRANCH  31  32
ENDBRANCH  27  31
BRANCH  28  34
HETATM   34  O5  UNL     1     -11.145  48.554 -29.780  1.00  0.00    -0.390 OA
HETATM   35  H46 UNL     1     -10.688  48.407 -30.639  1.00  0.00     0.210 HD
ENDBRANCH  28  34
BRANCH  29  36
HETATM   36  O6  UNL     1      -8.931  47.223 -30.473  1.00  0.00    -0.390 OA
HETATM   37  H48 UNL     1      -8.280  47.955 -30.517  1.00  0.00     0.210 HD
ENDBRANCH  29  36
BRANCH  30  38
HETATM   38  O7  UNL     1      -8.705  49.446 -28.885  1.00  0.00    -0.388 OA
HETATM   39  H50 UNL     1      -9.664  49.647 -28.949  1.00  0.00     0.210 HD
ENDBRANCH  30  38
ENDBRANCH  24  25
ENDBRANCH  20  24
BRANCH   1  40
HETATM   40  C7  UNL     1      -1.800  50.113 -18.537  1.00  0.00    -0.010 C 
HETATM   41  C8  UNL     1      -2.245  49.758 -17.115  1.00  0.00     0.010 C 
BRANCH  40  42
HETATM   42  C6  UNL     1      -2.054  51.622 -18.806  1.00  0.00     0.031 C 
BRANCH  42  43
HETATM   43  C5  UNL     1      -1.435  52.162 -20.071  1.00  0.00    -0.026 C 
HETATM   44  C4  UNL     1      -0.112  52.357 -20.209  1.00  0.00     0.002 C 
BRANCH  44  45
HETATM   45  C2  UNL     1       0.563  52.876 -21.391  1.00  0.00    -0.072 C 
HETATM   46  C1  UNL     1       0.379  52.274 -22.581  1.00  0.00     0.018 C 
HETATM   47  C3  UNL     1       1.471  54.072 -21.266  1.00  0.00     0.047 C 
ENDBRANCH  44  45
ENDBRANCH  42  43
ENDBRANCH  40  42
ENDBRANCH   1  40
TORSDOF 11
ENDMDL
