MODEL 1
REMARK minimizedAffinity -7.52504444
REMARK CNNscore 0.805011392
REMARK CNNaffinity 7.14669037
REMARK  9 active torsions:
REMARK  status: ('A' for Active; 'I' for Inactive)
REMARK    1  A    between atoms: C2_2  and  O1_3 
REMARK    2  A    between atoms: O1_3  and  C3_4 
REMARK    3  A    between atoms: C14_15  and  O2_16 
REMARK    4  A    between atoms: O2_16  and  C15_17 
REMARK    5  A    between atoms: C21_24  and  O4_25 
REMARK    6  A    between atoms: O4_25  and  C22_26 
REMARK    7  A    between atoms: C24_29  and  O6_30 
REMARK    8  A    between atoms: C25_31  and  O7_32 
REMARK    9  A    between atoms: C26_33  and  O8_34 
ROOT
HETATM    1  C3  UNL     1       6.734  56.332  -5.679  1.00  0.00     0.260 C 
HETATM    2  C4  UNL     1       7.448  55.594  -6.844  1.00  0.00     0.065 C 
HETATM    3  C5  UNL     1       6.697  55.602  -8.202  1.00  0.00    -0.007 C 
HETATM    4  C6  UNL     1       7.158  54.402  -9.021  1.00  0.00     0.010 C 
HETATM    5  C7  UNL     1       5.191  55.737  -7.925  1.00  0.00     0.027 C 
HETATM    6  C8  UNL     1       4.862  55.153  -6.543  1.00  0.00     0.130 C 
HETATM    7  C9  UNL     1       3.342  54.981  -6.557  1.00  0.00     0.042 C 
HETATM    8  C10 UNL     1       3.113  54.388  -7.967  1.00  0.00    -0.029 C 
HETATM    9  C11 UNL     1       3.642  52.912  -7.945  1.00  0.00     0.016 C 
HETATM   10  C12 UNL     1       1.650  54.399  -8.473  1.00  0.00     0.006 C 
HETATM   11  C13 UNL     1       0.752  53.431  -7.693  1.00  0.00     0.039 C 
HETATM   12  C14 UNL     1      -0.682  53.413  -8.232  1.00  0.00     0.138 C 
HETATM   13  C17 UNL     1      -0.683  52.748  -9.636  1.00  0.00     0.035 C 
HETATM   14  C18 UNL     1      -2.090  52.568 -10.330  1.00  0.00    -0.015 C 
HETATM   15  C19 UNL     1      -2.813  53.919 -10.521  1.00  0.00     0.018 C 
HETATM   16  C20 UNL     1      -3.029  51.677  -9.476  1.00  0.00     0.018 C 
HETATM   17  C21 UNL     1      -1.893  51.829 -11.705  1.00  0.00     0.133 C 
HETATM   18  C27 UNL     1      -0.867  52.528 -12.598  1.00  0.00     0.034 C 
HETATM   19  C28 UNL     1       0.475  52.655 -11.892  1.00  0.00     0.013 C 
HETATM   20  C29 UNL     1       0.329  53.418 -10.591  1.00  0.00    -0.025 A 
HETATM   21  C30 UNL     1       0.414  54.916 -10.679  1.00  0.00     0.021 A 
HETATM   22  C31 UNL     1       1.563  54.172 -10.007  1.00  0.00    -0.027 A 
HETATM   23  C32 UNL     1       2.881  54.125 -10.820  1.00  0.00     0.011 C 
HETATM   24  C33 UNL     1       4.191  54.646 -10.191  1.00  0.00     0.011 C 
HETATM   25  C34 UNL     1       3.989  55.349  -8.857  1.00  0.00    -0.030 C 
HETATM   26  C35 UNL     1       3.296  56.719  -9.186  1.00  0.00     0.016 C 
HETATM   27  O9  UNL     1       5.331  56.044  -5.551  1.00  0.00    -0.356 OA
ENDROOT
BRANCH  17  28
HETATM   28  O4  UNL     1      -3.163  51.753 -12.367  1.00  0.00    -0.353 OA
BRANCH  28  29
HETATM   29  C22 UNL     1      -3.446  50.491 -12.984  1.00  0.00     0.291 C 
HETATM   30  O5  UNL     1      -3.148  49.392 -12.124  1.00  0.00    -0.356 OA
HETATM   31  C23 UNL     1      -1.754  49.081 -12.072  1.00  0.00     0.205 C 
HETATM   32  C24 UNL     1      -1.237  48.588 -13.431  1.00  0.00     0.173 C 
HETATM   33  C25 UNL     1      -2.163  49.029 -14.567  1.00  0.00     0.182 C 
HETATM   34  C26 UNL     1      -2.645  50.447 -14.310  1.00  0.00     0.204 C 
BRANCH  32  35
HETATM   35  O6  UNL     1      -1.126  47.159 -13.454  1.00  0.00    -0.391 OA
HETATM   36  H39 UNL     1      -0.864  46.938 -14.372  1.00  0.00     0.210 HD
ENDBRANCH  32  35
BRANCH  33  37
HETATM   37  O7  UNL     1      -1.452  48.954 -15.813  1.00  0.00    -0.390 OA
HETATM   38  H41 UNL     1      -2.035  49.402 -16.460  1.00  0.00     0.210 HD
ENDBRANCH  33  37
BRANCH  34  39
HETATM   39  O8  UNL     1      -3.439  50.886 -15.426  1.00  0.00    -0.388 OA
HETATM   40  H43 UNL     1      -3.710  51.802 -15.223  1.00  0.00     0.210 HD
ENDBRANCH  34  39
ENDBRANCH  28  29
ENDBRANCH  17  28
BRANCH  12  41
HETATM   41  O2  UNL     1      -1.460  52.635  -7.297  1.00  0.00    -0.316 OA
BRANCH  41  42
HETATM   42  C15 UNL     1      -1.383  53.028  -5.996  1.00  0.00     0.255 C 
HETATM   43  C16 UNL     1      -0.814  51.926  -5.154  1.00  0.00     0.126 C 
HETATM   44  O3  UNL     1      -1.714  54.122  -5.559  1.00  0.00    -0.266 OA
ENDBRANCH  41  42
ENDBRANCH  12  41
BRANCH   1  45
HETATM   45  O1  UNL     1       7.424  55.944  -4.483  1.00  0.00    -0.362 OA
BRANCH  45  46
HETATM   46  C2  UNL     1       8.730  55.421  -4.701  1.00  0.00     0.166 C 
HETATM   47  C1  UNL     1       9.128  54.376  -3.679  1.00  0.00     0.033 C 
ENDBRANCH  45  46
ENDBRANCH   1  45
TORSDOF 9
ENDMDL
MODEL 2
REMARK minimizedAffinity -9.27013016
REMARK CNNscore 0.388890028
REMARK CNNaffinity 6.57866335
REMARK  9 active torsions:
REMARK  status: ('A' for Active; 'I' for Inactive)
REMARK    1  A    between atoms: C2_2  and  O1_3 
REMARK    2  A    between atoms: O1_3  and  C3_4 
REMARK    3  A    between atoms: C14_15  and  O2_16 
REMARK    4  A    between atoms: O2_16  and  C15_17 
REMARK    5  A    between atoms: C21_24  and  O4_25 
REMARK    6  A    between atoms: O4_25  and  C22_26 
REMARK    7  A    between atoms: C24_29  and  O6_30 
REMARK    8  A    between atoms: C25_31  and  O7_32 
REMARK    9  A    between atoms: C26_33  and  O8_34 
ROOT
HETATM    1  C3  UNL     1       0.385  52.967 -20.086  1.00  0.00     0.260 C 
HETATM    2  C4  UNL     1       0.956  52.731 -21.511  1.00  0.00     0.065 C 
HETATM    3  C5  UNL     1      -0.097  52.661 -22.650  1.00  0.00    -0.007 C 
HETATM    4  C6  UNL     1       0.489  51.856 -23.804  1.00  0.00     0.010 C 
HETATM    5  C7  UNL     1      -1.429  52.180 -22.053  1.00  0.00     0.027 C 
HETATM    6  C8  UNL     1      -1.162  51.317 -20.810  1.00  0.00     0.130 C 
HETATM    7  C9  UNL     1      -2.487  50.594 -20.559  1.00  0.00     0.042 C 
HETATM    8  C10 UNL     1      -2.884  50.175 -21.994  1.00  0.00    -0.029 C 
HETATM    9  C11 UNL     1      -1.919  49.018 -22.428  1.00  0.00     0.016 C 
HETATM   10  C12 UNL     1      -4.350  49.714 -22.180  1.00  0.00     0.006 C 
HETATM   11  C13 UNL     1      -4.637  48.377 -21.486  1.00  0.00     0.039 C 
HETATM   12  C14 UNL     1      -6.076  47.905 -21.716  1.00  0.00     0.138 C 
HETATM   13  C17 UNL     1      -6.243  47.504 -23.207  1.00  0.00     0.035 C 
HETATM   14  C18 UNL     1      -7.648  46.917 -23.627  1.00  0.00    -0.015 C 
HETATM   15  C19 UNL     1      -8.793  47.914 -23.344  1.00  0.00     0.018 C 
HETATM   16  C20 UNL     1      -7.976  45.624 -22.837  1.00  0.00     0.018 C 
HETATM   17  C21 UNL     1      -7.602  46.520 -25.148  1.00  0.00     0.133 C 
HETATM   18  C27 UNL     1      -7.143  47.675 -26.038  1.00  0.00     0.034 C 
HETATM   19  C28 UNL     1      -5.777  48.188 -25.606  1.00  0.00     0.013 C 
HETATM   20  C29 UNL     1      -5.804  48.638 -24.160  1.00  0.00    -0.025 A 
HETATM   21  C30 UNL     1      -6.238  50.055 -23.906  1.00  0.00     0.021 A 
HETATM   22  C31 UNL     1      -4.773  49.702 -23.673  1.00  0.00    -0.027 A 
HETATM   23  C32 UNL     1      -3.785  50.272 -24.723  1.00  0.00     0.011 C 
HETATM   24  C33 UNL     1      -2.596  51.145 -24.263  1.00  0.00     0.011 C 
HETATM   25  C34 UNL     1      -2.646  51.515 -22.789  1.00  0.00    -0.030 C 
HETATM   26  C35 UNL     1      -3.808  52.559 -22.639  1.00  0.00     0.016 C 
HETATM   27  O9  UNL     1      -0.757  52.160 -19.751  1.00  0.00    -0.356 OA
ENDROOT
BRANCH  17  28
HETATM   28  O4  UNL     1      -8.908  46.074 -25.542  1.00  0.00    -0.353 OA
BRANCH  28  29
HETATM   29  C22 UNL     1      -9.946  47.053 -25.404  1.00  0.00     0.291 C 
HETATM   30  O5  UNL     1     -11.085  46.537 -24.716  1.00  0.00    -0.356 OA
HETATM   31  C23 UNL     1     -11.924  45.727 -25.543  1.00  0.00     0.205 C 
HETATM   32  C24 UNL     1     -12.562  46.550 -26.671  1.00  0.00     0.173 C 
HETATM   33  C25 UNL     1     -11.776  47.837 -26.930  1.00  0.00     0.182 C 
HETATM   34  C26 UNL     1     -10.287  47.552 -26.831  1.00  0.00     0.204 C 
BRANCH  32  35
HETATM   35  O6  UNL     1     -13.918  46.894 -26.355  1.00  0.00    -0.391 OA
HETATM   36  H39 UNL     1     -14.212  47.472 -27.089  1.00  0.00     0.210 HD
ENDBRANCH  32  35
BRANCH  33  37
HETATM   37  O7  UNL     1     -12.109  48.343 -28.232  1.00  0.00    -0.390 OA
HETATM   38  H41 UNL     1     -11.459  49.055 -28.398  1.00  0.00     0.210 HD
ENDBRANCH  33  37
BRANCH  34  39
HETATM   39  O8  UNL     1      -9.553  48.744 -27.166  1.00  0.00    -0.388 OA
HETATM   40  H43 UNL     1      -8.608  48.508 -27.105  1.00  0.00     0.210 HD
ENDBRANCH  34  39
ENDBRANCH  28  29
ENDBRANCH  17  28
BRANCH  12  41
HETATM   41  O2  UNL     1      -6.274  46.763 -20.854  1.00  0.00    -0.316 OA
BRANCH  41  42
HETATM   42  C15 UNL     1      -5.205  46.408 -20.090  1.00  0.00     0.255 C 
HETATM   43  C16 UNL     1      -4.612  45.126 -20.589  1.00  0.00     0.126 C 
HETATM   44  O3  UNL     1      -4.768  47.039 -19.136  1.00  0.00    -0.266 OA
ENDBRANCH  41  42
ENDBRANCH  12  41
BRANCH   1  45
HETATM   45  O1  UNL     1       1.462  52.692 -19.178  1.00  0.00    -0.362 OA
BRANCH  45  46
HETATM   46  C2  UNL     1       1.061  52.532 -17.822  1.00  0.00     0.166 C 
HETATM   47  C1  UNL     1       2.222  52.581 -16.851  1.00  0.00     0.033 C 
ENDBRANCH  45  46
ENDBRANCH   1  45
TORSDOF 9
ENDMDL
MODEL 3
REMARK minimizedAffinity -8.90208817
REMARK CNNscore 0.361811906
REMARK CNNaffinity 7.11888075
REMARK  9 active torsions:
REMARK  status: ('A' for Active; 'I' for Inactive)
REMARK    1  A    between atoms: C2_2  and  O1_3 
REMARK    2  A    between atoms: O1_3  and  C3_4 
REMARK    3  A    between atoms: C14_15  and  O2_16 
REMARK    4  A    between atoms: O2_16  and  C15_17 
REMARK    5  A    between atoms: C21_24  and  O4_25 
REMARK    6  A    between atoms: O4_25  and  C22_26 
REMARK    7  A    between atoms: C24_29  and  O6_30 
REMARK    8  A    between atoms: C25_31  and  O7_32 
REMARK    9  A    between atoms: C26_33  and  O8_34 
ROOT
HETATM    1  C3  UNL     1      -1.381  51.946 -24.919  1.00  0.00     0.260 C 
HETATM    2  C4  UNL     1      -2.060  50.550 -24.973  1.00  0.00     0.065 C 
HETATM    3  C5  UNL     1      -2.933  50.183 -23.744  1.00  0.00    -0.007 C 
HETATM    4  C6  UNL     1      -3.014  48.664 -23.640  1.00  0.00     0.010 C 
HETATM    5  C7  UNL     1      -2.402  50.950 -22.522  1.00  0.00     0.027 C 
HETATM    6  C8  UNL     1      -0.904  51.242 -22.701  1.00  0.00     0.130 C 
HETATM    7  C9  UNL     1      -0.424  51.629 -21.301  1.00  0.00     0.042 C 
HETATM    8  C10 UNL     1      -1.133  50.567 -20.429  1.00  0.00    -0.029 C 
HETATM    9  C11 UNL     1      -0.418  49.196 -20.688  1.00  0.00     0.016 C 
HETATM   10  C12 UNL     1      -1.156  50.851 -18.907  1.00  0.00     0.006 C 
HETATM   11  C13 UNL     1       0.235  50.748 -18.270  1.00  0.00     0.039 C 
HETATM   12  C14 UNL     1       0.195  50.984 -16.757  1.00  0.00     0.138 C 
HETATM   13  C17 UNL     1      -0.527  49.786 -16.080  1.00  0.00     0.035 C 
HETATM   14  C18 UNL     1      -0.604  49.808 -14.503  1.00  0.00    -0.015 C 
HETATM   15  C19 UNL     1      -1.331  51.067 -13.981  1.00  0.00     0.018 C 
HETATM   16  C20 UNL     1       0.813  49.817 -13.871  1.00  0.00     0.018 C 
HETATM   17  C21 UNL     1      -1.313  48.495 -14.006  1.00  0.00     0.133 C 
HETATM   18  C27 UNL     1      -2.673  48.282 -14.671  1.00  0.00     0.034 C 
HETATM   19  C28 UNL     1      -2.541  48.245 -16.187  1.00  0.00     0.013 C 
HETATM   20  C29 UNL     1      -1.916  49.526 -16.703  1.00  0.00    -0.025 A 
HETATM   21  C30 UNL     1      -2.855  50.669 -16.973  1.00  0.00     0.021 A 
HETATM   22  C31 UNL     1      -2.205  49.978 -18.167  1.00  0.00    -0.027 A 
HETATM   23  C32 UNL     1      -3.157  49.095 -19.014  1.00  0.00     0.011 C 
HETATM   24  C33 UNL     1      -3.299  49.354 -20.530  1.00  0.00     0.011 C 
HETATM   25  C34 UNL     1      -2.600  50.620 -21.000  1.00  0.00    -0.030 C 
HETATM   26  C35 UNL     1      -3.453  51.819 -20.451  1.00  0.00     0.016 C 
HETATM   27  O9  UNL     1      -0.754  52.265 -23.664  1.00  0.00    -0.356 OA
ENDROOT
BRANCH  17  28
HETATM   28  O4  UNL     1      -1.459  48.568 -12.581  1.00  0.00    -0.353 OA
BRANCH  28  29
HETATM   29  C22 UNL     1      -2.227  49.683 -12.109  1.00  0.00     0.291 C 
HETATM   30  O5  UNL     1      -1.445  50.581 -11.323  1.00  0.00    -0.356 OA
HETATM   31  C23 UNL     1      -1.239  50.124  -9.984  1.00  0.00     0.205 C 
HETATM   32  C24 UNL     1      -2.560  50.063  -9.203  1.00  0.00     0.173 C 
HETATM   33  C25 UNL     1      -3.760  50.003 -10.150  1.00  0.00     0.182 C 
HETATM   34  C26 UNL     1      -3.433  49.101 -11.329  1.00  0.00     0.204 C 
BRANCH  32  35
HETATM   35  O6  UNL     1      -2.706  51.202  -8.345  1.00  0.00    -0.391 OA
HETATM   36  H39 UNL     1      -3.598  51.112  -7.951  1.00  0.00     0.210 HD
ENDBRANCH  32  35
BRANCH  33  37
HETATM   37  O7  UNL     1      -4.904  49.507  -9.436  1.00  0.00    -0.390 OA
HETATM   38  H41 UNL     1      -5.575  49.336 -10.127  1.00  0.00     0.210 HD
ENDBRANCH  33  37
BRANCH  34  39
HETATM   39  O8  UNL     1      -4.597  48.977 -12.166  1.00  0.00    -0.388 OA
HETATM   40  H43 UNL     1      -4.344  48.380 -12.896  1.00  0.00     0.210 HD
ENDBRANCH  34  39
ENDBRANCH  28  29
ENDBRANCH  17  28
BRANCH  12  41
HETATM   41  O2  UNL     1       1.569  51.066 -16.319  1.00  0.00    -0.316 OA
BRANCH  41  42
HETATM   42  C15 UNL     1       2.116  52.313 -16.323  1.00  0.00     0.255 C 
HETATM   43  C16 UNL     1       3.610  52.225 -16.257  1.00  0.00     0.126 C 
HETATM   44  O3  UNL     1       1.494  53.365 -16.384  1.00  0.00    -0.266 OA
ENDBRANCH  41  42
ENDBRANCH  12  41
BRANCH   1  45
HETATM   45  O1  UNL     1      -0.404  51.951 -25.970  1.00  0.00    -0.362 OA
BRANCH  45  46
HETATM   46  C2  UNL     1       0.927  52.207 -25.534  1.00  0.00     0.166 C 
HETATM   47  C1  UNL     1       1.968  51.460 -26.340  1.00  0.00     0.033 C 
ENDBRANCH  45  46
ENDBRANCH   1  45
TORSDOF 9
ENDMDL
MODEL 4
REMARK minimizedAffinity -7.9479003
REMARK CNNscore 0.33651787
REMARK CNNaffinity 6.76486444
REMARK  9 active torsions:
REMARK  status: ('A' for Active; 'I' for Inactive)
REMARK    1  A    between atoms: C2_2  and  O1_3 
REMARK    2  A    between atoms: O1_3  and  C3_4 
REMARK    3  A    between atoms: C14_15  and  O2_16 
REMARK    4  A    between atoms: O2_16  and  C15_17 
REMARK    5  A    between atoms: C21_24  and  O4_25 
REMARK    6  A    between atoms: O4_25  and  C22_26 
REMARK    7  A    between atoms: C24_29  and  O6_30 
REMARK    8  A    between atoms: C25_31  and  O7_32 
REMARK    9  A    between atoms: C26_33  and  O8_34 
ROOT
HETATM    1  C3  UNL     1      -1.496  52.123 -25.107  1.00  0.00     0.260 C 
HETATM    2  C4  UNL     1      -2.109  50.702 -25.244  1.00  0.00     0.065 C 
HETATM    3  C5  UNL     1      -2.985  50.234 -24.051  1.00  0.00    -0.007 C 
HETATM    4  C6  UNL     1      -2.997  48.709 -24.025  1.00  0.00     0.010 C 
HETATM    5  C7  UNL     1      -2.509  50.961 -22.782  1.00  0.00     0.027 C 
HETATM    6  C8  UNL     1      -1.024  51.329 -22.919  1.00  0.00     0.130 C 
HETATM    7  C9  UNL     1      -0.585  51.666 -21.493  1.00  0.00     0.042 C 
HETATM    8  C10 UNL     1      -1.257  50.530 -20.688  1.00  0.00    -0.029 C 
HETATM    9  C11 UNL     1      -0.476  49.208 -21.002  1.00  0.00     0.016 C 
HETATM   10  C12 UNL     1      -1.318  50.735 -19.155  1.00  0.00     0.006 C 
HETATM   11  C13 UNL     1       0.066  50.663 -18.498  1.00  0.00     0.039 C 
HETATM   12  C14 UNL     1      -0.010  50.820 -16.976  1.00  0.00     0.138 C 
HETATM   13  C17 UNL     1      -0.686  49.558 -16.374  1.00  0.00     0.035 C 
HETATM   14  C18 UNL     1      -0.789  49.496 -14.799  1.00  0.00    -0.015 C 
HETATM   15  C19 UNL     1      -1.582  50.692 -14.228  1.00  0.00     0.018 C 
HETATM   16  C20 UNL     1       0.615  49.537 -14.141  1.00  0.00     0.018 C 
HETATM   17  C21 UNL     1      -1.445  48.128 -14.382  1.00  0.00     0.133 C 
HETATM   18  C27 UNL     1      -2.783  47.888 -15.081  1.00  0.00     0.034 C 
HETATM   19  C28 UNL     1      -2.625  47.934 -16.594  1.00  0.00     0.013 C 
HETATM   20  C29 UNL     1      -2.052  49.266 -17.035  1.00  0.00    -0.025 A 
HETATM   21  C30 UNL     1      -3.038  50.377 -17.264  1.00  0.00     0.021 A 
HETATM   22  C31 UNL     1      -2.338  49.779 -18.479  1.00  0.00    -0.027 A 
HETATM   23  C32 UNL     1      -3.234  48.898 -19.386  1.00  0.00     0.011 C 
HETATM   24  C33 UNL     1      -3.363  49.226 -20.890  1.00  0.00     0.011 C 
HETATM   25  C34 UNL     1      -2.716  50.546 -21.283  1.00  0.00    -0.030 C 
HETATM   26  C35 UNL     1      -3.632  51.675 -20.691  1.00  0.00     0.016 C 
HETATM   27  O9  UNL     1      -0.905  52.406 -23.827  1.00  0.00    -0.356 OA
ENDROOT
BRANCH  17  28
HETATM   28  O4  UNL     1      -1.618  48.122 -12.957  1.00  0.00    -0.353 OA
BRANCH  28  29
HETATM   29  C22 UNL     1      -1.379  46.857 -12.327  1.00  0.00     0.291 C 
HETATM   30  O5  UNL     1      -2.579  46.272 -11.822  1.00  0.00    -0.356 OA
HETATM   31  C23 UNL     1      -3.003  46.839 -10.580  1.00  0.00     0.205 C 
HETATM   32  C24 UNL     1      -1.996  46.551  -9.459  1.00  0.00     0.173 C 
HETATM   33  C25 UNL     1      -0.618  46.204 -10.028  1.00  0.00     0.182 C 
HETATM   34  C26 UNL     1      -0.321  47.098 -11.221  1.00  0.00     0.204 C 
BRANCH  32  35
HETATM   35  O6  UNL     1      -2.439  45.466  -8.633  1.00  0.00    -0.391 OA
HETATM   36  H39 UNL     1      -1.707  45.310  -8.001  1.00  0.00     0.210 HD
ENDBRANCH  32  35
BRANCH  33  37
HETATM   37  O7  UNL     1       0.376  46.378  -9.005  1.00  0.00    -0.390 OA
HETATM   38  H41 UNL     1       1.232  46.306  -9.474  1.00  0.00     0.210 HD
ENDBRANCH  33  37
BRANCH  34  39
HETATM   39  O8  UNL     1       1.012  46.829 -11.692  1.00  0.00    -0.388 OA
HETATM   40  H43 UNL     1       1.161  47.435 -12.444  1.00  0.00     0.210 HD
ENDBRANCH  34  39
ENDBRANCH  28  29
ENDBRANCH  17  28
BRANCH  12  41
HETATM   41  O2  UNL     1       1.351  50.941 -16.509  1.00  0.00    -0.316 OA
BRANCH  41  42
HETATM   42  C15 UNL     1       1.780  52.211 -16.265  1.00  0.00     0.255 C 
HETATM   43  C16 UNL     1       3.275  52.246 -16.178  1.00  0.00     0.126 C 
HETATM   44  O3  UNL     1       1.064  53.196 -16.144  1.00  0.00    -0.266 OA
ENDBRANCH  41  42
ENDBRANCH  12  41
BRANCH   1  45
HETATM   45  O1  UNL     1      -0.504  52.226 -26.138  1.00  0.00    -0.362 OA
BRANCH  45  46
HETATM   46  C2  UNL     1       0.834  52.045 -25.687  1.00  0.00     0.166 C 
HETATM   47  C1  UNL     1       1.812  51.800 -26.817  1.00  0.00     0.033 C 
ENDBRANCH  45  46
ENDBRANCH   1  45
TORSDOF 9
ENDMDL
MODEL 5
REMARK minimizedAffinity -7.96773052
REMARK CNNscore 0.334204525
REMARK CNNaffinity 7.07318306
REMARK  9 active torsions:
REMARK  status: ('A' for Active; 'I' for Inactive)
REMARK    1  A    between atoms: C2_2  and  O1_3 
REMARK    2  A    between atoms: O1_3  and  C3_4 
REMARK    3  A    between atoms: C14_15  and  O2_16 
REMARK    4  A    between atoms: O2_16  and  C15_17 
REMARK    5  A    between atoms: C21_24  and  O4_25 
REMARK    6  A    between atoms: O4_25  and  C22_26 
REMARK    7  A    between atoms: C24_29  and  O6_30 
REMARK    8  A    between atoms: C25_31  and  O7_32 
REMARK    9  A    between atoms: C26_33  and  O8_34 
ROOT
HETATM    1  C3  UNL     1       2.227  50.296 -11.721  1.00  0.00     0.260 C 
HETATM    2  C4  UNL     1       0.792  49.984 -11.216  1.00  0.00     0.065 C 
HETATM    3  C5  UNL     1      -0.079  49.119 -12.166  1.00  0.00    -0.007 C 
HETATM    4  C6  UNL     1      -1.548  49.400 -11.872  1.00  0.00     0.010 C 
HETATM    5  C7  UNL     1       0.410  49.336 -13.608  1.00  0.00     0.027 C 
HETATM    6  C8  UNL     1       1.047  50.729 -13.736  1.00  0.00     0.130 C 
HETATM    7  C9  UNL     1       1.120  50.973 -15.245  1.00  0.00     0.042 C 
HETATM    8  C10 UNL     1      -0.267  50.469 -15.705  1.00  0.00    -0.029 C 
HETATM    9  C11 UNL     1      -1.330  51.515 -15.221  1.00  0.00     0.016 C 
HETATM   10  C12 UNL     1      -0.431  50.241 -17.227  1.00  0.00     0.006 C 
HETATM   11  C13 UNL     1      -0.414  51.553 -18.022  1.00  0.00     0.039 C 
HETATM   12  C14 UNL     1      -0.624  51.321 -19.521  1.00  0.00     0.138 C 
HETATM   13  C17 UNL     1      -2.087  50.854 -19.758  1.00  0.00     0.035 C 
HETATM   14  C18 UNL     1      -2.523  50.634 -21.260  1.00  0.00    -0.015 C 
HETATM   15  C19 UNL     1      -1.641  49.579 -21.964  1.00  0.00     0.018 C 
HETATM   16  C20 UNL     1      -2.394  51.943 -22.081  1.00  0.00     0.018 C 
HETATM   17  C21 UNL     1      -4.040  50.222 -21.298  1.00  0.00     0.133 C 
HETATM   18  C27 UNL     1      -4.339  49.020 -20.402  1.00  0.00     0.034 C 
HETATM   19  C28 UNL     1      -3.923  49.292 -18.964  1.00  0.00     0.013 C 
HETATM   20  C29 UNL     1      -2.448  49.631 -18.886  1.00  0.00    -0.025 A 
HETATM   21  C30 UNL     1      -1.498  48.471 -18.773  1.00  0.00     0.021 A 
HETATM   22  C31 UNL     1      -1.676  49.373 -17.557  1.00  0.00    -0.027 A 
HETATM   23  C32 UNL     1      -2.466  48.743 -16.381  1.00  0.00     0.011 C 
HETATM   24  C33 UNL     1      -1.830  48.679 -14.975  1.00  0.00     0.011 C 
HETATM   25  C34 UNL     1      -0.365  49.089 -14.950  1.00  0.00    -0.030 C 
HETATM   26  C35 UNL     1       0.426  47.926 -15.646  1.00  0.00     0.016 C 
HETATM   27  O9  UNL     1       2.307  50.712 -13.095  1.00  0.00    -0.356 OA
ENDROOT
BRANCH  17  28
HETATM   28  O4  UNL     1      -4.401  49.936 -22.656  1.00  0.00    -0.353 OA
BRANCH  28  29
HETATM   29  C22 UNL     1      -5.510  49.041 -22.810  1.00  0.00     0.291 C 
HETATM   30  O5  UNL     1      -5.156  47.865 -23.536  1.00  0.00    -0.356 OA
HETATM   31  C23 UNL     1      -5.096  48.073 -24.949  1.00  0.00     0.205 C 
HETATM   32  C24 UNL     1      -6.476  48.416 -25.526  1.00  0.00     0.173 C 
HETATM   33  C25 UNL     1      -7.416  48.937 -24.437  1.00  0.00     0.182 C 
HETATM   34  C26 UNL     1      -6.646  49.845 -23.492  1.00  0.00     0.204 C 
BRANCH  32  35
HETATM   35  O6  UNL     1      -7.078  47.270 -26.143  1.00  0.00    -0.391 OA
HETATM   36  H39 UNL     1      -7.973  47.564 -26.411  1.00  0.00     0.210 HD
ENDBRANCH  32  35
BRANCH  33  37
HETATM   37  O7  UNL     1      -8.503  49.650 -25.049  1.00  0.00    -0.390 OA
HETATM   38  H41 UNL     1      -8.962  50.092 -24.306  1.00  0.00     0.210 HD
ENDBRANCH  33  37
BRANCH  34  39
HETATM   39  O8  UNL     1      -7.555  50.404 -22.527  1.00  0.00    -0.388 OA
HETATM   40  H43 UNL     1      -7.020  50.988 -21.956  1.00  0.00     0.210 HD
ENDBRANCH  34  39
ENDBRANCH  28  29
ENDBRANCH  17  28
BRANCH  12  41
HETATM   41  O2  UNL     1      -0.382  52.589 -20.168  1.00  0.00    -0.316 OA
BRANCH  41  42
HETATM   42  C15 UNL     1       0.747  52.659 -20.926  1.00  0.00     0.255 C 
HETATM   43  C16 UNL     1       1.454  53.959 -20.687  1.00  0.00     0.126 C 
HETATM   44  O3  UNL     1       1.151  51.791 -21.688  1.00  0.00    -0.266 OA
ENDBRANCH  41  42
ENDBRANCH  12  41
BRANCH   1  45
HETATM   45  O1  UNL     1       2.730  51.332 -10.866  1.00  0.00    -0.362 OA
BRANCH  45  46
HETATM   46  C2  UNL     1       3.098  52.528 -11.545  1.00  0.00     0.166 C 
HETATM   47  C1  UNL     1       3.311  53.700 -10.609  1.00  0.00     0.033 C 
ENDBRANCH  45  46
ENDBRANCH   1  45
TORSDOF 9
ENDMDL
MODEL 6
REMARK minimizedAffinity -7.0564599
REMARK CNNscore 0.311583847
REMARK CNNaffinity 5.66111946
REMARK  9 active torsions:
REMARK  status: ('A' for Active; 'I' for Inactive)
REMARK    1  A    between atoms: C2_2  and  O1_3 
REMARK    2  A    between atoms: O1_3  and  C3_4 
REMARK    3  A    between atoms: C14_15  and  O2_16 
REMARK    4  A    between atoms: O2_16  and  C15_17 
REMARK    5  A    between atoms: C21_24  and  O4_25 
REMARK    6  A    between atoms: O4_25  and  C22_26 
REMARK    7  A    between atoms: C24_29  and  O6_30 
REMARK    8  A    between atoms: C25_31  and  O7_32 
REMARK    9  A    between atoms: C26_33  and  O8_34 
ROOT
HETATM    1  C3  UNL     1     -19.130  45.123 -21.367  1.00  0.00     0.260 C 
HETATM    2  C4  UNL     1     -17.922  45.292 -20.406  1.00  0.00     0.065 C 
HETATM    3  C5  UNL     1     -16.764  46.178 -20.937  1.00  0.00    -0.007 C 
HETATM    4  C6  UNL     1     -15.477  45.774 -20.228  1.00  0.00     0.010 C 
HETATM    5  C7  UNL     1     -16.774  46.124 -22.474  1.00  0.00     0.027 C 
HETATM    6  C8  UNL     1     -17.385  44.795 -22.944  1.00  0.00     0.130 C 
HETATM    7  C9  UNL     1     -16.980  44.692 -24.415  1.00  0.00     0.042 C 
HETATM    8  C10 UNL     1     -15.502  45.142 -24.359  1.00  0.00    -0.029 C 
HETATM    9  C11 UNL     1     -14.687  43.987 -23.681  1.00  0.00     0.016 C 
HETATM   10  C12 UNL     1     -14.853  45.494 -25.720  1.00  0.00     0.006 C 
HETATM   11  C13 UNL     1     -14.661  44.262 -26.615  1.00  0.00     0.039 C 
HETATM   12  C14 UNL     1     -13.975  44.613 -27.939  1.00  0.00     0.138 C 
HETATM   13  C17 UNL     1     -12.498  45.000 -27.652  1.00  0.00     0.035 C 
HETATM   14  C18 UNL     1     -11.597  45.325 -28.909  1.00  0.00    -0.015 C 
HETATM   15  C19 UNL     1     -12.171  46.495 -29.738  1.00  0.00     0.018 C 
HETATM   16  C20 UNL     1     -11.503  44.106 -29.863  1.00  0.00     0.018 C 
HETATM   17  C21 UNL     1     -10.134  45.635 -28.424  1.00  0.00     0.133 C 
HETATM   18  C27 UNL     1     -10.095  46.730 -27.357  1.00  0.00     0.034 C 
HETATM   19  C28 UNL     1     -10.958  46.358 -26.160  1.00  0.00     0.013 C 
HETATM   20  C29 UNL     1     -12.391  46.113 -26.586  1.00  0.00    -0.025 A 
HETATM   21  C30 UNL     1     -13.287  47.319 -26.655  1.00  0.00     0.021 A 
HETATM   22  C31 UNL     1     -13.539  46.302 -25.547  1.00  0.00    -0.027 A 
HETATM   23  C32 UNL     1     -13.144  46.770 -24.123  1.00  0.00     0.011 C 
HETATM   24  C33 UNL     1     -14.193  46.750 -22.990  1.00  0.00     0.011 C 
HETATM   25  C34 UNL     1     -15.602  46.439 -23.470  1.00  0.00    -0.030 C 
HETATM   26  C35 UNL     1     -16.088  47.710 -24.251  1.00  0.00     0.016 C 
HETATM   27  O9  UNL     1     -18.782  44.838 -22.733  1.00  0.00    -0.356 OA
ENDROOT
BRANCH  17  28
HETATM   28  O4  UNL     1      -9.348  46.018 -29.562  1.00  0.00    -0.353 OA
BRANCH  28  29
HETATM   29  C22 UNL     1      -8.047  45.421 -29.624  1.00  0.00     0.291 C 
HETATM   30  O5  UNL     1      -7.044  46.255 -29.044  1.00  0.00    -0.356 OA
HETATM   31  C23 UNL     1      -6.626  47.316 -29.906  1.00  0.00     0.205 C 
HETATM   32  C24 UNL     1      -5.925  46.777 -31.160  1.00  0.00     0.173 C 
HETATM   33  C25 UNL     1      -6.294  45.314 -31.415  1.00  0.00     0.182 C 
HETATM   34  C26 UNL     1      -7.768  45.102 -31.114  1.00  0.00     0.204 C 
BRANCH  32  35
HETATM   35  O6  UNL     1      -4.500  46.879 -31.038  1.00  0.00    -0.391 OA
HETATM   36  H39 UNL     1      -4.143  46.449 -31.843  1.00  0.00     0.210 HD
ENDBRANCH  32  35
BRANCH  33  37
HETATM   37  O7  UNL     1      -6.003  44.983 -32.782  1.00  0.00    -0.390 OA
HETATM   38  H41 UNL     1      -6.412  44.104 -32.918  1.00  0.00     0.210 HD
ENDBRANCH  33  37
BRANCH  34  39
HETATM   39  O8  UNL     1      -8.128  43.748 -31.444  1.00  0.00    -0.388 OA
HETATM   40  H43 UNL     1      -9.081  43.666 -31.251  1.00  0.00     0.210 HD
ENDBRANCH  34  39
ENDBRANCH  28  29
ENDBRANCH  17  28
BRANCH  12  41
HETATM   41  O2  UNL     1     -14.042  43.427 -28.760  1.00  0.00    -0.316 OA
BRANCH  41  42
HETATM   42  C15 UNL     1     -14.533  42.313 -28.149  1.00  0.00     0.255 C 
HETATM   43  C16 UNL     1     -13.410  41.464 -27.637  1.00  0.00     0.126 C 
HETATM   44  O3  UNL     1     -15.717  42.035 -28.017  1.00  0.00    -0.266 OA
ENDBRANCH  41  42
ENDBRANCH  12  41
BRANCH   1  45
HETATM   45  O1  UNL     1     -19.916  44.050 -20.829  1.00  0.00    -0.362 OA
BRANCH  45  46
HETATM   46  C2  UNL     1     -20.245  43.033 -21.769  1.00  0.00     0.166 C 
HETATM   47  C1  UNL     1     -21.706  42.637 -21.727  1.00  0.00     0.033 C 
ENDBRANCH  45  46
ENDBRANCH   1  45
TORSDOF 9
ENDMDL
MODEL 7
REMARK minimizedAffinity -7.34365749
REMARK CNNscore 0.303175807
REMARK CNNaffinity 5.68582582
REMARK  9 active torsions:
REMARK  status: ('A' for Active; 'I' for Inactive)
REMARK    1  A    between atoms: C2_2  and  O1_3 
REMARK    2  A    between atoms: O1_3  and  C3_4 
REMARK    3  A    between atoms: C14_15  and  O2_16 
REMARK    4  A    between atoms: O2_16  and  C15_17 
REMARK    5  A    between atoms: C21_24  and  O4_25 
REMARK    6  A    between atoms: O4_25  and  C22_26 
REMARK    7  A    between atoms: C24_29  and  O6_30 
REMARK    8  A    between atoms: C25_31  and  O7_32 
REMARK    9  A    between atoms: C26_33  and  O8_34 
ROOT
HETATM    1  C3  UNL     1     -19.880  44.577 -20.750  1.00  0.00     0.260 C 
HETATM    2  C4  UNL     1     -18.989  45.567 -19.952  1.00  0.00     0.065 C 
HETATM    3  C5  UNL     1     -18.129  46.534 -20.809  1.00  0.00    -0.007 C 
HETATM    4  C6  UNL     1     -16.926  46.977 -19.984  1.00  0.00     0.010 C 
HETATM    5  C7  UNL     1     -17.852  45.866 -22.166  1.00  0.00     0.027 C 
HETATM    6  C8  UNL     1     -17.881  44.338 -22.010  1.00  0.00     0.130 C 
HETATM    7  C9  UNL     1     -17.215  43.814 -23.284  1.00  0.00     0.042 C 
HETATM    8  C10 UNL     1     -16.013  44.777 -23.420  1.00  0.00    -0.029 C 
HETATM    9  C11 UNL     1     -14.984  44.403 -22.297  1.00  0.00     0.016 C 
HETATM   10  C12 UNL     1     -15.295  44.770 -24.792  1.00  0.00     0.006 C 
HETATM   11  C13 UNL     1     -14.542  43.460 -25.053  1.00  0.00     0.039 C 
HETATM   12  C14 UNL     1     -13.797  43.481 -26.392  1.00  0.00     0.138 C 
HETATM   13  C17 UNL     1     -12.615  44.484 -26.293  1.00  0.00     0.035 C 
HETATM   14  C18 UNL     1     -11.675  44.593 -27.558  1.00  0.00    -0.015 C 
HETATM   15  C19 UNL     1     -12.459  45.012 -28.821  1.00  0.00     0.018 C 
HETATM   16  C20 UNL     1     -11.005  43.232 -27.879  1.00  0.00     0.018 C 
HETATM   17  C21 UNL     1     -10.514  45.607 -27.247  1.00  0.00     0.133 C 
HETATM   18  C27 UNL     1     -11.037  46.961 -26.769  1.00  0.00     0.034 C 
HETATM   19  C28 UNL     1     -11.916  46.804 -25.537  1.00  0.00     0.013 C 
HETATM   20  C29 UNL     1     -13.082  45.879 -25.823  1.00  0.00    -0.025 A 
HETATM   21  C30 UNL     1     -14.309  46.511 -26.421  1.00  0.00     0.021 A 
HETATM   22  C31 UNL     1     -14.388  46.015 -24.981  1.00  0.00    -0.027 A 
HETATM   23  C32 UNL     1     -14.431  47.129 -23.904  1.00  0.00     0.011 C 
HETATM   24  C33 UNL     1     -15.591  47.167 -22.885  1.00  0.00     0.011 C 
HETATM   25  C34 UNL     1     -16.703  46.175 -23.190  1.00  0.00    -0.030 C 
HETATM   26  C35 UNL     1     -17.449  46.731 -24.454  1.00  0.00     0.016 C 
HETATM   27  O9  UNL     1     -19.222  43.923 -21.850  1.00  0.00    -0.356 OA
ENDROOT
BRANCH  17  28
HETATM   28  O4  UNL     1      -9.720  45.767 -28.431  1.00  0.00    -0.353 OA
BRANCH  28  29
HETATM   29  C22 UNL     1      -9.662  47.105 -28.942  1.00  0.00     0.291 C 
HETATM   30  O5  UNL     1     -10.296  47.223 -30.215  1.00  0.00    -0.356 OA
HETATM   31  C23 UNL     1      -9.485  46.750 -31.293  1.00  0.00     0.205 C 
HETATM   32  C24 UNL     1      -8.226  47.610 -31.468  1.00  0.00     0.173 C 
HETATM   33  C25 UNL     1      -7.907  48.390 -30.191  1.00  0.00     0.182 C 
HETATM   34  C26 UNL     1      -8.167  47.509 -28.979  1.00  0.00     0.204 C 
BRANCH  32  35
HETATM   35  O6  UNL     1      -8.382  48.541 -32.548  1.00  0.00    -0.391 OA
HETATM   36  H39 UNL     1      -7.569  49.087 -32.534  1.00  0.00     0.210 HD
ENDBRANCH  32  35
BRANCH  33  37
HETATM   37  O7  UNL     1      -6.534  48.813 -30.223  1.00  0.00    -0.390 OA
HETATM   38  H41 UNL     1      -6.355  49.148 -29.322  1.00  0.00     0.210 HD
ENDBRANCH  33  37
BRANCH  34  39
HETATM   39  O8  UNL     1      -7.777  48.216 -27.788  1.00  0.00    -0.388 OA
HETATM   40  H43 UNL     1      -7.947  47.608 -27.044  1.00  0.00     0.210 HD
ENDBRANCH  34  39
ENDBRANCH  28  29
ENDBRANCH  17  28
BRANCH  12  41
HETATM   41  O2  UNL     1     -13.311  42.139 -26.610  1.00  0.00    -0.316 OA
BRANCH  41  42
HETATM   42  C15 UNL     1     -14.139  41.319 -27.315  1.00  0.00     0.255 C 
HETATM   43  C16 UNL     1     -13.441  40.804 -28.537  1.00  0.00     0.126 C 
HETATM   44  O3  UNL     1     -15.285  41.024 -27.006  1.00  0.00    -0.266 OA
ENDBRANCH  41  42
ENDBRANCH  12  41
BRANCH   1  45
HETATM   45  O1  UNL     1     -20.334  43.601 -19.802  1.00  0.00    -0.362 OA
BRANCH  45  46
HETATM   46  C2  UNL     1     -20.495  42.291 -20.337  1.00  0.00     0.166 C 
HETATM   47  C1  UNL     1     -21.789  41.632 -19.908  1.00  0.00     0.033 C 
ENDBRANCH  45  46
ENDBRANCH   1  45
TORSDOF 9
ENDMDL
MODEL 8
REMARK minimizedAffinity -8.22677231
REMARK CNNscore 0.296186864
REMARK CNNaffinity 5.64234591
REMARK  9 active torsions:
REMARK  status: ('A' for Active; 'I' for Inactive)
REMARK    1  A    between atoms: C2_2  and  O1_3 
REMARK    2  A    between atoms: O1_3  and  C3_4 
REMARK    3  A    between atoms: C14_15  and  O2_16 
REMARK    4  A    between atoms: O2_16  and  C15_17 
REMARK    5  A    between atoms: C21_24  and  O4_25 
REMARK    6  A    between atoms: O4_25  and  C22_26 
REMARK    7  A    between atoms: C24_29  and  O6_30 
REMARK    8  A    between atoms: C25_31  and  O7_32 
REMARK    9  A    between atoms: C26_33  and  O8_34 
ROOT
HETATM    1  C3  UNL     1     -19.194  44.623 -21.481  1.00  0.00     0.260 C 
HETATM    2  C4  UNL     1     -19.944  45.149 -22.735  1.00  0.00     0.065 C 
HETATM    3  C5  UNL     1     -19.315  44.765 -24.101  1.00  0.00    -0.007 C 
HETATM    4  C6  UNL     1     -19.748  45.791 -25.142  1.00  0.00     0.010 C 
HETATM    5  C7  UNL     1     -17.806  44.550 -23.900  1.00  0.00     0.027 C 
HETATM    6  C8  UNL     1     -17.315  45.393 -22.713  1.00  0.00     0.130 C 
HETATM    7  C9  UNL     1     -15.793  45.408 -22.865  1.00  0.00     0.042 C 
HETATM    8  C10 UNL     1     -15.639  45.647 -24.385  1.00  0.00    -0.029 C 
HETATM    9  C11 UNL     1     -16.045  47.135 -24.669  1.00  0.00     0.016 C 
HETATM   10  C12 UNL     1     -14.230  45.382 -24.970  1.00  0.00     0.006 C 
HETATM   11  C13 UNL     1     -13.194  46.408 -24.493  1.00  0.00     0.039 C 
HETATM   12  C14 UNL     1     -11.815  46.166 -25.115  1.00  0.00     0.138 C 
HETATM   13  C17 UNL     1     -11.881  46.498 -26.630  1.00  0.00     0.035 C 
HETATM   14  C18 UNL     1     -10.528  46.382 -27.438  1.00  0.00    -0.015 C 
HETATM   15  C19 UNL     1      -9.935  44.958 -27.360  1.00  0.00     0.018 C 
HETATM   16  C20 UNL     1      -9.452  47.345 -26.874  1.00  0.00     0.018 C 
HETATM   17  C21 UNL     1     -10.783  46.810 -28.929  1.00  0.00     0.133 C 
HETATM   18  C27 UNL     1     -11.934  46.033 -29.569  1.00  0.00     0.034 C 
HETATM   19  C28 UNL     1     -13.217  46.197 -28.767  1.00  0.00     0.013 C 
HETATM   20  C29 UNL     1     -13.021  45.733 -27.338  1.00  0.00    -0.025 A 
HETATM   21  C30 UNL     1     -13.233  44.269 -27.074  1.00  0.00     0.021 A 
HETATM   22  C31 UNL     1     -14.256  45.252 -26.517  1.00  0.00    -0.027 A 
HETATM   23  C32 UNL     1     -15.631  45.244 -27.232  1.00  0.00     0.011 C 
HETATM   24  C33 UNL     1     -16.921  45.006 -26.415  1.00  0.00     0.011 C 
HETATM   25  C34 UNL     1     -16.661  44.602 -24.972  1.00  0.00    -0.030 C 
HETATM   26  C35 UNL     1     -16.110  43.133 -25.022  1.00  0.00     0.016 C 
HETATM   27  O9  UNL     1     -17.767  44.795 -21.515  1.00  0.00    -0.356 OA
ENDROOT
BRANCH  17  28
HETATM   28  O4  UNL     1      -9.573  46.613 -29.673  1.00  0.00    -0.353 OA
BRANCH  28  29
HETATM   29  C22 UNL     1      -9.156  47.739 -30.456  1.00  0.00     0.291 C 
HETATM   30  O5  UNL     1      -9.527  47.609 -31.828  1.00  0.00    -0.356 OA
HETATM   31  C23 UNL     1      -8.661  46.743 -32.566  1.00  0.00     0.205 C 
HETATM   32  C24 UNL     1      -7.241  47.318 -32.660  1.00  0.00     0.173 C 
HETATM   33  C25 UNL     1      -6.988  48.352 -31.560  1.00  0.00     0.182 C 
HETATM   34  C26 UNL     1      -7.625  47.880 -30.263  1.00  0.00     0.204 C 
BRANCH  32  35
HETATM   35  O6  UNL     1      -7.017  47.937 -33.933  1.00  0.00    -0.391 OA
HETATM   36  H39 UNL     1      -6.123  48.333 -33.872  1.00  0.00     0.210 HD
ENDBRANCH  32  35
BRANCH  33  37
HETATM   37  O7  UNL     1      -5.573  48.531 -31.393  1.00  0.00    -0.390 OA
HETATM   38  H41 UNL     1      -5.483  49.064 -30.577  1.00  0.00     0.210 HD
ENDBRANCH  33  37
BRANCH  34  39
HETATM   39  O8  UNL     1      -7.304  48.811 -29.213  1.00  0.00    -0.388 OA
HETATM   40  H43 UNL     1      -7.719  48.459 -28.402  1.00  0.00     0.210 HD
ENDBRANCH  34  39
ENDBRANCH  28  29
ENDBRANCH  17  28
BRANCH  12  41
HETATM   41  O2  UNL     1     -10.900  47.053 -24.436  1.00  0.00    -0.316 OA
BRANCH  41  42
HETATM   42  C15 UNL     1     -10.081  46.468 -23.519  1.00  0.00     0.255 C 
HETATM   43  C16 UNL     1     -10.579  46.737 -22.132  1.00  0.00     0.126 C 
HETATM   44  O3  UNL     1      -9.085  45.803 -23.772  1.00  0.00    -0.266 OA
ENDBRANCH  41  42
ENDBRANCH  12  41
BRANCH   1  45
HETATM   45  O1  UNL     1     -19.746  45.333 -20.363  1.00  0.00    -0.362 OA
BRANCH  45  46
HETATM   46  C2  UNL     1     -18.782  46.001 -19.557  1.00  0.00     0.166 C 
HETATM   47  C1  UNL     1     -18.912  47.509 -19.606  1.00  0.00     0.033 C 
ENDBRANCH  45  46
ENDBRANCH   1  45
TORSDOF 9
ENDMDL
MODEL 9
REMARK minimizedAffinity -9.40912056
REMARK CNNscore 0.26899603
REMARK CNNaffinity 6.52952719
REMARK  9 active torsions:
REMARK  status: ('A' for Active; 'I' for Inactive)
REMARK    1  A    between atoms: C2_2  and  O1_3 
REMARK    2  A    between atoms: O1_3  and  C3_4 
REMARK    3  A    between atoms: C14_15  and  O2_16 
REMARK    4  A    between atoms: O2_16  and  C15_17 
REMARK    5  A    between atoms: C21_24  and  O4_25 
REMARK    6  A    between atoms: O4_25  and  C22_26 
REMARK    7  A    between atoms: C24_29  and  O6_30 
REMARK    8  A    between atoms: C25_31  and  O7_32 
REMARK    9  A    between atoms: C26_33  and  O8_34 
ROOT
HETATM    1  C3  UNL     1      -0.016  52.580 -19.795  1.00  0.00     0.260 C 
HETATM    2  C4  UNL     1       0.550  52.490 -21.239  1.00  0.00     0.065 C 
HETATM    3  C5  UNL     1      -0.509  52.471 -22.373  1.00  0.00    -0.007 C 
HETATM    4  C6  UNL     1       0.099  51.792 -23.595  1.00  0.00     0.010 C 
HETATM    5  C7  UNL     1      -1.814  51.884 -21.811  1.00  0.00     0.027 C 
HETATM    6  C8  UNL     1      -1.498  50.931 -20.648  1.00  0.00     0.130 C 
HETATM    7  C9  UNL     1      -2.788  50.133 -20.451  1.00  0.00     0.042 C 
HETATM    8  C10 UNL     1      -3.180  49.819 -21.913  1.00  0.00    -0.029 C 
HETATM    9  C11 UNL     1      -2.171  48.746 -22.450  1.00  0.00     0.016 C 
HETATM   10  C12 UNL     1      -4.627  49.312 -22.129  1.00  0.00     0.006 C 
HETATM   11  C13 UNL     1      -4.849  47.909 -21.549  1.00  0.00     0.039 C 
HETATM   12  C14 UNL     1      -6.269  47.397 -21.809  1.00  0.00     0.138 C 
HETATM   13  C17 UNL     1      -6.432  47.116 -23.328  1.00  0.00     0.035 C 
HETATM   14  C18 UNL     1      -7.815  46.505 -23.788  1.00  0.00    -0.015 C 
HETATM   15  C19 UNL     1      -9.000  47.423 -23.415  1.00  0.00     0.018 C 
HETATM   16  C20 UNL     1      -8.079  45.137 -23.108  1.00  0.00     0.018 C 
HETATM   17  C21 UNL     1      -7.767  46.240 -25.338  1.00  0.00     0.133 C 
HETATM   18  C27 UNL     1      -7.367  47.485 -26.129  1.00  0.00     0.034 C 
HETATM   19  C28 UNL     1      -6.020  48.019 -25.664  1.00  0.00     0.013 C 
HETATM   20  C29 UNL     1      -6.052  48.344 -24.184  1.00  0.00    -0.025 A 
HETATM   21  C30 UNL     1      -6.544  49.714 -23.809  1.00  0.00     0.021 A 
HETATM   22  C31 UNL     1      -5.063  49.407 -23.616  1.00  0.00    -0.027 A 
HETATM   23  C32 UNL     1      -4.110  50.106 -24.619  1.00  0.00     0.011 C 
HETATM   24  C33 UNL     1      -2.956  50.989 -24.094  1.00  0.00     0.011 C 
HETATM   25  C34 UNL     1      -3.007  51.230 -22.594  1.00  0.00    -0.030 C 
HETATM   26  C35 UNL     1      -4.212  52.206 -22.349  1.00  0.00     0.016 C 
HETATM   27  O9  UNL     1      -1.119  51.699 -19.523  1.00  0.00    -0.356 OA
ENDROOT
BRANCH  17  28
HETATM   28  O4  UNL     1      -9.056  45.772 -25.759  1.00  0.00    -0.353 OA
BRANCH  28  29
HETATM   29  C22 UNL     1      -9.868  46.753 -26.417  1.00  0.00     0.291 C 
HETATM   30  O5  UNL     1     -10.758  46.168 -27.366  1.00  0.00    -0.356 OA
HETATM   31  C23 UNL     1     -10.122  45.830 -28.601  1.00  0.00     0.205 C 
HETATM   32  C24 UNL     1      -9.628  47.083 -29.339  1.00  0.00     0.173 C 
HETATM   33  C25 UNL     1      -9.477  48.266 -28.380  1.00  0.00     0.182 C 
HETATM   34  C26 UNL     1      -8.901  47.780 -27.060  1.00  0.00     0.204 C 
BRANCH  32  35
HETATM   35  O6  UNL     1     -10.530  47.453 -30.389  1.00  0.00    -0.391 OA
HETATM   36  H39 UNL     1     -10.174  48.292 -30.748  1.00  0.00     0.210 HD
ENDBRANCH  32  35
BRANCH  33  37
HETATM   37  O7  UNL     1      -8.618  49.252 -28.975  1.00  0.00    -0.390 OA
HETATM   38  H41 UNL     1      -8.432  49.888 -28.254  1.00  0.00     0.210 HD
ENDBRANCH  33  37
BRANCH  34  39
HETATM   39  O8  UNL     1      -8.676  48.911 -26.198  1.00  0.00    -0.388 OA
HETATM   40  H43 UNL     1      -8.294  48.552 -25.374  1.00  0.00     0.210 HD
ENDBRANCH  34  39
ENDBRANCH  28  29
ENDBRANCH  17  28
BRANCH  12  41
HETATM   41  O2  UNL     1      -6.409  46.178 -21.046  1.00  0.00    -0.316 OA
BRANCH  41  42
HETATM   42  C15 UNL     1      -6.877  46.328 -19.776  1.00  0.00     0.255 C 
HETATM   43  C16 UNL     1      -8.097  47.199 -19.771  1.00  0.00     0.126 C 
HETATM   44  O3  UNL     1      -6.392  45.822 -18.773  1.00  0.00    -0.266 OA
ENDBRANCH  41  42
ENDBRANCH  12  41
BRANCH   1  45
HETATM   45  O1  UNL     1       1.080  52.277 -18.921  1.00  0.00    -0.362 OA
BRANCH  45  46
HETATM   46  C2  UNL     1       0.797  52.462 -17.538  1.00  0.00     0.166 C 
HETATM   47  C1  UNL     1       0.977  51.199 -16.722  1.00  0.00     0.033 C 
ENDBRANCH  45  46
ENDBRANCH   1  45
TORSDOF 9
ENDMDL
