MODEL 1
REMARK minimizedAffinity -8.33077812
REMARK CNNscore 0.469591349
REMARK CNNaffinity 7.15295744
REMARK  16 active torsions:
REMARK  status: ('A' for Active; 'I' for Inactive)
REMARK    1  A    between atoms: C2_2  and  N1_3 
REMARK    2  A    between atoms: N1_3  and  C3_4 
REMARK    3  A    between atoms: C3_4  and  C4_5 
REMARK    4  A    between atoms: C9_11  and  S1_12 
REMARK    5  A    between atoms: S1_12  and  N2_15 
REMARK    6  A    between atoms: N2_15  and  C10_16 
REMARK    7  A    between atoms: N2_15  and  C14_20 
REMARK    8  A    between atoms: C10_16  and  C11_17 
REMARK    9  A    between atoms: C14_20  and  C15_21 
REMARK   10  A    between atoms: C15_21  and  O4_22 
REMARK   11  A    between atoms: C15_21  and  C16_23 
REMARK   12  A    between atoms: C16_23  and  C17_24 
REMARK   13  A    between atoms: C16_23  and  N3_31 
REMARK   14  A    between atoms: C17_24  and  C18_25 
REMARK       I    between atoms: N3_31  and  C24_32 
REMARK   15  A    between atoms: C24_32  and  O6_34 
REMARK   16  A    between atoms: O6_34  and  C25_35 
ROOT
HETATM    1  C15 UNL     1      -5.523  50.008 -20.762  1.00  0.00     0.155 C 
ENDROOT
BRANCH   1   2
HETATM    2  C14 UNL     1      -4.292  50.928 -20.707  1.00  0.00     0.141 C 
BRANCH   2   3
HETATM    3  N2  UNL     1      -2.923  50.295 -20.505  1.00  0.00    -0.204 NA
BRANCH   3   4
HETATM    4  S1  UNL     1      -2.071  51.013 -19.158  1.00  0.00     0.243 S 
HETATM    5  O2  UNL     1      -2.972  51.852 -18.400  1.00  0.00    -0.206 OA
HETATM    6  O3  UNL     1      -1.300  49.958 -18.530  1.00  0.00    -0.206 OA
BRANCH   4   7
HETATM    7  C9  UNL     1      -0.916  52.143 -19.922  1.00  0.00     0.075 A 
HETATM    8  C8  UNL     1      -0.145  52.983 -19.108  1.00  0.00     0.027 A 
HETATM    9  C7  UNL     1       0.800  53.845 -19.674  1.00  0.00     0.039 A 
HETATM   10  C6  UNL     1       0.928  53.809 -21.063  1.00  0.00     0.086 A 
HETATM   11  O1  UNL     1       1.785  54.573 -21.793  1.00  0.00    -0.321 OA
HETATM   12  C32 UNL     1       0.192  52.976 -21.900  1.00  0.00     0.009 A 
HETATM   13  C5  UNL     1       1.605  54.235 -23.095  1.00  0.00     0.152 A 
HETATM   14  C4  UNL     1       0.633  53.260 -23.231  1.00  0.00     0.005 A 
HETATM   15  C31 UNL     1      -0.744  52.105 -21.317  1.00  0.00     0.039 A 
BRANCH  14  16
HETATM   16  C3  UNL     1       0.141  52.662 -24.503  1.00  0.00     0.311 C 
BRANCH  16  17
HETATM   17  N1  UNL     1       0.914  53.142 -25.654  1.00  0.00     0.087 N 
HETATM   18  H6  UNL     1       0.389  53.915 -26.068  1.00  0.00     0.316 HD
BRANCH  17  19
HETATM   19  C2  UNL     1       1.110  52.123 -26.690  1.00  0.00     0.265 C 
HETATM   20  C1  UNL     1       2.502  51.518 -26.606  1.00  0.00     0.037 C 
ENDBRANCH  17  19
ENDBRANCH  16  17
ENDBRANCH  14  16
ENDBRANCH   4   7
ENDBRANCH   3   4
BRANCH   3  21
HETATM   21  C10 UNL     1      -3.095  48.797 -20.366  1.00  0.00     0.111 C 
BRANCH  21  22
HETATM   22  C11 UNL     1      -2.244  47.995 -21.368  1.00  0.00    -0.009 C 
HETATM   23  C12 UNL     1      -2.240  48.591 -22.772  1.00  0.00     0.011 C 
HETATM   24  C13 UNL     1      -0.815  47.766 -20.885  1.00  0.00     0.011 C 
ENDBRANCH  21  22
ENDBRANCH   3  21
ENDBRANCH   2   3
ENDBRANCH   1   2
BRANCH   1  25
HETATM   25  O4  UNL     1      -6.694  50.673 -20.293  1.00  0.00    -0.392 OA
HETATM   26  H24 UNL     1      -7.448  50.080 -20.461  1.00  0.00     0.210 HD
ENDBRANCH   1  25
BRANCH   1  27
HETATM   27  C16 UNL     1      -5.780  49.227 -22.085  1.00  0.00     0.120 C 
BRANCH  27  28
HETATM   28  C17 UNL     1      -5.960  50.140 -23.315  1.00  0.00     0.066 C 
BRANCH  28  29
HETATM   29  C18 UNL     1      -4.976  49.888 -24.441  1.00  0.00    -0.056 A 
HETATM   30  C19 UNL     1      -4.110  50.894 -24.891  1.00  0.00     0.007 A 
HETATM   31  C20 UNL     1      -3.219  50.644 -25.936  1.00  0.00     0.001 A 
HETATM   32  C21 UNL     1      -3.192  49.392 -26.550  1.00  0.00     0.000 A 
HETATM   33  C22 UNL     1      -4.058  48.389 -26.120  1.00  0.00     0.001 A 
HETATM   34  C23 UNL     1      -4.946  48.635 -25.074  1.00  0.00     0.007 A 
ENDBRANCH  28  29
ENDBRANCH  27  28
BRANCH  27  35
HETATM   35  N3  UNL     1      -6.973  48.373 -21.925  1.00  0.00    -0.329 N 
HETATM   36  C24 UNL     1      -6.956  47.028 -22.130  1.00  0.00     0.361 C 
HETATM   37  O5  UNL     1      -5.956  46.363 -22.347  1.00  0.00    -0.238 OA
HETATM   38  H33 UNL     1      -7.898  48.794 -21.924  1.00  0.00     0.165 HD
BRANCH  36  39
HETATM   39  O6  UNL     1      -8.218  46.547 -22.036  1.00  0.00    -0.296 OA
BRANCH  39  40
HETATM   40  C25 UNL     1      -9.192  47.193 -22.865  1.00  0.00     0.166 C 
HETATM   41  C26 UNL     1     -10.601  46.795 -22.459  1.00  0.00     0.204 C 
HETATM   42  O7  UNL     1     -11.412  46.920 -23.631  1.00  0.00    -0.358 OA
HETATM   43  C27 UNL     1     -10.550  46.904 -24.770  1.00  0.00     0.266 C 
HETATM   44  O8  UNL     1     -10.557  48.168 -25.446  1.00  0.00    -0.361 OA
HETATM   45  C30 UNL     1      -9.135  46.658 -24.288  1.00  0.00     0.075 C 
HETATM   46  C28 UNL     1      -9.209  48.632 -25.585  1.00  0.00     0.171 C 
HETATM   47  C29 UNL     1      -8.303  47.463 -25.255  1.00  0.00     0.038 C 
ENDBRANCH  39  40
ENDBRANCH  36  39
ENDBRANCH  27  35
ENDBRANCH   1  27
TORSDOF 16
ENDMDL
MODEL 2
REMARK minimizedAffinity -9.4899683
REMARK CNNscore 0.257414967
REMARK CNNaffinity 7.17706823
REMARK  16 active torsions:
REMARK  status: ('A' for Active; 'I' for Inactive)
REMARK    1  A    between atoms: C2_2  and  N1_3 
REMARK    2  A    between atoms: N1_3  and  C3_4 
REMARK    3  A    between atoms: C3_4  and  C4_5 
REMARK    4  A    between atoms: C9_11  and  S1_12 
REMARK    5  A    between atoms: S1_12  and  N2_15 
REMARK    6  A    between atoms: N2_15  and  C10_16 
REMARK    7  A    between atoms: N2_15  and  C14_20 
REMARK    8  A    between atoms: C10_16  and  C11_17 
REMARK    9  A    between atoms: C14_20  and  C15_21 
REMARK   10  A    between atoms: C15_21  and  O4_22 
REMARK   11  A    between atoms: C15_21  and  C16_23 
REMARK   12  A    between atoms: C16_23  and  C17_24 
REMARK   13  A    between atoms: C16_23  and  N3_31 
REMARK   14  A    between atoms: C17_24  and  C18_25 
REMARK       I    between atoms: N3_31  and  C24_32 
REMARK   15  A    between atoms: C24_32  and  O6_34 
REMARK   16  A    between atoms: O6_34  and  C25_35 
ROOT
HETATM    1  C15 UNL     1      -4.457  50.984 -23.085  1.00  0.00     0.155 C 
ENDROOT
BRANCH   1   2
HETATM    2  C14 UNL     1      -3.650  50.434 -21.897  1.00  0.00     0.141 C 
BRANCH   2   3
HETATM    3  N2  UNL     1      -3.506  48.926 -21.754  1.00  0.00    -0.204 NA
BRANCH   3   4
HETATM    4  S1  UNL     1      -2.118  48.497 -20.783  1.00  0.00     0.243 S 
HETATM    5  O2  UNL     1      -2.509  48.376 -19.396  1.00  0.00    -0.206 OA
HETATM    6  O3  UNL     1      -1.425  47.430 -21.476  1.00  0.00    -0.206 OA
BRANCH   4   7
HETATM    7  C9  UNL     1      -1.075  49.947 -20.846  1.00  0.00     0.075 A 
HETATM    8  C8  UNL     1      -0.801  50.536 -22.087  1.00  0.00     0.027 A 
HETATM    9  C7  UNL     1      -0.027  51.698 -22.164  1.00  0.00     0.039 A 
HETATM   10  C6  UNL     1       0.437  52.223 -20.958  1.00  0.00     0.086 A 
HETATM   11  O1  UNL     1       1.206  53.337 -20.830  1.00  0.00    -0.321 OA
HETATM   12  C32 UNL     1       0.172  51.675 -19.708  1.00  0.00     0.009 A 
HETATM   13  C5  UNL     1       1.435  53.510 -19.504  1.00  0.00     0.152 A 
HETATM   14  C4  UNL     1       0.830  52.516 -18.756  1.00  0.00     0.005 A 
HETATM   15  C31 UNL     1      -0.620  50.515 -19.643  1.00  0.00     0.039 A 
BRANCH  14  16
HETATM   16  C3  UNL     1       0.886  52.354 -17.277  1.00  0.00     0.311 C 
BRANCH  16  17
HETATM   17  N1  UNL     1       1.895  53.234 -16.679  1.00  0.00     0.087 N 
HETATM   18  H6  UNL     1       2.112  53.955 -17.369  1.00  0.00     0.316 HD
BRANCH  17  19
HETATM   19  C2  UNL     1       3.143  52.542 -16.340  1.00  0.00     0.265 C 
HETATM   20  C1  UNL     1       2.997  51.749 -15.052  1.00  0.00     0.037 C 
ENDBRANCH  17  19
ENDBRANCH  16  17
ENDBRANCH  14  16
ENDBRANCH   4   7
ENDBRANCH   3   4
BRANCH   3  21
HETATM   21  C10 UNL     1      -4.804  48.363 -21.213  1.00  0.00     0.111 C 
BRANCH  21  22
HETATM   22  C11 UNL     1      -5.325  47.161 -22.023  1.00  0.00    -0.009 C 
HETATM   23  C12 UNL     1      -5.054  45.817 -21.354  1.00  0.00     0.011 C 
HETATM   24  C13 UNL     1      -6.801  47.284 -22.388  1.00  0.00     0.011 C 
ENDBRANCH  21  22
ENDBRANCH   3  21
ENDBRANCH   2   3
ENDBRANCH   1   2
BRANCH   1  25
HETATM   25  O4  UNL     1      -5.035  52.252 -22.783  1.00  0.00    -0.392 OA
HETATM   26  H24 UNL     1      -5.430  52.591 -23.606  1.00  0.00     0.210 HD
ENDBRANCH   1  25
BRANCH   1  27
HETATM   27  C16 UNL     1      -3.777  50.967 -24.486  1.00  0.00     0.120 C 
BRANCH  27  28
HETATM   28  C17 UNL     1      -3.289  49.568 -24.918  1.00  0.00     0.066 C 
BRANCH  28  29
HETATM   29  C18 UNL     1      -4.146  48.895 -25.973  1.00  0.00    -0.056 A 
HETATM   30  C19 UNL     1      -3.770  48.890 -27.322  1.00  0.00     0.007 A 
HETATM   31  C20 UNL     1      -4.578  48.273 -28.279  1.00  0.00     0.001 A 
HETATM   32  C21 UNL     1      -5.775  47.668 -27.899  1.00  0.00     0.000 A 
HETATM   33  C22 UNL     1      -6.166  47.679 -26.561  1.00  0.00     0.001 A 
HETATM   34  C23 UNL     1      -5.358  48.291 -25.604  1.00  0.00     0.007 A 
ENDBRANCH  28  29
ENDBRANCH  27  28
BRANCH  27  35
HETATM   35  N3  UNL     1      -2.641  51.909 -24.490  1.00  0.00    -0.329 N 
HETATM   36  C24 UNL     1      -2.279  52.632 -25.585  1.00  0.00     0.361 C 
HETATM   37  O5  UNL     1      -2.905  52.681 -26.633  1.00  0.00    -0.238 OA
HETATM   38  H33 UNL     1      -1.930  51.846 -23.766  1.00  0.00     0.165 HD
BRANCH  36  39
HETATM   39  O6  UNL     1      -1.131  53.299 -25.320  1.00  0.00    -0.296 OA
BRANCH  39  40
HETATM   40  C25 UNL     1      -0.100  53.175 -26.306  1.00  0.00     0.166 C 
HETATM   41  C26 UNL     1      -0.524  53.810 -27.620  1.00  0.00     0.204 C 
HETATM   42  O7  UNL     1       0.191  53.126 -28.652  1.00  0.00    -0.358 OA
HETATM   43  C27 UNL     1       0.633  51.871 -28.129  1.00  0.00     0.266 C 
HETATM   44  O8  UNL     1       2.062  51.821 -28.031  1.00  0.00    -0.361 OA
HETATM   45  C30 UNL     1       0.078  51.724 -26.727  1.00  0.00     0.075 C 
HETATM   46  C28 UNL     1       2.426  51.460 -26.694  1.00  0.00     0.171 C 
HETATM   47  C29 UNL     1       1.168  50.966 -26.010  1.00  0.00     0.038 C 
ENDBRANCH  39  40
ENDBRANCH  36  39
ENDBRANCH  27  35
ENDBRANCH   1  27
TORSDOF 16
ENDMDL
MODEL 3
REMARK minimizedAffinity -8.47291756
REMARK CNNscore 0.248486191
REMARK CNNaffinity 6.80546999
REMARK  16 active torsions:
REMARK  status: ('A' for Active; 'I' for Inactive)
REMARK    1  A    between atoms: C2_2  and  N1_3 
REMARK    2  A    between atoms: N1_3  and  C3_4 
REMARK    3  A    between atoms: C3_4  and  C4_5 
REMARK    4  A    between atoms: C9_11  and  S1_12 
REMARK    5  A    between atoms: S1_12  and  N2_15 
REMARK    6  A    between atoms: N2_15  and  C10_16 
REMARK    7  A    between atoms: N2_15  and  C14_20 
REMARK    8  A    between atoms: C10_16  and  C11_17 
REMARK    9  A    between atoms: C14_20  and  C15_21 
REMARK   10  A    between atoms: C15_21  and  O4_22 
REMARK   11  A    between atoms: C15_21  and  C16_23 
REMARK   12  A    between atoms: C16_23  and  C17_24 
REMARK   13  A    between atoms: C16_23  and  N3_31 
REMARK   14  A    between atoms: C17_24  and  C18_25 
REMARK       I    between atoms: N3_31  and  C24_32 
REMARK   15  A    between atoms: C24_32  and  O6_34 
REMARK   16  A    between atoms: O6_34  and  C25_35 
ROOT
HETATM    1  C15 UNL     1      -2.710  48.739 -17.417  1.00  0.00     0.155 C 
ENDROOT
BRANCH   1   2
HETATM    2  C14 UNL     1      -2.453  48.081 -18.783  1.00  0.00     0.141 C 
BRANCH   2   3
HETATM    3  N2  UNL     1      -2.853  48.839 -20.040  1.00  0.00    -0.204 NA
BRANCH   3   4
HETATM    4  S1  UNL     1      -1.826  48.433 -21.395  1.00  0.00     0.243 S 
HETATM    5  O2  UNL     1      -0.751  47.571 -20.954  1.00  0.00    -0.206 OA
HETATM    6  O3  UNL     1      -2.696  48.066 -22.495  1.00  0.00    -0.206 OA
BRANCH   4   7
HETATM    7  C9  UNL     1      -1.037  49.977 -21.824  1.00  0.00     0.075 A 
HETATM    8  C8  UNL     1      -0.243  50.626 -20.870  1.00  0.00     0.027 A 
HETATM    9  C7  UNL     1       0.425  51.812 -21.191  1.00  0.00     0.039 A 
HETATM   10  C6  UNL     1       0.261  52.290 -22.491  1.00  0.00     0.086 A 
HETATM   11  O1  UNL     1       0.824  53.424 -22.988  1.00  0.00    -0.321 OA
HETATM   12  C32 UNL     1      -0.504  51.664 -23.470  1.00  0.00     0.009 A 
HETATM   13  C5  UNL     1       0.425  53.531 -24.281  1.00  0.00     0.152 A 
HETATM   14  C4  UNL     1      -0.400  52.480 -24.640  1.00  0.00     0.005 A 
HETATM   15  C31 UNL     1      -1.159  50.465 -23.137  1.00  0.00     0.039 A 
BRANCH  14  16
HETATM   16  C3  UNL     1      -1.056  52.272 -25.961  1.00  0.00     0.311 C 
BRANCH  16  17
HETATM   17  N1  UNL     1      -1.000  53.485 -26.783  1.00  0.00     0.087 N 
HETATM   18  H6  UNL     1      -1.953  53.686 -27.091  1.00  0.00     0.316 HD
BRANCH  17  19
HETATM   19  C2  UNL     1      -0.160  53.342 -27.977  1.00  0.00     0.265 C 
HETATM   20  C1  UNL     1       0.296  51.903 -28.155  1.00  0.00     0.037 C 
ENDBRANCH  17  19
ENDBRANCH  16  17
ENDBRANCH  14  16
ENDBRANCH   4   7
ENDBRANCH   3   4
BRANCH   3  21
HETATM   21  C10 UNL     1      -4.321  48.587 -20.313  1.00  0.00     0.111 C 
BRANCH  21  22
HETATM   22  C11 UNL     1      -5.077  49.850 -20.764  1.00  0.00    -0.009 C 
HETATM   23  C12 UNL     1      -6.507  49.921 -20.236  1.00  0.00     0.011 C 
HETATM   24  C13 UNL     1      -4.328  51.139 -20.442  1.00  0.00     0.011 C 
ENDBRANCH  21  22
ENDBRANCH   3  21
ENDBRANCH   2   3
ENDBRANCH   1   2
BRANCH   1  25
HETATM   25  O4  UNL     1      -2.854  47.765 -16.385  1.00  0.00    -0.392 OA
HETATM   26  H24 UNL     1      -2.898  48.247 -15.541  1.00  0.00     0.210 HD
ENDBRANCH   1  25
BRANCH   1  27
HETATM   27  C16 UNL     1      -1.773  49.909 -16.994  1.00  0.00     0.120 C 
BRANCH  27  28
HETATM   28  C17 UNL     1      -0.436  49.440 -16.383  1.00  0.00     0.066 C 
BRANCH  28  29
HETATM   29  C18 UNL     1       0.636  50.509 -16.305  1.00  0.00    -0.056 A 
HETATM   30  C19 UNL     1       1.511  50.584 -15.213  1.00  0.00     0.007 A 
HETATM   31  C20 UNL     1       2.485  51.583 -15.156  1.00  0.00     0.001 A 
HETATM   32  C21 UNL     1       2.586  52.523 -16.181  1.00  0.00     0.000 A 
HETATM   33  C22 UNL     1       1.711  52.466 -17.265  1.00  0.00     0.001 A 
HETATM   34  C23 UNL     1       0.740  51.468 -17.325  1.00  0.00     0.007 A 
ENDBRANCH  28  29
ENDBRANCH  27  28
BRANCH  27  35
HETATM   35  N3  UNL     1      -2.478  50.777 -16.032  1.00  0.00    -0.329 N 
HETATM   36  C24 UNL     1      -2.686  50.429 -14.732  1.00  0.00     0.361 C 
HETATM   37  O5  UNL     1      -2.225  49.438 -14.188  1.00  0.00    -0.238 OA
HETATM   38  H33 UNL     1      -3.064  51.535 -16.370  1.00  0.00     0.165 HD
BRANCH  36  39
HETATM   39  O6  UNL     1      -3.469  51.362 -14.140  1.00  0.00    -0.296 OA
BRANCH  39  40
HETATM   40  C25 UNL     1      -2.798  52.252 -13.239  1.00  0.00     0.166 C 
HETATM   41  C26 UNL     1      -1.292  52.072 -13.319  1.00  0.00     0.204 C 
HETATM   42  O7  UNL     1      -0.768  52.458 -12.045  1.00  0.00    -0.358 OA
HETATM   43  C27 UNL     1      -1.833  52.404 -11.094  1.00  0.00     0.266 C 
HETATM   44  O8  UNL     1      -2.161  53.711 -10.604  1.00  0.00    -0.361 OA
HETATM   45  C30 UNL     1      -3.062  51.862 -11.793  1.00  0.00     0.075 C 
HETATM   46  C28 UNL     1      -3.564  53.938 -10.781  1.00  0.00     0.171 C 
HETATM   47  C29 UNL     1      -4.190  52.599 -11.114  1.00  0.00     0.038 C 
ENDBRANCH  39  40
ENDBRANCH  36  39
ENDBRANCH  27  35
ENDBRANCH   1  27
TORSDOF 16
ENDMDL
MODEL 4
REMARK minimizedAffinity -9.87314701
REMARK CNNscore 0.236148283
REMARK CNNaffinity 6.48029375
REMARK  16 active torsions:
REMARK  status: ('A' for Active; 'I' for Inactive)
REMARK    1  A    between atoms: C2_2  and  N1_3 
REMARK    2  A    between atoms: N1_3  and  C3_4 
REMARK    3  A    between atoms: C3_4  and  C4_5 
REMARK    4  A    between atoms: C9_11  and  S1_12 
REMARK    5  A    between atoms: S1_12  and  N2_15 
REMARK    6  A    between atoms: N2_15  and  C10_16 
REMARK    7  A    between atoms: N2_15  and  C14_20 
REMARK    8  A    between atoms: C10_16  and  C11_17 
REMARK    9  A    between atoms: C14_20  and  C15_21 
REMARK   10  A    between atoms: C15_21  and  O4_22 
REMARK   11  A    between atoms: C15_21  and  C16_23 
REMARK   12  A    between atoms: C16_23  and  C17_24 
REMARK   13  A    between atoms: C16_23  and  N3_31 
REMARK   14  A    between atoms: C17_24  and  C18_25 
REMARK       I    between atoms: N3_31  and  C24_32 
REMARK   15  A    between atoms: C24_32  and  O6_34 
REMARK   16  A    between atoms: O6_34  and  C25_35 
ROOT
HETATM    1  C15 UNL     1      -3.595  51.665 -22.711  1.00  0.00     0.155 C 
ENDROOT
BRANCH   1   2
HETATM    2  C14 UNL     1      -4.784  51.000 -23.423  1.00  0.00     0.141 C 
BRANCH   2   3
HETATM    3  N2  UNL     1      -5.535  49.891 -22.700  1.00  0.00    -0.204 NA
BRANCH   3   4
HETATM    4  S1  UNL     1      -4.877  48.315 -23.073  1.00  0.00     0.243 S 
HETATM    5  O2  UNL     1      -3.561  48.182 -22.488  1.00  0.00    -0.206 OA
HETATM    6  O3  UNL     1      -5.925  47.346 -22.824  1.00  0.00    -0.206 OA
BRANCH   4   7
HETATM    7  C9  UNL     1      -4.598  48.364 -24.837  1.00  0.00     0.075 A 
HETATM    8  C8  UNL     1      -3.294  48.550 -25.317  1.00  0.00     0.027 A 
HETATM    9  C7  UNL     1      -3.038  48.546 -26.691  1.00  0.00     0.039 A 
HETATM   10  C6  UNL     1      -4.132  48.343 -27.532  1.00  0.00     0.086 A 
HETATM   11  O1  UNL     1      -4.083  48.311 -28.891  1.00  0.00    -0.321 OA
HETATM   12  C32 UNL     1      -5.435  48.137 -27.092  1.00  0.00     0.009 A 
HETATM   13  C5  UNL     1      -5.348  48.086 -29.327  1.00  0.00     0.152 A 
HETATM   14  C4  UNL     1      -6.232  47.974 -28.269  1.00  0.00     0.005 A 
HETATM   15  C31 UNL     1      -5.677  48.130 -25.707  1.00  0.00     0.039 A 
BRANCH  14  16
HETATM   16  C3  UNL     1      -7.703  47.759 -28.354  1.00  0.00     0.311 C 
BRANCH  16  17
HETATM   17  N1  UNL     1      -8.402  48.987 -28.746  1.00  0.00     0.087 N 
HETATM   18  H6  UNL     1      -9.217  49.077 -28.137  1.00  0.00     0.316 HD
BRANCH  17  19
HETATM   19  C2  UNL     1      -8.875  48.971 -30.134  1.00  0.00     0.265 C 
HETATM   20  C1  UNL     1     -10.117  48.107 -30.280  1.00  0.00     0.037 C 
ENDBRANCH  17  19
ENDBRANCH  16  17
ENDBRANCH  14  16
ENDBRANCH   4   7
ENDBRANCH   3   4
BRANCH   3  21
HETATM   21  C10 UNL     1      -5.540  50.195 -21.217  1.00  0.00     0.111 C 
BRANCH  21  22
HETATM   22  C11 UNL     1      -6.068  49.027 -20.363  1.00  0.00    -0.009 C 
HETATM   23  C12 UNL     1      -5.202  48.727 -19.144  1.00  0.00     0.011 C 
HETATM   24  C13 UNL     1      -7.525  49.205 -19.948  1.00  0.00     0.011 C 
ENDBRANCH  21  22
ENDBRANCH   3  21
ENDBRANCH   2   3
ENDBRANCH   1   2
BRANCH   1  25
HETATM   25  O4  UNL     1      -3.744  51.623 -21.293  1.00  0.00    -0.392 OA
HETATM   26  H24 UNL     1      -2.914  51.954 -20.907  1.00  0.00     0.210 HD
ENDBRANCH   1  25
BRANCH   1  27
HETATM   27  C16 UNL     1      -2.163  51.255 -23.164  1.00  0.00     0.120 C 
BRANCH  27  28
HETATM   28  C17 UNL     1      -1.273  50.746 -22.010  1.00  0.00     0.066 C 
BRANCH  28  29
HETATM   29  C18 UNL     1      -0.393  51.805 -21.373  1.00  0.00    -0.056 A 
HETATM   30  C19 UNL     1      -0.633  52.265 -20.072  1.00  0.00     0.007 A 
HETATM   31  C20 UNL     1       0.182  53.248 -19.508  1.00  0.00     0.001 A 
HETATM   32  C21 UNL     1       1.237  53.789 -20.242  1.00  0.00     0.000 A 
HETATM   33  C22 UNL     1       1.476  53.349 -21.543  1.00  0.00     0.001 A 
HETATM   34  C23 UNL     1       0.665  52.365 -22.107  1.00  0.00     0.007 A 
ENDBRANCH  28  29
ENDBRANCH  27  28
BRANCH  27  35
HETATM   35  N3  UNL     1      -1.510  52.403 -23.821  1.00  0.00    -0.329 N 
HETATM   36  C24 UNL     1      -1.724  52.733 -25.124  1.00  0.00     0.361 C 
HETATM   37  O5  UNL     1      -2.549  52.208 -25.856  1.00  0.00    -0.238 OA
HETATM   38  H33 UNL     1      -0.680  52.817 -23.406  1.00  0.00     0.165 HD
BRANCH  36  39
HETATM   39  O6  UNL     1      -0.891  53.743 -25.472  1.00  0.00    -0.296 OA
BRANCH  39  40
HETATM   40  C25 UNL     1       0.076  53.430 -26.482  1.00  0.00     0.166 C 
HETATM   41  C26 UNL     1      -0.416  53.857 -27.855  1.00  0.00     0.204 C 
HETATM   42  O7  UNL     1       0.221  52.995 -28.801  1.00  0.00    -0.358 OA
HETATM   43  C27 UNL     1       0.669  51.829 -28.107  1.00  0.00     0.266 C 
HETATM   44  O8  UNL     1       2.101  51.753 -28.084  1.00  0.00    -0.361 OA
HETATM   45  C30 UNL     1       0.199  51.927 -26.670  1.00  0.00     0.075 C 
HETATM   46  C28 UNL     1       2.539  51.603 -26.729  1.00  0.00     0.171 C 
HETATM   47  C29 UNL     1       1.315  51.262 -25.903  1.00  0.00     0.038 C 
ENDBRANCH  39  40
ENDBRANCH  36  39
ENDBRANCH  27  35
ENDBRANCH   1  27
TORSDOF 16
ENDMDL
MODEL 5
REMARK minimizedAffinity -8.50136471
REMARK CNNscore 0.185474113
REMARK CNNaffinity 6.44743538
REMARK  16 active torsions:
REMARK  status: ('A' for Active; 'I' for Inactive)
REMARK    1  A    between atoms: C2_2  and  N1_3 
REMARK    2  A    between atoms: N1_3  and  C3_4 
REMARK    3  A    between atoms: C3_4  and  C4_5 
REMARK    4  A    between atoms: C9_11  and  S1_12 
REMARK    5  A    between atoms: S1_12  and  N2_15 
REMARK    6  A    between atoms: N2_15  and  C10_16 
REMARK    7  A    between atoms: N2_15  and  C14_20 
REMARK    8  A    between atoms: C10_16  and  C11_17 
REMARK    9  A    between atoms: C14_20  and  C15_21 
REMARK   10  A    between atoms: C15_21  and  O4_22 
REMARK   11  A    between atoms: C15_21  and  C16_23 
REMARK   12  A    between atoms: C16_23  and  C17_24 
REMARK   13  A    between atoms: C16_23  and  N3_31 
REMARK   14  A    between atoms: C17_24  and  C18_25 
REMARK       I    between atoms: N3_31  and  C24_32 
REMARK   15  A    between atoms: C24_32  and  O6_34 
REMARK   16  A    between atoms: O6_34  and  C25_35 
ROOT
HETATM    1  C15 UNL     1      -0.912  49.227 -16.489  1.00  0.00     0.155 C 
ENDROOT
BRANCH   1   2
HETATM    2  C14 UNL     1      -0.338  49.545 -17.880  1.00  0.00     0.141 C 
BRANCH   2   3
HETATM    3  N2  UNL     1      -1.307  49.744 -19.036  1.00  0.00    -0.204 NA
BRANCH   3   4
HETATM    4  S1  UNL     1      -1.656  51.436 -19.303  1.00  0.00     0.243 S 
HETATM    5  O2  UNL     1      -2.710  51.865 -18.411  1.00  0.00    -0.206 OA
HETATM    6  O3  UNL     1      -0.385  52.128 -19.371  1.00  0.00    -0.206 OA
BRANCH   4   7
HETATM    7  C9  UNL     1      -2.383  51.481 -20.935  1.00  0.00     0.075 A 
HETATM    8  C8  UNL     1      -3.719  51.095 -21.098  1.00  0.00     0.027 A 
HETATM    9  C7  UNL     1      -4.329  51.164 -22.354  1.00  0.00     0.039 A 
HETATM   10  C6  UNL     1      -3.544  51.637 -23.406  1.00  0.00     0.086 A 
HETATM   11  O1  UNL     1      -3.956  51.770 -24.695  1.00  0.00    -0.321 OA
HETATM   12  C32 UNL     1      -2.220  52.044 -23.278  1.00  0.00     0.009 A 
HETATM   13  C5  UNL     1      -2.904  52.262 -25.398  1.00  0.00     0.152 A 
HETATM   14  C4  UNL     1      -1.801  52.449 -24.585  1.00  0.00     0.005 A 
HETATM   15  C31 UNL     1      -1.624  51.983 -22.007  1.00  0.00     0.039 A 
BRANCH  14  16
HETATM   16  C3  UNL     1      -0.458  52.942 -25.002  1.00  0.00     0.311 C 
BRANCH  16  17
HETATM   17  N1  UNL     1       0.526  51.855 -25.029  1.00  0.00     0.087 N 
HETATM   18  H6  UNL     1       1.369  52.201 -24.568  1.00  0.00     0.316 HD
BRANCH  17  19
HETATM   19  C2  UNL     1       0.892  51.434 -26.384  1.00  0.00     0.265 C 
HETATM   20  C1  UNL     1       2.401  51.437 -26.570  1.00  0.00     0.037 C 
ENDBRANCH  17  19
ENDBRANCH  16  17
ENDBRANCH  14  16
ENDBRANCH   4   7
ENDBRANCH   3   4
BRANCH   3  21
HETATM   21  C10 UNL     1      -0.749  49.054 -20.263  1.00  0.00     0.111 C 
BRANCH  21  22
HETATM   22  C11 UNL     1      -1.576  47.829 -20.696  1.00  0.00    -0.009 C 
HETATM   23  C12 UNL     1      -2.734  47.516 -19.753  1.00  0.00     0.011 C 
HETATM   24  C13 UNL     1      -2.074  47.926 -22.135  1.00  0.00     0.011 C 
ENDBRANCH  21  22
ENDBRANCH   3  21
ENDBRANCH   2   3
ENDBRANCH   1   2
BRANCH   1  25
HETATM   25  O4  UNL     1      -0.602  47.894 -16.087  1.00  0.00    -0.392 OA
HETATM   26  H24 UNL     1      -0.892  47.800 -15.162  1.00  0.00     0.210 HD
ENDBRANCH   1  25
BRANCH   1  27
HETATM   27  C16 UNL     1      -0.657  50.260 -15.352  1.00  0.00     0.120 C 
BRANCH  27  28
HETATM   28  C17 UNL     1       0.751  50.155 -14.728  1.00  0.00     0.066 C 
BRANCH  28  29
HETATM   29  C18 UNL     1       1.765  51.137 -15.282  1.00  0.00    -0.056 A 
HETATM   30  C19 UNL     1       1.420  52.052 -16.286  1.00  0.00     0.007 A 
HETATM   31  C20 UNL     1       2.372  52.941 -16.788  1.00  0.00     0.001 A 
HETATM   32  C21 UNL     1       3.679  52.917 -16.303  1.00  0.00     0.000 A 
HETATM   33  C22 UNL     1       4.036  52.002 -15.315  1.00  0.00     0.001 A 
HETATM   34  C23 UNL     1       3.087  51.115 -14.809  1.00  0.00     0.007 A 
ENDBRANCH  28  29
ENDBRANCH  27  28
BRANCH  27  35
HETATM   35  N3  UNL     1      -1.677  50.090 -14.299  1.00  0.00    -0.329 N 
HETATM   36  C24 UNL     1      -2.847  50.786 -14.280  1.00  0.00     0.361 C 
HETATM   37  O5  UNL     1      -3.239  51.525 -15.169  1.00  0.00    -0.238 OA
HETATM   38  H33 UNL     1      -1.423  49.656 -13.416  1.00  0.00     0.165 HD
BRANCH  36  39
HETATM   39  O6  UNL     1      -3.509  50.512 -13.131  1.00  0.00    -0.296 OA
BRANCH  39  40
HETATM   40  C25 UNL     1      -2.929  51.051 -11.937  1.00  0.00     0.166 C 
HETATM   41  C26 UNL     1      -2.631  49.949 -10.933  1.00  0.00     0.204 C 
HETATM   42  O7  UNL     1      -2.684  50.555  -9.638  1.00  0.00    -0.358 OA
HETATM   43  C27 UNL     1      -3.423  51.773  -9.748  1.00  0.00     0.266 C 
HETATM   44  O8  UNL     1      -2.588  52.913  -9.509  1.00  0.00    -0.361 OA
HETATM   45  C30 UNL     1      -3.942  51.882 -11.167  1.00  0.00     0.075 C 
HETATM   46  C28 UNL     1      -2.707  53.819 -10.612  1.00  0.00     0.171 C 
HETATM   47  C29 UNL     1      -3.901  53.368 -11.428  1.00  0.00     0.038 C 
ENDBRANCH  39  40
ENDBRANCH  36  39
ENDBRANCH  27  35
ENDBRANCH   1  27
TORSDOF 16
ENDMDL
MODEL 6
REMARK minimizedAffinity -8.40096283
REMARK CNNscore 0.174040392
REMARK CNNaffinity 6.13406706
REMARK  16 active torsions:
REMARK  status: ('A' for Active; 'I' for Inactive)
REMARK    1  A    between atoms: C2_2  and  N1_3 
REMARK    2  A    between atoms: N1_3  and  C3_4 
REMARK    3  A    between atoms: C3_4  and  C4_5 
REMARK    4  A    between atoms: C9_11  and  S1_12 
REMARK    5  A    between atoms: S1_12  and  N2_15 
REMARK    6  A    between atoms: N2_15  and  C10_16 
REMARK    7  A    between atoms: N2_15  and  C14_20 
REMARK    8  A    between atoms: C10_16  and  C11_17 
REMARK    9  A    between atoms: C14_20  and  C15_21 
REMARK   10  A    between atoms: C15_21  and  O4_22 
REMARK   11  A    between atoms: C15_21  and  C16_23 
REMARK   12  A    between atoms: C16_23  and  C17_24 
REMARK   13  A    between atoms: C16_23  and  N3_31 
REMARK   14  A    between atoms: C17_24  and  C18_25 
REMARK       I    between atoms: N3_31  and  C24_32 
REMARK   15  A    between atoms: C24_32  and  O6_34 
REMARK   16  A    between atoms: O6_34  and  C25_35 
ROOT
HETATM    1  C15 UNL     1      -4.135  50.972 -23.768  1.00  0.00     0.155 C 
ENDROOT
BRANCH   1   2
HETATM    2  C14 UNL     1      -4.828  50.447 -22.499  1.00  0.00     0.141 C 
BRANCH   2   3
HETATM    3  N2  UNL     1      -4.936  48.942 -22.302  1.00  0.00    -0.204 NA
BRANCH   3   4
HETATM    4  S1  UNL     1      -6.206  48.251 -23.285  1.00  0.00     0.243 S 
HETATM    5  O2  UNL     1      -6.379  46.854 -22.951  1.00  0.00    -0.206 OA
HETATM    6  O3  UNL     1      -7.315  49.183 -23.265  1.00  0.00    -0.206 OA
BRANCH   4   7
HETATM    7  C9  UNL     1      -5.530  48.252 -24.938  1.00  0.00     0.075 A 
HETATM    8  C8  UNL     1      -4.144  48.362 -25.109  1.00  0.00     0.027 A 
HETATM    9  C7  UNL     1      -3.582  48.320 -26.389  1.00  0.00     0.039 A 
HETATM   10  C6  UNL     1      -4.465  48.157 -27.456  1.00  0.00     0.086 A 
HETATM   11  O1  UNL     1      -4.110  48.098 -28.768  1.00  0.00    -0.321 OA
HETATM   12  C32 UNL     1      -5.843  48.028 -27.323  1.00  0.00     0.009 A 
HETATM   13  C5  UNL     1      -5.253  47.931 -29.479  1.00  0.00     0.152 A 
HETATM   14  C4  UNL     1      -6.359  47.885 -28.650  1.00  0.00     0.005 A 
HETATM   15  C31 UNL     1      -6.395  48.058 -26.030  1.00  0.00     0.039 A 
BRANCH  14  16
HETATM   16  C3  UNL     1      -7.782  47.744 -29.068  1.00  0.00     0.311 C 
BRANCH  16  17
HETATM   17  N1  UNL     1      -8.233  48.910 -29.834  1.00  0.00     0.087 N 
HETATM   18  H6  UNL     1      -8.736  49.520 -29.187  1.00  0.00     0.316 HD
BRANCH  17  19
HETATM   19  C2  UNL     1      -9.142  48.569 -30.933  1.00  0.00     0.265 C 
HETATM   20  C1  UNL     1      -8.374  48.307 -32.218  1.00  0.00     0.037 C 
ENDBRANCH  17  19
ENDBRANCH  16  17
ENDBRANCH  14  16
ENDBRANCH   4   7
ENDBRANCH   3   4
BRANCH   3  21
HETATM   21  C10 UNL     1      -3.581  48.319 -22.563  1.00  0.00     0.111 C 
BRANCH  21  22
HETATM   22  C11 UNL     1      -2.960  47.677 -21.308  1.00  0.00    -0.009 C 
HETATM   23  C12 UNL     1      -3.591  46.338 -20.937  1.00  0.00     0.011 C 
HETATM   24  C13 UNL     1      -1.443  47.543 -21.397  1.00  0.00     0.011 C 
ENDBRANCH  21  22
ENDBRANCH   3  21
ENDBRANCH   2   3
ENDBRANCH   1   2
BRANCH   1  25
HETATM   25  O4  UNL     1      -5.008  51.797 -24.537  1.00  0.00    -0.392 OA
HETATM   26  H24 UNL     1      -4.477  52.184 -25.256  1.00  0.00     0.210 HD
ENDBRANCH   1  25
BRANCH   1  27
HETATM   27  C16 UNL     1      -2.720  51.601 -23.608  1.00  0.00     0.120 C 
BRANCH  27  28
HETATM   28  C17 UNL     1      -1.579  50.687 -24.104  1.00  0.00     0.066 C 
BRANCH  28  29
HETATM   29  C18 UNL     1      -0.834  51.204 -25.319  1.00  0.00    -0.056 A 
HETATM   30  C19 UNL     1      -1.342  51.030 -26.613  1.00  0.00     0.007 A 
HETATM   31  C20 UNL     1      -0.634  51.505 -27.719  1.00  0.00     0.001 A 
HETATM   32  C21 UNL     1       0.590  52.147 -27.544  1.00  0.00     0.000 A 
HETATM   33  C22 UNL     1       1.111  52.314 -26.263  1.00  0.00     0.001 A 
HETATM   34  C23 UNL     1       0.406  51.843 -25.157  1.00  0.00     0.007 A 
ENDBRANCH  28  29
ENDBRANCH  27  28
BRANCH  27  35
HETATM   35  N3  UNL     1      -2.495  51.946 -22.191  1.00  0.00    -0.329 N 
HETATM   36  C24 UNL     1      -1.462  51.445 -21.460  1.00  0.00     0.361 C 
HETATM   37  O5  UNL     1      -0.551  50.765 -21.904  1.00  0.00    -0.238 OA
HETATM   38  H33 UNL     1      -3.251  52.348 -21.644  1.00  0.00     0.165 HD
BRANCH  36  39
HETATM   39  O6  UNL     1      -1.597  51.838 -20.171  1.00  0.00    -0.296 OA
BRANCH  39  40
HETATM   40  C25 UNL     1      -1.833  50.788 -19.224  1.00  0.00     0.166 C 
HETATM   41  C26 UNL     1      -3.321  50.609 -18.972  1.00  0.00     0.204 C 
HETATM   42  O7  UNL     1      -3.447  50.073 -17.652  1.00  0.00    -0.358 OA
HETATM   43  C27 UNL     1      -2.237  50.348 -16.944  1.00  0.00     0.266 C 
HETATM   44  O8  UNL     1      -1.524  49.141 -16.642  1.00  0.00    -0.361 OA
HETATM   45  C30 UNL     1      -1.347  51.186 -17.839  1.00  0.00     0.075 C 
HETATM   46  C28 UNL     1      -0.182  49.257 -17.127  1.00  0.00     0.171 C 
HETATM   47  C29 UNL     1       0.039  50.715 -17.474  1.00  0.00     0.038 C 
ENDBRANCH  39  40
ENDBRANCH  36  39
ENDBRANCH  27  35
ENDBRANCH   1  27
TORSDOF 16
ENDMDL
MODEL 7
REMARK minimizedAffinity -9.15845871
REMARK CNNscore 0.171392292
REMARK CNNaffinity 5.97123575
REMARK  16 active torsions:
REMARK  status: ('A' for Active; 'I' for Inactive)
REMARK    1  A    between atoms: C2_2  and  N1_3 
REMARK    2  A    between atoms: N1_3  and  C3_4 
REMARK    3  A    between atoms: C3_4  and  C4_5 
REMARK    4  A    between atoms: C9_11  and  S1_12 
REMARK    5  A    between atoms: S1_12  and  N2_15 
REMARK    6  A    between atoms: N2_15  and  C10_16 
REMARK    7  A    between atoms: N2_15  and  C14_20 
REMARK    8  A    between atoms: C10_16  and  C11_17 
REMARK    9  A    between atoms: C14_20  and  C15_21 
REMARK   10  A    between atoms: C15_21  and  O4_22 
REMARK   11  A    between atoms: C15_21  and  C16_23 
REMARK   12  A    between atoms: C16_23  and  C17_24 
REMARK   13  A    between atoms: C16_23  and  N3_31 
REMARK   14  A    between atoms: C17_24  and  C18_25 
REMARK       I    between atoms: N3_31  and  C24_32 
REMARK   15  A    between atoms: C24_32  and  O6_34 
REMARK   16  A    between atoms: O6_34  and  C25_35 
ROOT
HETATM    1  C15 UNL     1      -2.795  50.373 -22.507  1.00  0.00     0.155 C 
ENDROOT
BRANCH   1   2
HETATM    2  C14 UNL     1      -2.470  51.521 -21.536  1.00  0.00     0.141 C 
BRANCH   2   3
HETATM    3  N2  UNL     1      -1.280  51.364 -20.601  1.00  0.00    -0.204 NA
BRANCH   3   4
HETATM    4  S1  UNL     1      -1.341  49.853 -19.724  1.00  0.00     0.243 S 
HETATM    5  O2  UNL     1      -2.696  49.592 -19.293  1.00  0.00    -0.206 OA
HETATM    6  O3  UNL     1      -0.583  48.884 -20.490  1.00  0.00    -0.206 OA
BRANCH   4   7
HETATM    7  C9  UNL     1      -0.432  50.182 -18.222  1.00  0.00     0.075 A 
HETATM    8  C8  UNL     1       0.045  51.477 -17.982  1.00  0.00     0.027 A 
HETATM    9  C7  UNL     1       0.720  51.776 -16.794  1.00  0.00     0.039 A 
HETATM   10  C6  UNL     1       0.877  50.731 -15.884  1.00  0.00     0.086 A 
HETATM   11  O1  UNL     1       1.507  50.824 -14.682  1.00  0.00    -0.321 OA
HETATM   12  C32 UNL     1       0.403  49.438 -16.080  1.00  0.00     0.009 A 
HETATM   13  C5  UNL     1       1.440  49.598 -14.104  1.00  0.00     0.152 A 
HETATM   14  C4  UNL     1       0.776  48.696 -14.915  1.00  0.00     0.005 A 
HETATM   15  C31 UNL     1      -0.286  49.155 -17.272  1.00  0.00     0.039 A 
BRANCH  14  16
HETATM   16  C3  UNL     1       0.535  47.253 -14.634  1.00  0.00     0.311 C 
BRANCH  16  17
HETATM   17  N1  UNL     1       1.714  46.441 -14.954  1.00  0.00     0.087 N 
HETATM   18  H6  UNL     1       1.377  45.521 -15.243  1.00  0.00     0.316 HD
BRANCH  17  19
HETATM   19  C2  UNL     1       2.618  46.254 -13.815  1.00  0.00     0.265 C 
HETATM   20  C1  UNL     1       3.159  44.834 -13.773  1.00  0.00     0.037 C 
ENDBRANCH  17  19
ENDBRANCH  16  17
ENDBRANCH  14  16
ENDBRANCH   4   7
ENDBRANCH   3   4
BRANCH   3  21
HETATM   21  C10 UNL     1      -0.006  51.532 -21.403  1.00  0.00     0.111 C 
BRANCH  21  22
HETATM   22  C11 UNL     1       0.421  53.003 -21.558  1.00  0.00    -0.009 C 
HETATM   23  C12 UNL     1       1.351  53.484 -20.449  1.00  0.00     0.011 C 
HETATM   24  C13 UNL     1       1.024  53.307 -22.926  1.00  0.00     0.011 C 
ENDBRANCH  21  22
ENDBRANCH   3  21
ENDBRANCH   2   3
ENDBRANCH   1   2
BRANCH   1  25
HETATM   25  O4  UNL     1      -3.945  49.642 -22.086  1.00  0.00    -0.392 OA
HETATM   26  H24 UNL     1      -4.160  49.012 -22.797  1.00  0.00     0.210 HD
ENDBRANCH   1  25
BRANCH   1  27
HETATM   27  C16 UNL     1      -2.833  50.706 -24.028  1.00  0.00     0.120 C 
BRANCH  27  28
HETATM   28  C17 UNL     1      -2.401  49.529 -24.928  1.00  0.00     0.066 C 
BRANCH  28  29
HETATM   29  C18 UNL     1      -3.498  48.971 -25.813  1.00  0.00    -0.056 A 
HETATM   30  C19 UNL     1      -4.721  48.547 -25.278  1.00  0.00     0.007 A 
HETATM   31  C20 UNL     1      -5.714  48.026 -26.110  1.00  0.00     0.001 A 
HETATM   32  C21 UNL     1      -5.491  47.914 -27.481  1.00  0.00     0.000 A 
HETATM   33  C22 UNL     1      -4.273  48.320 -28.023  1.00  0.00     0.001 A 
HETATM   34  C23 UNL     1      -3.281  48.843 -27.194  1.00  0.00     0.007 A 
ENDBRANCH  28  29
ENDBRANCH  27  28
BRANCH  27  35
HETATM   35  N3  UNL     1      -1.972  51.874 -24.295  1.00  0.00    -0.329 N 
HETATM   36  C24 UNL     1      -2.127  52.679 -25.381  1.00  0.00     0.361 C 
HETATM   37  O5  UNL     1      -3.046  52.609 -26.182  1.00  0.00    -0.238 OA
HETATM   38  H33 UNL     1      -1.073  51.955 -23.828  1.00  0.00     0.165 HD
BRANCH  36  39
HETATM   39  O6  UNL     1      -1.114  53.577 -25.420  1.00  0.00    -0.296 OA
BRANCH  39  40
HETATM   40  C25 UNL     1      -0.116  53.343 -26.420  1.00  0.00     0.166 C 
HETATM   41  C26 UNL     1      -0.560  53.885 -27.768  1.00  0.00     0.204 C 
HETATM   42  O7  UNL     1       0.105  53.100 -28.762  1.00  0.00    -0.358 OA
HETATM   43  C27 UNL     1       0.525  51.878 -28.153  1.00  0.00     0.266 C 
HETATM   44  O8  UNL     1       1.954  51.791 -28.089  1.00  0.00    -0.361 OA
HETATM   45  C30 UNL     1       0.008  51.859 -26.729  1.00  0.00     0.075 C 
HETATM   46  C28 UNL     1       2.347  51.525 -26.737  1.00  0.00     0.171 C 
HETATM   47  C29 UNL     1       1.095  51.125 -25.983  1.00  0.00     0.038 C 
ENDBRANCH  39  40
ENDBRANCH  36  39
ENDBRANCH  27  35
ENDBRANCH   1  27
TORSDOF 16
ENDMDL
MODEL 8
REMARK minimizedAffinity -9.1631546
REMARK CNNscore 0.141489998
REMARK CNNaffinity 6.27746582
REMARK  16 active torsions:
REMARK  status: ('A' for Active; 'I' for Inactive)
REMARK    1  A    between atoms: C2_2  and  N1_3 
REMARK    2  A    between atoms: N1_3  and  C3_4 
REMARK    3  A    between atoms: C3_4  and  C4_5 
REMARK    4  A    between atoms: C9_11  and  S1_12 
REMARK    5  A    between atoms: S1_12  and  N2_15 
REMARK    6  A    between atoms: N2_15  and  C10_16 
REMARK    7  A    between atoms: N2_15  and  C14_20 
REMARK    8  A    between atoms: C10_16  and  C11_17 
REMARK    9  A    between atoms: C14_20  and  C15_21 
REMARK   10  A    between atoms: C15_21  and  O4_22 
REMARK   11  A    between atoms: C15_21  and  C16_23 
REMARK   12  A    between atoms: C16_23  and  C17_24 
REMARK   13  A    between atoms: C16_23  and  N3_31 
REMARK   14  A    between atoms: C17_24  and  C18_25 
REMARK       I    between atoms: N3_31  and  C24_32 
REMARK   15  A    between atoms: C24_32  and  O6_34 
REMARK   16  A    between atoms: O6_34  and  C25_35 
ROOT
HETATM    1  C15 UNL     1      -4.455  50.921 -23.330  1.00  0.00     0.155 C 
ENDROOT
BRANCH   1   2
HETATM    2  C14 UNL     1      -3.600  51.164 -22.074  1.00  0.00     0.141 C 
BRANCH   2   3
HETATM    3  N2  UNL     1      -3.144  49.960 -21.263  1.00  0.00    -0.204 NA
BRANCH   3   4
HETATM    4  S1  UNL     1      -1.433  49.660 -21.457  1.00  0.00     0.243 S 
HETATM    5  O2  UNL     1      -1.151  48.262 -21.223  1.00  0.00    -0.206 OA
HETATM    6  O3  UNL     1      -1.018  50.330 -22.674  1.00  0.00    -0.206 OA
BRANCH   4   7
HETATM    7  C9  UNL     1      -0.680  50.522 -20.085  1.00  0.00     0.075 A 
HETATM    8  C8  UNL     1      -0.173  51.812 -20.285  1.00  0.00     0.027 A 
HETATM    9  C7  UNL     1       0.381  52.529 -19.220  1.00  0.00     0.039 A 
HETATM   10  C6  UNL     1       0.389  51.897 -17.977  1.00  0.00     0.086 A 
HETATM   11  O1  UNL     1       0.887  52.429 -16.828  1.00  0.00    -0.321 OA
HETATM   12  C32 UNL     1      -0.120  50.625 -17.737  1.00  0.00     0.009 A 
HETATM   13  C5  UNL     1       0.700  51.506 -15.851  1.00  0.00     0.152 A 
HETATM   14  C4  UNL     1       0.089  50.368 -16.345  1.00  0.00     0.005 A 
HETATM   15  C31 UNL     1      -0.687  49.921 -18.814  1.00  0.00     0.039 A 
BRANCH  14  16
HETATM   16  C3  UNL     1      -0.248  49.134 -15.583  1.00  0.00     0.311 C 
BRANCH  16  17
HETATM   17  N1  UNL     1       0.711  48.059 -15.855  1.00  0.00     0.087 N 
HETATM   18  H6  UNL     1       0.215  47.339 -16.385  1.00  0.00     0.316 HD
BRANCH  17  19
HETATM   19  C2  UNL     1       1.248  47.436 -14.641  1.00  0.00     0.265 C 
HETATM   20  C1  UNL     1       1.816  48.482 -13.695  1.00  0.00     0.037 C 
ENDBRANCH  17  19
ENDBRANCH  16  17
ENDBRANCH  14  16
ENDBRANCH   4   7
ENDBRANCH   3   4
BRANCH   3  21
HETATM   21  C10 UNL     1      -3.549  50.164 -19.819  1.00  0.00     0.111 C 
BRANCH  21  22
HETATM   22  C11 UNL     1      -4.449  49.037 -19.278  1.00  0.00    -0.009 C 
HETATM   23  C12 UNL     1      -4.289  48.801 -17.780  1.00  0.00     0.011 C 
HETATM   24  C13 UNL     1      -5.920  49.228 -19.632  1.00  0.00     0.011 C 
ENDBRANCH  21  22
ENDBRANCH   3  21
ENDBRANCH   2   3
ENDBRANCH   1   2
BRANCH   1  25
HETATM   25  O4  UNL     1      -5.619  51.744 -23.338  1.00  0.00    -0.392 OA
HETATM   26  H24 UNL     1      -6.048  51.624 -24.204  1.00  0.00     0.210 HD
ENDBRANCH   1  25
BRANCH   1  27
HETATM   27  C16 UNL     1      -3.726  50.918 -24.707  1.00  0.00     0.120 C 
BRANCH  27  28
HETATM   28  C17 UNL     1      -3.265  49.516 -25.158  1.00  0.00     0.066 C 
BRANCH  28  29
HETATM   29  C18 UNL     1      -4.181  48.839 -26.159  1.00  0.00    -0.056 A 
HETATM   30  C19 UNL     1      -3.862  48.789 -27.522  1.00  0.00     0.007 A 
HETATM   31  C20 UNL     1      -4.724  48.170 -28.428  1.00  0.00     0.001 A 
HETATM   32  C21 UNL     1      -5.919  47.605 -27.984  1.00  0.00     0.000 A 
HETATM   33  C22 UNL     1      -6.254  47.661 -26.632  1.00  0.00     0.001 A 
HETATM   34  C23 UNL     1      -5.393  48.277 -25.725  1.00  0.00     0.007 A 
ENDBRANCH  28  29
ENDBRANCH  27  28
BRANCH  27  35
HETATM   35  N3  UNL     1      -2.563  51.824 -24.646  1.00  0.00    -0.329 N 
HETATM   36  C24 UNL     1      -2.225  52.667 -25.660  1.00  0.00     0.361 C 
HETATM   37  O5  UNL     1      -2.891  52.860 -26.665  1.00  0.00    -0.238 OA
HETATM   38  H33 UNL     1      -1.826  51.655 -23.967  1.00  0.00     0.165 HD
BRANCH  36  39
HETATM   39  O6  UNL     1      -1.047  53.268 -25.367  1.00  0.00    -0.296 OA
BRANCH  39  40
HETATM   40  C25 UNL     1      -0.025  53.148 -26.363  1.00  0.00     0.166 C 
HETATM   41  C26 UNL     1      -0.472  53.766 -27.677  1.00  0.00     0.204 C 
HETATM   42  O7  UNL     1       0.241  53.082 -28.712  1.00  0.00    -0.358 OA
HETATM   43  C27 UNL     1       0.704  51.838 -28.183  1.00  0.00     0.266 C 
HETATM   44  O8  UNL     1       2.135  51.808 -28.100  1.00  0.00    -0.361 OA
HETATM   45  C30 UNL     1       0.167  51.697 -26.773  1.00  0.00     0.075 C 
HETATM   46  C28 UNL     1       2.519  51.463 -26.764  1.00  0.00     0.171 C 
HETATM   47  C29 UNL     1       1.275  50.958 -26.063  1.00  0.00     0.038 C 
ENDBRANCH  39  40
ENDBRANCH  36  39
ENDBRANCH  27  35
ENDBRANCH   1  27
TORSDOF 16
ENDMDL
MODEL 9
REMARK minimizedAffinity -8.33004475
REMARK CNNscore 0.139144063
REMARK CNNaffinity 5.86439133
REMARK  16 active torsions:
REMARK  status: ('A' for Active; 'I' for Inactive)
REMARK    1  A    between atoms: C2_2  and  N1_3 
REMARK    2  A    between atoms: N1_3  and  C3_4 
REMARK    3  A    between atoms: C3_4  and  C4_5 
REMARK    4  A    between atoms: C9_11  and  S1_12 
REMARK    5  A    between atoms: S1_12  and  N2_15 
REMARK    6  A    between atoms: N2_15  and  C10_16 
REMARK    7  A    between atoms: N2_15  and  C14_20 
REMARK    8  A    between atoms: C10_16  and  C11_17 
REMARK    9  A    between atoms: C14_20  and  C15_21 
REMARK   10  A    between atoms: C15_21  and  O4_22 
REMARK   11  A    between atoms: C15_21  and  C16_23 
REMARK   12  A    between atoms: C16_23  and  C17_24 
REMARK   13  A    between atoms: C16_23  and  N3_31 
REMARK   14  A    between atoms: C17_24  and  C18_25 
REMARK       I    between atoms: N3_31  and  C24_32 
REMARK   15  A    between atoms: C24_32  and  O6_34 
REMARK   16  A    between atoms: O6_34  and  C25_35 
ROOT
HETATM    1  C15 UNL     1      -6.068  50.083 -23.343  1.00  0.00     0.155 C 
ENDROOT
BRANCH   1   2
HETATM    2  C14 UNL     1      -5.080  48.956 -23.691  1.00  0.00     0.141 C 
BRANCH   2   3
HETATM    3  N2  UNL     1      -3.607  49.307 -23.848  1.00  0.00    -0.204 NA
BRANCH   3   4
HETATM    4  S1  UNL     1      -2.743  49.157 -22.336  1.00  0.00     0.243 S 
HETATM    5  O2  UNL     1      -3.627  49.463 -21.233  1.00  0.00    -0.206 OA
HETATM    6  O3  UNL     1      -1.996  47.916 -22.393  1.00  0.00    -0.206 OA
BRANCH   4   7
HETATM    7  C9  UNL     1      -1.563  50.498 -22.371  1.00  0.00     0.075 A 
HETATM    8  C8  UNL     1      -1.154  51.014 -23.607  1.00  0.00     0.027 A 
HETATM    9  C7  UNL     1      -0.267  52.094 -23.665  1.00  0.00     0.039 A 
HETATM   10  C6  UNL     1       0.166  52.615 -22.447  1.00  0.00     0.086 A 
HETATM   11  O1  UNL     1       1.029  53.656 -22.299  1.00  0.00    -0.321 OA
HETATM   12  C32 UNL     1      -0.231  52.140 -21.202  1.00  0.00     0.009 A 
HETATM   13  C5  UNL     1       1.188  53.853 -20.966  1.00  0.00     0.152 A 
HETATM   14  C4  UNL     1       0.443  52.948 -20.232  1.00  0.00     0.005 A 
HETATM   15  C31 UNL     1      -1.134  51.063 -21.157  1.00  0.00     0.039 A 
BRANCH  14  16
HETATM   16  C3  UNL     1       0.386  52.834 -18.749  1.00  0.00     0.311 C 
BRANCH  16  17
HETATM   17  N1  UNL     1       1.717  52.984 -18.150  1.00  0.00     0.087 N 
HETATM   18  H6  UNL     1       2.359  52.405 -18.693  1.00  0.00     0.316 HD
BRANCH  17  19
HETATM   19  C2  UNL     1       1.780  52.540 -16.753  1.00  0.00     0.265 C 
HETATM   20  C1  UNL     1       3.206  52.583 -16.229  1.00  0.00     0.037 C 
ENDBRANCH  17  19
ENDBRANCH  16  17
ENDBRANCH  14  16
ENDBRANCH   4   7
ENDBRANCH   3   4
BRANCH   3  21
HETATM   21  C10 UNL     1      -3.019  48.455 -24.952  1.00  0.00     0.111 C 
BRANCH  21  22
HETATM   22  C11 UNL     1      -3.067  49.137 -26.332  1.00  0.00    -0.009 C 
HETATM   23  C12 UNL     1      -4.045  48.479 -27.300  1.00  0.00     0.011 C 
HETATM   24  C13 UNL     1      -3.334  50.637 -26.246  1.00  0.00     0.011 C 
ENDBRANCH  21  22
ENDBRANCH   3  21
ENDBRANCH   2   3
ENDBRANCH   1   2
BRANCH   1  25
HETATM   25  O4  UNL     1      -5.973  51.166 -24.266  1.00  0.00    -0.392 OA
HETATM   26  H24 UNL     1      -6.696  51.784 -24.058  1.00  0.00     0.210 HD
ENDBRANCH   1  25
BRANCH   1  27
HETATM   27  C16 UNL     1      -7.545  49.681 -23.056  1.00  0.00     0.120 C 
BRANCH  27  28
HETATM   28  C17 UNL     1      -7.685  48.337 -22.313  1.00  0.00     0.066 C 
BRANCH  28  29
HETATM   29  C18 UNL     1      -8.273  48.441 -20.919  1.00  0.00    -0.056 A 
HETATM   30  C19 UNL     1      -7.618  49.150 -19.903  1.00  0.00     0.007 A 
HETATM   31  C20 UNL     1      -8.171  49.225 -18.624  1.00  0.00     0.001 A 
HETATM   32  C21 UNL     1      -9.376  48.583 -18.343  1.00  0.00     0.000 A 
HETATM   33  C22 UNL     1     -10.029  47.863 -19.341  1.00  0.00     0.001 A 
HETATM   34  C23 UNL     1      -9.480  47.789 -20.621  1.00  0.00     0.007 A 
ENDBRANCH  28  29
ENDBRANCH  27  28
BRANCH  27  35
HETATM   35  N3  UNL     1      -8.292  49.623 -24.328  1.00  0.00    -0.329 N 
HETATM   36  C24 UNL     1      -8.416  48.485 -25.064  1.00  0.00     0.361 C 
HETATM   37  O5  UNL     1      -8.040  47.377 -24.714  1.00  0.00    -0.238 OA
HETATM   38  H33 UNL     1      -8.504  50.481 -24.829  1.00  0.00     0.165 HD
BRANCH  36  39
HETATM   39  O6  UNL     1      -9.038  48.774 -26.231  1.00  0.00    -0.296 OA
BRANCH  39  40
HETATM   40  C25 UNL     1      -9.031  47.732 -27.213  1.00  0.00     0.166 C 
HETATM   41  C26 UNL     1      -7.996  48.008 -28.291  1.00  0.00     0.204 C 
HETATM   42  O7  UNL     1      -8.459  47.355 -29.477  1.00  0.00    -0.358 OA
HETATM   43  C27 UNL     1      -9.861  47.118 -29.333  1.00  0.00     0.266 C 
HETATM   44  O8  UNL     1     -10.147  45.715 -29.255  1.00  0.00    -0.361 OA
HETATM   45  C30 UNL     1     -10.314  47.744 -28.030  1.00  0.00     0.075 C 
HETATM   46  C28 UNL     1     -10.919  45.460 -28.077  1.00  0.00     0.171 C 
HETATM   47  C29 UNL     1     -11.395  46.802 -27.560  1.00  0.00     0.038 C 
ENDBRANCH  39  40
ENDBRANCH  36  39
ENDBRANCH  27  35
ENDBRANCH   1  27
TORSDOF 16
ENDMDL
