MODEL 1
REMARK minimizedAffinity -9.04354763
REMARK CNNscore 0.444198877
REMARK CNNaffinity 6.34050131
REMARK  18 active torsions:
REMARK  status: ('A' for Active; 'I' for Inactive)
REMARK    1  A    between atoms: C2_2  and  C4_4 
REMARK    2  A    between atoms: C4_4  and  N1_5 
REMARK    3  A    between atoms: C4_4  and  C30_38 
REMARK       I    between atoms: N1_5  and  C5_6 
REMARK    4  A    between atoms: C5_6  and  C6_8 
REMARK    5  A    between atoms: C6_8  and  C7_9 
REMARK    6  A    between atoms: C7_9  and  C8_10 
REMARK    7  A    between atoms: C8_10  and  O3_12 
REMARK    8  A    between atoms: O3_12  and  C9_13 
REMARK    9  A    between atoms: C9_13  and  C10_14 
REMARK   10  A    between atoms: C10_14  and  C11_16 
REMARK   11  A    between atoms: C11_16  and  O5_17 
REMARK   12  A    between atoms: C26_33  and  O7_34 
REMARK       I    between atoms: C30_38  and  N2_40 
REMARK   13  A    between atoms: N2_40  and  C31_41 
REMARK   14  A    between atoms: C31_41  and  C32_42 
REMARK   15  A    between atoms: C32_42  and  C33_43 
REMARK   16  A    between atoms: C32_42  and  C35_47 
REMARK   17  A    between atoms: C33_43  and  C34_44 
REMARK   18  A    between atoms: C34_44  and  O10_46 
ROOT
HETATM    1  C8  UNL     1      -8.348  48.437 -19.709  1.00  0.00     0.259 C 
HETATM    2  O2  UNL     1      -7.404  48.568 -18.942  1.00  0.00    -0.265 OA
ENDROOT
BRANCH   1   3
HETATM    3  C7  UNL     1      -9.779  48.315 -19.269  1.00  0.00     0.120 C 
BRANCH   3   4
HETATM    4  C6  UNL     1     -10.454  47.220 -20.081  1.00  0.00     0.112 C 
BRANCH   4   5
HETATM    5  C5  UNL     1     -11.960  47.337 -20.037  1.00  0.00     0.218 C 
HETATM    6  N1  UNL     1     -12.592  46.116 -20.072  1.00  0.00    -0.347 N 
HETATM    7  H9  UNL     1     -12.056  45.296 -19.808  1.00  0.00     0.163 HD
HETATM    8  O1  UNL     1     -12.565  48.402 -19.943  1.00  0.00    -0.274 OA
BRANCH   6   9
HETATM    9  C4  UNL     1     -14.055  45.998 -20.019  1.00  0.00     0.179 C 
BRANCH   9  10
HETATM   10  C2  UNL     1     -14.609  46.524 -18.673  1.00  0.00     0.009 C 
HETATM   11  C1  UNL     1     -13.498  46.620 -17.616  1.00  0.00     0.012 C 
HETATM   12  C3  UNL     1     -15.263  47.903 -18.824  1.00  0.00     0.012 C 
ENDBRANCH   9  10
BRANCH   9  13
HETATM   13  C30 UNL     1     -14.629  46.765 -21.241  1.00  0.00     0.240 C 
HETATM   14  O8  UNL     1     -14.205  47.854 -21.618  1.00  0.00    -0.271 OA
HETATM   15  N2  UNL     1     -15.671  46.104 -21.865  1.00  0.00    -0.359 N 
HETATM   16  H43 UNL     1     -15.937  45.192 -21.502  1.00  0.00     0.162 HD
BRANCH  15  17
HETATM   17  C31 UNL     1     -16.394  46.668 -22.991  1.00  0.00     0.132 C 
BRANCH  17  18
HETATM   18  C32 UNL     1     -17.917  46.428 -22.943  1.00  0.00     0.046 C 
BRANCH  18  19
HETATM   19  C33 UNL     1     -18.353  45.452 -24.051  1.00  0.00     0.120 C 
BRANCH  19  20
HETATM   20  C34 UNL     1     -19.310  46.083 -25.025  1.00  0.00     0.140 C 
HETATM   21  O9  UNL     1     -19.944  45.504 -25.891  1.00  0.00    -0.650 OA
BRANCH  20  22
HETATM   22  O10 UNL     1     -19.351  47.426 -24.922  1.00  0.00    -0.776 OA
HETATM   23  H49 UNL     1     -19.945  47.710 -25.648  1.00  0.00     0.167 HD
ENDBRANCH  20  22
ENDBRANCH  19  20
ENDBRANCH  18  19
BRANCH  18  24
HETATM   24  C35 UNL     1     -18.381  46.065 -21.535  1.00  0.00    -0.052 A 
HETATM   25  C36 UNL     1     -18.839  44.759 -21.288  1.00  0.00     0.007 A 
HETATM   26  C37 UNL     1     -19.307  44.388 -20.026  1.00  0.00     0.001 A 
HETATM   27  C38 UNL     1     -19.326  45.318 -18.990  1.00  0.00     0.000 A 
HETATM   28  C39 UNL     1     -18.884  46.617 -19.218  1.00  0.00     0.001 A 
HETATM   29  C40 UNL     1     -18.418  46.991 -20.480  1.00  0.00     0.007 A 
ENDBRANCH  18  24
ENDBRANCH  17  18
ENDBRANCH  15  17
ENDBRANCH   9  13
ENDBRANCH   6   9
ENDBRANCH   4   5
ENDBRANCH   3   4
ENDBRANCH   1   3
BRANCH   1  30
HETATM   30  O3  UNL     1      -8.273  48.457 -21.066  1.00  0.00    -0.314 OA
BRANCH  30  31
HETATM   31  C9  UNL     1      -6.979  48.194 -21.635  1.00  0.00     0.260 C 
BRANCH  31  32
HETATM   32  C10 UNL     1      -6.720  49.183 -22.763  1.00  0.00     0.185 C 
HETATM   33  O4  UNL     1      -7.429  49.191 -23.782  1.00  0.00    -0.292 OA
BRANCH  32  34
HETATM   34  C11 UNL     1      -5.541  50.183 -22.674  1.00  0.00     0.128 C 
HETATM   35  C12 UNL     1      -4.917  50.378 -21.272  1.00  0.00     0.047 C 
HETATM   36  C13 UNL     1      -3.443  50.785 -21.511  1.00  0.00     0.009 C 
HETATM   37  C14 UNL     1      -3.344  50.993 -23.023  1.00  0.00     0.002 C 
HETATM   38  C15 UNL     1      -1.961  51.012 -23.693  1.00  0.00    -0.002 C 
HETATM   39  C28 UNL     1      -4.311  49.932 -23.601  1.00  0.00     0.001 C 
HETATM   40  C16 UNL     1      -1.045  52.048 -23.005  1.00  0.00     0.010 C 
HETATM   41  C25 UNL     1      -2.156  51.331 -25.220  1.00  0.00     0.031 C 
HETATM   42  C17 UNL     1       0.262  52.298 -23.758  1.00  0.00     0.035 C 
HETATM   43  C18 UNL     1      -0.048  52.608 -25.202  1.00  0.00    -0.068 C 
HETATM   44  C19 UNL     1       0.198  53.838 -25.693  1.00  0.00     0.053 C 
HETATM   45  C23 UNL     1      -0.786  51.508 -25.976  1.00  0.00    -0.014 C 
HETATM   46  C20 UNL     1      -0.364  54.270 -26.993  1.00  0.00     0.149 C 
HETATM   47  O6  UNL     1      -0.073  55.375 -27.440  1.00  0.00    -0.293 OA
HETATM   48  C21 UNL     1      -1.369  53.367 -27.662  1.00  0.00     0.084 C 
HETATM   49  C22 UNL     1      -0.952  51.920 -27.469  1.00  0.00     0.022 C 
HETATM   50  C24 UNL     1       0.077  50.219 -25.998  1.00  0.00     0.020 C 
HETATM   51  C26 UNL     1      -3.200  50.392 -25.892  1.00  0.00     0.124 C 
HETATM   52  C27 UNL     1      -4.516  50.259 -25.095  1.00  0.00     0.045 C 
HETATM   53  C29 UNL     1      -3.785  48.486 -23.421  1.00  0.00     0.019 C 
BRANCH  34  54
HETATM   54  O5  UNL     1      -6.114  51.470 -23.011  1.00  0.00    -0.381 OA
HETATM   55  H16 UNL     1      -6.910  51.293 -23.556  1.00  0.00     0.211 HD
ENDBRANCH  34  54
BRANCH  51  56
HETATM   56  O7  UNL     1      -2.694  49.096 -26.176  1.00  0.00    -0.395 OA
HETATM   57  H37 UNL     1      -2.036  48.853 -25.509  1.00  0.00     0.210 HD
ENDBRANCH  51  56
ENDBRANCH  32  34
ENDBRANCH  31  32
ENDBRANCH  30  31
ENDBRANCH   1  30
TORSDOF 18
ENDMDL
MODEL 2
REMARK minimizedAffinity -8.6909008
REMARK CNNscore 0.34002775
REMARK CNNaffinity 7.08468771
REMARK  18 active torsions:
REMARK  status: ('A' for Active; 'I' for Inactive)
REMARK    1  A    between atoms: C2_2  and  C4_4 
REMARK    2  A    between atoms: C4_4  and  N1_5 
REMARK    3  A    between atoms: C4_4  and  C30_38 
REMARK       I    between atoms: N1_5  and  C5_6 
REMARK    4  A    between atoms: C5_6  and  C6_8 
REMARK    5  A    between atoms: C6_8  and  C7_9 
REMARK    6  A    between atoms: C7_9  and  C8_10 
REMARK    7  A    between atoms: C8_10  and  O3_12 
REMARK    8  A    between atoms: O3_12  and  C9_13 
REMARK    9  A    between atoms: C9_13  and  C10_14 
REMARK   10  A    between atoms: C10_14  and  C11_16 
REMARK   11  A    between atoms: C11_16  and  O5_17 
REMARK   12  A    between atoms: C26_33  and  O7_34 
REMARK       I    between atoms: C30_38  and  N2_40 
REMARK   13  A    between atoms: N2_40  and  C31_41 
REMARK   14  A    between atoms: C31_41  and  C32_42 
REMARK   15  A    between atoms: C32_42  and  C33_43 
REMARK   16  A    between atoms: C32_42  and  C35_47 
REMARK   17  A    between atoms: C33_43  and  C34_44 
REMARK   18  A    between atoms: C34_44  and  O10_46 
ROOT
HETATM    1  C8  UNL     1       0.812  53.036 -21.174  1.00  0.00     0.259 C 
HETATM    2  O2  UNL     1       1.993  53.303 -20.996  1.00  0.00    -0.265 OA
ENDROOT
BRANCH   1   3
HETATM    3  C7  UNL     1      -0.052  52.332 -20.168  1.00  0.00     0.120 C 
BRANCH   3   4
HETATM    4  C6  UNL     1       0.194  52.936 -18.794  1.00  0.00     0.112 C 
BRANCH   4   5
HETATM    5  C5  UNL     1       0.516  51.878 -17.766  1.00  0.00     0.218 C 
HETATM    6  N1  UNL     1       1.225  52.372 -16.695  1.00  0.00    -0.347 N 
HETATM    7  H9  UNL     1       1.189  53.371 -16.522  1.00  0.00     0.163 HD
HETATM    8  O1  UNL     1       0.159  50.706 -17.849  1.00  0.00    -0.274 OA
BRANCH   6   9
HETATM    9  C4  UNL     1       1.625  51.517 -15.569  1.00  0.00     0.179 C 
BRANCH   9  10
HETATM   10  C2  UNL     1       2.987  51.965 -14.985  1.00  0.00     0.009 C 
HETATM   11  C1  UNL     1       3.679  50.810 -14.244  1.00  0.00     0.012 C 
HETATM   12  C3  UNL     1       3.933  52.485 -16.075  1.00  0.00     0.012 C 
ENDBRANCH   9  10
BRANCH   9  13
HETATM   13  C30 UNL     1       0.482  51.564 -14.520  1.00  0.00     0.240 C 
HETATM   14  O8  UNL     1      -0.475  50.792 -14.524  1.00  0.00    -0.271 OA
HETATM   15  N2  UNL     1       0.640  52.563 -13.577  1.00  0.00    -0.359 N 
HETATM   16  H43 UNL     1       1.478  53.136 -13.634  1.00  0.00     0.162 HD
BRANCH  15  17
HETATM   17  C31 UNL     1      -0.342  52.825 -12.540  1.00  0.00     0.132 C 
BRANCH  17  18
HETATM   18  C32 UNL     1      -0.235  51.883 -11.323  1.00  0.00     0.046 C 
BRANCH  18  19
HETATM   19  C33 UNL     1       0.710  52.468 -10.259  1.00  0.00     0.120 C 
BRANCH  19  20
HETATM   20  C34 UNL     1       0.330  53.869  -9.863  1.00  0.00     0.140 C 
HETATM   21  O9  UNL     1       0.745  54.899 -10.368  1.00  0.00    -0.650 OA
BRANCH  20  22
HETATM   22  O10 UNL     1      -0.485  53.906  -8.790  1.00  0.00    -0.776 OA
HETATM   23  H49 UNL     1      -0.593  54.861  -8.597  1.00  0.00     0.167 HD
ENDBRANCH  20  22
ENDBRANCH  19  20
ENDBRANCH  18  19
BRANCH  18  24
HETATM   24  C35 UNL     1      -1.614  51.469 -10.815  1.00  0.00    -0.052 A 
HETATM   25  C36 UNL     1      -2.745  52.151 -11.296  1.00  0.00     0.007 A 
HETATM   26  C37 UNL     1      -4.025  51.834 -10.836  1.00  0.00     0.001 A 
HETATM   27  C38 UNL     1      -4.195  50.831  -9.885  1.00  0.00     0.000 A 
HETATM   28  C39 UNL     1      -3.085  50.151  -9.393  1.00  0.00     0.001 A 
HETATM   29  C40 UNL     1      -1.804  50.468  -9.849  1.00  0.00     0.007 A 
ENDBRANCH  18  24
ENDBRANCH  17  18
ENDBRANCH  15  17
ENDBRANCH   9  13
ENDBRANCH   6   9
ENDBRANCH   4   5
ENDBRANCH   3   4
ENDBRANCH   1   3
BRANCH   1  30
HETATM   30  O3  UNL     1       0.076  53.394 -22.259  1.00  0.00    -0.314 OA
BRANCH  30  31
HETATM   31  C9  UNL     1       0.068  52.467 -23.357  1.00  0.00     0.260 C 
BRANCH  31  32
HETATM   32  C10 UNL     1      -1.373  52.121 -23.709  1.00  0.00     0.185 C 
HETATM   33  O4  UNL     1      -2.137  52.976 -24.184  1.00  0.00    -0.292 OA
BRANCH  32  34
HETATM   34  C11 UNL     1      -1.923  50.697 -23.449  1.00  0.00     0.128 C 
HETATM   35  C12 UNL     1      -1.160  49.852 -22.402  1.00  0.00     0.047 C 
HETATM   36  C13 UNL     1      -2.198  48.870 -21.805  1.00  0.00     0.009 C 
HETATM   37  C14 UNL     1      -3.445  49.061 -22.668  1.00  0.00     0.002 C 
HETATM   38  C15 UNL     1      -4.804  48.564 -22.150  1.00  0.00    -0.002 C 
HETATM   39  C28 UNL     1      -3.417  50.568 -23.020  1.00  0.00     0.001 C 
HETATM   40  C16 UNL     1      -4.716  47.072 -21.759  1.00  0.00     0.010 C 
HETATM   41  C25 UNL     1      -5.880  48.808 -23.271  1.00  0.00     0.031 C 
HETATM   42  C17 UNL     1      -6.077  46.442 -21.460  1.00  0.00     0.035 C 
HETATM   43  C18 UNL     1      -7.018  46.726 -22.605  1.00  0.00    -0.068 C 
HETATM   44  C19 UNL     1      -7.454  45.718 -23.383  1.00  0.00     0.053 C 
HETATM   45  C23 UNL     1      -7.286  48.209 -22.894  1.00  0.00    -0.014 C 
HETATM   46  C20 UNL     1      -8.120  45.982 -24.679  1.00  0.00     0.149 C 
HETATM   47  O6  UNL     1      -8.559  45.043 -25.336  1.00  0.00    -0.293 OA
HETATM   48  C21 UNL     1      -8.129  47.400 -25.190  1.00  0.00     0.084 C 
HETATM   49  C22 UNL     1      -8.344  48.353 -24.029  1.00  0.00     0.022 C 
HETATM   50  C24 UNL     1      -7.926  48.874 -21.648  1.00  0.00     0.020 C 
HETATM   51  C26 UNL     1      -5.870  50.276 -23.789  1.00  0.00     0.124 C 
HETATM   52  C27 UNL     1      -4.460  50.802 -24.134  1.00  0.00     0.045 C 
HETATM   53  C29 UNL     1      -3.708  51.471 -21.796  1.00  0.00     0.019 C 
BRANCH  34  54
HETATM   54  O5  UNL     1      -1.742  49.992 -24.702  1.00  0.00    -0.381 OA
HETATM   55  H16 UNL     1      -1.716  50.671 -25.410  1.00  0.00     0.211 HD
ENDBRANCH  34  54
BRANCH  51  56
HETATM   56  O7  UNL     1      -6.507  51.191 -22.909  1.00  0.00    -0.395 OA
HETATM   57  H37 UNL     1      -6.387  50.895 -21.995  1.00  0.00     0.210 HD
ENDBRANCH  51  56
ENDBRANCH  32  34
ENDBRANCH  31  32
ENDBRANCH  30  31
ENDBRANCH   1  30
TORSDOF 18
ENDMDL
MODEL 3
REMARK minimizedAffinity -9.82300282
REMARK CNNscore 0.295930266
REMARK CNNaffinity 6.46521616
REMARK  18 active torsions:
REMARK  status: ('A' for Active; 'I' for Inactive)
REMARK    1  A    between atoms: C2_2  and  C4_4 
REMARK    2  A    between atoms: C4_4  and  N1_5 
REMARK    3  A    between atoms: C4_4  and  C30_38 
REMARK       I    between atoms: N1_5  and  C5_6 
REMARK    4  A    between atoms: C5_6  and  C6_8 
REMARK    5  A    between atoms: C6_8  and  C7_9 
REMARK    6  A    between atoms: C7_9  and  C8_10 
REMARK    7  A    between atoms: C8_10  and  O3_12 
REMARK    8  A    between atoms: O3_12  and  C9_13 
REMARK    9  A    between atoms: C9_13  and  C10_14 
REMARK   10  A    between atoms: C10_14  and  C11_16 
REMARK   11  A    between atoms: C11_16  and  O5_17 
REMARK   12  A    between atoms: C26_33  and  O7_34 
REMARK       I    between atoms: C30_38  and  N2_40 
REMARK   13  A    between atoms: N2_40  and  C31_41 
REMARK   14  A    between atoms: C31_41  and  C32_42 
REMARK   15  A    between atoms: C32_42  and  C33_43 
REMARK   16  A    between atoms: C32_42  and  C35_47 
REMARK   17  A    between atoms: C33_43  and  C34_44 
REMARK   18  A    between atoms: C34_44  and  O10_46 
ROOT
HETATM    1  C8  UNL     1      -7.752  46.664 -25.517  1.00  0.00     0.259 C 
HETATM    2  O2  UNL     1      -8.161  45.914 -24.641  1.00  0.00    -0.265 OA
ENDROOT
BRANCH   1   3
HETATM    3  C7  UNL     1      -6.645  47.659 -25.323  1.00  0.00     0.120 C 
BRANCH   3   4
HETATM    4  C6  UNL     1      -6.241  47.671 -23.857  1.00  0.00     0.112 C 
BRANCH   4   5
HETATM    5  C5  UNL     1      -4.898  48.332 -23.651  1.00  0.00     0.218 C 
HETATM    6  N1  UNL     1      -4.700  48.745 -22.353  1.00  0.00    -0.347 N 
HETATM    7  H9  UNL     1      -5.265  48.317 -21.627  1.00  0.00     0.163 HD
HETATM    8  O1  UNL     1      -4.052  48.461 -24.531  1.00  0.00    -0.274 OA
BRANCH   6   9
HETATM    9  C4  UNL     1      -3.453  49.394 -21.928  1.00  0.00     0.179 C 
BRANCH   9  10
HETATM   10  C2  UNL     1      -2.282  48.383 -21.890  1.00  0.00     0.009 C 
HETATM   11  C1  UNL     1      -1.182  48.843 -20.920  1.00  0.00     0.012 C 
HETATM   12  C3  UNL     1      -2.749  46.983 -21.473  1.00  0.00     0.012 C 
ENDBRANCH   9  10
BRANCH   9  13
HETATM   13  C30 UNL     1      -3.189  50.577 -22.898  1.00  0.00     0.240 C 
HETATM   14  O8  UNL     1      -3.985  51.496 -23.079  1.00  0.00    -0.271 OA
HETATM   15  N2  UNL     1      -1.970  50.496 -23.546  1.00  0.00    -0.359 N 
HETATM   16  H43 UNL     1      -1.363  49.715 -23.312  1.00  0.00     0.162 HD
BRANCH  15  17
HETATM   17  C31 UNL     1      -1.546  51.464 -24.542  1.00  0.00     0.132 C 
BRANCH  17  18
HETATM   18  C32 UNL     1      -1.479  50.901 -25.976  1.00  0.00     0.046 C 
BRANCH  18  19
HETATM   19  C33 UNL     1      -2.705  51.340 -26.796  1.00  0.00     0.120 C 
BRANCH  19  20
HETATM   20  C34 UNL     1      -3.127  50.298 -27.796  1.00  0.00     0.140 C 
HETATM   21  O9  UNL     1      -3.091  49.089 -27.638  1.00  0.00    -0.650 OA
BRANCH  20  22
HETATM   22  O10 UNL     1      -3.489  50.828 -28.982  1.00  0.00    -0.776 OA
HETATM   23  H49 UNL     1      -3.666  50.052 -29.553  1.00  0.00     0.167 HD
ENDBRANCH  20  22
ENDBRANCH  19  20
ENDBRANCH  18  19
BRANCH  18  24
HETATM   24  C35 UNL     1      -0.126  51.184 -26.623  1.00  0.00    -0.052 A 
HETATM   25  C36 UNL     1       1.039  51.036 -25.850  1.00  0.00     0.007 A 
HETATM   26  C37 UNL     1       2.298  51.317 -26.385  1.00  0.00     0.001 A 
HETATM   27  C38 UNL     1       2.413  51.753 -27.702  1.00  0.00     0.000 A 
HETATM   28  C39 UNL     1       1.270  51.911 -28.480  1.00  0.00     0.001 A 
HETATM   29  C40 UNL     1       0.010  51.634 -27.946  1.00  0.00     0.007 A 
ENDBRANCH  18  24
ENDBRANCH  17  18
ENDBRANCH  15  17
ENDBRANCH   9  13
ENDBRANCH   6   9
ENDBRANCH   4   5
ENDBRANCH   3   4
ENDBRANCH   1   3
BRANCH   1  30
HETATM   30  O3  UNL     1      -8.169  46.669 -26.810  1.00  0.00    -0.314 OA
BRANCH  30  31
HETATM   31  C9  UNL     1      -8.747  47.895 -27.288  1.00  0.00     0.260 C 
BRANCH  31  32
HETATM   32  C10 UNL     1     -10.033  48.173 -26.521  1.00  0.00     0.185 C 
HETATM   33  O4  UNL     1     -10.005  48.678 -25.388  1.00  0.00    -0.292 OA
BRANCH  32  34
HETATM   34  C11 UNL     1     -11.406  47.799 -27.132  1.00  0.00     0.128 C 
HETATM   35  C12 UNL     1     -11.400  47.396 -28.625  1.00  0.00     0.047 C 
HETATM   36  C13 UNL     1     -12.602  46.439 -28.816  1.00  0.00     0.009 C 
HETATM   37  C14 UNL     1     -13.348  46.492 -27.483  1.00  0.00     0.002 C 
HETATM   38  C15 UNL     1     -14.358  45.386 -27.139  1.00  0.00    -0.002 C 
HETATM   39  C28 UNL     1     -12.218  46.661 -26.439  1.00  0.00     0.001 C 
HETATM   40  C16 UNL     1     -15.403  45.244 -28.268  1.00  0.00     0.010 C 
HETATM   41  C25 UNL     1     -15.033  45.743 -25.764  1.00  0.00     0.031 C 
HETATM   42  C17 UNL     1     -16.576  44.334 -27.898  1.00  0.00     0.035 C 
HETATM   43  C18 UNL     1     -17.151  44.778 -26.575  1.00  0.00    -0.068 C 
HETATM   44  C19 UNL     1     -18.391  45.301 -26.523  1.00  0.00     0.053 C 
HETATM   45  C23 UNL     1     -16.186  44.741 -25.383  1.00  0.00    -0.014 C 
HETATM   46  C20 UNL     1     -18.869  46.020 -25.321  1.00  0.00     0.149 C 
HETATM   47  O6  UNL     1     -20.024  46.433 -25.282  1.00  0.00    -0.293 OA
HETATM   48  C21 UNL     1     -17.870  46.313 -24.230  1.00  0.00     0.084 C 
HETATM   49  C22 UNL     1     -16.935  45.128 -24.073  1.00  0.00     0.022 C 
HETATM   50  C24 UNL     1     -15.692  43.287 -25.160  1.00  0.00     0.020 C 
HETATM   51  C26 UNL     1     -13.986  46.047 -24.653  1.00  0.00     0.124 C 
HETATM   52  C27 UNL     1     -12.881  47.031 -25.095  1.00  0.00     0.045 C 
HETATM   53  C29 UNL     1     -11.348  45.389 -26.292  1.00  0.00     0.019 C 
BRANCH  34  54
HETATM   54  O5  UNL     1     -12.185  49.019 -27.076  1.00  0.00    -0.381 OA
HETATM   55  H16 UNL     1     -11.807  49.566 -26.356  1.00  0.00     0.211 HD
ENDBRANCH  34  54
BRANCH  51  56
HETATM   56  O7  UNL     1     -13.382  44.881 -24.111  1.00  0.00    -0.395 OA
HETATM   57  H37 UNL     1     -13.324  44.200 -24.797  1.00  0.00     0.210 HD
ENDBRANCH  51  56
ENDBRANCH  32  34
ENDBRANCH  31  32
ENDBRANCH  30  31
ENDBRANCH   1  30
TORSDOF 18
ENDMDL
MODEL 4
REMARK minimizedAffinity -8.76701736
REMARK CNNscore 0.269550979
REMARK CNNaffinity 6.43768549
REMARK  18 active torsions:
REMARK  status: ('A' for Active; 'I' for Inactive)
REMARK    1  A    between atoms: C2_2  and  C4_4 
REMARK    2  A    between atoms: C4_4  and  N1_5 
REMARK    3  A    between atoms: C4_4  and  C30_38 
REMARK       I    between atoms: N1_5  and  C5_6 
REMARK    4  A    between atoms: C5_6  and  C6_8 
REMARK    5  A    between atoms: C6_8  and  C7_9 
REMARK    6  A    between atoms: C7_9  and  C8_10 
REMARK    7  A    between atoms: C8_10  and  O3_12 
REMARK    8  A    between atoms: O3_12  and  C9_13 
REMARK    9  A    between atoms: C9_13  and  C10_14 
REMARK   10  A    between atoms: C10_14  and  C11_16 
REMARK   11  A    between atoms: C11_16  and  O5_17 
REMARK   12  A    between atoms: C26_33  and  O7_34 
REMARK       I    between atoms: C30_38  and  N2_40 
REMARK   13  A    between atoms: N2_40  and  C31_41 
REMARK   14  A    between atoms: C31_41  and  C32_42 
REMARK   15  A    between atoms: C32_42  and  C33_43 
REMARK   16  A    between atoms: C32_42  and  C35_47 
REMARK   17  A    between atoms: C33_43  and  C34_44 
REMARK   18  A    between atoms: C34_44  and  O10_46 
ROOT
HETATM    1  C8  UNL     1      -9.166  48.229 -25.784  1.00  0.00     0.259 C 
HETATM    2  O2  UNL     1      -8.984  48.485 -26.967  1.00  0.00    -0.265 OA
ENDROOT
BRANCH   1   3
HETATM    3  C7  UNL     1     -10.294  47.383 -25.270  1.00  0.00     0.120 C 
BRANCH   3   4
HETATM    4  C6  UNL     1     -11.493  47.542 -26.193  1.00  0.00     0.112 C 
BRANCH   4   5
HETATM    5  C5  UNL     1     -12.641  46.651 -25.781  1.00  0.00     0.218 C 
HETATM    6  N1  UNL     1     -13.062  46.885 -24.492  1.00  0.00    -0.347 N 
HETATM    7  H9  UNL     1     -12.827  47.777 -24.069  1.00  0.00     0.163 HD
HETATM    8  O1  UNL     1     -13.172  45.826 -26.519  1.00  0.00    -0.274 OA
BRANCH   6   9
HETATM    9  C4  UNL     1     -14.181  46.143 -23.895  1.00  0.00     0.179 C 
BRANCH   9  10
HETATM   10  C2  UNL     1     -13.992  45.983 -22.367  1.00  0.00     0.009 C 
HETATM   11  C1  UNL     1     -14.529  47.208 -21.611  1.00  0.00     0.012 C 
HETATM   12  C3  UNL     1     -14.696  44.729 -21.833  1.00  0.00     0.012 C 
ENDBRANCH   9  10
BRANCH   9  13
HETATM   13  C30 UNL     1     -15.488  46.897 -24.259  1.00  0.00     0.240 C 
HETATM   14  O8  UNL     1     -15.584  48.122 -24.268  1.00  0.00    -0.271 OA
HETATM   15  N2  UNL     1     -16.540  46.055 -24.570  1.00  0.00    -0.359 N 
HETATM   16  H43 UNL     1     -16.361  45.055 -24.566  1.00  0.00     0.162 HD
BRANCH  15  17
HETATM   17  C31 UNL     1     -17.871  46.547 -24.881  1.00  0.00     0.132 C 
BRANCH  17  18
HETATM   18  C32 UNL     1     -19.008  45.612 -24.422  1.00  0.00     0.046 C 
BRANCH  18  19
HETATM   19  C33 UNL     1     -18.970  44.281 -25.195  1.00  0.00     0.120 C 
BRANCH  19  20
HETATM   20  C34 UNL     1     -19.292  44.457 -26.654  1.00  0.00     0.140 C 
HETATM   21  O9  UNL     1     -20.025  43.747 -27.322  1.00  0.00    -0.650 OA
BRANCH  20  22
HETATM   22  O10 UNL     1     -18.603  45.466 -27.223  1.00  0.00    -0.776 OA
HETATM   23  H49 UNL     1     -18.846  45.425 -28.171  1.00  0.00     0.167 HD
ENDBRANCH  20  22
ENDBRANCH  19  20
ENDBRANCH  18  19
BRANCH  18  24
HETATM   24  C35 UNL     1     -19.045  45.483 -22.901  1.00  0.00    -0.052 A 
HETATM   25  C36 UNL     1     -19.585  44.315 -22.334  1.00  0.00     0.007 A 
HETATM   26  C37 UNL     1     -19.674  44.164 -20.949  1.00  0.00     0.001 A 
HETATM   27  C38 UNL     1     -19.225  45.178 -20.107  1.00  0.00     0.000 A 
HETATM   28  C39 UNL     1     -18.693  46.343 -20.652  1.00  0.00     0.001 A 
HETATM   29  C40 UNL     1     -18.607  46.498 -22.037  1.00  0.00     0.007 A 
ENDBRANCH  18  24
ENDBRANCH  17  18
ENDBRANCH  15  17
ENDBRANCH   9  13
ENDBRANCH   6   9
ENDBRANCH   4   5
ENDBRANCH   3   4
ENDBRANCH   1   3
BRANCH   1  30
HETATM   30  O3  UNL     1      -8.348  48.595 -24.762  1.00  0.00    -0.314 OA
BRANCH  30  31
HETATM   31  C9  UNL     1      -6.936  48.504 -25.013  1.00  0.00     0.260 C 
BRANCH  31  32
HETATM   32  C10 UNL     1      -6.187  48.587 -23.690  1.00  0.00     0.185 C 
HETATM   33  O4  UNL     1      -6.383  47.754 -22.791  1.00  0.00    -0.292 OA
BRANCH  32  34
HETATM   34  C11 UNL     1      -5.184  49.738 -23.427  1.00  0.00     0.128 C 
HETATM   35  C12 UNL     1      -4.764  49.952 -21.954  1.00  0.00     0.047 C 
HETATM   36  C13 UNL     1      -3.347  50.574 -21.999  1.00  0.00     0.009 C 
HETATM   37  C14 UNL     1      -3.104  50.865 -23.480  1.00  0.00     0.002 C 
HETATM   38  C15 UNL     1      -1.669  51.110 -23.975  1.00  0.00    -0.002 C 
HETATM   39  C28 UNL     1      -3.831  49.707 -24.203  1.00  0.00     0.001 C 
HETATM   40  C16 UNL     1      -1.001  52.232 -23.150  1.00  0.00     0.010 C 
HETATM   41  C25 UNL     1      -1.730  51.471 -25.504  1.00  0.00     0.031 C 
HETATM   42  C17 UNL     1       0.335  52.698 -23.729  1.00  0.00     0.035 C 
HETATM   43  C18 UNL     1       0.154  53.030 -25.191  1.00  0.00    -0.068 C 
HETATM   44  C19 UNL     1       0.273  54.304 -25.611  1.00  0.00     0.053 C 
HETATM   45  C23 UNL     1      -0.322  51.875 -26.081  1.00  0.00    -0.014 C 
HETATM   46  C20 UNL     1      -0.190  54.713 -26.956  1.00  0.00     0.149 C 
HETATM   47  O6  UNL     1      -0.013  55.868 -27.331  1.00  0.00    -0.293 OA
HETATM   48  C21 UNL     1      -0.968  53.710 -27.769  1.00  0.00     0.084 C 
HETATM   49  C22 UNL     1      -0.370  52.329 -27.571  1.00  0.00     0.022 C 
HETATM   50  C24 UNL     1       0.717  50.723 -26.037  1.00  0.00     0.020 C 
HETATM   51  C26 UNL     1      -2.540  50.426 -26.326  1.00  0.00     0.124 C 
HETATM   52  C27 UNL     1      -3.907  50.072 -25.701  1.00  0.00     0.045 C 
HETATM   53  C29 UNL     1      -3.126  48.343 -24.005  1.00  0.00     0.019 C 
BRANCH  34  54
HETATM   54  O5  UNL     1      -5.896  50.945 -23.793  1.00  0.00    -0.381 OA
HETATM   55  H16 UNL     1      -6.589  50.684 -24.436  1.00  0.00     0.211 HD
ENDBRANCH  34  54
BRANCH  51  56
HETATM   56  O7  UNL     1      -1.821  49.230 -26.586  1.00  0.00    -0.395 OA
HETATM   57  H37 UNL     1      -1.217  49.051 -25.851  1.00  0.00     0.210 HD
ENDBRANCH  51  56
ENDBRANCH  32  34
ENDBRANCH  31  32
ENDBRANCH  30  31
ENDBRANCH   1  30
TORSDOF 18
ENDMDL
MODEL 5
REMARK minimizedAffinity -9.32155418
REMARK CNNscore 0.262997389
REMARK CNNaffinity 6.3380084
REMARK  18 active torsions:
REMARK  status: ('A' for Active; 'I' for Inactive)
REMARK    1  A    between atoms: C2_2  and  C4_4 
REMARK    2  A    between atoms: C4_4  and  N1_5 
REMARK    3  A    between atoms: C4_4  and  C30_38 
REMARK       I    between atoms: N1_5  and  C5_6 
REMARK    4  A    between atoms: C5_6  and  C6_8 
REMARK    5  A    between atoms: C6_8  and  C7_9 
REMARK    6  A    between atoms: C7_9  and  C8_10 
REMARK    7  A    between atoms: C8_10  and  O3_12 
REMARK    8  A    between atoms: O3_12  and  C9_13 
REMARK    9  A    between atoms: C9_13  and  C10_14 
REMARK   10  A    between atoms: C10_14  and  C11_16 
REMARK   11  A    between atoms: C11_16  and  O5_17 
REMARK   12  A    between atoms: C26_33  and  O7_34 
REMARK       I    between atoms: C30_38  and  N2_40 
REMARK   13  A    between atoms: N2_40  and  C31_41 
REMARK   14  A    between atoms: C31_41  and  C32_42 
REMARK   15  A    between atoms: C32_42  and  C33_43 
REMARK   16  A    between atoms: C32_42  and  C35_47 
REMARK   17  A    between atoms: C33_43  and  C34_44 
REMARK   18  A    between atoms: C34_44  and  O10_46 
ROOT
HETATM    1  C8  UNL     1      -8.678  48.033 -24.133  1.00  0.00     0.259 C 
HETATM    2  O2  UNL     1      -8.064  47.077 -23.678  1.00  0.00    -0.265 OA
ENDROOT
BRANCH   1   3
HETATM    3  C7  UNL     1      -8.112  49.418 -24.250  1.00  0.00     0.120 C 
BRANCH   3   4
HETATM    4  C6  UNL     1      -7.659  49.885 -22.875  1.00  0.00     0.112 C 
BRANCH   4   5
HETATM    5  C5  UNL     1      -6.153  49.939 -22.768  1.00  0.00     0.218 C 
HETATM    6  N1  UNL     1      -5.706  51.035 -22.067  1.00  0.00    -0.347 N 
HETATM    7  H9  UNL     1      -6.358  51.499 -21.444  1.00  0.00     0.163 HD
HETATM    8  O1  UNL     1      -5.400  49.083 -23.224  1.00  0.00    -0.274 OA
BRANCH   6   9
HETATM    9  C4  UNL     1      -4.276  51.272 -21.828  1.00  0.00     0.179 C 
BRANCH   9  10
HETATM   10  C2  UNL     1      -3.586  50.004 -21.270  1.00  0.00     0.009 C 
HETATM   11  C1  UNL     1      -2.559  49.448 -22.268  1.00  0.00     0.012 C 
HETATM   12  C3  UNL     1      -2.877  50.278 -19.938  1.00  0.00     0.012 C 
ENDBRANCH   9  10
BRANCH   9  13
HETATM   13  C30 UNL     1      -3.653  51.752 -23.166  1.00  0.00     0.240 C 
HETATM   14  O8  UNL     1      -4.317  52.056 -24.154  1.00  0.00    -0.271 OA
HETATM   15  N2  UNL     1      -2.271  51.801 -23.143  1.00  0.00    -0.359 N 
HETATM   16  H43 UNL     1      -1.805  51.560 -22.272  1.00  0.00     0.162 HD
BRANCH  15  17
HETATM   17  C31 UNL     1      -1.480  52.164 -24.305  1.00  0.00     0.132 C 
BRANCH  17  18
HETATM   18  C32 UNL     1       0.043  52.079 -24.080  1.00  0.00     0.046 C 
BRANCH  18  19
HETATM   19  C33 UNL     1       0.807  52.731 -25.246  1.00  0.00     0.120 C 
BRANCH  19  20
HETATM   20  C34 UNL     1       1.468  51.714 -26.137  1.00  0.00     0.140 C 
HETATM   21  O9  UNL     1       0.995  50.645 -26.485  1.00  0.00    -0.650 OA
BRANCH  20  22
HETATM   22  O10 UNL     1       2.729  52.052 -26.471  1.00  0.00    -0.776 OA
HETATM   23  H49 UNL     1       3.063  51.285 -26.981  1.00  0.00     0.167 HD
ENDBRANCH  20  22
ENDBRANCH  19  20
ENDBRANCH  18  19
BRANCH  18  24
HETATM   24  C35 UNL     1       0.430  52.575 -22.688  1.00  0.00    -0.052 A 
HETATM   25  C36 UNL     1       0.106  51.782 -21.574  1.00  0.00     0.007 A 
HETATM   26  C37 UNL     1       0.406  52.207 -20.278  1.00  0.00     0.001 A 
HETATM   27  C38 UNL     1       1.033  53.433 -20.075  1.00  0.00     0.000 A 
HETATM   28  C39 UNL     1       1.354  54.235 -21.166  1.00  0.00     0.001 A 
HETATM   29  C40 UNL     1       1.052  53.813 -22.463  1.00  0.00     0.007 A 
ENDBRANCH  18  24
ENDBRANCH  17  18
ENDBRANCH  15  17
ENDBRANCH   9  13
ENDBRANCH   6   9
ENDBRANCH   4   5
ENDBRANCH   3   4
ENDBRANCH   1   3
BRANCH   1  30
HETATM   30  O3  UNL     1      -9.925  47.987 -24.672  1.00  0.00    -0.314 OA
BRANCH  30  31
HETATM   31  C9  UNL     1     -10.122  48.732 -25.885  1.00  0.00     0.260 C 
BRANCH  31  32
HETATM   32  C10 UNL     1     -10.308  47.761 -27.043  1.00  0.00     0.185 C 
HETATM   33  O4  UNL     1      -9.330  47.264 -27.624  1.00  0.00    -0.292 OA
BRANCH  32  34
HETATM   34  C11 UNL     1     -11.729  47.398 -27.541  1.00  0.00     0.128 C 
HETATM   35  C12 UNL     1     -11.827  46.869 -28.991  1.00  0.00     0.047 C 
HETATM   36  C13 UNL     1     -13.075  45.953 -29.030  1.00  0.00     0.009 C 
HETATM   37  C14 UNL     1     -13.738  46.154 -27.667  1.00  0.00     0.002 C 
HETATM   38  C15 UNL     1     -14.769  45.127 -27.171  1.00  0.00    -0.002 C 
HETATM   39  C28 UNL     1     -12.542  46.361 -26.707  1.00  0.00     0.001 C 
HETATM   40  C16 UNL     1     -15.884  44.935 -28.222  1.00  0.00     0.010 C 
HETATM   41  C25 UNL     1     -15.346  45.630 -25.797  1.00  0.00     0.031 C 
HETATM   42  C17 UNL     1     -17.067  44.113 -27.709  1.00  0.00     0.035 C 
HETATM   43  C18 UNL     1     -17.545  44.694 -26.401  1.00  0.00    -0.068 C 
HETATM   44  C19 UNL     1     -18.758  45.274 -26.326  1.00  0.00     0.053 C 
HETATM   45  C23 UNL     1     -16.513  44.716 -25.266  1.00  0.00    -0.014 C 
HETATM   46  C20 UNL     1     -19.135  46.113 -25.166  1.00  0.00     0.149 C 
HETATM   47  O6  UNL     1     -20.269  46.579 -25.100  1.00  0.00    -0.293 OA
HETATM   48  C21 UNL     1     -18.062  46.453 -24.164  1.00  0.00     0.084 C 
HETATM   49  C22 UNL     1     -17.167  45.246 -23.955  1.00  0.00     0.022 C 
HETATM   50  C24 UNL     1     -16.064  43.266 -24.944  1.00  0.00     0.020 C 
HETATM   51  C26 UNL     1     -14.223  45.980 -24.777  1.00  0.00     0.124 C 
HETATM   52  C27 UNL     1     -13.109  46.873 -25.365  1.00  0.00     0.045 C 
HETATM   53  C29 UNL     1     -11.716  45.068 -26.496  1.00  0.00     0.019 C 
BRANCH  34  54
HETATM   54  O5  UNL     1     -12.454  48.652 -27.549  1.00  0.00    -0.381 OA
HETATM   55  H16 UNL     1     -12.013  49.241 -26.902  1.00  0.00     0.211 HD
ENDBRANCH  34  54
BRANCH  51  56
HETATM   56  O7  UNL     1     -13.635  44.840 -24.170  1.00  0.00    -0.395 OA
HETATM   57  H37 UNL     1     -13.644  44.100 -24.795  1.00  0.00     0.210 HD
ENDBRANCH  51  56
ENDBRANCH  32  34
ENDBRANCH  31  32
ENDBRANCH  30  31
ENDBRANCH   1  30
TORSDOF 18
ENDMDL
MODEL 6
REMARK minimizedAffinity -9.79544735
REMARK CNNscore 0.259084105
REMARK CNNaffinity 6.527843
REMARK  18 active torsions:
REMARK  status: ('A' for Active; 'I' for Inactive)
REMARK    1  A    between atoms: C2_2  and  C4_4 
REMARK    2  A    between atoms: C4_4  and  N1_5 
REMARK    3  A    between atoms: C4_4  and  C30_38 
REMARK       I    between atoms: N1_5  and  C5_6 
REMARK    4  A    between atoms: C5_6  and  C6_8 
REMARK    5  A    between atoms: C6_8  and  C7_9 
REMARK    6  A    between atoms: C7_9  and  C8_10 
REMARK    7  A    between atoms: C8_10  and  O3_12 
REMARK    8  A    between atoms: O3_12  and  C9_13 
REMARK    9  A    between atoms: C9_13  and  C10_14 
REMARK   10  A    between atoms: C10_14  and  C11_16 
REMARK   11  A    between atoms: C11_16  and  O5_17 
REMARK   12  A    between atoms: C26_33  and  O7_34 
REMARK       I    between atoms: C30_38  and  N2_40 
REMARK   13  A    between atoms: N2_40  and  C31_41 
REMARK   14  A    between atoms: C31_41  and  C32_42 
REMARK   15  A    between atoms: C32_42  and  C33_43 
REMARK   16  A    between atoms: C32_42  and  C35_47 
REMARK   17  A    between atoms: C33_43  and  C34_44 
REMARK   18  A    between atoms: C34_44  and  O10_46 
ROOT
HETATM    1  C8  UNL     1      -6.513  47.813 -28.945  1.00  0.00     0.259 C 
HETATM    2  O2  UNL     1      -6.484  47.880 -30.167  1.00  0.00    -0.265 OA
ENDROOT
BRANCH   1   3
HETATM    3  C7  UNL     1      -5.325  48.054 -28.060  1.00  0.00     0.120 C 
BRANCH   3   4
HETATM    4  C6  UNL     1      -5.745  47.882 -26.609  1.00  0.00     0.112 C 
BRANCH   4   5
HETATM    5  C5  UNL     1      -4.798  48.583 -25.664  1.00  0.00     0.218 C 
HETATM    6  N1  UNL     1      -5.418  49.553 -24.909  1.00  0.00    -0.347 N 
HETATM    7  H9  UNL     1      -6.426  49.502 -24.804  1.00  0.00     0.163 HD
HETATM    8  O1  UNL     1      -3.608  48.303 -25.547  1.00  0.00    -0.274 OA
BRANCH   6   9
HETATM    9  C4  UNL     1      -4.687  50.344 -23.911  1.00  0.00     0.179 C 
BRANCH   9  10
HETATM   10  C2  UNL     1      -4.117  49.441 -22.791  1.00  0.00     0.009 C 
HETATM   11  C1  UNL     1      -5.064  48.268 -22.488  1.00  0.00     0.012 C 
HETATM   12  C3  UNL     1      -2.739  48.876 -23.158  1.00  0.00     0.012 C 
ENDBRANCH   9  10
BRANCH   9  13
HETATM   13  C30 UNL     1      -3.581  51.134 -24.661  1.00  0.00     0.240 C 
HETATM   14  O8  UNL     1      -3.362  51.017 -25.865  1.00  0.00    -0.271 OA
HETATM   15  N2  UNL     1      -2.858  51.981 -23.842  1.00  0.00    -0.359 N 
HETATM   16  H43 UNL     1      -3.128  52.036 -22.864  1.00  0.00     0.162 HD
BRANCH  15  17
HETATM   17  C31 UNL     1      -1.737  52.769 -24.324  1.00  0.00     0.132 C 
BRANCH  17  18
HETATM   18  C32 UNL     1      -0.358  52.141 -24.037  1.00  0.00     0.046 C 
BRANCH  18  19
HETATM   19  C33 UNL     1       0.593  52.337 -25.230  1.00  0.00     0.120 C 
BRANCH  19  20
HETATM   20  C34 UNL     1       0.181  53.486 -26.109  1.00  0.00     0.140 C 
HETATM   21  O9  UNL     1       0.180  54.666 -25.801  1.00  0.00    -0.650 OA
BRANCH  20  22
HETATM   22  O10 UNL     1      -0.300  53.085 -27.303  1.00  0.00    -0.776 OA
HETATM   23  H49 UNL     1      -0.595  53.911 -27.739  1.00  0.00     0.167 HD
ENDBRANCH  20  22
ENDBRANCH  19  20
ENDBRANCH  18  19
BRANCH  18  24
HETATM   24  C35 UNL     1       0.190  52.592 -22.685  1.00  0.00    -0.052 A 
HETATM   25  C36 UNL     1      -0.178  51.875 -21.533  1.00  0.00     0.007 A 
HETATM   26  C37 UNL     1       0.268  52.269 -20.269  1.00  0.00     0.001 A 
HETATM   27  C38 UNL     1       1.087  53.387 -20.136  1.00  0.00     0.000 A 
HETATM   28  C39 UNL     1       1.454  54.112 -21.265  1.00  0.00     0.001 A 
HETATM   29  C40 UNL     1       1.007  53.722 -22.530  1.00  0.00     0.007 A 
ENDBRANCH  18  24
ENDBRANCH  17  18
ENDBRANCH  15  17
ENDBRANCH   9  13
ENDBRANCH   6   9
ENDBRANCH   4   5
ENDBRANCH   3   4
ENDBRANCH   1   3
BRANCH   1  30
HETATM   30  O3  UNL     1      -7.623  47.591 -28.193  1.00  0.00    -0.314 OA
BRANCH  30  31
HETATM   31  C9  UNL     1      -8.875  48.001 -28.768  1.00  0.00     0.260 C 
BRANCH  31  32
HETATM   32  C10 UNL     1      -9.962  47.926 -27.705  1.00  0.00     0.185 C 
HETATM   33  O4  UNL     1      -9.710  48.170 -26.514  1.00  0.00    -0.292 OA
BRANCH  32  34
HETATM   34  C11 UNL     1     -11.404  47.509 -28.086  1.00  0.00     0.128 C 
HETATM   35  C12 UNL     1     -11.583  46.880 -29.488  1.00  0.00     0.047 C 
HETATM   36  C13 UNL     1     -12.814  45.947 -29.385  1.00  0.00     0.009 C 
HETATM   37  C14 UNL     1     -13.395  46.231 -27.999  1.00  0.00     0.002 C 
HETATM   38  C15 UNL     1     -14.374  45.227 -27.371  1.00  0.00    -0.002 C 
HETATM   39  C28 UNL     1     -12.145  46.521 -27.133  1.00  0.00     0.001 C 
HETATM   40  C16 UNL     1     -15.548  44.948 -28.334  1.00  0.00     0.010 C 
HETATM   41  C25 UNL     1     -14.873  45.815 -26.001  1.00  0.00     0.031 C 
HETATM   42  C17 UNL     1     -16.682  44.147 -27.693  1.00  0.00     0.035 C 
HETATM   43  C18 UNL     1     -17.088  44.810 -26.399  1.00  0.00    -0.068 C 
HETATM   44  C19 UNL     1     -18.304  45.377 -26.287  1.00  0.00     0.053 C 
HETATM   45  C23 UNL     1     -15.988  44.924 -25.336  1.00  0.00    -0.014 C 
HETATM   46  C20 UNL     1     -18.624  46.288 -25.165  1.00  0.00     0.149 C 
HETATM   47  O6  UNL     1     -19.759  46.741 -25.059  1.00  0.00    -0.293 OA
HETATM   48  C21 UNL     1     -17.497  46.711 -24.258  1.00  0.00     0.084 C 
HETATM   49  C22 UNL     1     -16.568  45.534 -24.025  1.00  0.00     0.022 C 
HETATM   50  C24 UNL     1     -15.493  43.506 -24.946  1.00  0.00     0.020 C 
HETATM   51  C26 UNL     1     -13.696  46.250 -25.080  1.00  0.00     0.124 C 
HETATM   52  C27 UNL     1     -12.637  47.116 -25.797  1.00  0.00     0.045 C 
HETATM   53  C29 UNL     1     -11.284  45.257 -26.889  1.00  0.00     0.019 C 
BRANCH  34  54
HETATM   54  O5  UNL     1     -12.151  48.749 -28.133  1.00  0.00    -0.381 OA
HETATM   55  H16 UNL     1     -11.681  49.388 -27.556  1.00  0.00     0.211 HD
ENDBRANCH  34  54
BRANCH  51  56
HETATM   56  O7  UNL     1     -13.050  45.163 -24.435  1.00  0.00    -0.395 OA
HETATM   57  H37 UNL     1     -13.085  44.382 -25.007  1.00  0.00     0.210 HD
ENDBRANCH  51  56
ENDBRANCH  32  34
ENDBRANCH  31  32
ENDBRANCH  30  31
ENDBRANCH   1  30
TORSDOF 18
ENDMDL
MODEL 7
REMARK minimizedAffinity -8.85099602
REMARK CNNscore 0.256897122
REMARK CNNaffinity 6.45969629
REMARK  18 active torsions:
REMARK  status: ('A' for Active; 'I' for Inactive)
REMARK    1  A    between atoms: C2_2  and  C4_4 
REMARK    2  A    between atoms: C4_4  and  N1_5 
REMARK    3  A    between atoms: C4_4  and  C30_38 
REMARK       I    between atoms: N1_5  and  C5_6 
REMARK    4  A    between atoms: C5_6  and  C6_8 
REMARK    5  A    between atoms: C6_8  and  C7_9 
REMARK    6  A    between atoms: C7_9  and  C8_10 
REMARK    7  A    between atoms: C8_10  and  O3_12 
REMARK    8  A    between atoms: O3_12  and  C9_13 
REMARK    9  A    between atoms: C9_13  and  C10_14 
REMARK   10  A    between atoms: C10_14  and  C11_16 
REMARK   11  A    between atoms: C11_16  and  O5_17 
REMARK   12  A    between atoms: C26_33  and  O7_34 
REMARK       I    between atoms: C30_38  and  N2_40 
REMARK   13  A    between atoms: N2_40  and  C31_41 
REMARK   14  A    between atoms: C31_41  and  C32_42 
REMARK   15  A    between atoms: C32_42  and  C33_43 
REMARK   16  A    between atoms: C32_42  and  C35_47 
REMARK   17  A    between atoms: C33_43  and  C34_44 
REMARK   18  A    between atoms: C34_44  and  O10_46 
ROOT
HETATM    1  C8  UNL     1      -2.876  50.437 -16.454  1.00  0.00     0.259 C 
HETATM    2  O2  UNL     1      -2.911  51.410 -17.195  1.00  0.00    -0.265 OA
ENDROOT
BRANCH   1   3
HETATM    3  C7  UNL     1      -2.338  50.465 -15.053  1.00  0.00     0.120 C 
BRANCH   3   4
HETATM    4  C6  UNL     1      -3.053  51.556 -14.270  1.00  0.00     0.112 C 
BRANCH   4   5
HETATM    5  C5  UNL     1      -2.589  51.611 -12.834  1.00  0.00     0.218 C 
HETATM    6  N1  UNL     1      -2.039  52.826 -12.497  1.00  0.00    -0.347 N 
HETATM    7  H9  UNL     1      -2.269  53.629 -13.073  1.00  0.00     0.163 HD
HETATM    8  O1  UNL     1      -2.716  50.689 -12.033  1.00  0.00    -0.274 OA
BRANCH   6   9
HETATM    9  C4  UNL     1      -1.542  53.103 -11.143  1.00  0.00     0.179 C 
BRANCH   9  10
HETATM   10  C2  UNL     1      -2.695  53.092 -10.111  1.00  0.00     0.009 C 
HETATM   11  C1  UNL     1      -4.044  53.396 -10.782  1.00  0.00     0.012 C 
HETATM   12  C3  UNL     1      -2.801  51.743  -9.387  1.00  0.00     0.012 C 
ENDBRANCH   9  10
BRANCH   9  13
HETATM   13  C30 UNL     1      -0.446  52.051 -10.825  1.00  0.00     0.240 C 
HETATM   14  O8  UNL     1      -0.617  50.839 -10.931  1.00  0.00    -0.271 OA
HETATM   15  N2  UNL     1       0.748  52.610 -10.404  1.00  0.00    -0.359 N 
HETATM   16  H43 UNL     1       0.809  53.624 -10.374  1.00  0.00     0.162 HD
BRANCH  15  17
HETATM   17  C31 UNL     1       1.888  51.807  -9.996  1.00  0.00     0.132 C 
BRANCH  17  18
HETATM   18  C32 UNL     1       3.130  51.982 -10.893  1.00  0.00     0.046 C 
BRANCH  18  19
HETATM   19  C33 UNL     1       2.724  52.141 -12.369  1.00  0.00     0.120 C 
BRANCH  19  20
HETATM   20  C34 UNL     1       2.603  50.818 -13.075  1.00  0.00     0.140 C 
HETATM   21  O9  UNL     1       1.566  50.276 -13.418  1.00  0.00    -0.650 OA
BRANCH  20  22
HETATM   22  O10 UNL     1       3.790  50.199 -13.232  1.00  0.00    -0.776 OA
HETATM   23  H49 UNL     1       3.565  49.333 -13.630  1.00  0.00     0.167 HD
ENDBRANCH  20  22
ENDBRANCH  19  20
ENDBRANCH  18  19
BRANCH  18  24
HETATM   24  C35 UNL     1       4.061  53.065 -10.352  1.00  0.00    -0.052 A 
HETATM   25  C36 UNL     1       3.881  54.390 -10.786  1.00  0.00     0.007 A 
HETATM   26  C37 UNL     1       4.728  55.411 -10.349  1.00  0.00     0.001 A 
HETATM   27  C38 UNL     1       5.769  55.123  -9.471  1.00  0.00     0.000 A 
HETATM   28  C39 UNL     1       5.966  53.816  -9.036  1.00  0.00     0.001 A 
HETATM   29  C40 UNL     1       5.122  52.793  -9.475  1.00  0.00     0.007 A 
ENDBRANCH  18  24
ENDBRANCH  17  18
ENDBRANCH  15  17
ENDBRANCH   9  13
ENDBRANCH   6   9
ENDBRANCH   4   5
ENDBRANCH   3   4
ENDBRANCH   1   3
BRANCH   1  30
HETATM   30  O3  UNL     1      -3.380  49.208 -16.741  1.00  0.00    -0.314 OA
BRANCH  30  31
HETATM   31  C9  UNL     1      -2.780  48.516 -17.848  1.00  0.00     0.260 C 
BRANCH  31  32
HETATM   32  C10 UNL     1      -3.747  48.524 -19.025  1.00  0.00     0.185 C 
HETATM   33  O4  UNL     1      -4.964  48.692 -18.851  1.00  0.00    -0.292 OA
BRANCH  32  34
HETATM   34  C11 UNL     1      -3.230  48.290 -20.466  1.00  0.00     0.128 C 
HETATM   35  C12 UNL     1      -3.900  47.138 -21.251  1.00  0.00     0.047 C 
HETATM   36  C13 UNL     1      -3.790  47.519 -22.748  1.00  0.00     0.009 C 
HETATM   37  C14 UNL     1      -2.897  48.760 -22.762  1.00  0.00     0.002 C 
HETATM   38  C15 UNL     1      -2.880  49.662 -24.006  1.00  0.00    -0.002 C 
HETATM   39  C28 UNL     1      -3.277  49.496 -21.454  1.00  0.00     0.001 C 
HETATM   40  C16 UNL     1      -2.563  48.830 -25.268  1.00  0.00     0.010 C 
HETATM   41  C25 UNL     1      -1.817  50.799 -23.777  1.00  0.00     0.031 C 
HETATM   42  C17 UNL     1      -2.293  49.685 -26.507  1.00  0.00     0.035 C 
HETATM   43  C18 UNL     1      -1.251  50.726 -26.175  1.00  0.00    -0.068 C 
HETATM   44  C19 UNL     1      -0.037  50.670 -26.753  1.00  0.00     0.053 C 
HETATM   45  C23 UNL     1      -1.621  51.703 -25.051  1.00  0.00    -0.014 C 
HETATM   46  C20 UNL     1       1.095  51.472 -26.237  1.00  0.00     0.149 C 
HETATM   47  O6  UNL     1       2.173  51.444 -26.824  1.00  0.00    -0.293 OA
HETATM   48  C21 UNL     1       0.902  52.208 -24.936  1.00  0.00     0.084 C 
HETATM   49  C22 UNL     1      -0.504  52.776 -24.882  1.00  0.00     0.022 C 
HETATM   50  C24 UNL     1      -2.895  52.494 -25.448  1.00  0.00     0.020 C 
HETATM   51  C26 UNL     1      -2.030  51.544 -22.427  1.00  0.00     0.124 C 
HETATM   52  C27 UNL     1      -2.221  50.598 -21.221  1.00  0.00     0.045 C 
HETATM   53  C29 UNL     1      -4.701  50.100 -21.502  1.00  0.00     0.019 C 
BRANCH  34  54
HETATM   54  O5  UNL     1      -1.850  47.880 -20.306  1.00  0.00    -0.381 OA
HETATM   55  H16 UNL     1      -1.543  48.239 -19.447  1.00  0.00     0.211 HD
ENDBRANCH  34  54
BRANCH  51  56
HETATM   56  O7  UNL     1      -3.097  52.479 -22.459  1.00  0.00    -0.395 OA
HETATM   57  H37 UNL     1      -3.783  52.165 -23.066  1.00  0.00     0.210 HD
ENDBRANCH  51  56
ENDBRANCH  32  34
ENDBRANCH  31  32
ENDBRANCH  30  31
ENDBRANCH   1  30
TORSDOF 18
ENDMDL
MODEL 8
REMARK minimizedAffinity -8.84802246
REMARK CNNscore 0.241949916
REMARK CNNaffinity 6.57240438
REMARK  18 active torsions:
REMARK  status: ('A' for Active; 'I' for Inactive)
REMARK    1  A    between atoms: C2_2  and  C4_4 
REMARK    2  A    between atoms: C4_4  and  N1_5 
REMARK    3  A    between atoms: C4_4  and  C30_38 
REMARK       I    between atoms: N1_5  and  C5_6 
REMARK    4  A    between atoms: C5_6  and  C6_8 
REMARK    5  A    between atoms: C6_8  and  C7_9 
REMARK    6  A    between atoms: C7_9  and  C8_10 
REMARK    7  A    between atoms: C8_10  and  O3_12 
REMARK    8  A    between atoms: O3_12  and  C9_13 
REMARK    9  A    between atoms: C9_13  and  C10_14 
REMARK   10  A    between atoms: C10_14  and  C11_16 
REMARK   11  A    between atoms: C11_16  and  O5_17 
REMARK   12  A    between atoms: C26_33  and  O7_34 
REMARK       I    between atoms: C30_38  and  N2_40 
REMARK   13  A    between atoms: N2_40  and  C31_41 
REMARK   14  A    between atoms: C31_41  and  C32_42 
REMARK   15  A    between atoms: C32_42  and  C33_43 
REMARK   16  A    between atoms: C32_42  and  C35_47 
REMARK   17  A    between atoms: C33_43  and  C34_44 
REMARK   18  A    between atoms: C34_44  and  O10_46 
ROOT
HETATM    1  C8  UNL     1      -2.300  50.407 -15.554  1.00  0.00     0.259 C 
HETATM    2  O2  UNL     1      -1.448  49.569 -15.293  1.00  0.00    -0.265 OA
ENDROOT
BRANCH   1   3
HETATM    3  C7  UNL     1      -2.919  50.586 -16.910  1.00  0.00     0.120 C 
BRANCH   3   4
HETATM    4  C6  UNL     1      -1.866  50.314 -17.974  1.00  0.00     0.112 C 
BRANCH   4   5
HETATM    5  C5  UNL     1      -1.925  51.327 -19.093  1.00  0.00     0.218 C 
HETATM    6  N1  UNL     1      -0.945  51.136 -20.039  1.00  0.00    -0.347 N 
HETATM    7  H9  UNL     1      -0.510  50.222 -20.094  1.00  0.00     0.163 HD
HETATM    8  O1  UNL     1      -2.775  52.210 -19.178  1.00  0.00    -0.274 OA
BRANCH   6   9
HETATM    9  C4  UNL     1      -0.832  51.998 -21.224  1.00  0.00     0.179 C 
BRANCH   9  10
HETATM   10  C2  UNL     1       0.632  52.443 -21.452  1.00  0.00     0.009 C 
HETATM   11  C1  UNL     1       0.768  53.257 -22.749  1.00  0.00     0.012 C 
HETATM   12  C3  UNL     1       1.161  53.288 -20.286  1.00  0.00     0.012 C 
ENDBRANCH   9  10
BRANCH   9  13
HETATM   13  C30 UNL     1      -1.411  51.210 -22.429  1.00  0.00     0.240 C 
HETATM   14  O8  UNL     1      -1.344  49.987 -22.536  1.00  0.00    -0.271 OA
HETATM   15  N2  UNL     1      -2.010  52.018 -23.379  1.00  0.00    -0.359 N 
HETATM   16  H43 UNL     1      -2.046  53.017 -23.192  1.00  0.00     0.162 HD
BRANCH  15  17
HETATM   17  C31 UNL     1      -2.563  51.496 -24.615  1.00  0.00     0.132 C 
BRANCH  17  18
HETATM   18  C32 UNL     1      -1.723  50.371 -25.253  1.00  0.00     0.046 C 
BRANCH  18  19
HETATM   19  C33 UNL     1      -2.629  49.311 -25.905  1.00  0.00     0.120 C 
BRANCH  19  20
HETATM   20  C34 UNL     1      -3.761  48.894 -25.006  1.00  0.00     0.140 C 
HETATM   21  O9  UNL     1      -3.659  48.295 -23.948  1.00  0.00    -0.650 OA
BRANCH  20  22
HETATM   22  O10 UNL     1      -4.973  49.171 -25.527  1.00  0.00    -0.776 OA
HETATM   23  H49 UNL     1      -5.609  48.789 -24.888  1.00  0.00     0.167 HD
ENDBRANCH  20  22
ENDBRANCH  19  20
ENDBRANCH  18  19
BRANCH  18  24
HETATM   24  C35 UNL     1      -0.627  50.935 -26.154  1.00  0.00    -0.052 A 
HETATM   25  C36 UNL     1       0.672  51.075 -25.633  1.00  0.00     0.007 A 
HETATM   26  C37 UNL     1       1.701  51.619 -26.404  1.00  0.00     0.001 A 
HETATM   27  C38 UNL     1       1.448  52.033 -27.709  1.00  0.00     0.000 A 
HETATM   28  C39 UNL     1       0.168  51.909 -28.238  1.00  0.00     0.001 A 
HETATM   29  C40 UNL     1      -0.864  51.368 -27.468  1.00  0.00     0.007 A 
ENDBRANCH  18  24
ENDBRANCH  17  18
ENDBRANCH  15  17
ENDBRANCH   9  13
ENDBRANCH   6   9
ENDBRANCH   4   5
ENDBRANCH   3   4
ENDBRANCH   1   3
BRANCH   1  30
HETATM   30  O3  UNL     1      -2.876  51.252 -14.658  1.00  0.00    -0.314 OA
BRANCH  30  31
HETATM   31  C9  UNL     1      -2.022  51.754 -13.617  1.00  0.00     0.260 C 
BRANCH  31  32
HETATM   32  C10 UNL     1      -2.738  51.623 -12.279  1.00  0.00     0.185 C 
HETATM   33  O4  UNL     1      -3.745  50.907 -12.159  1.00  0.00    -0.292 OA
BRANCH  32  34
HETATM   34  C11 UNL     1      -2.238  52.410 -11.042  1.00  0.00     0.128 C 
HETATM   35  C12 UNL     1      -2.951  52.102  -9.705  1.00  0.00     0.047 C 
HETATM   36  C13 UNL     1      -1.916  52.393  -8.590  1.00  0.00     0.009 C 
HETATM   37  C14 UNL     1      -0.737  53.035  -9.321  1.00  0.00     0.002 C 
HETATM   38  C15 UNL     1       0.635  53.098  -8.631  1.00  0.00    -0.002 C 
HETATM   39  C28 UNL     1      -0.721  52.313 -10.690  1.00  0.00     0.001 C 
HETATM   40  C16 UNL     1       0.507  53.770  -7.246  1.00  0.00     0.010 C 
HETATM   41  C25 UNL     1       1.624  53.883  -9.568  1.00  0.00     0.031 C 
HETATM   42  C17 UNL     1       1.856  54.086  -6.598  1.00  0.00     0.035 C 
HETATM   43  C18 UNL     1       2.712  54.850  -7.579  1.00  0.00    -0.068 C 
HETATM   44  C19 UNL     1       3.032  56.134  -7.333  1.00  0.00     0.053 C 
HETATM   45  C23 UNL     1       3.026  54.124  -8.894  1.00  0.00    -0.014 C 
HETATM   46  C20 UNL     1       3.600  56.998  -8.392  1.00  0.00     0.149 C 
HETATM   47  O6  UNL     1       3.937  58.146  -8.121  1.00  0.00    -0.293 OA
HETATM   48  C21 UNL     1       3.635  56.457  -9.799  1.00  0.00     0.084 C 
HETATM   49  C22 UNL     1       3.992  54.983  -9.763  1.00  0.00     0.022 C 
HETATM   50  C24 UNL     1       3.799  52.813  -8.592  1.00  0.00     0.020 C 
HETATM   51  C26 UNL     1       1.643  53.313 -11.017  1.00  0.00     0.124 C 
HETATM   52  C27 UNL     1       0.236  53.096 -11.615  1.00  0.00     0.045 C 
HETATM   53  C29 UNL     1      -0.286  50.831 -10.578  1.00  0.00     0.019 C 
BRANCH  34  54
HETATM   54  O5  UNL     1      -2.556  53.794 -11.326  1.00  0.00    -0.381 OA
HETATM   55  H16 UNL     1      -2.607  53.881 -12.301  1.00  0.00     0.211 HD
ENDBRANCH  34  54
BRANCH  51  56
HETATM   56  O7  UNL     1       2.394  52.115 -11.144  1.00  0.00    -0.395 OA
HETATM   57  H37 UNL     1       2.337  51.610 -10.320  1.00  0.00     0.210 HD
ENDBRANCH  51  56
ENDBRANCH  32  34
ENDBRANCH  31  32
ENDBRANCH  30  31
ENDBRANCH   1  30
TORSDOF 18
ENDMDL
MODEL 9
REMARK minimizedAffinity -9.61844063
REMARK CNNscore 0.241571277
REMARK CNNaffinity 6.91304922
REMARK  18 active torsions:
REMARK  status: ('A' for Active; 'I' for Inactive)
REMARK    1  A    between atoms: C2_2  and  C4_4 
REMARK    2  A    between atoms: C4_4  and  N1_5 
REMARK    3  A    between atoms: C4_4  and  C30_38 
REMARK       I    between atoms: N1_5  and  C5_6 
REMARK    4  A    between atoms: C5_6  and  C6_8 
REMARK    5  A    between atoms: C6_8  and  C7_9 
REMARK    6  A    between atoms: C7_9  and  C8_10 
REMARK    7  A    between atoms: C8_10  and  O3_12 
REMARK    8  A    between atoms: O3_12  and  C9_13 
REMARK    9  A    between atoms: C9_13  and  C10_14 
REMARK   10  A    between atoms: C10_14  and  C11_16 
REMARK   11  A    between atoms: C11_16  and  O5_17 
REMARK   12  A    between atoms: C26_33  and  O7_34 
REMARK       I    between atoms: C30_38  and  N2_40 
REMARK   13  A    between atoms: N2_40  and  C31_41 
REMARK   14  A    between atoms: C31_41  and  C32_42 
REMARK   15  A    between atoms: C32_42  and  C33_43 
REMARK   16  A    between atoms: C32_42  and  C35_47 
REMARK   17  A    between atoms: C33_43  and  C34_44 
REMARK   18  A    between atoms: C34_44  and  O10_46 
ROOT
HETATM    1  C8  UNL     1      -5.204  47.976 -29.316  1.00  0.00     0.259 C 
HETATM    2  O2  UNL     1      -4.920  48.580 -30.341  1.00  0.00    -0.265 OA
ENDROOT
BRANCH   1   3
HETATM    3  C7  UNL     1      -4.491  48.157 -28.007  1.00  0.00     0.120 C 
BRANCH   3   4
HETATM    4  C6  UNL     1      -3.743  49.482 -28.030  1.00  0.00     0.112 C 
BRANCH   4   5
HETATM    5  C5  UNL     1      -2.732  49.575 -26.912  1.00  0.00     0.218 C 
HETATM    6  N1  UNL     1      -1.939  50.695 -27.001  1.00  0.00    -0.347 N 
HETATM    7  H9  UNL     1      -2.276  51.474 -27.557  1.00  0.00     0.163 HD
HETATM    8  O1  UNL     1      -2.642  48.762 -25.996  1.00  0.00    -0.274 OA
BRANCH   6   9
HETATM    9  C4  UNL     1      -0.902  50.992 -26.004  1.00  0.00     0.179 C 
BRANCH   9  10
HETATM   10  C2  UNL     1       0.193  51.914 -26.594  1.00  0.00     0.009 C 
HETATM   11  C1  UNL     1       1.506  51.791 -25.805  1.00  0.00     0.012 C 
HETATM   12  C3  UNL     1       0.474  51.595 -28.068  1.00  0.00     0.012 C 
ENDBRANCH   9  10
BRANCH   9  13
HETATM   13  C30 UNL     1      -1.607  51.617 -24.770  1.00  0.00     0.240 C 
HETATM   14  O8  UNL     1      -1.976  52.789 -24.721  1.00  0.00    -0.271 OA
HETATM   15  N2  UNL     1      -1.778  50.728 -23.725  1.00  0.00    -0.359 N 
HETATM   16  H43 UNL     1      -1.468  49.770 -23.865  1.00  0.00     0.162 HD
BRANCH  15  17
HETATM   17  C31 UNL     1      -2.361  51.118 -22.453  1.00  0.00     0.132 C 
BRANCH  17  18
HETATM   18  C32 UNL     1      -1.522  50.705 -21.226  1.00  0.00     0.046 C 
BRANCH  18  19
HETATM   19  C33 UNL     1      -0.926  49.299 -21.417  1.00  0.00     0.120 C 
BRANCH  19  20
HETATM   20  C34 UNL     1      -1.396  48.330 -20.365  1.00  0.00     0.140 C 
HETATM   21  O9  UNL     1      -2.060  47.325 -20.554  1.00  0.00    -0.650 OA
BRANCH  20  22
HETATM   22  O10 UNL     1      -1.084  48.726 -19.114  1.00  0.00    -0.776 OA
HETATM   23  H49 UNL     1      -1.503  48.058 -18.534  1.00  0.00     0.167 HD
ENDBRANCH  20  22
ENDBRANCH  19  20
ENDBRANCH  18  19
BRANCH  18  24
HETATM   24  C35 UNL     1      -0.520  51.791 -20.844  1.00  0.00    -0.052 A 
HETATM   25  C36 UNL     1      -0.466  52.223 -19.507  1.00  0.00     0.007 A 
HETATM   26  C37 UNL     1       0.408  53.238 -19.114  1.00  0.00     0.001 A 
HETATM   27  C38 UNL     1       1.242  53.841 -20.052  1.00  0.00     0.000 A 
HETATM   28  C39 UNL     1       1.197  53.431 -21.381  1.00  0.00     0.001 A 
HETATM   29  C40 UNL     1       0.321  52.418 -21.777  1.00  0.00     0.007 A 
ENDBRANCH  18  24
ENDBRANCH  17  18
ENDBRANCH  15  17
ENDBRANCH   9  13
ENDBRANCH   6   9
ENDBRANCH   4   5
ENDBRANCH   3   4
ENDBRANCH   1   3
BRANCH   1  30
HETATM   30  O3  UNL     1      -6.245  47.114 -29.170  1.00  0.00    -0.314 OA
BRANCH  30  31
HETATM   31  C9  UNL     1      -6.433  46.160 -30.228  1.00  0.00     0.260 C 
BRANCH  31  32
HETATM   32  C10 UNL     1      -7.807  46.370 -30.851  1.00  0.00     0.185 C 
HETATM   33  O4  UNL     1      -8.834  45.958 -30.289  1.00  0.00    -0.292 OA
BRANCH  32  34
HETATM   34  C11 UNL     1      -7.946  47.079 -32.221  1.00  0.00     0.128 C 
HETATM   35  C12 UNL     1      -6.628  47.544 -32.884  1.00  0.00     0.047 C 
HETATM   36  C13 UNL     1      -6.891  47.541 -34.410  1.00  0.00     0.009 C 
HETATM   37  C14 UNL     1      -8.390  47.267 -34.538  1.00  0.00     0.002 C 
HETATM   38  C15 UNL     1      -8.957  46.794 -35.886  1.00  0.00    -0.002 C 
HETATM   39  C28 UNL     1      -8.688  46.311 -33.358  1.00  0.00     0.001 C 
HETATM   40  C16 UNL     1      -8.550  47.770 -37.011  1.00  0.00     0.010 C 
HETATM   41  C25 UNL     1     -10.520  46.681 -35.752  1.00  0.00     0.031 C 
HETATM   42  C17 UNL     1      -9.268  47.504 -38.335  1.00  0.00     0.035 C 
HETATM   43  C18 UNL     1     -10.755  47.432 -38.088  1.00  0.00    -0.068 C 
HETATM   44  C19 UNL     1     -11.568  48.380 -38.591  1.00  0.00     0.053 C 
HETATM   45  C23 UNL     1     -11.216  46.334 -37.120  1.00  0.00    -0.014 C 
HETATM   46  C20 UNL     1     -12.966  48.516 -38.126  1.00  0.00     0.149 C 
HETATM   47  O6  UNL     1     -13.699  49.352 -38.647  1.00  0.00    -0.293 OA
HETATM   48  C21 UNL     1     -13.400  47.689 -36.943  1.00  0.00     0.084 C 
HETATM   49  C22 UNL     1     -12.772  46.311 -37.035  1.00  0.00     0.022 C 
HETATM   50  C24 UNL     1     -10.814  44.944 -37.682  1.00  0.00     0.020 C 
HETATM   51  C26 UNL     1     -10.947  45.827 -34.522  1.00  0.00     0.124 C 
HETATM   52  C27 UNL     1     -10.222  46.217 -33.215  1.00  0.00     0.045 C 
HETATM   53  C29 UNL     1      -8.067  44.907 -33.557  1.00  0.00     0.019 C 
BRANCH  34  54
HETATM   54  O5  UNL     1      -8.674  48.299 -31.939  1.00  0.00    -0.381 OA
HETATM   55  H16 UNL     1      -9.188  48.141 -31.118  1.00  0.00     0.211 HD
ENDBRANCH  34  54
BRANCH  51  56
HETATM   56  O7  UNL     1     -10.814  44.429 -34.730  1.00  0.00    -0.395 OA
HETATM   57  H37 UNL     1     -10.069  44.262 -35.325  1.00  0.00     0.210 HD
ENDBRANCH  51  56
ENDBRANCH  32  34
ENDBRANCH  31  32
ENDBRANCH  30  31
ENDBRANCH   1  30
TORSDOF 18
ENDMDL
