MODEL 1
REMARK minimizedAffinity -8.19101524
REMARK CNNscore 0.453492016
REMARK CNNaffinity 6.2647109
REMARK  9 active torsions:
REMARK  status: ('A' for Active; 'I' for Inactive)
REMARK    1  A    between atoms: C7_8  and  O1_9 
REMARK    2  A    between atoms: O1_9  and  C8_10 
REMARK    3  A    between atoms: C8_10  and  C9_11 
REMARK       I    between atoms: C9_11  and  N1_13 
REMARK    4  A    between atoms: N1_13  and  N2_14 
REMARK    5  A    between atoms: C10_16  and  C11_17 
REMARK    6  A    between atoms: C14_20  and  O3_21 
REMARK    7  A    between atoms: C16_23  and  O4_24 
REMARK    8  A    between atoms: C25_33  and  C26_34 
REMARK    9  A    between atoms: C32_42  and  O7_43 
ROOT
HETATM    1  C11 UNL     1      -1.195  11.263  17.376  1.00  0.00     0.028 C 
HETATM    2  C12 UNL     1      -2.242  10.465  18.215  1.00  0.00     0.021 C 
HETATM    3  C13 UNL     1      -3.623  10.332  17.557  1.00  0.00     0.033 C 
HETATM    4  C14 UNL     1      -3.602  10.473  16.041  1.00  0.00     0.121 C 
HETATM    5  C15 UNL     1      -2.941  11.777  15.563  1.00  0.00     0.070 C 
HETATM    6  C16 UNL     1      -1.947  12.378  16.585  1.00  0.00     0.073 C 
HETATM    7  C17 UNL     1      -0.999  13.371  15.892  1.00  0.00     0.039 C 
HETATM    8  C18 UNL     1       0.042  13.962  16.847  1.00  0.00     0.011 C 
HETATM    9  C19 UNL     1       0.841  12.873  17.591  1.00  0.00     0.026 C 
HETATM   10  C20 UNL     1      -0.105  11.884  18.325  1.00  0.00     0.009 C 
HETATM   11  C21 UNL     1       0.676  10.833  19.149  1.00  0.00     0.007 C 
HETATM   12  C22 UNL     1       2.188  10.910  18.975  1.00  0.00     0.013 C 
HETATM   13  C23 UNL     1       2.830  12.311  19.163  1.00  0.00    -0.005 C 
HETATM   14  C24 UNL     1       4.230  12.228  18.502  1.00  0.00     0.019 C 
HETATM   15  C25 UNL     1       3.008  12.773  20.646  1.00  0.00     0.028 C 
HETATM   16  C30 UNL     1       1.695  13.461  21.001  1.00  0.00     0.013 C 
HETATM   17  C31 UNL     1       1.358  14.249  19.744  1.00  0.00     0.040 C 
HETATM   18  C32 UNL     1       1.928  13.447  18.545  1.00  0.00     0.070 C 
ENDROOT
BRANCH   1  19
HETATM   19  C10 UNL     1      -0.459  10.346  16.378  1.00  0.00     0.093 C 
HETATM   20  N2  UNL     1      -0.222  10.711  15.162  1.00  0.00    -0.312 N 
ATOM     21  H2  UNL     1      -0.491  11.633  14.817  1.00  0.00     0.185 HD
BRANCH  20  22
HETATM   22  N1  UNL     1       0.407   9.805  14.361  1.00  0.00    -0.269 N 
HETATM   23  C9  UNL     1      -0.258   9.327  13.231  1.00  0.00     0.260 C 
HETATM   24  O2  UNL     1      -1.391   9.660  12.894  1.00  0.00    -0.269 OA
HETATM   25  H9  UNL     1       1.299   9.414  14.644  1.00  0.00     0.190 HD
BRANCH  23  26
HETATM   26  C8  UNL     1       0.584   8.312  12.446  1.00  0.00     0.280 C 
BRANCH  26  27
HETATM   27  O1  UNL     1       1.316   8.810  11.340  1.00  0.00    -0.342 OA
BRANCH  27  28
HETATM   28  C7  UNL     1       1.815   7.916  10.430  1.00  0.00     0.075 A 
HETATM   29  C2  UNL     1       1.109   7.834   9.212  1.00  0.00    -0.027 A 
HETATM   30  C1  UNL     1      -0.094   8.701   8.960  1.00  0.00     0.051 C 
HETATM   31  C3  UNL     1       1.533   6.932   8.223  1.00  0.00     0.033 A 
HETATM   32  C4  UNL     1       2.648   6.128   8.440  1.00  0.00     0.034 A 
HETATM   33 CL1  UNL     1       3.161   5.024   7.224  1.00  0.00    -0.084 Cl
HETATM   34  C5  UNL     1       3.349   6.209   9.640  1.00  0.00     0.026 A 
HETATM   35  C6  UNL     1       2.933   7.100  10.635  1.00  0.00     0.039 A 
ENDBRANCH  27  28
ENDBRANCH  26  27
ENDBRANCH  23  26
ENDBRANCH  20  22
ENDBRANCH   1  19
BRANCH   6  36
HETATM   36  O4  UNL     1      -2.761  13.161  17.481  1.00  0.00    -0.389 OA
HETATM   37  H19 UNL     1      -2.225  13.516  18.208  1.00  0.00     0.210 HD
ENDBRANCH   6  36
BRANCH   4  38
HETATM   38  O3  UNL     1      -4.940  10.406  15.552  1.00  0.00    -0.395 OA
HETATM   39  H16 UNL     1      -4.904  10.419  14.582  1.00  0.00     0.210 HD
ENDBRANCH   4  38
BRANCH  18  40
HETATM   40  O7  UNL     1       2.754  14.340  17.789  1.00  0.00    -0.389 OA
HETATM   41  H41 UNL     1       2.280  15.178  17.655  1.00  0.00     0.210 HD
ENDBRANCH  18  40
BRANCH  15  42
HETATM   42  C26 UNL     1       3.491  11.776  21.658  1.00  0.00    -0.045 A 
HETATM   43  C27 UNL     1       2.708  11.071  22.476  1.00  0.00     0.087 A 
HETATM   44  C28 UNL     1       3.573  10.190  23.257  1.00  0.00     0.283 A 
HETATM   45  O5  UNL     1       3.184   9.409  24.105  1.00  0.00    -0.260 OA
HETATM   46  O6  UNL     1       4.863  10.384  22.876  1.00  0.00    -0.314 OA
HETATM   47  C29 UNL     1       4.906  11.375  21.847  1.00  0.00     0.213 A 
ENDBRANCH  15  42
TORSDOF 9
ENDMDL
MODEL 2
REMARK minimizedAffinity -6.98355341
REMARK CNNscore 0.452080935
REMARK CNNaffinity 6.32693672
REMARK  9 active torsions:
REMARK  status: ('A' for Active; 'I' for Inactive)
REMARK    1  A    between atoms: C7_8  and  O1_9 
REMARK    2  A    between atoms: O1_9  and  C8_10 
REMARK    3  A    between atoms: C8_10  and  C9_11 
REMARK       I    between atoms: C9_11  and  N1_13 
REMARK    4  A    between atoms: N1_13  and  N2_14 
REMARK    5  A    between atoms: C10_16  and  C11_17 
REMARK    6  A    between atoms: C14_20  and  O3_21 
REMARK    7  A    between atoms: C16_23  and  O4_24 
REMARK    8  A    between atoms: C25_33  and  C26_34 
REMARK    9  A    between atoms: C32_42  and  O7_43 
ROOT
HETATM    1  C11 UNL     1     -11.943  11.207  17.013  1.00  0.00     0.028 C 
HETATM    2  C12 UNL     1     -10.581  11.961  17.124  1.00  0.00     0.021 C 
HETATM    3  C13 UNL     1     -10.626  13.244  17.967  1.00  0.00     0.033 C 
HETATM    4  C14 UNL     1     -11.759  13.277  18.983  1.00  0.00     0.121 C 
HETATM    5  C15 UNL     1     -13.143  13.040  18.355  1.00  0.00     0.070 C 
HETATM    6  C16 UNL     1     -13.091  12.264  17.018  1.00  0.00     0.073 C 
HETATM    7  C17 UNL     1     -14.468  11.660  16.693  1.00  0.00     0.039 C 
HETATM    8  C18 UNL     1     -14.465  10.837  15.401  1.00  0.00     0.011 C 
HETATM    9  C19 UNL     1     -13.378   9.744  15.405  1.00  0.00     0.026 C 
HETATM   10  C20 UNL     1     -11.976  10.346  15.697  1.00  0.00     0.009 C 
HETATM   11  C21 UNL     1     -10.857   9.281  15.620  1.00  0.00     0.007 C 
HETATM   12  C22 UNL     1     -11.368   7.862  15.397  1.00  0.00     0.013 C 
HETATM   13  C23 UNL     1     -12.362   7.667  14.222  1.00  0.00    -0.005 C 
HETATM   14  C24 UNL     1     -13.068   6.311  14.483  1.00  0.00     0.019 C 
HETATM   15  C25 UNL     1     -11.717   7.625  12.798  1.00  0.00     0.028 C 
HETATM   16  C30 UNL     1     -11.662   9.081  12.351  1.00  0.00     0.013 C 
HETATM   17  C31 UNL     1     -12.992   9.648  12.828  1.00  0.00     0.040 C 
HETATM   18  C32 UNL     1     -13.374   8.872  14.116  1.00  0.00     0.070 C 
ENDROOT
BRANCH   1  19
HETATM   19  C10 UNL     1     -12.145  10.237  18.195  1.00  0.00     0.093 C 
HETATM   20  N2  UNL     1     -12.990   9.260  18.140  1.00  0.00    -0.312 N 
ATOM     21  H2  UNL     1     -13.543   9.077  17.303  1.00  0.00     0.185 HD
BRANCH  20  22
HETATM   22  N1  UNL     1     -13.107   8.488  19.257  1.00  0.00    -0.269 N 
HETATM   23  C9  UNL     1     -14.324   8.469  19.940  1.00  0.00     0.260 C 
HETATM   24  O2  UNL     1     -15.319   9.110  19.613  1.00  0.00    -0.269 OA
HETATM   25  H9  UNL     1     -12.290   8.020  19.635  1.00  0.00     0.190 HD
BRANCH  23  26
HETATM   26  C8  UNL     1     -14.283   7.558  21.175  1.00  0.00     0.280 C 
BRANCH  26  27
HETATM   27  O1  UNL     1     -13.585   6.333  21.040  1.00  0.00    -0.342 OA
BRANCH  27  28
HETATM   28  C7  UNL     1     -13.841   5.332  21.940  1.00  0.00     0.075 A 
HETATM   29  C2  UNL     1     -13.400   5.573  23.256  1.00  0.00    -0.027 A 
HETATM   30  C1  UNL     1     -12.716   6.864  23.614  1.00  0.00     0.051 C 
HETATM   31  C3  UNL     1     -13.600   4.597  24.246  1.00  0.00     0.033 A 
HETATM   32  C4  UNL     1     -14.237   3.400  23.931  1.00  0.00     0.034 A 
HETATM   33 CL1  UNL     1     -14.477   2.208  25.148  1.00  0.00    -0.084 Cl
HETATM   34  C5  UNL     1     -14.676   3.160  22.632  1.00  0.00     0.026 A 
HETATM   35  C6  UNL     1     -14.478   4.123  21.637  1.00  0.00     0.039 A 
ENDBRANCH  27  28
ENDBRANCH  26  27
ENDBRANCH  23  26
ENDBRANCH  20  22
ENDBRANCH   1  19
BRANCH   6  36
HETATM   36  O4  UNL     1     -12.846  13.268  16.013  1.00  0.00    -0.389 OA
HETATM   37  H19 UNL     1     -12.721  12.858  15.143  1.00  0.00     0.210 HD
ENDBRANCH   6  36
BRANCH   4  38
HETATM   38  O3  UNL     1     -11.744  14.537  19.651  1.00  0.00    -0.395 OA
HETATM   39  H16 UNL     1     -12.421  14.513  20.347  1.00  0.00     0.210 HD
ENDBRANCH   4  38
BRANCH  18  40
HETATM   40  O7  UNL     1     -14.697   8.357  13.926  1.00  0.00    -0.389 OA
HETATM   41  H41 UNL     1     -15.267   9.060  13.573  1.00  0.00     0.210 HD
ENDBRANCH  18  40
BRANCH  15  42
HETATM   42  C26 UNL     1     -10.441   6.859  12.608  1.00  0.00    -0.045 A 
HETATM   43  C27 UNL     1      -9.644   6.438  13.591  1.00  0.00     0.087 A 
HETATM   44  C28 UNL     1      -8.546   5.697  12.976  1.00  0.00     0.283 A 
HETATM   45  O5  UNL     1      -7.632   5.175  13.587  1.00  0.00    -0.260 OA
HETATM   46  O6  UNL     1      -8.721   5.683  11.628  1.00  0.00    -0.314 OA
HETATM   47  C29 UNL     1      -9.917   6.394  11.302  1.00  0.00     0.213 A 
ENDBRANCH  15  42
TORSDOF 9
ENDMDL
MODEL 3
REMARK minimizedAffinity -8.69811153
REMARK CNNscore 0.403478354
REMARK CNNaffinity 6.75519419
REMARK  9 active torsions:
REMARK  status: ('A' for Active; 'I' for Inactive)
REMARK    1  A    between atoms: C7_8  and  O1_9 
REMARK    2  A    between atoms: O1_9  and  C8_10 
REMARK    3  A    between atoms: C8_10  and  C9_11 
REMARK       I    between atoms: C9_11  and  N1_13 
REMARK    4  A    between atoms: N1_13  and  N2_14 
REMARK    5  A    between atoms: C10_16  and  C11_17 
REMARK    6  A    between atoms: C14_20  and  O3_21 
REMARK    7  A    between atoms: C16_23  and  O4_24 
REMARK    8  A    between atoms: C25_33  and  C26_34 
REMARK    9  A    between atoms: C32_42  and  O7_43 
ROOT
HETATM    1  C11 UNL     1      -2.602   8.213  13.635  1.00  0.00     0.028 C 
HETATM    2  C12 UNL     1      -3.707   8.343  12.539  1.00  0.00     0.021 C 
HETATM    3  C13 UNL     1      -5.144   8.386  13.081  1.00  0.00     0.033 C 
HETATM    4  C14 UNL     1      -5.246   8.858  14.525  1.00  0.00     0.121 C 
HETATM    5  C15 UNL     1      -4.369   8.044  15.492  1.00  0.00     0.070 C 
HETATM    6  C16 UNL     1      -3.170   7.350  14.804  1.00  0.00     0.073 C 
HETATM    7  C17 UNL     1      -2.103   6.966  15.844  1.00  0.00     0.039 C 
HETATM    8  C18 UNL     1      -0.867   6.318  15.213  1.00  0.00     0.011 C 
HETATM    9  C19 UNL     1      -0.253   7.187  14.097  1.00  0.00     0.026 C 
HETATM   10  C20 UNL     1      -1.313   7.552  13.022  1.00  0.00     0.009 C 
HETATM   11  C21 UNL     1      -0.700   8.351  11.848  1.00  0.00     0.007 C 
HETATM   12  C22 UNL     1       0.767   8.713  12.046  1.00  0.00     0.013 C 
HETATM   13  C23 UNL     1       1.714   7.550  12.443  1.00  0.00    -0.005 C 
HETATM   14  C24 UNL     1       2.989   8.217  13.021  1.00  0.00     0.019 C 
HETATM   15  C25 UNL     1       2.138   6.602  11.273  1.00  0.00     0.028 C 
HETATM   16  C30 UNL     1       1.049   5.537  11.219  1.00  0.00     0.013 C 
HETATM   17  C31 UNL     1       0.766   5.247  12.685  1.00  0.00     0.040 C 
HETATM   18  C32 UNL     1       1.023   6.565  13.462  1.00  0.00     0.070 C 
ENDROOT
BRANCH   1  19
HETATM   19  C10 UNL     1      -2.188   9.594  14.181  1.00  0.00     0.093 C 
HETATM   20  N2  UNL     1      -2.667  10.063  15.286  1.00  0.00    -0.312 N 
ATOM     21  H2  UNL     1      -3.323   9.527  15.855  1.00  0.00     0.185 HD
BRANCH  20  22
HETATM   22  N1  UNL     1      -2.254  11.308  15.654  1.00  0.00    -0.269 N 
HETATM   23  C9  UNL     1      -1.539  11.458  16.843  1.00  0.00     0.260 C 
HETATM   24  O2  UNL     1      -1.249  10.539  17.605  1.00  0.00    -0.269 OA
HETATM   25  H9  UNL     1      -2.553  12.117  15.120  1.00  0.00     0.190 HD
BRANCH  23  26
HETATM   26  C8  UNL     1      -1.157  12.920  17.112  1.00  0.00     0.280 C 
BRANCH  26  27
HETATM   27  O1  UNL     1      -2.219  13.857  17.164  1.00  0.00    -0.342 OA
BRANCH  27  28
HETATM   28  C7  UNL     1      -3.048  13.845  18.256  1.00  0.00     0.075 A 
HETATM   29  C2  UNL     1      -2.840  14.884  19.185  1.00  0.00    -0.027 A 
HETATM   30  C1  UNL     1      -1.783  15.928  18.948  1.00  0.00     0.051 C 
HETATM   31  C3  UNL     1      -3.629  14.946  20.345  1.00  0.00     0.033 A 
HETATM   32  C4  UNL     1      -4.615  13.991  20.575  1.00  0.00     0.034 A 
HETATM   33 CL1  UNL     1      -5.575  14.072  21.999  1.00  0.00    -0.084 Cl
HETATM   34  C5  UNL     1      -4.824  12.965  19.657  1.00  0.00     0.026 A 
HETATM   35  C6  UNL     1      -4.041  12.891  18.500  1.00  0.00     0.039 A 
ENDBRANCH  27  28
ENDBRANCH  26  27
ENDBRANCH  23  26
ENDBRANCH  20  22
ENDBRANCH   1  19
BRANCH   6  36
HETATM   36  O4  UNL     1      -3.698   6.109  14.296  1.00  0.00    -0.389 OA
HETATM   37  H19 UNL     1      -3.027   5.638  13.777  1.00  0.00     0.210 HD
ENDBRANCH   6  36
BRANCH   4  38
HETATM   38  O3  UNL     1      -6.609   8.788  14.938  1.00  0.00    -0.395 OA
HETATM   39  H16 UNL     1      -6.670   9.163  15.832  1.00  0.00     0.210 HD
ENDBRANCH   4  38
BRANCH  18  40
HETATM   40  O7  UNL     1       1.943   6.264  14.518  1.00  0.00    -0.389 OA
HETATM   41  H41 UNL     1       1.652   5.458  14.976  1.00  0.00     0.210 HD
ENDBRANCH  18  40
BRANCH  15  42
HETATM   42  C26 UNL     1       2.492   7.209   9.947  1.00  0.00    -0.045 A 
HETATM   43  C27 UNL     1       1.795   7.055   8.820  1.00  0.00     0.087 A 
HETATM   44  C28 UNL     1       2.455   7.847   7.786  1.00  0.00     0.283 A 
HETATM   45  O5  UNL     1       2.081   7.930   6.631  1.00  0.00    -0.260 OA
HETATM   46  O6  UNL     1       3.534   8.471   8.326  1.00  0.00    -0.314 OA
HETATM   47  C29 UNL     1       3.630   8.130   9.711  1.00  0.00     0.213 A 
ENDBRANCH  15  42
TORSDOF 9
ENDMDL
MODEL 4
REMARK minimizedAffinity -8.17127323
REMARK CNNscore 0.309776574
REMARK CNNaffinity 6.76949072
REMARK  9 active torsions:
REMARK  status: ('A' for Active; 'I' for Inactive)
REMARK    1  A    between atoms: C7_8  and  O1_9 
REMARK    2  A    between atoms: O1_9  and  C8_10 
REMARK    3  A    between atoms: C8_10  and  C9_11 
REMARK       I    between atoms: C9_11  and  N1_13 
REMARK    4  A    between atoms: N1_13  and  N2_14 
REMARK    5  A    between atoms: C10_16  and  C11_17 
REMARK    6  A    between atoms: C14_20  and  O3_21 
REMARK    7  A    between atoms: C16_23  and  O4_24 
REMARK    8  A    between atoms: C25_33  and  C26_34 
REMARK    9  A    between atoms: C32_42  and  O7_43 
ROOT
HETATM    1  C11 UNL     1     -10.550   9.083  14.880  1.00  0.00     0.028 C 
HETATM    2  C12 UNL     1     -10.401  10.622  14.656  1.00  0.00     0.021 C 
HETATM    3  C13 UNL     1     -11.714  11.353  14.339  1.00  0.00     0.033 C 
HETATM    4  C14 UNL     1     -12.960  10.630  14.834  1.00  0.00     0.121 C 
HETATM    5  C15 UNL     1     -13.058   9.180  14.332  1.00  0.00     0.070 C 
HETATM    6  C16 UNL     1     -11.692   8.562  13.953  1.00  0.00     0.073 C 
HETATM    7  C17 UNL     1     -11.787   7.027  13.919  1.00  0.00     0.039 C 
HETATM    8  C18 UNL     1     -10.449   6.356  13.597  1.00  0.00     0.011 C 
HETATM    9  C19 UNL     1      -9.321   6.812  14.544  1.00  0.00     0.026 C 
HETATM   10  C20 UNL     1      -9.190   8.359  14.560  1.00  0.00     0.009 C 
HETATM   11  C21 UNL     1      -8.009   8.836  15.437  1.00  0.00     0.007 C 
HETATM   12  C22 UNL     1      -7.305   7.712  16.188  1.00  0.00     0.013 C 
HETATM   13  C23 UNL     1      -6.872   6.486  15.342  1.00  0.00    -0.005 C 
HETATM   14  C24 UNL     1      -6.622   5.338  16.353  1.00  0.00     0.019 C 
HETATM   15  C25 UNL     1      -5.577   6.685  14.488  1.00  0.00     0.028 C 
HETATM   16  C30 UNL     1      -6.065   7.272  13.168  1.00  0.00     0.013 C 
HETATM   17  C31 UNL     1      -7.338   6.488  12.883  1.00  0.00     0.040 C 
HETATM   18  C32 UNL     1      -7.956   6.121  14.257  1.00  0.00     0.070 C 
ENDROOT
BRANCH   1  19
HETATM   19  C10 UNL     1     -10.902   8.761  16.345  1.00  0.00     0.093 C 
HETATM   20  N2  UNL     1     -10.565   9.544  17.317  1.00  0.00    -0.312 N 
ATOM     21  H2  UNL     1     -10.071  10.421  17.151  1.00  0.00     0.185 HD
BRANCH  20  22
HETATM   22  N1  UNL     1     -10.902   9.141  18.574  1.00  0.00    -0.269 N 
HETATM   23  C9  UNL     1     -11.752   9.944  19.336  1.00  0.00     0.260 C 
HETATM   24  O2  UNL     1     -12.228  11.012  18.959  1.00  0.00    -0.269 OA
HETATM   25  H9  UNL     1     -10.458   8.323  18.979  1.00  0.00     0.190 HD
BRANCH  23  26
HETATM   26  C8  UNL     1     -12.024   9.351  20.725  1.00  0.00     0.280 C 
BRANCH  26  27
HETATM   27  O1  UNL     1     -13.347   8.917  20.986  1.00  0.00    -0.342 OA
BRANCH  27  28
HETATM   28  C7  UNL     1     -13.533   7.669  21.520  1.00  0.00     0.075 A 
HETATM   29  C2  UNL     1     -13.298   7.563  22.905  1.00  0.00    -0.027 A 
HETATM   30  C1  UNL     1     -12.892   8.766  23.712  1.00  0.00     0.051 C 
HETATM   31  C3  UNL     1     -13.445   6.319  23.541  1.00  0.00     0.033 A 
HETATM   32  C4  UNL     1     -13.826   5.199  22.809  1.00  0.00     0.034 A 
HETATM   33 CL1  UNL     1     -14.002   3.678  23.594  1.00  0.00    -0.084 Cl
HETATM   34  C5  UNL     1     -14.062   5.302  21.440  1.00  0.00     0.026 A 
HETATM   35  C6  UNL     1     -13.914   6.534  20.796  1.00  0.00     0.039 A 
ENDBRANCH  27  28
ENDBRANCH  26  27
ENDBRANCH  23  26
ENDBRANCH  20  22
ENDBRANCH   1  19
BRANCH   6  36
HETATM   36  O4  UNL     1     -11.459   8.978  12.593  1.00  0.00    -0.389 OA
HETATM   37  H19 UNL     1     -10.579   8.698  12.295  1.00  0.00     0.210 HD
ENDBRANCH   6  36
BRANCH   4  38
HETATM   38  O3  UNL     1     -14.112  11.361  14.421  1.00  0.00    -0.395 OA
HETATM   39  H16 UNL     1     -14.892  10.932  14.809  1.00  0.00     0.210 HD
ENDBRANCH   4  38
BRANCH  18  40
HETATM   40  O7  UNL     1      -8.167   4.704  14.265  1.00  0.00    -0.389 OA
HETATM   41  H41 UNL     1      -8.594   4.440  13.433  1.00  0.00     0.210 HD
ENDBRANCH  18  40
BRANCH  15  42
HETATM   42  C26 UNL     1      -4.411   7.402  15.103  1.00  0.00    -0.045 A 
HETATM   43  C27 UNL     1      -3.281   6.824  15.512  1.00  0.00     0.087 A 
HETATM   44  C28 UNL     1      -2.399   7.881  15.998  1.00  0.00     0.283 A 
HETATM   45  O5  UNL     1      -1.283   7.702  16.449  1.00  0.00    -0.260 OA
HETATM   46  O6  UNL     1      -3.024   9.079  15.856  1.00  0.00    -0.314 OA
HETATM   47  C29 UNL     1      -4.315   8.871  15.279  1.00  0.00     0.213 A 
ENDBRANCH  15  42
TORSDOF 9
ENDMDL
MODEL 5
REMARK minimizedAffinity -8.46245575
REMARK CNNscore 0.286998361
REMARK CNNaffinity 7.02878046
REMARK  9 active torsions:
REMARK  status: ('A' for Active; 'I' for Inactive)
REMARK    1  A    between atoms: C7_8  and  O1_9 
REMARK    2  A    between atoms: O1_9  and  C8_10 
REMARK    3  A    between atoms: C8_10  and  C9_11 
REMARK       I    between atoms: C9_11  and  N1_13 
REMARK    4  A    between atoms: N1_13  and  N2_14 
REMARK    5  A    between atoms: C10_16  and  C11_17 
REMARK    6  A    between atoms: C14_20  and  O3_21 
REMARK    7  A    between atoms: C16_23  and  O4_24 
REMARK    8  A    between atoms: C25_33  and  C26_34 
REMARK    9  A    between atoms: C32_42  and  O7_43 
ROOT
HETATM    1  C11 UNL     1      -8.164   5.986  13.900  1.00  0.00     0.028 C 
HETATM    2  C12 UNL     1      -7.778   4.920  14.974  1.00  0.00     0.021 C 
HETATM    3  C13 UNL     1      -7.140   3.643  14.409  1.00  0.00     0.033 C 
HETATM    4  C14 UNL     1      -6.481   3.831  13.049  1.00  0.00     0.121 C 
HETATM    5  C15 UNL     1      -7.429   4.427  11.995  1.00  0.00     0.070 C 
HETATM    6  C16 UNL     1      -8.598   5.238  12.601  1.00  0.00     0.073 C 
HETATM    7  C17 UNL     1      -9.210   6.172  11.543  1.00  0.00     0.039 C 
HETATM    8  C18 UNL     1     -10.343   7.038  12.101  1.00  0.00     0.011 C 
HETATM    9  C19 UNL     1      -9.913   7.835  13.349  1.00  0.00     0.026 C 
HETATM   10  C20 UNL     1      -9.326   6.898  14.440  1.00  0.00     0.009 C 
HETATM   11  C21 UNL     1      -8.967   7.665  15.735  1.00  0.00     0.007 C 
HETATM   12  C22 UNL     1      -9.148   9.174  15.630  1.00  0.00     0.013 C 
HETATM   13  C23 UNL     1     -10.517   9.666  15.088  1.00  0.00    -0.005 C 
HETATM   14  C24 UNL     1     -10.297  11.136  14.648  1.00  0.00     0.019 C 
HETATM   15  C25 UNL     1     -11.696   9.627  16.114  1.00  0.00     0.028 C 
HETATM   16  C30 UNL     1     -12.283   8.227  15.982  1.00  0.00     0.013 C 
HETATM   17  C31 UNL     1     -12.257   7.973  14.482  1.00  0.00     0.040 C 
HETATM   18  C32 UNL     1     -11.038   8.748  13.917  1.00  0.00     0.070 C 
ENDROOT
BRANCH   1  19
HETATM   19  C10 UNL     1      -6.974   6.911  13.576  1.00  0.00     0.093 C 
HETATM   20  N2  UNL     1      -5.893   6.909  14.286  1.00  0.00    -0.312 N 
ATOM     21  H2  UNL     1      -5.775   6.277  15.077  1.00  0.00     0.185 HD
BRANCH  20  22
HETATM   22  N1  UNL     1      -4.921   7.792  13.924  1.00  0.00    -0.269 N 
HETATM   23  C9  UNL     1      -3.839   7.333  13.169  1.00  0.00     0.260 C 
HETATM   24  O2  UNL     1      -3.688   6.172  12.800  1.00  0.00    -0.269 OA
HETATM   25  H9  UNL     1      -4.937   8.738  14.288  1.00  0.00     0.190 HD
BRANCH  23  26
HETATM   26  C8  UNL     1      -2.834   8.450  12.856  1.00  0.00     0.280 C 
BRANCH  26  27
HETATM   27  O1  UNL     1      -1.467   8.160  13.087  1.00  0.00    -0.342 OA
BRANCH  27  28
HETATM   28  C7  UNL     1      -0.675   7.840  12.016  1.00  0.00     0.075 A 
HETATM   29  C2  UNL     1      -0.012   6.600  12.102  1.00  0.00    -0.027 A 
HETATM   30  C1  UNL     1      -0.202   5.707  13.298  1.00  0.00     0.051 C 
HETATM   31  C3  UNL     1       0.837   6.192  11.061  1.00  0.00     0.033 A 
HETATM   32  C4  UNL     1       1.018   7.005   9.945  1.00  0.00     0.034 A 
HETATM   33 CL1  UNL     1       2.062   6.500   8.674  1.00  0.00    -0.084 Cl
HETATM   34  C5  UNL     1       0.362   8.229   9.856  1.00  0.00     0.026 A 
HETATM   35  C6  UNL     1      -0.483   8.648  10.890  1.00  0.00     0.039 A 
ENDBRANCH  27  28
ENDBRANCH  26  27
ENDBRANCH  23  26
ENDBRANCH  20  22
ENDBRANCH   1  19
BRANCH   6  36
HETATM   36  O4  UNL     1      -9.612   4.260  12.906  1.00  0.00    -0.389 OA
HETATM   37  H19 UNL     1     -10.359   4.673  13.366  1.00  0.00     0.210 HD
ENDBRANCH   6  36
BRANCH   4  38
HETATM   38  O3  UNL     1      -5.991   2.570  12.596  1.00  0.00    -0.395 OA
HETATM   39  H16 UNL     1      -5.508   2.719  11.767  1.00  0.00     0.210 HD
ENDBRANCH   4  38
BRANCH  18  40
HETATM   40  O7  UNL     1     -11.516   9.577  12.851  1.00  0.00    -0.389 OA
HETATM   41  H41 UNL     1     -12.092   9.051  12.272  1.00  0.00     0.210 HD
ENDBRANCH  18  40
BRANCH  15  42
HETATM   42  C26 UNL     1     -11.439  10.072  17.525  1.00  0.00    -0.045 A 
HETATM   43  C27 UNL     1     -11.401   9.269  18.589  1.00  0.00     0.087 A 
HETATM   44  C28 UNL     1     -11.075  10.094  19.748  1.00  0.00     0.283 A 
HETATM   45  O5  UNL     1     -10.963   9.680  20.887  1.00  0.00    -0.260 OA
HETATM   46  O6  UNL     1     -10.915  11.382  19.344  1.00  0.00    -0.314 OA
HETATM   47  C29 UNL     1     -11.117  11.460  17.932  1.00  0.00     0.213 A 
ENDBRANCH  15  42
TORSDOF 9
ENDMDL
MODEL 6
REMARK minimizedAffinity -8.58963394
REMARK CNNscore 0.250640988
REMARK CNNaffinity 6.73971939
REMARK  9 active torsions:
REMARK  status: ('A' for Active; 'I' for Inactive)
REMARK    1  A    between atoms: C7_8  and  O1_9 
REMARK    2  A    between atoms: O1_9  and  C8_10 
REMARK    3  A    between atoms: C8_10  and  C9_11 
REMARK       I    between atoms: C9_11  and  N1_13 
REMARK    4  A    between atoms: N1_13  and  N2_14 
REMARK    5  A    between atoms: C10_16  and  C11_17 
REMARK    6  A    between atoms: C14_20  and  O3_21 
REMARK    7  A    between atoms: C16_23  and  O4_24 
REMARK    8  A    between atoms: C25_33  and  C26_34 
REMARK    9  A    between atoms: C32_42  and  O7_43 
ROOT
HETATM    1  C11 UNL     1     -10.558   9.175  14.816  1.00  0.00     0.028 C 
HETATM    2  C12 UNL     1     -10.313  10.709  14.652  1.00  0.00     0.021 C 
HETATM    3  C13 UNL     1     -11.572  11.528  14.336  1.00  0.00     0.033 C 
HETATM    4  C14 UNL     1     -12.869  10.866  14.781  1.00  0.00     0.121 C 
HETATM    5  C15 UNL     1     -13.044   9.443  14.225  1.00  0.00     0.070 C 
HETATM    6  C16 UNL     1     -11.709   8.756  13.850  1.00  0.00     0.073 C 
HETATM    7  C17 UNL     1     -11.896   7.232  13.759  1.00  0.00     0.039 C 
HETATM    8  C18 UNL     1     -10.594   6.494  13.438  1.00  0.00     0.011 C 
HETATM    9  C19 UNL     1      -9.460   6.847  14.422  1.00  0.00     0.026 C 
HETATM   10  C20 UNL     1      -9.238   8.382  14.496  1.00  0.00     0.009 C 
HETATM   11  C21 UNL     1      -8.049   8.755  15.413  1.00  0.00     0.007 C 
HETATM   12  C22 UNL     1      -7.429   7.565  16.136  1.00  0.00     0.013 C 
HETATM   13  C23 UNL     1      -7.053   6.345  15.254  1.00  0.00    -0.005 C 
HETATM   14  C24 UNL     1      -6.893   5.149  16.228  1.00  0.00     0.019 C 
HETATM   15  C25 UNL     1      -5.730   6.495  14.433  1.00  0.00     0.028 C 
HETATM   16  C30 UNL     1      -6.154   7.156  13.126  1.00  0.00     0.013 C 
HETATM   17  C31 UNL     1      -7.466   6.461  12.789  1.00  0.00     0.040 C 
HETATM   18  C32 UNL     1      -8.134   6.085  14.136  1.00  0.00     0.070 C 
ENDROOT
BRANCH   1  19
HETATM   19  C10 UNL     1     -10.960   8.824  16.263  1.00  0.00     0.093 C 
HETATM   20  N2  UNL     1     -10.727   9.624  17.250  1.00  0.00    -0.312 N 
ATOM     21  H2  UNL     1     -10.287  10.534  17.109  1.00  0.00     0.185 HD
BRANCH  20  22
HETATM   22  N1  UNL     1     -11.098   9.194  18.489  1.00  0.00    -0.269 N 
HETATM   23  C9  UNL     1     -12.250   9.725  19.071  1.00  0.00     0.260 C 
HETATM   24  O2  UNL     1     -12.971  10.571  18.548  1.00  0.00    -0.269 OA
HETATM   25  H9  UNL     1     -10.487   8.577  19.013  1.00  0.00     0.190 HD
BRANCH  23  26
HETATM   26  C8  UNL     1     -12.520   9.141  20.464  1.00  0.00     0.280 C 
BRANCH  26  27
HETATM   27  O1  UNL     1     -11.404   9.011  21.327  1.00  0.00    -0.342 OA
BRANCH  27  28
HETATM   28  C7  UNL     1     -10.959  10.123  21.994  1.00  0.00     0.075 A 
HETATM   29  C2  UNL     1     -10.918  10.011  23.398  1.00  0.00    -0.027 A 
HETATM   30  C1  UNL     1     -11.325   8.734  24.081  1.00  0.00     0.051 C 
HETATM   31  C3  UNL     1     -10.493  11.106  24.169  1.00  0.00     0.033 A 
HETATM   32  C4  UNL     1     -10.108  12.292  23.551  1.00  0.00     0.034 A 
HETATM   33 CL1  UNL     1      -9.591  13.628  24.503  1.00  0.00    -0.084 Cl
HETATM   34  C5  UNL     1     -10.145  12.403  22.164  1.00  0.00     0.026 A 
HETATM   35  C6  UNL     1     -10.571  11.322  21.386  1.00  0.00     0.039 A 
ENDBRANCH  27  28
ENDBRANCH  26  27
ENDBRANCH  23  26
ENDBRANCH  20  22
ENDBRANCH   1  19
BRANCH   6  36
HETATM   36  O4  UNL     1     -11.423   9.205  12.511  1.00  0.00    -0.389 OA
HETATM   37  H19 UNL     1     -10.556   8.883  12.219  1.00  0.00     0.210 HD
ENDBRANCH   6  36
BRANCH   4  38
HETATM   38  O3  UNL     1     -13.967  11.680  14.373  1.00  0.00    -0.395 OA
HETATM   39  H16 UNL     1     -14.779  11.285  14.730  1.00  0.00     0.210 HD
ENDBRANCH   4  38
BRANCH  18  40
HETATM   40  O7  UNL     1      -8.429   4.684  14.089  1.00  0.00    -0.389 OA
HETATM   41  H41 UNL     1      -8.853   4.475  13.240  1.00  0.00     0.210 HD
ENDBRANCH  18  40
BRANCH  15  42
HETATM   42  C26 UNL     1      -4.537   7.119  15.096  1.00  0.00    -0.045 A 
HETATM   43  C27 UNL     1      -4.364   8.426  15.293  1.00  0.00     0.087 A 
HETATM   44  C28 UNL     1      -3.103   8.597  16.010  1.00  0.00     0.283 A 
HETATM   45  O5  UNL     1      -2.636   9.669  16.349  1.00  0.00    -0.260 OA
HETATM   46  O6  UNL     1      -2.553   7.375  16.236  1.00  0.00    -0.314 OA
HETATM   47  C29 UNL     1      -3.409   6.367  15.695  1.00  0.00     0.213 A 
ENDBRANCH  15  42
TORSDOF 9
ENDMDL
MODEL 7
REMARK minimizedAffinity -8.91366196
REMARK CNNscore 0.239973947
REMARK CNNaffinity 6.99341202
REMARK  9 active torsions:
REMARK  status: ('A' for Active; 'I' for Inactive)
REMARK    1  A    between atoms: C7_8  and  O1_9 
REMARK    2  A    between atoms: O1_9  and  C8_10 
REMARK    3  A    between atoms: C8_10  and  C9_11 
REMARK       I    between atoms: C9_11  and  N1_13 
REMARK    4  A    between atoms: N1_13  and  N2_14 
REMARK    5  A    between atoms: C10_16  and  C11_17 
REMARK    6  A    between atoms: C14_20  and  O3_21 
REMARK    7  A    between atoms: C16_23  and  O4_24 
REMARK    8  A    between atoms: C25_33  and  C26_34 
REMARK    9  A    between atoms: C32_42  and  O7_43 
ROOT
HETATM    1  C11 UNL     1      -3.344   8.672  15.182  1.00  0.00     0.028 C 
HETATM    2  C12 UNL     1      -3.400  10.108  15.793  1.00  0.00     0.021 C 
HETATM    3  C13 UNL     1      -2.055  10.635  16.315  1.00  0.00     0.033 C 
HETATM    4  C14 UNL     1      -0.842   9.975  15.673  1.00  0.00     0.121 C 
HETATM    5  C15 UNL     1      -0.858   8.441  15.784  1.00  0.00     0.070 C 
HETATM    6  C16 UNL     1      -2.275   7.848  15.964  1.00  0.00     0.073 C 
HETATM    7  C17 UNL     1      -2.282   6.353  15.601  1.00  0.00     0.039 C 
HETATM    8  C18 UNL     1      -3.672   5.722  15.714  1.00  0.00     0.011 C 
HETATM    9  C19 UNL     1      -4.732   6.486  14.895  1.00  0.00     0.026 C 
HETATM   10  C20 UNL     1      -4.760   7.991  15.278  1.00  0.00     0.009 C 
HETATM   11  C21 UNL     1      -5.874   8.762  14.531  1.00  0.00     0.007 C 
HETATM   12  C22 UNL     1      -6.621   7.924  13.501  1.00  0.00     0.013 C 
HETATM   13  C23 UNL     1      -7.165   6.556  13.993  1.00  0.00    -0.005 C 
HETATM   14  C24 UNL     1      -7.452   5.728  12.714  1.00  0.00     0.019 C 
HETATM   15  C25 UNL     1      -8.475   6.623  14.844  1.00  0.00     0.028 C 
HETATM   16  C30 UNL     1      -8.000   6.814  16.280  1.00  0.00     0.013 C 
HETATM   17  C31 UNL     1      -6.792   5.893  16.377  1.00  0.00     0.040 C 
HETATM   18  C32 UNL     1      -6.148   5.847  14.967  1.00  0.00     0.070 C 
ENDROOT
BRANCH   1  19
HETATM   19  C10 UNL     1      -2.959   8.712  13.690  1.00  0.00     0.093 C 
HETATM   20  N2  UNL     1      -2.140   7.856  13.173  1.00  0.00    -0.312 N 
ATOM     21  H2  UNL     1      -1.733   7.103  13.727  1.00  0.00     0.185 HD
BRANCH  20  22
HETATM   22  N1  UNL     1      -1.849   8.009  11.851  1.00  0.00    -0.269 N 
HETATM   23  C9  UNL     1      -0.644   8.615  11.491  1.00  0.00     0.260 C 
HETATM   24  O2  UNL     1       0.191   9.035  12.287  1.00  0.00    -0.269 OA
HETATM   25  H9  UNL     1      -2.544   7.777  11.150  1.00  0.00     0.190 HD
BRANCH  23  26
HETATM   26  C8  UNL     1      -0.475   8.716   9.969  1.00  0.00     0.280 C 
BRANCH  26  27
HETATM   27  O1  UNL     1       0.192   7.642   9.329  1.00  0.00    -0.342 OA
BRANCH  27  28
HETATM   28  C7  UNL     1       1.420   7.261   9.801  1.00  0.00     0.075 A 
HETATM   29  C2  UNL     1       2.524   7.707   9.047  1.00  0.00    -0.027 A 
HETATM   30  C1  UNL     1       2.327   8.560   7.824  1.00  0.00     0.051 C 
HETATM   31  C3  UNL     1       3.824   7.350   9.442  1.00  0.00     0.033 A 
HETATM   32  C4  UNL     1       4.023   6.566  10.574  1.00  0.00     0.034 A 
HETATM   33 CL1  UNL     1       5.618   6.132  11.050  1.00  0.00    -0.084 Cl
HETATM   34  C5  UNL     1       2.934   6.127  11.323  1.00  0.00     0.026 A 
HETATM   35  C6  UNL     1       1.634   6.472  10.936  1.00  0.00     0.039 A 
ENDBRANCH  27  28
ENDBRANCH  26  27
ENDBRANCH  23  26
ENDBRANCH  20  22
ENDBRANCH   1  19
BRANCH   6  36
HETATM   36  O4  UNL     1      -2.531   7.917  17.381  1.00  0.00    -0.389 OA
HETATM   37  H19 UNL     1      -3.437   7.634  17.579  1.00  0.00     0.210 HD
ENDBRANCH   6  36
BRANCH   4  38
HETATM   38  O3  UNL     1       0.340  10.489  16.284  1.00  0.00    -0.395 OA
HETATM   39  H16 UNL     1       1.104  10.118  15.813  1.00  0.00     0.210 HD
ENDBRANCH   4  38
BRANCH  18  40
HETATM   40  O7  UNL     1      -6.031   4.468  14.596  1.00  0.00    -0.389 OA
HETATM   41  H41 UNL     1      -5.654   3.968  15.339  1.00  0.00     0.210 HD
ENDBRANCH  18  40
BRANCH  15  42
HETATM   42  C26 UNL     1      -9.568   7.558  14.413  1.00  0.00    -0.045 A 
HETATM   43  C27 UNL     1     -10.556   7.249  13.573  1.00  0.00     0.087 A 
HETATM   44  C28 UNL     1     -11.421   8.421  13.465  1.00  0.00     0.283 A 
HETATM   45  O5  UNL     1     -12.421   8.485  12.775  1.00  0.00    -0.260 OA
HETATM   46  O6  UNL     1     -10.930   9.408  14.260  1.00  0.00    -0.314 OA
HETATM   47  C29 UNL     1      -9.749   8.941  14.916  1.00  0.00     0.213 A 
ENDBRANCH  15  42
TORSDOF 9
ENDMDL
MODEL 8
REMARK minimizedAffinity -10.08249
REMARK CNNscore 0.231671393
REMARK CNNaffinity 6.77838898
REMARK  9 active torsions:
REMARK  status: ('A' for Active; 'I' for Inactive)
REMARK    1  A    between atoms: C7_8  and  O1_9 
REMARK    2  A    between atoms: O1_9  and  C8_10 
REMARK    3  A    between atoms: C8_10  and  C9_11 
REMARK       I    between atoms: C9_11  and  N1_13 
REMARK    4  A    between atoms: N1_13  and  N2_14 
REMARK    5  A    between atoms: C10_16  and  C11_17 
REMARK    6  A    between atoms: C14_20  and  O3_21 
REMARK    7  A    between atoms: C16_23  and  O4_24 
REMARK    8  A    between atoms: C25_33  and  C26_34 
REMARK    9  A    between atoms: C32_42  and  O7_43 
ROOT
HETATM    1  C11 UNL     1      -2.879   7.613  14.755  1.00  0.00     0.028 C 
HETATM    2  C12 UNL     1      -2.396   6.163  15.077  1.00  0.00     0.021 C 
HETATM    3  C13 UNL     1      -3.170   5.053  14.349  1.00  0.00     0.033 C 
HETATM    4  C14 UNL     1      -3.849   5.513  13.066  1.00  0.00     0.121 C 
HETATM    5  C15 UNL     1      -4.778   6.721  13.272  1.00  0.00     0.070 C 
HETATM    6  C16 UNL     1      -4.420   7.573  14.512  1.00  0.00     0.073 C 
HETATM    7  C17 UNL     1      -5.049   8.972  14.403  1.00  0.00     0.039 C 
HETATM    8  C18 UNL     1      -4.687   9.879  15.582  1.00  0.00     0.011 C 
HETATM    9  C19 UNL     1      -3.164   9.982  15.797  1.00  0.00     0.026 C 
HETATM   10  C20 UNL     1      -2.521   8.576  15.946  1.00  0.00     0.009 C 
HETATM   11  C21 UNL     1      -1.007   8.656  16.249  1.00  0.00     0.007 C 
HETATM   12  C22 UNL     1      -0.445  10.073  16.219  1.00  0.00     0.013 C 
HETATM   13  C23 UNL     1      -1.207  11.132  17.059  1.00  0.00    -0.005 C 
HETATM   14  C24 UNL     1      -0.753  12.512  16.518  1.00  0.00     0.019 C 
HETATM   15  C25 UNL     1      -0.935  11.089  18.598  1.00  0.00     0.028 C 
HETATM   16  C30 UNL     1      -1.953  10.096  19.148  1.00  0.00     0.013 C 
HETATM   17  C31 UNL     1      -3.218  10.419  18.367  1.00  0.00     0.040 C 
HETATM   18  C32 UNL     1      -2.768  10.924  16.971  1.00  0.00     0.070 C 
ENDROOT
BRANCH   1  19
HETATM   19  C10 UNL     1      -2.184   8.168  13.496  1.00  0.00     0.093 C 
HETATM   20  N2  UNL     1      -1.108   7.636  13.019  1.00  0.00    -0.312 N 
ATOM     21  H2  UNL     1      -0.685   6.810  13.443  1.00  0.00     0.185 HD
BRANCH  20  22
HETATM   22  N1  UNL     1      -0.564   8.232  11.921  1.00  0.00    -0.269 N 
HETATM   23  C9  UNL     1      -0.115   7.430  10.870  1.00  0.00     0.260 C 
HETATM   24  O2  UNL     1      -0.167   6.203  10.856  1.00  0.00    -0.269 OA
HETATM   25  H9  UNL     1      -0.398   9.233  11.919  1.00  0.00     0.190 HD
BRANCH  23  26
HETATM   26  C8  UNL     1       0.475   8.256   9.719  1.00  0.00     0.280 C 
BRANCH  26  27
HETATM   27  O1  UNL     1       1.857   8.087   9.456  1.00  0.00    -0.342 OA
BRANCH  27  28
HETATM   28  C7  UNL     1       2.246   7.072   8.623  1.00  0.00     0.075 A 
HETATM   29  C2  UNL     1       2.989   6.040   9.231  1.00  0.00    -0.027 A 
HETATM   30  C1  UNL     1       3.296   6.078  10.703  1.00  0.00     0.051 C 
HETATM   31  C3  UNL     1       3.448   4.964   8.454  1.00  0.00     0.033 A 
HETATM   32  C4  UNL     1       3.166   4.913   7.092  1.00  0.00     0.034 A 
HETATM   33 CL1  UNL     1       3.734   3.592   6.146  1.00  0.00    -0.084 Cl
HETATM   34  C5  UNL     1       2.430   5.929   6.489  1.00  0.00     0.026 A 
HETATM   35  C6  UNL     1       1.972   7.008   7.252  1.00  0.00     0.039 A 
ENDBRANCH  27  28
ENDBRANCH  26  27
ENDBRANCH  23  26
ENDBRANCH  20  22
ENDBRANCH   1  19
BRANCH   6  36
HETATM   36  O4  UNL     1      -5.081   6.923  15.616  1.00  0.00    -0.389 OA
HETATM   37  H19 UNL     1      -4.847   7.349  16.455  1.00  0.00     0.210 HD
ENDBRANCH   6  36
BRANCH   4  38
HETATM   38  O3  UNL     1      -4.591   4.423  12.521  1.00  0.00    -0.395 OA
HETATM   39  H16 UNL     1      -4.954   4.708  11.667  1.00  0.00     0.210 HD
ENDBRANCH   4  38
BRANCH  18  40
HETATM   40  O7  UNL     1      -3.397  12.192  16.753  1.00  0.00    -0.389 OA
HETATM   41  H41 UNL     1      -4.338  12.127  16.986  1.00  0.00     0.210 HD
ENDBRANCH  18  40
BRANCH  15  42
HETATM   42  C26 UNL     1       0.472  10.878  19.075  1.00  0.00    -0.045 A 
HETATM   43  C27 UNL     1       0.847  10.805  20.353  1.00  0.00     0.087 A 
HETATM   44  C28 UNL     1       2.284  10.545  20.373  1.00  0.00     0.283 A 
HETATM   45  O5  UNL     1       2.955  10.423  21.381  1.00  0.00    -0.260 OA
HETATM   46  O6  UNL     1       2.736  10.456  19.094  1.00  0.00    -0.314 OA
HETATM   47  C29 UNL     1       1.642  10.644  18.194  1.00  0.00     0.213 A 
ENDBRANCH  15  42
TORSDOF 9
ENDMDL
MODEL 9
REMARK minimizedAffinity -7.93113327
REMARK CNNscore 0.228232548
REMARK CNNaffinity 6.23848963
REMARK  9 active torsions:
REMARK  status: ('A' for Active; 'I' for Inactive)
REMARK    1  A    between atoms: C7_8  and  O1_9 
REMARK    2  A    between atoms: O1_9  and  C8_10 
REMARK    3  A    between atoms: C8_10  and  C9_11 
REMARK       I    between atoms: C9_11  and  N1_13 
REMARK    4  A    between atoms: N1_13  and  N2_14 
REMARK    5  A    between atoms: C10_16  and  C11_17 
REMARK    6  A    between atoms: C14_20  and  O3_21 
REMARK    7  A    between atoms: C16_23  and  O4_24 
REMARK    8  A    between atoms: C25_33  and  C26_34 
REMARK    9  A    between atoms: C32_42  and  O7_43 
ROOT
HETATM    1  C11 UNL     1      -1.198  11.530  17.461  1.00  0.00     0.028 C 
HETATM    2  C12 UNL     1      -2.310  10.858  18.326  1.00  0.00     0.021 C 
HETATM    3  C13 UNL     1      -3.701  10.836  17.676  1.00  0.00     0.033 C 
HETATM    4  C14 UNL     1      -3.675  10.930  16.156  1.00  0.00     0.121 C 
HETATM    5  C15 UNL     1      -2.898  12.152  15.639  1.00  0.00     0.070 C 
HETATM    6  C16 UNL     1      -1.847  12.687  16.640  1.00  0.00     0.073 C 
HETATM    7  C17 UNL     1      -0.813  13.566  15.916  1.00  0.00     0.039 C 
HETATM    8  C18 UNL     1       0.283  14.085  16.850  1.00  0.00     0.011 C 
HETATM    9  C19 UNL     1       0.981  12.949  17.624  1.00  0.00     0.026 C 
HETATM   10  C20 UNL     1      -0.050  12.074  18.390  1.00  0.00     0.009 C 
HETATM   11  C21 UNL     1       0.634  10.980  19.243  1.00  0.00     0.007 C 
HETATM   12  C22 UNL     1       2.145  10.911  19.063  1.00  0.00     0.013 C 
HETATM   13  C23 UNL     1       2.916  12.250  19.207  1.00  0.00    -0.005 C 
HETATM   14  C24 UNL     1       4.299  12.018  18.546  1.00  0.00     0.019 C 
HETATM   15  C25 UNL     1       3.144  12.737  20.676  1.00  0.00     0.028 C 
HETATM   16  C30 UNL     1       1.903  13.554  21.014  1.00  0.00     0.013 C 
HETATM   17  C31 UNL     1       1.634  14.333  19.734  1.00  0.00     0.040 C 
HETATM   18  C32 UNL     1       2.121  13.447  18.559  1.00  0.00     0.070 C 
ENDROOT
BRANCH   1  19
HETATM   19  C10 UNL     1      -0.555  10.520  16.490  1.00  0.00     0.093 C 
HETATM   20  N2  UNL     1      -0.599   9.246  16.702  1.00  0.00    -0.312 N 
ATOM     21  H2  UNL     1      -1.081   8.854  17.512  1.00  0.00     0.185 HD
BRANCH  20  22
HETATM   22  N1  UNL     1       0.031   8.451  15.793  1.00  0.00    -0.269 N 
HETATM   23  C9  UNL     1       1.343   8.046  16.044  1.00  0.00     0.260 C 
HETATM   24  O2  UNL     1       1.992   8.360  17.038  1.00  0.00    -0.269 OA
HETATM   25  H9  UNL     1      -0.416   8.246  14.905  1.00  0.00     0.190 HD
BRANCH  23  26
HETATM   26  C8  UNL     1       1.905   7.165  14.920  1.00  0.00     0.280 C 
BRANCH  26  27
HETATM   27  O1  UNL     1       0.961   6.544  14.065  1.00  0.00    -0.342 OA
BRANCH  27  28
HETATM   28  C7  UNL     1       0.869   6.977  12.768  1.00  0.00     0.075 A 
HETATM   29  C2  UNL     1       0.551   5.985  11.819  1.00  0.00    -0.027 A 
HETATM   30  C1  UNL     1       0.316   4.561  12.244  1.00  0.00     0.051 C 
HETATM   31  C3  UNL     1       0.453   6.329  10.461  1.00  0.00     0.033 A 
HETATM   32  C4  UNL     1       0.662   7.643  10.054  1.00  0.00     0.034 A 
HETATM   33 CL1  UNL     1       0.542   8.056   8.388  1.00  0.00    -0.084 Cl
HETATM   34  C5  UNL     1       0.973   8.626  10.990  1.00  0.00     0.026 A 
HETATM   35  C6  UNL     1       1.079   8.294  12.345  1.00  0.00     0.039 A 
ENDBRANCH  27  28
ENDBRANCH  26  27
ENDBRANCH  23  26
ENDBRANCH  20  22
ENDBRANCH   1  19
BRANCH   6  36
HETATM   36  O4  UNL     1      -2.579  13.568  17.514  1.00  0.00    -0.389 OA
HETATM   37  H19 UNL     1      -2.009  13.893  18.229  1.00  0.00     0.210 HD
ENDBRANCH   6  36
BRANCH   4  38
HETATM   38  O3  UNL     1      -5.016  10.973  15.673  1.00  0.00    -0.395 OA
HETATM   39  H16 UNL     1      -4.984  10.955  14.702  1.00  0.00     0.210 HD
ENDBRANCH   4  38
BRANCH  18  40
HETATM   40  O7  UNL     1       3.023  14.237  17.774  1.00  0.00    -0.389 OA
HETATM   41  H41 UNL     1       2.629  15.111  17.617  1.00  0.00     0.210 HD
ENDBRANCH  18  40
BRANCH  15  42
HETATM   42  C26 UNL     1       3.537  11.729  21.716  1.00  0.00    -0.045 A 
HETATM   43  C27 UNL     1       2.694  10.921  22.360  1.00  0.00     0.087 A 
HETATM   44  C28 UNL     1       3.490  10.072  23.243  1.00  0.00     0.283 A 
HETATM   45  O5  UNL     1       3.035   9.218  23.981  1.00  0.00    -0.260 OA
HETATM   46  O6  UNL     1       4.803  10.388  23.095  1.00  0.00    -0.314 OA
HETATM   47  C29 UNL     1       4.930  11.432  22.128  1.00  0.00     0.213 A 
ENDBRANCH  15  42
TORSDOF 9
ENDMDL
