MODEL 1
REMARK minimizedAffinity -7.79105377
REMARK CNNscore 0.87161833
REMARK CNNaffinity 7.02626562
REMARK  8 active torsions:
REMARK  status: ('A' for Active; 'I' for Inactive)
REMARK    1  A    between atoms: C2_2  and  C30_33 
REMARK    2  A    between atoms: C3_3  and  C4_4 
REMARK    3  A    between atoms: C4_4  and  C5_5 
REMARK    4  A    between atoms: C5_5  and  C6_6 
REMARK    5  A    between atoms: C6_6  and  C8_8 
REMARK    6  A    between atoms: C15_15  and  O1_16 
REMARK    7  A    between atoms: C23_24  and  O2_25 
REMARK    8  A    between atoms: C30_33  and  O4_34 
ROOT
HETATM    1  C8  UNL     1       4.733  56.001  -8.301  1.00  0.00    -0.002 C 
HETATM    2  C9  UNL     1       5.601  55.111  -9.230  1.00  0.00     0.007 C 
HETATM    3  C10 UNL     1       4.646  54.221 -10.044  1.00  0.00     0.015 C 
HETATM    4  C11 UNL     1       3.253  54.849  -9.856  1.00  0.00    -0.005 C 
HETATM    5  C12 UNL     1       3.140  56.021 -10.880  1.00  0.00     0.021 C 
HETATM    6  C13 UNL     1       1.993  54.022 -10.080  1.00  0.00     0.002 C 
HETATM    7  C14 UNL     1       0.834  54.291  -9.416  1.00  0.00    -0.032 C 
HETATM    8  C15 UNL     1       0.798  55.398  -8.346  1.00  0.00     0.149 C 
HETATM    9  C16 UNL     1       2.120  56.145  -8.038  1.00  0.00     0.047 C 
HETATM   10  C17 UNL     1       3.350  55.278  -8.341  1.00  0.00    -0.026 C 
HETATM   11  C18 UNL     1       3.375  54.064  -7.358  1.00  0.00     0.016 C 
HETATM   12  C19 UNL     1      -0.495  53.500  -9.690  1.00  0.00    -0.013 C 
HETATM   13  C20 UNL     1      -0.608  52.450  -8.556  1.00  0.00     0.021 C 
HETATM   14  C21 UNL     1      -1.727  54.459  -9.686  1.00  0.00     0.017 C 
HETATM   15  C22 UNL     1      -2.859  54.134 -10.670  1.00  0.00     0.033 C 
HETATM   16  C23 UNL     1      -3.015  52.650 -10.967  1.00  0.00     0.126 C 
HETATM   17  C24 UNL     1      -1.718  52.048 -11.586  1.00  0.00    -0.017 C 
HETATM   18  C25 UNL     1      -1.813  52.235 -13.130  1.00  0.00     0.018 C 
HETATM   19  C26 UNL     1      -1.659  50.522 -11.353  1.00  0.00     0.018 C 
HETATM   20  C27 UNL     1      -0.426  52.825 -11.102  1.00  0.00     0.015 C 
HETATM   21  C28 UNL     1       0.860  52.014 -11.244  1.00  0.00     0.090 C 
HETATM   22  C29 UNL     1       2.049  52.924 -11.101  1.00  0.00     0.157 C 
HETATM   23  O3  UNL     1       3.044  52.754 -11.805  1.00  0.00    -0.293 OA
ENDROOT
BRANCH   1  24
HETATM   24  C6  UNL     1       5.430  56.262  -6.934  1.00  0.00    -0.014 C 
HETATM   25  C7  UNL     1       5.157  57.667  -6.385  1.00  0.00     0.010 C 
BRANCH  24  26
HETATM   26  C5  UNL     1       6.964  56.002  -6.979  1.00  0.00     0.008 C 
BRANCH  26  27
HETATM   27  C4  UNL     1       7.751  56.518  -5.766  1.00  0.00     0.028 C 
BRANCH  27  28
HETATM   28  C3  UNL     1       9.131  55.942  -5.554  1.00  0.00    -0.022 C 
HETATM   29  C2  UNL     1      10.273  56.529  -5.142  1.00  0.00    -0.064 C 
HETATM   30  C1  UNL     1      10.430  58.002  -4.879  1.00  0.00     0.045 C 
BRANCH  29  31
HETATM   31  C30 UNL     1      11.530  55.706  -4.970  1.00  0.00     0.197 C 
BRANCH  31  32
HETATM   32  O4  UNL     1      12.680  56.535  -5.045  1.00  0.00    -0.397 OA
HETATM   33  H48 UNL     1      12.443  57.350  -5.517  1.00  0.00     0.209 HD
ENDBRANCH  31  32
ENDBRANCH  29  31
ENDBRANCH  27  28
ENDBRANCH  26  27
ENDBRANCH  24  26
ENDBRANCH   1  24
BRANCH   8  34
HETATM   34  O1  UNL     1       0.340  54.825  -7.124  1.00  0.00    -0.391 OA
HETATM   35  H22 UNL     1       0.169  55.552  -6.503  1.00  0.00     0.210 HD
ENDBRANCH   8  34
BRANCH  16  36
HETATM   36  O2  UNL     1      -3.397  51.980  -9.771  1.00  0.00    -0.395 OA
HETATM   37  H36 UNL     1      -4.238  52.363  -9.470  1.00  0.00     0.210 HD
ENDBRANCH  16  36
TORSDOF 8
ENDMDL
MODEL 2
REMARK minimizedAffinity -7.71701765
REMARK CNNscore 0.72230649
REMARK CNNaffinity 6.76799917
REMARK  8 active torsions:
REMARK  status: ('A' for Active; 'I' for Inactive)
REMARK    1  A    between atoms: C2_2  and  C30_33 
REMARK    2  A    between atoms: C3_3  and  C4_4 
REMARK    3  A    between atoms: C4_4  and  C5_5 
REMARK    4  A    between atoms: C5_5  and  C6_6 
REMARK    5  A    between atoms: C6_6  and  C8_8 
REMARK    6  A    between atoms: C15_15  and  O1_16 
REMARK    7  A    between atoms: C23_24  and  O2_25 
REMARK    8  A    between atoms: C30_33  and  O4_34 
ROOT
HETATM    1  C8  UNL     1       6.042  55.840  -8.278  1.00  0.00    -0.002 C 
HETATM    2  C9  UNL     1       6.709  54.606  -8.943  1.00  0.00     0.007 C 
HETATM    3  C10 UNL     1       5.592  53.758  -9.574  1.00  0.00     0.015 C 
HETATM    4  C11 UNL     1       4.354  54.675  -9.593  1.00  0.00    -0.005 C 
HETATM    5  C12 UNL     1       4.475  55.578 -10.860  1.00  0.00     0.021 C 
HETATM    6  C13 UNL     1       2.953  54.082  -9.677  1.00  0.00     0.002 C 
HETATM    7  C14 UNL     1       1.875  54.720  -9.141  1.00  0.00    -0.032 C 
HETATM    8  C15 UNL     1       2.066  56.030  -8.352  1.00  0.00     0.149 C 
HETATM    9  C16 UNL     1       3.512  56.552  -8.165  1.00  0.00     0.047 C 
HETATM   10  C17 UNL     1       4.542  55.413  -8.212  1.00  0.00    -0.026 C 
HETATM   11  C18 UNL     1       4.326  54.478  -6.979  1.00  0.00     0.016 C 
HETATM   12  C19 UNL     1       0.413  54.165  -9.285  1.00  0.00    -0.013 C 
HETATM   13  C20 UNL     1       0.095  53.448  -7.948  1.00  0.00     0.021 C 
HETATM   14  C21 UNL     1      -0.602  55.322  -9.551  1.00  0.00     0.017 C 
HETATM   15  C22 UNL     1      -1.780  55.009 -10.483  1.00  0.00     0.033 C 
HETATM   16  C23 UNL     1      -2.232  53.556 -10.443  1.00  0.00     0.126 C 
HETATM   17  C24 UNL     1      -1.085  52.585 -10.853  1.00  0.00    -0.017 C 
HETATM   18  C25 UNL     1      -1.147  52.426 -12.401  1.00  0.00     0.018 C 
HETATM   19  C26 UNL     1      -1.334  51.172 -10.278  1.00  0.00     0.018 C 
HETATM   20  C27 UNL     1       0.338  53.183 -10.503  1.00  0.00     0.015 C 
HETATM   21  C28 UNL     1       1.434  52.124 -10.403  1.00  0.00     0.090 C 
HETATM   22  C29 UNL     1       2.783  52.790 -10.420  1.00  0.00     0.157 C 
HETATM   23  O3  UNL     1       3.720  52.271 -11.023  1.00  0.00    -0.293 OA
ENDROOT
BRANCH   1  24
HETATM   24  C6  UNL     1       6.783  56.266  -6.977  1.00  0.00    -0.014 C 
HETATM   25  C7  UNL     1       6.976  55.106  -5.994  1.00  0.00     0.010 C 
BRANCH  24  26
HETATM   26  C5  UNL     1       6.097  57.461  -6.255  1.00  0.00     0.008 C 
BRANCH  26  27
HETATM   27  C4  UNL     1       6.689  57.825  -4.885  1.00  0.00     0.028 C 
BRANCH  27  28
HETATM   28  C3  UNL     1       7.824  58.820  -4.877  1.00  0.00    -0.022 C 
HETATM   29  C2  UNL     1       9.157  58.632  -4.964  1.00  0.00    -0.064 C 
HETATM   30  C1  UNL     1       9.829  57.287  -4.999  1.00  0.00     0.045 C 
BRANCH  29  31
HETATM   31  C30 UNL     1      10.092  59.820  -4.975  1.00  0.00     0.197 C 
BRANCH  31  32
HETATM   32  O4  UNL     1       9.821  60.655  -6.091  1.00  0.00    -0.397 OA
HETATM   33  H48 UNL     1       9.358  60.129  -6.764  1.00  0.00     0.209 HD
ENDBRANCH  31  32
ENDBRANCH  29  31
ENDBRANCH  27  28
ENDBRANCH  26  27
ENDBRANCH  24  26
ENDBRANCH   1  24
BRANCH   8  34
HETATM   34  O1  UNL     1       1.508  55.854  -7.053  1.00  0.00    -0.391 OA
HETATM   35  H22 UNL     1       1.488  56.724  -6.620  1.00  0.00     0.210 HD
ENDBRANCH   8  34
BRANCH  16  36
HETATM   36  O2  UNL     1      -2.736  53.268  -9.143  1.00  0.00    -0.395 OA
HETATM   37  H36 UNL     1      -3.482  53.868  -8.972  1.00  0.00     0.210 HD
ENDBRANCH  16  36
TORSDOF 8
ENDMDL
MODEL 3
REMARK minimizedAffinity -9.26380348
REMARK CNNscore 0.545481741
REMARK CNNaffinity 6.96422052
REMARK  8 active torsions:
REMARK  status: ('A' for Active; 'I' for Inactive)
REMARK    1  A    between atoms: C2_2  and  C30_33 
REMARK    2  A    between atoms: C3_3  and  C4_4 
REMARK    3  A    between atoms: C4_4  and  C5_5 
REMARK    4  A    between atoms: C5_5  and  C6_6 
REMARK    5  A    between atoms: C6_6  and  C8_8 
REMARK    6  A    between atoms: C15_15  and  O1_16 
REMARK    7  A    between atoms: C23_24  and  O2_25 
REMARK    8  A    between atoms: C30_33  and  O4_34 
ROOT
HETATM    1  C8  UNL     1      -0.125  50.877 -21.271  1.00  0.00    -0.002 C 
HETATM    2  C9  UNL     1      -0.178  51.108 -19.737  1.00  0.00     0.007 C 
HETATM    3  C10 UNL     1      -1.501  50.514 -19.224  1.00  0.00     0.015 C 
HETATM    4  C11 UNL     1      -2.020  49.633 -20.377  1.00  0.00    -0.005 C 
HETATM    5  C12 UNL     1      -1.284  48.261 -20.268  1.00  0.00     0.021 C 
HETATM    6  C13 UNL     1      -3.497  49.270 -20.471  1.00  0.00     0.002 C 
HETATM    7  C14 UNL     1      -4.097  49.024 -21.669  1.00  0.00    -0.032 C 
HETATM    8  C15 UNL     1      -3.304  49.195 -22.979  1.00  0.00     0.149 C 
HETATM    9  C16 UNL     1      -1.840  49.689 -22.874  1.00  0.00     0.047 C 
HETATM   10  C17 UNL     1      -1.609  50.529 -21.609  1.00  0.00    -0.026 C 
HETATM   11  C18 UNL     1      -2.437  51.850 -21.714  1.00  0.00     0.016 C 
HETATM   12  C19 UNL     1      -5.597  48.573 -21.780  1.00  0.00    -0.013 C 
HETATM   13  C20 UNL     1      -6.401  49.848 -22.142  1.00  0.00     0.021 C 
HETATM   14  C21 UNL     1      -5.772  47.475 -22.877  1.00  0.00     0.017 C 
HETATM   15  C22 UNL     1      -6.818  46.386 -22.605  1.00  0.00     0.033 C 
HETATM   16  C23 UNL     1      -7.995  46.854 -21.763  1.00  0.00     0.126 C 
HETATM   17  C24 UNL     1      -7.535  47.370 -20.367  1.00  0.00    -0.017 C 
HETATM   18  C25 UNL     1      -7.505  46.143 -19.408  1.00  0.00     0.018 C 
HETATM   19  C26 UNL     1      -8.581  48.340 -19.772  1.00  0.00     0.018 C 
HETATM   20  C27 UNL     1      -6.066  47.957 -20.418  1.00  0.00     0.015 C 
HETATM   21  C28 UNL     1      -5.753  48.910 -19.266  1.00  0.00     0.090 C 
HETATM   22  C29 UNL     1      -4.267  49.138 -19.190  1.00  0.00     0.157 C 
HETATM   23  O3  UNL     1      -3.712  49.225 -18.097  1.00  0.00    -0.293 OA
ENDROOT
BRANCH   1  24
HETATM   24  C6  UNL     1       0.581  52.052 -22.009  1.00  0.00    -0.014 C 
HETATM   25  C7  UNL     1       0.850  53.252 -21.095  1.00  0.00     0.010 C 
BRANCH  24  26
HETATM   26  C5  UNL     1      -0.187  52.517 -23.279  1.00  0.00     0.008 C 
BRANCH  26  27
HETATM   27  C4  UNL     1       0.533  52.260 -24.611  1.00  0.00     0.028 C 
BRANCH  27  28
HETATM   28  C3  UNL     1       0.032  53.022 -25.814  1.00  0.00    -0.022 C 
HETATM   29  C2  UNL     1       0.265  52.838 -27.130  1.00  0.00    -0.064 C 
HETATM   30  C1  UNL     1       1.214  51.816 -27.694  1.00  0.00     0.045 C 
BRANCH  29  31
HETATM   31  C30 UNL     1      -0.404  53.729 -28.151  1.00  0.00     0.197 C 
BRANCH  31  32
HETATM   32  O4  UNL     1      -1.814  53.693 -27.994  1.00  0.00    -0.397 OA
HETATM   33  H48 UNL     1      -2.051  52.877 -27.523  1.00  0.00     0.209 HD
ENDBRANCH  31  32
ENDBRANCH  29  31
ENDBRANCH  27  28
ENDBRANCH  26  27
ENDBRANCH  24  26
ENDBRANCH   1  24
BRANCH   8  34
HETATM   34  O1  UNL     1      -4.005  50.118 -23.808  1.00  0.00    -0.391 OA
HETATM   35  H22 UNL     1      -3.589  50.100 -24.686  1.00  0.00     0.210 HD
ENDBRANCH   8  34
BRANCH  16  36
HETATM   36  O2  UNL     1      -8.713  47.847 -22.489  1.00  0.00    -0.395 OA
HETATM   37  H36 UNL     1      -9.019  47.445 -23.320  1.00  0.00     0.210 HD
ENDBRANCH  16  36
TORSDOF 8
ENDMDL
MODEL 4
REMARK minimizedAffinity -8.89046001
REMARK CNNscore 0.52313751
REMARK CNNaffinity 6.67402267
REMARK  8 active torsions:
REMARK  status: ('A' for Active; 'I' for Inactive)
REMARK    1  A    between atoms: C2_2  and  C30_33 
REMARK    2  A    between atoms: C3_3  and  C4_4 
REMARK    3  A    between atoms: C4_4  and  C5_5 
REMARK    4  A    between atoms: C5_5  and  C6_6 
REMARK    5  A    between atoms: C6_6  and  C8_8 
REMARK    6  A    between atoms: C15_15  and  O1_16 
REMARK    7  A    between atoms: C23_24  and  O2_25 
REMARK    8  A    between atoms: C30_33  and  O4_34 
ROOT
HETATM    1  C8  UNL     1      -2.563  50.319 -22.032  1.00  0.00    -0.002 C 
HETATM    2  C9  UNL     1      -1.971  51.715 -22.366  1.00  0.00     0.007 C 
HETATM    3  C10 UNL     1      -1.092  52.142 -21.178  1.00  0.00     0.015 C 
HETATM    4  C11 UNL     1      -0.886  50.860 -20.349  1.00  0.00    -0.005 C 
HETATM    5  C12 UNL     1       0.282  50.069 -21.016  1.00  0.00     0.021 C 
HETATM    6  C13 UNL     1      -0.502  50.943 -18.877  1.00  0.00     0.002 C 
HETATM    7  C14 UNL     1      -0.855  49.970 -17.991  1.00  0.00    -0.032 C 
HETATM    8  C15 UNL     1      -1.737  48.793 -18.449  1.00  0.00     0.149 C 
HETATM    9  C16 UNL     1      -2.227  48.789 -19.919  1.00  0.00     0.047 C 
HETATM   10  C17 UNL     1      -2.316  50.210 -20.494  1.00  0.00    -0.026 C 
HETATM   11  C18 UNL     1      -3.432  51.000 -19.737  1.00  0.00     0.016 C 
HETATM   12  C19 UNL     1      -0.403  49.998 -16.488  1.00  0.00    -0.013 C 
HETATM   13  C20 UNL     1      -1.613  50.547 -15.688  1.00  0.00     0.021 C 
HETATM   14  C21 UNL     1      -0.012  48.570 -15.994  1.00  0.00     0.017 C 
HETATM   15  C22 UNL     1       1.145  48.478 -14.990  1.00  0.00     0.033 C 
HETATM   16  C23 UNL     1       1.272  49.690 -14.078  1.00  0.00     0.126 C 
HETATM   17  C24 UNL     1       1.507  50.998 -14.891  1.00  0.00    -0.017 C 
HETATM   18  C25 UNL     1       3.045  51.148 -15.089  1.00  0.00     0.018 C 
HETATM   19  C26 UNL     1       1.069  52.235 -14.074  1.00  0.00     0.018 C 
HETATM   20  C27 UNL     1       0.859  50.914 -16.332  1.00  0.00     0.015 C 
HETATM   21  C28 UNL     1       0.608  52.281 -16.967  1.00  0.00     0.090 C 
HETATM   22  C29 UNL     1       0.329  52.111 -18.436  1.00  0.00     0.157 C 
HETATM   23  O3  UNL     1       0.769  52.926 -19.245  1.00  0.00    -0.293 OA
ENDROOT
BRANCH   1  24
HETATM   24  C6  UNL     1      -4.003  50.151 -22.598  1.00  0.00    -0.014 C 
HETATM   25  C7  UNL     1      -5.084  50.256 -21.517  1.00  0.00     0.010 C 
BRANCH  24  26
HETATM   26  C5  UNL     1      -4.186  48.831 -23.402  1.00  0.00     0.008 C 
BRANCH  26  27
HETATM   27  C4  UNL     1      -3.269  48.676 -24.624  1.00  0.00     0.028 C 
BRANCH  27  28
HETATM   28  C3  UNL     1      -3.934  48.330 -25.934  1.00  0.00    -0.022 C 
HETATM   29  C2  UNL     1      -3.826  48.902 -27.151  1.00  0.00    -0.064 C 
HETATM   30  C1  UNL     1      -3.030  50.144 -27.443  1.00  0.00     0.045 C 
BRANCH  29  31
HETATM   31  C30 UNL     1      -4.580  48.328 -28.329  1.00  0.00     0.197 C 
BRANCH  31  32
HETATM   32  O4  UNL     1      -4.584  49.247 -29.412  1.00  0.00    -0.397 OA
HETATM   33  H48 UNL     1      -4.417  50.137 -29.061  1.00  0.00     0.209 HD
ENDBRANCH  31  32
ENDBRANCH  29  31
ENDBRANCH  27  28
ENDBRANCH  26  27
ENDBRANCH  24  26
ENDBRANCH   1  24
BRANCH   8  34
HETATM   34  O1  UNL     1      -2.893  48.750 -17.617  1.00  0.00    -0.391 OA
HETATM   35  H22 UNL     1      -3.362  47.920 -17.805  1.00  0.00     0.210 HD
ENDBRANCH   8  34
BRANCH  16  36
HETATM   36  O2  UNL     1       0.111  49.772 -13.259  1.00  0.00    -0.395 OA
HETATM   37  H36 UNL     1       0.054  48.952 -12.739  1.00  0.00     0.210 HD
ENDBRANCH  16  36
TORSDOF 8
ENDMDL
MODEL 5
REMARK minimizedAffinity -7.41574907
REMARK CNNscore 0.511181891
REMARK CNNaffinity 6.64261293
REMARK  8 active torsions:
REMARK  status: ('A' for Active; 'I' for Inactive)
REMARK    1  A    between atoms: C2_2  and  C30_33 
REMARK    2  A    between atoms: C3_3  and  C4_4 
REMARK    3  A    between atoms: C4_4  and  C5_5 
REMARK    4  A    between atoms: C5_5  and  C6_6 
REMARK    5  A    between atoms: C6_6  and  C8_8 
REMARK    6  A    between atoms: C15_15  and  O1_16 
REMARK    7  A    between atoms: C23_24  and  O2_25 
REMARK    8  A    between atoms: C30_33  and  O4_34 
ROOT
HETATM    1  C8  UNL     1      -3.126  48.799 -23.121  1.00  0.00    -0.002 C 
HETATM    2  C9  UNL     1      -2.344  49.363 -21.904  1.00  0.00     0.007 C 
HETATM    3  C10 UNL     1      -3.166  49.053 -20.641  1.00  0.00     0.015 C 
HETATM    4  C11 UNL     1      -4.210  48.011 -21.086  1.00  0.00    -0.005 C 
HETATM    5  C12 UNL     1      -3.506  46.618 -21.050  1.00  0.00     0.021 C 
HETATM    6  C13 UNL     1      -5.494  47.812 -20.292  1.00  0.00     0.002 C 
HETATM    7  C14 UNL     1      -6.643  47.384 -20.886  1.00  0.00    -0.032 C 
HETATM    8  C15 UNL     1      -6.690  47.173 -22.412  1.00  0.00     0.149 C 
HETATM    9  C16 UNL     1      -5.412  47.502 -23.223  1.00  0.00     0.047 C 
HETATM   10  C17 UNL     1      -4.549  48.563 -22.524  1.00  0.00    -0.026 C 
HETATM   11  C18 UNL     1      -5.327  49.918 -22.496  1.00  0.00     0.016 C 
HETATM   12  C19 UNL     1      -7.955  47.098 -20.072  1.00  0.00    -0.013 C 
HETATM   13  C20 UNL     1      -8.851  48.350 -20.254  1.00  0.00     0.021 C 
HETATM   14  C21 UNL     1      -8.675  45.817 -20.601  1.00  0.00     0.017 C 
HETATM   15  C22 UNL     1      -9.385  44.943 -19.559  1.00  0.00     0.033 C 
HETATM   16  C23 UNL     1      -9.928  45.718 -18.367  1.00  0.00     0.126 C 
HETATM   17  C24 UNL     1      -8.795  46.467 -17.604  1.00  0.00    -0.017 C 
HETATM   18  C25 UNL     1      -8.226  45.482 -16.539  1.00  0.00     0.018 C 
HETATM   19  C26 UNL     1      -9.371  47.659 -16.805  1.00  0.00     0.018 C 
HETATM   20  C27 UNL     1      -7.600  46.853 -18.566  1.00  0.00     0.015 C 
HETATM   21  C28 UNL     1      -6.730  47.989 -18.031  1.00  0.00     0.090 C 
HETATM   22  C29 UNL     1      -5.446  48.052 -18.812  1.00  0.00     0.157 C 
HETATM   23  O3  UNL     1      -4.388  48.308 -18.239  1.00  0.00    -0.293 OA
ENDROOT
BRANCH   1  24
HETATM   24  C6  UNL     1      -2.954  49.695 -24.382  1.00  0.00    -0.014 C 
HETATM   25  C7  UNL     1      -2.922  48.889 -25.685  1.00  0.00     0.010 C 
BRANCH  24  26
HETATM   26  C5  UNL     1      -1.704  50.618 -24.303  1.00  0.00     0.008 C 
BRANCH  26  27
HETATM   27  C4  UNL     1      -0.898  50.743 -25.604  1.00  0.00     0.028 C 
BRANCH  27  28
HETATM   28  C3  UNL     1      -0.916  52.088 -26.289  1.00  0.00    -0.022 C 
HETATM   29  C2  UNL     1      -0.261  52.524 -27.385  1.00  0.00    -0.064 C 
HETATM   30  C1  UNL     1       0.760  51.722 -28.145  1.00  0.00     0.045 C 
BRANCH  29  31
HETATM   31  C30 UNL     1      -0.490  53.928 -27.898  1.00  0.00     0.197 C 
BRANCH  31  32
HETATM   32  O4  UNL     1      -1.831  54.083 -28.338  1.00  0.00    -0.397 OA
HETATM   33  H48 UNL     1      -2.195  53.204 -28.534  1.00  0.00     0.209 HD
ENDBRANCH  31  32
ENDBRANCH  29  31
ENDBRANCH  27  28
ENDBRANCH  26  27
ENDBRANCH  24  26
ENDBRANCH   1  24
BRANCH   8  34
HETATM   34  O1  UNL     1      -7.745  47.969 -22.941  1.00  0.00    -0.391 OA
HETATM   35  H22 UNL     1      -7.872  47.713 -23.870  1.00  0.00     0.210 HD
ENDBRANCH   8  34
BRANCH  16  36
HETATM   36  O2  UNL     1     -10.944  46.607 -18.821  1.00  0.00    -0.395 OA
HETATM   37  H36 UNL     1     -11.643  46.074 -19.235  1.00  0.00     0.210 HD
ENDBRANCH  16  36
TORSDOF 8
ENDMDL
MODEL 6
REMARK minimizedAffinity -8.84631824
REMARK CNNscore 0.508020937
REMARK CNNaffinity 7.33493757
REMARK  8 active torsions:
REMARK  status: ('A' for Active; 'I' for Inactive)
REMARK    1  A    between atoms: C2_2  and  C30_33 
REMARK    2  A    between atoms: C3_3  and  C4_4 
REMARK    3  A    between atoms: C4_4  and  C5_5 
REMARK    4  A    between atoms: C5_5  and  C6_6 
REMARK    5  A    between atoms: C6_6  and  C8_8 
REMARK    6  A    between atoms: C15_15  and  O1_16 
REMARK    7  A    between atoms: C23_24  and  O2_25 
REMARK    8  A    between atoms: C30_33  and  O4_34 
ROOT
HETATM    1  C8  UNL     1      -0.058  50.896 -18.367  1.00  0.00    -0.002 C 
HETATM    2  C9  UNL     1      -1.409  50.182 -18.092  1.00  0.00     0.007 C 
HETATM    3  C10 UNL     1      -2.086  49.932 -19.450  1.00  0.00     0.015 C 
HETATM    4  C11 UNL     1      -0.980  50.162 -20.499  1.00  0.00    -0.005 C 
HETATM    5  C12 UNL     1      -0.159  48.839 -20.591  1.00  0.00     0.021 C 
HETATM    6  C13 UNL     1      -1.339  50.492 -21.942  1.00  0.00     0.002 C 
HETATM    7  C14 UNL     1      -0.513  51.236 -22.731  1.00  0.00    -0.032 C 
HETATM    8  C15 UNL     1       0.776  51.841 -22.143  1.00  0.00     0.149 C 
HETATM    9  C16 UNL     1       1.062  51.604 -20.639  1.00  0.00     0.047 C 
HETATM   10  C17 UNL     1      -0.231  51.383 -19.840  1.00  0.00    -0.026 C 
HETATM   11  C18 UNL     1      -1.070  52.701 -19.851  1.00  0.00     0.016 C 
HETATM   12  C19 UNL     1      -0.827  51.522 -24.242  1.00  0.00    -0.013 C 
HETATM   13  C20 UNL     1      -1.431  52.948 -24.291  1.00  0.00     0.021 C 
HETATM   14  C21 UNL     1       0.469  51.436 -25.109  1.00  0.00     0.017 C 
HETATM   15  C22 UNL     1       0.317  50.870 -26.527  1.00  0.00     0.033 C 
HETATM   16  C23 UNL     1      -1.039  51.143 -27.161  1.00  0.00     0.126 C 
HETATM   17  C24 UNL     1      -2.200  50.528 -26.323  1.00  0.00    -0.017 C 
HETATM   18  C25 UNL     1      -2.405  49.067 -26.821  1.00  0.00     0.018 C 
HETATM   19  C26 UNL     1      -3.530  51.260 -26.613  1.00  0.00     0.018 C 
HETATM   20  C27 UNL     1      -1.829  50.447 -24.786  1.00  0.00     0.015 C 
HETATM   21  C28 UNL     1      -3.049  50.345 -23.872  1.00  0.00     0.090 C 
HETATM   22  C29 UNL     1      -2.613  49.925 -22.494  1.00  0.00     0.157 C 
HETATM   23  O3  UNL     1      -3.302  49.143 -21.841  1.00  0.00    -0.293 OA
ENDROOT
BRANCH   1  24
HETATM   24  C6  UNL     1       0.291  51.921 -17.248  1.00  0.00    -0.014 C 
HETATM   25  C7  UNL     1       1.688  52.528 -17.412  1.00  0.00     0.010 C 
BRANCH  24  26
HETATM   26  C5  UNL     1       0.138  51.330 -15.817  1.00  0.00     0.008 C 
BRANCH  26  27
HETATM   27  C4  UNL     1       0.963  52.029 -14.728  1.00  0.00     0.028 C 
BRANCH  27  28
HETATM   28  C3  UNL     1       1.848  51.152 -13.875  1.00  0.00    -0.022 C 
HETATM   29  C2  UNL     1       3.173  50.907 -13.947  1.00  0.00    -0.064 C 
HETATM   30  C1  UNL     1       4.080  51.430 -15.027  1.00  0.00     0.045 C 
BRANCH  29  31
HETATM   31  C30 UNL     1       3.835  50.007 -12.929  1.00  0.00     0.197 C 
BRANCH  31  32
HETATM   32  O4  UNL     1       5.139  49.645 -13.360  1.00  0.00    -0.397 OA
HETATM   33  H48 UNL     1       5.188  49.758 -14.323  1.00  0.00     0.209 HD
ENDBRANCH  31  32
ENDBRANCH  29  31
ENDBRANCH  27  28
ENDBRANCH  26  27
ENDBRANCH  24  26
ENDBRANCH   1  24
BRANCH   8  34
HETATM   34  O1  UNL     1       0.744  53.250 -22.351  1.00  0.00    -0.391 OA
HETATM   35  H22 UNL     1       1.621  53.602 -22.125  1.00  0.00     0.210 HD
ENDBRANCH   8  34
BRANCH  16  36
HETATM   36  O2  UNL     1      -1.191  52.548 -27.333  1.00  0.00    -0.395 OA
HETATM   37  H36 UNL     1      -0.471  52.857 -27.909  1.00  0.00     0.210 HD
ENDBRANCH  16  36
TORSDOF 8
ENDMDL
MODEL 7
REMARK minimizedAffinity -9.56593513
REMARK CNNscore 0.498819172
REMARK CNNaffinity 7.0096035
REMARK  8 active torsions:
REMARK  status: ('A' for Active; 'I' for Inactive)
REMARK    1  A    between atoms: C2_2  and  C30_33 
REMARK    2  A    between atoms: C3_3  and  C4_4 
REMARK    3  A    between atoms: C4_4  and  C5_5 
REMARK    4  A    between atoms: C5_5  and  C6_6 
REMARK    5  A    between atoms: C6_6  and  C8_8 
REMARK    6  A    between atoms: C15_15  and  O1_16 
REMARK    7  A    between atoms: C23_24  and  O2_25 
REMARK    8  A    between atoms: C30_33  and  O4_34 
ROOT
HETATM    1  C8  UNL     1      -1.213  50.859 -22.938  1.00  0.00    -0.002 C 
HETATM    2  C9  UNL     1      -0.656  52.306 -23.015  1.00  0.00     0.007 C 
HETATM    3  C10 UNL     1      -0.105  52.666 -21.625  1.00  0.00     0.015 C 
HETATM    4  C11 UNL     1      -0.010  51.325 -20.872  1.00  0.00    -0.005 C 
HETATM    5  C12 UNL     1       1.331  50.655 -21.303  1.00  0.00     0.021 C 
HETATM    6  C13 UNL     1       0.018  51.293 -19.349  1.00  0.00     0.002 C 
HETATM    7  C14 UNL     1      -0.463  50.228 -18.648  1.00  0.00    -0.032 C 
HETATM    8  C15 UNL     1      -1.134  49.056 -19.390  1.00  0.00     0.149 C 
HETATM    9  C16 UNL     1      -1.270  49.162 -20.929  1.00  0.00     0.047 C 
HETATM   10  C17 UNL     1      -1.321  50.623 -21.399  1.00  0.00    -0.026 C 
HETATM   11  C18 UNL     1      -2.632  51.287 -20.867  1.00  0.00     0.016 C 
HETATM   12  C19 UNL     1      -0.373  50.141 -17.083  1.00  0.00    -0.013 C 
HETATM   13  C20 UNL     1      -1.769  50.557 -16.551  1.00  0.00     0.021 C 
HETATM   14  C21 UNL     1      -0.010  48.694 -16.622  1.00  0.00     0.017 C 
HETATM   15  C22 UNL     1       0.887  48.567 -15.384  1.00  0.00     0.033 C 
HETATM   16  C23 UNL     1       0.718  49.696 -14.378  1.00  0.00     0.126 C 
HETATM   17  C24 UNL     1       1.046  51.082 -15.009  1.00  0.00    -0.017 C 
HETATM   18  C25 UNL     1       2.574  51.323 -14.828  1.00  0.00     0.018 C 
HETATM   19  C26 UNL     1       0.348  52.218 -14.226  1.00  0.00     0.018 C 
HETATM   20  C27 UNL     1       0.754  51.098 -16.565  1.00  0.00     0.015 C 
HETATM   21  C28 UNL     1       0.564  52.503 -17.133  1.00  0.00     0.090 C 
HETATM   22  C29 UNL     1       0.644  52.455 -18.635  1.00  0.00     0.157 C 
HETATM   23  O3  UNL     1       1.202  53.360 -19.253  1.00  0.00    -0.293 OA
ENDROOT
BRANCH   1  24
HETATM   24  C6  UNL     1      -2.469  50.675 -23.839  1.00  0.00    -0.014 C 
HETATM   25  C7  UNL     1      -2.806  49.202 -24.096  1.00  0.00     0.010 C 
BRANCH  24  26
HETATM   26  C5  UNL     1      -2.358  51.435 -25.193  1.00  0.00     0.008 C 
BRANCH  26  27
HETATM   27  C4  UNL     1      -1.473  50.760 -26.251  1.00  0.00     0.028 C 
BRANCH  27  28
HETATM   28  C3  UNL     1       0.020  50.845 -26.044  1.00  0.00    -0.022 C 
HETATM   29  C2  UNL     1       0.994  51.308 -26.855  1.00  0.00    -0.064 C 
HETATM   30  C1  UNL     1       0.777  51.785 -28.265  1.00  0.00     0.045 C 
BRANCH  29  31
HETATM   31  C30 UNL     1       2.431  51.320 -26.385  1.00  0.00     0.197 C 
BRANCH  31  32
HETATM   32  O4  UNL     1       3.310  51.529 -27.480  1.00  0.00    -0.397 OA
HETATM   33  H48 UNL     1       2.848  51.279 -28.298  1.00  0.00     0.209 HD
ENDBRANCH  31  32
ENDBRANCH  29  31
ENDBRANCH  27  28
ENDBRANCH  26  27
ENDBRANCH  24  26
ENDBRANCH   1  24
BRANCH   8  34
HETATM   34  O1  UNL     1      -2.445  48.883 -18.859  1.00  0.00    -0.391 OA
HETATM   35  H22 UNL     1      -2.801  48.051 -19.215  1.00  0.00     0.210 HD
ENDBRANCH   8  34
BRANCH  16  36
HETATM   36  O2  UNL     1      -0.603  49.648 -13.851  1.00  0.00    -0.395 OA
HETATM   37  H36 UNL     1      -0.723  48.783 -13.424  1.00  0.00     0.210 HD
ENDBRANCH  16  36
TORSDOF 8
ENDMDL
MODEL 8
REMARK minimizedAffinity -8.70216465
REMARK CNNscore 0.497009754
REMARK CNNaffinity 7.08279276
REMARK  8 active torsions:
REMARK  status: ('A' for Active; 'I' for Inactive)
REMARK    1  A    between atoms: C2_2  and  C30_33 
REMARK    2  A    between atoms: C3_3  and  C4_4 
REMARK    3  A    between atoms: C4_4  and  C5_5 
REMARK    4  A    between atoms: C5_5  and  C6_6 
REMARK    5  A    between atoms: C6_6  and  C8_8 
REMARK    6  A    between atoms: C15_15  and  O1_16 
REMARK    7  A    between atoms: C23_24  and  O2_25 
REMARK    8  A    between atoms: C30_33  and  O4_34 
ROOT
HETATM    1  C8  UNL     1      -0.700  51.596 -16.904  1.00  0.00    -0.002 C 
HETATM    2  C9  UNL     1       0.819  51.898 -17.006  1.00  0.00     0.007 C 
HETATM    3  C10 UNL     1       1.154  52.095 -18.495  1.00  0.00     0.015 C 
HETATM    4  C11 UNL     1      -0.208  52.270 -19.193  1.00  0.00    -0.005 C 
HETATM    5  C12 UNL     1      -0.618  53.766 -19.020  1.00  0.00     0.021 C 
HETATM    6  C13 UNL     1      -0.352  52.003 -20.686  1.00  0.00     0.002 C 
HETATM    7  C14 UNL     1      -1.532  51.586 -21.225  1.00  0.00    -0.032 C 
HETATM    8  C15 UNL     1      -2.736  51.286 -20.311  1.00  0.00     0.149 C 
HETATM    9  C16 UNL     1      -2.534  51.439 -18.783  1.00  0.00     0.047 C 
HETATM   10  C17 UNL     1      -1.068  51.230 -18.377  1.00  0.00    -0.026 C 
HETATM   11  C18 UNL     1      -0.666  49.746 -18.654  1.00  0.00     0.016 C 
HETATM   12  C19 UNL     1      -1.723  51.380 -22.770  1.00  0.00    -0.013 C 
HETATM   13  C20 UNL     1      -1.580  49.857 -23.020  1.00  0.00     0.021 C 
HETATM   14  C21 UNL     1      -3.125  51.890 -23.234  1.00  0.00     0.017 C 
HETATM   15  C22 UNL     1      -3.201  52.535 -24.624  1.00  0.00     0.033 C 
HETATM   16  C23 UNL     1      -2.195  51.979 -25.621  1.00  0.00     0.126 C 
HETATM   17  C24 UNL     1      -0.730  52.179 -25.131  1.00  0.00    -0.017 C 
HETATM   18  C25 UNL     1      -0.261  53.577 -25.635  1.00  0.00     0.018 C 
HETATM   19  C26 UNL     1       0.215  51.156 -25.801  1.00  0.00     0.018 C 
HETATM   20  C27 UNL     1      -0.641  52.201 -23.551  1.00  0.00     0.015 C 
HETATM   21  C28 UNL     1       0.755  51.886 -23.016  1.00  0.00     0.090 C 
HETATM   22  C29 UNL     1       0.836  52.267 -21.563  1.00  0.00     0.157 C 
HETATM   23  O3  UNL     1       1.864  52.771 -21.113  1.00  0.00    -0.293 OA
ENDROOT
BRANCH   1  24
HETATM   24  C6  UNL     1      -1.013  50.593 -15.756  1.00  0.00    -0.014 C 
HETATM   25  C7  UNL     1      -2.457  50.080 -15.791  1.00  0.00     0.010 C 
BRANCH  24  26
HETATM   26  C5  UNL     1      -0.692  51.168 -14.347  1.00  0.00     0.008 C 
BRANCH  26  27
HETATM   27  C4  UNL     1       0.674  51.858 -14.216  1.00  0.00     0.028 C 
BRANCH  27  28
HETATM   28  C3  UNL     1       1.778  51.062 -13.562  1.00  0.00    -0.022 C 
HETATM   29  C2  UNL     1       3.097  50.998 -13.839  1.00  0.00    -0.064 C 
HETATM   30  C1  UNL     1       3.761  51.690 -14.998  1.00  0.00     0.045 C 
BRANCH  29  31
HETATM   31  C30 UNL     1       4.010  50.142 -12.992  1.00  0.00     0.197 C 
BRANCH  31  32
HETATM   32  O4  UNL     1       5.000  49.521 -13.799  1.00  0.00    -0.397 OA
HETATM   33  H48 UNL     1       4.680  49.499 -14.716  1.00  0.00     0.209 HD
ENDBRANCH  31  32
ENDBRANCH  29  31
ENDBRANCH  27  28
ENDBRANCH  26  27
ENDBRANCH  24  26
ENDBRANCH   1  24
BRANCH   8  34
HETATM   34  O1  UNL     1      -3.157  49.947 -20.551  1.00  0.00    -0.391 OA
HETATM   35  H22 UNL     1      -4.005  49.818 -20.094  1.00  0.00     0.210 HD
ENDBRANCH   8  34
BRANCH  16  36
HETATM   36  O2  UNL     1      -2.495  50.608 -25.861  1.00  0.00    -0.395 OA
HETATM   37  H36 UNL     1      -3.398  50.558 -26.216  1.00  0.00     0.210 HD
ENDBRANCH  16  36
TORSDOF 8
ENDMDL
MODEL 9
REMARK minimizedAffinity -7.73711109
REMARK CNNscore 0.48920399
REMARK CNNaffinity 6.77866936
REMARK  8 active torsions:
REMARK  status: ('A' for Active; 'I' for Inactive)
REMARK    1  A    between atoms: C2_2  and  C30_33 
REMARK    2  A    between atoms: C3_3  and  C4_4 
REMARK    3  A    between atoms: C4_4  and  C5_5 
REMARK    4  A    between atoms: C5_5  and  C6_6 
REMARK    5  A    between atoms: C6_6  and  C8_8 
REMARK    6  A    between atoms: C15_15  and  O1_16 
REMARK    7  A    between atoms: C23_24  and  O2_25 
REMARK    8  A    between atoms: C30_33  and  O4_34 
ROOT
HETATM    1  C8  UNL     1      -3.985  49.773 -24.282  1.00  0.00    -0.002 C 
HETATM    2  C9  UNL     1      -4.429  48.586 -25.179  1.00  0.00     0.007 C 
HETATM    3  C10 UNL     1      -5.516  47.809 -24.415  1.00  0.00     0.015 C 
HETATM    4  C11 UNL     1      -5.949  48.745 -23.270  1.00  0.00    -0.005 C 
HETATM    5  C12 UNL     1      -6.988  49.744 -23.867  1.00  0.00     0.021 C 
HETATM    6  C13 UNL     1      -6.626  48.184 -22.026  1.00  0.00     0.002 C 
HETATM    7  C14 UNL     1      -6.511  48.795 -20.814  1.00  0.00    -0.032 C 
HETATM    8  C15 UNL     1      -5.608  50.034 -20.656  1.00  0.00     0.149 C 
HETATM    9  C16 UNL     1      -4.824  50.515 -21.903  1.00  0.00     0.047 C 
HETATM   10  C17 UNL     1      -4.551  49.367 -22.885  1.00  0.00    -0.026 C 
HETATM   11  C18 UNL     1      -3.583  48.340 -22.216  1.00  0.00     0.016 C 
HETATM   12  C19 UNL     1      -7.264  48.278 -19.537  1.00  0.00    -0.013 C 
HETATM   13  C20 UNL     1      -6.223  47.461 -18.728  1.00  0.00     0.021 C 
HETATM   14  C21 UNL     1      -7.815  49.469 -18.690  1.00  0.00     0.017 C 
HETATM   15  C22 UNL     1      -9.158  49.250 -17.981  1.00  0.00     0.033 C 
HETATM   16  C23 UNL     1      -9.416  47.807 -17.574  1.00  0.00     0.126 C 
HETATM   17  C24 UNL     1      -9.417  46.853 -18.806  1.00  0.00    -0.017 C 
HETATM   18  C25 UNL     1     -10.871  46.819 -19.363  1.00  0.00     0.018 C 
HETATM   19  C26 UNL     1      -9.102  45.403 -18.373  1.00  0.00     0.018 C 
HETATM   20  C27 UNL     1      -8.487  47.397 -19.965  1.00  0.00     0.015 C 
HETATM   21  C28 UNL     1      -8.047  46.315 -20.950  1.00  0.00     0.090 C 
HETATM   22  C29 UNL     1      -7.477  46.959 -22.184  1.00  0.00     0.157 C 
HETATM   23  O3  UNL     1      -7.701  46.474 -23.292  1.00  0.00    -0.293 OA
ENDROOT
BRANCH   1  24
HETATM   24  C6  UNL     1      -2.468  50.081 -24.443  1.00  0.00    -0.014 C 
HETATM   25  C7  UNL     1      -2.066  51.426 -23.828  1.00  0.00     0.010 C 
BRANCH  24  26
HETATM   26  C5  UNL     1      -1.991  50.014 -25.923  1.00  0.00     0.008 C 
BRANCH  26  27
HETATM   27  C4  UNL     1      -2.725  50.955 -26.890  1.00  0.00     0.028 C 
BRANCH  27  28
HETATM   28  C3  UNL     1      -2.087  52.300 -27.147  1.00  0.00    -0.022 C 
HETATM   29  C2  UNL     1      -0.848  52.616 -27.575  1.00  0.00    -0.064 C 
HETATM   30  C1  UNL     1       0.254  51.621 -27.813  1.00  0.00     0.045 C 
BRANCH  29  31
HETATM   31  C30 UNL     1      -0.467  54.063 -27.794  1.00  0.00     0.197 C 
BRANCH  31  32
HETATM   32  O4  UNL     1       0.171  54.589 -26.640  1.00  0.00    -0.397 OA
HETATM   33  H48 UNL     1      -0.077  54.044 -25.875  1.00  0.00     0.209 HD
ENDBRANCH  31  32
ENDBRANCH  29  31
ENDBRANCH  27  28
ENDBRANCH  26  27
ENDBRANCH  24  26
ENDBRANCH   1  24
BRANCH   8  34
HETATM   34  O1  UNL     1      -4.654  49.764 -19.633  1.00  0.00    -0.391 OA
HETATM   35  H22 UNL     1      -4.195  50.597 -19.431  1.00  0.00     0.210 HD
ENDBRANCH   8  34
BRANCH  16  36
HETATM   36  O2  UNL     1      -8.448  47.424 -16.602  1.00  0.00    -0.395 OA
HETATM   37  H36 UNL     1      -8.538  48.021 -15.840  1.00  0.00     0.210 HD
ENDBRANCH  16  36
TORSDOF 8
ENDMDL
