MODEL 1
REMARK minimizedAffinity -8.03860474
REMARK CNNscore 0.791900277
REMARK CNNaffinity 7.10504103
REMARK  12 active torsions:
REMARK  status: ('A' for Active; 'I' for Inactive)
REMARK    1  A    between atoms: O1_2  and  C2_3 
REMARK    2  A    between atoms: C2_3  and  C3_4 
REMARK    3  A    between atoms: C3_4  and  C4_5 
REMARK    4  A    between atoms: C4_5  and  O2_6 
REMARK    5  A    between atoms: O2_6  and  C5_7 
REMARK    6  A    between atoms: C20_23  and  C21_24 
REMARK    7  A    between atoms: C21_24  and  O4_26 
REMARK    8  A    between atoms: C21_24  and  C23_27 
REMARK    9  A    between atoms: C23_27  and  O5_28 
REMARK   10  A    between atoms: C23_27  and  C24_29 
REMARK   11  A    between atoms: C32_38  and  O7_39 
REMARK   12  A    between atoms: C36_44  and  O8_45 
ROOT
HETATM    1  C5  UNL     1       6.553  55.575  -7.062  1.00  0.00     0.122 C 
HETATM    2  C6  UNL     1       6.771  55.461  -8.569  1.00  0.00     0.033 C 
HETATM    3  C7  UNL     1       5.481  55.154  -9.327  1.00  0.00     0.013 C 
HETATM    4  C8  UNL     1       4.711  53.910  -8.781  1.00  0.00    -0.026 C 
HETATM    5  C9  UNL     1       5.580  52.653  -9.051  1.00  0.00     0.016 C 
HETATM    6  C10 UNL     1       4.487  54.087  -7.256  1.00  0.00     0.071 C 
HETATM    7  C11 UNL     1       5.800  54.364  -6.502  1.00  0.00     0.045 C 
HETATM    8  C12 UNL     1       3.485  55.201  -6.957  1.00  0.00     0.154 C 
HETATM    9  O3  UNL     1       3.548  55.912  -5.957  1.00  0.00    -0.293 OA
HETATM   10  C13 UNL     1       2.338  55.390  -7.868  1.00  0.00     0.057 C 
HETATM   11  C14 UNL     1       2.246  54.719  -9.024  1.00  0.00    -0.037 C 
HETATM   12  C15 UNL     1       3.342  53.786  -9.549  1.00  0.00     0.026 C 
HETATM   13  C16 UNL     1       2.760  52.354  -9.671  1.00  0.00     0.011 C 
HETATM   14  C17 UNL     1       1.457  52.308 -10.498  1.00  0.00     0.014 C 
HETATM   15  C18 UNL     1       0.393  53.288  -9.958  1.00  0.00    -0.002 C 
HETATM   16  C19 UNL     1      -0.071  52.793  -8.562  1.00  0.00     0.019 C 
HETATM   17  C20 UNL     1      -0.810  53.567 -10.918  1.00  0.00     0.034 C 
HETATM   18  C34 UNL     1      -1.352  54.936 -10.422  1.00  0.00     0.012 C 
HETATM   19  C35 UNL     1      -0.218  55.590  -9.598  1.00  0.00     0.044 C 
HETATM   20  C36 UNL     1       1.013  54.727  -9.896  1.00  0.00     0.089 C 
ENDROOT
BRANCH  17  21
HETATM   21  C21 UNL     1      -1.886  52.484 -11.254  1.00  0.00     0.087 C 
HETATM   22  C22 UNL     1      -3.285  52.779 -10.691  1.00  0.00     0.049 C 
BRANCH  21  23
HETATM   23  O4  UNL     1      -1.444  51.267 -10.630  1.00  0.00    -0.387 OA
HETATM   24  H34 UNL     1      -2.145  50.600 -10.763  1.00  0.00     0.210 HD
ENDBRANCH  21  23
BRANCH  21  25
HETATM   25  C23 UNL     1      -1.918  52.285 -12.828  1.00  0.00     0.181 C 
BRANCH  25  26
HETATM   26  O5  UNL     1      -3.226  52.546 -13.357  1.00  0.00    -0.390 OA
HETATM   27  H36 UNL     1      -3.827  51.871 -13.003  1.00  0.00     0.210 HD
ENDBRANCH  25  26
BRANCH  25  28
HETATM   28  C24 UNL     1      -1.363  50.920 -13.319  1.00  0.00     0.158 C 
HETATM   29  O6  UNL     1      -2.346  50.211 -14.104  1.00  0.00    -0.372 OA
HETATM   30  C25 UNL     1      -2.048  50.418 -15.501  1.00  0.00     0.197 C 
HETATM   31  C26 UNL     1      -0.609  50.959 -15.615  1.00  0.00     0.035 C 
HETATM   32  C32 UNL     1      -2.195  49.134 -16.388  1.00  0.00     0.301 C 
HETATM   33  C27 UNL     1      -0.094  50.932 -14.180  1.00  0.00     0.020 C 
HETATM   34  C29 UNL     1       0.166  50.079 -16.640  1.00  0.00     0.043 C 
HETATM   35  C28 UNL     1       0.930  52.014 -13.875  1.00  0.00     0.013 C 
HETATM   36  C30 UNL     1      -0.639  50.106 -17.938  1.00  0.00    -0.019 C 
HETATM   37  C33 UNL     1       0.144  48.583 -16.197  1.00  0.00     0.283 C 
HETATM   38  C31 UNL     1      -1.863  49.559 -17.804  1.00  0.00     0.042 C 
HETATM   39  N1  UNL     1      -1.244  48.109 -15.952  1.00  0.00     0.126 N 
HETATM   40  H48 UNL     1      -1.417  47.286 -16.526  1.00  0.00     0.320 HD
BRANCH  32  41
HETATM   41  O7  UNL     1      -3.489  48.606 -16.322  1.00  0.00    -0.358 OA
HETATM   42  H47 UNL     1      -3.552  48.321 -15.393  1.00  0.00     0.213 HD
ENDBRANCH  32  41
ENDBRANCH  25  28
ENDBRANCH  21  25
ENDBRANCH  17  21
BRANCH  20  43
HETATM   43  O8  UNL     1       1.474  55.144 -11.194  1.00  0.00    -0.384 OA
HETATM   44  H55 UNL     1       1.788  56.059 -11.105  1.00  0.00     0.211 HD
ENDBRANCH  20  43
BRANCH   1  45
HETATM   45  O2  UNL     1       7.842  55.628  -6.439  1.00  0.00    -0.386 OA
BRANCH  45  46
HETATM   46  C4  UNL     1       7.946  56.611  -5.409  1.00  0.00     0.170 C 
BRANCH  46  47
HETATM   47  C3  UNL     1       9.388  57.077  -5.234  1.00  0.00     0.052 C 
BRANCH  47  48
HETATM   48  C2  UNL     1       9.464  58.506  -4.711  1.00  0.00     0.169 C 
BRANCH  48  49
HETATM   49  O1  UNL     1      10.610  59.138  -5.283  1.00  0.00    -0.396 OA
HETATM   50  C1  UNL     1      11.750  59.010  -4.443  1.00  0.00     0.201 C 
ENDBRANCH  48  49
ENDBRANCH  47  48
ENDBRANCH  46  47
ENDBRANCH  45  46
ENDBRANCH   1  45
TORSDOF 12
ENDMDL
MODEL 2
REMARK minimizedAffinity -8.51720047
REMARK CNNscore 0.765891254
REMARK CNNaffinity 7.05718279
REMARK  12 active torsions:
REMARK  status: ('A' for Active; 'I' for Inactive)
REMARK    1  A    between atoms: O1_2  and  C2_3 
REMARK    2  A    between atoms: C2_3  and  C3_4 
REMARK    3  A    between atoms: C3_4  and  C4_5 
REMARK    4  A    between atoms: C4_5  and  O2_6 
REMARK    5  A    between atoms: O2_6  and  C5_7 
REMARK    6  A    between atoms: C20_23  and  C21_24 
REMARK    7  A    between atoms: C21_24  and  O4_26 
REMARK    8  A    between atoms: C21_24  and  C23_27 
REMARK    9  A    between atoms: C23_27  and  O5_28 
REMARK   10  A    between atoms: C23_27  and  C24_29 
REMARK   11  A    between atoms: C32_38  and  O7_39 
REMARK   12  A    between atoms: C36_44  and  O8_45 
ROOT
HETATM    1  C5  UNL     1      -4.644  49.585 -24.266  1.00  0.00     0.122 C 
HETATM    2  C6  UNL     1      -5.604  50.254 -23.285  1.00  0.00     0.033 C 
HETATM    3  C7  UNL     1      -4.933  50.616 -21.961  1.00  0.00     0.013 C 
HETATM    4  C8  UNL     1      -4.191  49.420 -21.285  1.00  0.00    -0.026 C 
HETATM    5  C9  UNL     1      -5.256  48.374 -20.860  1.00  0.00     0.016 C 
HETATM    6  C10 UNL     1      -3.208  48.795 -22.309  1.00  0.00     0.071 C 
HETATM    7  C11 UNL     1      -3.905  48.407 -23.625  1.00  0.00     0.045 C 
HETATM    8  C12 UNL     1      -2.036  49.728 -22.611  1.00  0.00     0.154 C 
HETATM    9  O3  UNL     1      -1.480  49.778 -23.706  1.00  0.00    -0.293 OA
HETATM   10  C13 UNL     1      -1.488  50.559 -21.520  1.00  0.00     0.057 C 
HETATM   11  C14 UNL     1      -2.092  50.630 -20.326  1.00  0.00    -0.037 C 
HETATM   12  C15 UNL     1      -3.429  49.952 -20.013  1.00  0.00     0.026 C 
HETATM   13  C16 UNL     1      -3.211  48.923 -18.874  1.00  0.00     0.011 C 
HETATM   14  C17 UNL     1      -2.524  49.540 -17.636  1.00  0.00     0.014 C 
HETATM   15  C18 UNL     1      -1.199  50.244 -18.000  1.00  0.00    -0.002 C 
HETATM   16  C19 UNL     1      -0.178  49.169 -18.457  1.00  0.00     0.019 C 
HETATM   17  C20 UNL     1      -0.615  51.185 -16.896  1.00  0.00     0.034 C 
HETATM   18  C34 UNL     1       0.302  52.150 -17.698  1.00  0.00     0.012 C 
HETATM   19  C35 UNL     1      -0.150  52.068 -19.174  1.00  0.00     0.044 C 
HETATM   20  C36 UNL     1      -1.479  51.304 -19.121  1.00  0.00     0.089 C 
ENDROOT
BRANCH  17  21
HETATM   21  C21 UNL     1      -0.031  50.642 -15.551  1.00  0.00     0.087 C 
HETATM   22  C22 UNL     1       1.475  50.338 -15.587  1.00  0.00     0.049 C 
BRANCH  21  23
HETATM   23  O4  UNL     1      -0.693  49.392 -15.298  1.00  0.00    -0.387 OA
HETATM   24  H34 UNL     1      -0.282  49.000 -14.504  1.00  0.00     0.210 HD
ENDBRANCH  21  23
BRANCH  21  25
HETATM   25  C23 UNL     1      -0.394  51.671 -14.399  1.00  0.00     0.181 C 
BRANCH  25  26
HETATM   26  O5  UNL     1       0.777  52.347 -13.919  1.00  0.00    -0.390 OA
HETATM   27  H36 UNL     1       1.349  51.685 -13.499  1.00  0.00     0.210 HD
ENDBRANCH  25  26
BRANCH  25  28
HETATM   28  C24 UNL     1      -1.225  51.069 -13.233  1.00  0.00     0.158 C 
HETATM   29  O6  UNL     1      -0.729  51.518 -11.953  1.00  0.00    -0.372 OA
HETATM   30  C25 UNL     1      -1.562  52.606 -11.500  1.00  0.00     0.197 C 
HETATM   31  C26 UNL     1      -2.861  52.601 -12.329  1.00  0.00     0.035 C 
HETATM   32  C32 UNL     1      -1.916  52.551  -9.973  1.00  0.00     0.301 C 
HETATM   33  C27 UNL     1      -2.731  51.360 -13.205  1.00  0.00     0.020 C 
HETATM   34  C29 UNL     1      -4.070  52.627 -11.346  1.00  0.00     0.043 C 
HETATM   35  C28 UNL     1      -3.431  51.481 -14.549  1.00  0.00     0.013 C 
HETATM   36  C30 UNL     1      -3.880  53.848 -10.449  1.00  0.00    -0.019 C 
HETATM   37  C33 UNL     1      -4.002  51.410 -10.371  1.00  0.00     0.283 C 
HETATM   38  C31 UNL     1      -2.768  53.772  -9.693  1.00  0.00     0.042 C 
HETATM   39  N1  UNL     1      -2.688  51.341  -9.679  1.00  0.00     0.126 N 
HETATM   40  H48 UNL     1      -2.847  51.333  -8.673  1.00  0.00     0.320 HD
BRANCH  32  41
HETATM   41  O7  UNL     1      -0.766  52.557  -9.175  1.00  0.00    -0.358 OA
HETATM   42  H47 UNL     1      -0.348  51.708  -9.403  1.00  0.00     0.213 HD
ENDBRANCH  32  41
ENDBRANCH  25  28
ENDBRANCH  21  25
ENDBRANCH  17  21
BRANCH  20  43
HETATM   43  O8  UNL     1      -2.460  52.263 -18.688  1.00  0.00    -0.384 OA
HETATM   44  H55 UNL     1      -2.545  52.925 -19.394  1.00  0.00     0.211 HD
ENDBRANCH  20  43
BRANCH   1  45
HETATM   45  O2  UNL     1      -5.421  49.085 -25.361  1.00  0.00    -0.386 OA
BRANCH  45  46
HETATM   46  C4  UNL     1      -4.658  48.360 -26.326  1.00  0.00     0.170 C 
BRANCH  46  47
HETATM   47  C3  UNL     1      -5.543  47.852 -27.459  1.00  0.00     0.052 C 
BRANCH  47  48
HETATM   48  C2  UNL     1      -4.939  48.145 -28.827  1.00  0.00     0.169 C 
BRANCH  48  49
HETATM   49  O1  UNL     1      -5.902  47.812 -29.830  1.00  0.00    -0.396 OA
HETATM   50  C1  UNL     1      -5.584  48.412 -31.079  1.00  0.00     0.201 C 
ENDBRANCH  48  49
ENDBRANCH  47  48
ENDBRANCH  46  47
ENDBRANCH  45  46
ENDBRANCH   1  45
TORSDOF 12
ENDMDL
MODEL 3
REMARK minimizedAffinity -8.37843323
REMARK CNNscore 0.695056379
REMARK CNNaffinity 6.92538452
REMARK  12 active torsions:
REMARK  status: ('A' for Active; 'I' for Inactive)
REMARK    1  A    between atoms: O1_2  and  C2_3 
REMARK    2  A    between atoms: C2_3  and  C3_4 
REMARK    3  A    between atoms: C3_4  and  C4_5 
REMARK    4  A    between atoms: C4_5  and  O2_6 
REMARK    5  A    between atoms: O2_6  and  C5_7 
REMARK    6  A    between atoms: C20_23  and  C21_24 
REMARK    7  A    between atoms: C21_24  and  O4_26 
REMARK    8  A    between atoms: C21_24  and  C23_27 
REMARK    9  A    between atoms: C23_27  and  O5_28 
REMARK   10  A    between atoms: C23_27  and  C24_29 
REMARK   11  A    between atoms: C32_38  and  O7_39 
REMARK   12  A    between atoms: C36_44  and  O8_45 
ROOT
HETATM    1  C5  UNL     1      -2.635  52.202 -25.138  1.00  0.00     0.122 C 
HETATM    2  C6  UNL     1      -3.916  52.436 -24.341  1.00  0.00     0.033 C 
HETATM    3  C7  UNL     1      -3.749  52.127 -22.855  1.00  0.00     0.013 C 
HETATM    4  C8  UNL     1      -3.170  50.705 -22.570  1.00  0.00    -0.026 C 
HETATM    5  C9  UNL     1      -4.222  49.660 -23.025  1.00  0.00     0.016 C 
HETATM    6  C10 UNL     1      -1.856  50.527 -23.375  1.00  0.00     0.071 C 
HETATM    7  C11 UNL     1      -2.048  50.811 -24.875  1.00  0.00     0.045 C 
HETATM    8  C12 UNL     1      -0.734  51.411 -22.831  1.00  0.00     0.154 C 
HETATM    9  O3  UNL     1       0.143  51.898 -23.540  1.00  0.00    -0.293 OA
HETATM   10  C13 UNL     1      -0.646  51.633 -21.373  1.00  0.00     0.057 C 
HETATM   11  C14 UNL     1      -1.611  51.213 -20.544  1.00  0.00    -0.037 C 
HETATM   12  C15 UNL     1      -2.915  50.565 -21.022  1.00  0.00     0.026 C 
HETATM   13  C16 UNL     1      -2.995  49.126 -20.449  1.00  0.00     0.011 C 
HETATM   14  C17 UNL     1      -2.806  49.083 -18.917  1.00  0.00     0.014 C 
HETATM   15  C18 UNL     1      -1.500  49.777 -18.474  1.00  0.00    -0.002 C 
HETATM   16  C19 UNL     1      -0.297  48.943 -18.991  1.00  0.00     0.019 C 
HETATM   17  C20 UNL     1      -1.391  50.090 -16.946  1.00  0.00     0.034 C 
HETATM   18  C34 UNL     1      -0.348  51.240 -16.890  1.00  0.00     0.012 C 
HETATM   19  C35 UNL     1      -0.284  51.851 -18.309  1.00  0.00     0.044 C 
HETATM   20  C36 UNL     1      -1.486  51.240 -19.039  1.00  0.00     0.089 C 
ENDROOT
BRANCH  17  21
HETATM   21  C21 UNL     1      -1.235  48.968 -15.868  1.00  0.00     0.087 C 
HETATM   22  C22 UNL     1       0.076  49.030 -15.068  1.00  0.00     0.049 C 
BRANCH  21  23
HETATM   23  O4  UNL     1      -1.219  47.720 -16.581  1.00  0.00    -0.387 OA
HETATM   24  H34 UNL     1      -1.042  47.015 -15.930  1.00  0.00     0.210 HD
ENDBRANCH  21  23
BRANCH  21  25
HETATM   25  C23 UNL     1      -2.504  49.012 -14.916  1.00  0.00     0.181 C 
BRANCH  25  26
HETATM   26  O5  UNL     1      -3.587  49.728 -15.528  1.00  0.00    -0.390 OA
HETATM   27  H36 UNL     1      -3.310  50.653 -15.627  1.00  0.00     0.210 HD
ENDBRANCH  25  26
BRANCH  25  28
HETATM   28  C24 UNL     1      -2.217  49.527 -13.479  1.00  0.00     0.158 C 
HETATM   29  O6  UNL     1      -0.891  49.152 -13.048  1.00  0.00    -0.372 OA
HETATM   30  C25 UNL     1      -0.016  50.285 -13.233  1.00  0.00     0.197 C 
HETATM   31  C26 UNL     1      -0.886  51.543 -13.428  1.00  0.00     0.035 C 
HETATM   32  C32 UNL     1       0.988  50.523 -12.052  1.00  0.00     0.301 C 
HETATM   33  C27 UNL     1      -2.310  51.037 -13.228  1.00  0.00     0.020 C 
HETATM   34  C29 UNL     1      -0.397  52.636 -12.431  1.00  0.00     0.043 C 
HETATM   35  C28 UNL     1      -3.351  51.801 -14.030  1.00  0.00     0.013 C 
HETATM   36  C30 UNL     1       1.094  52.835 -12.694  1.00  0.00    -0.019 C 
HETATM   37  C33 UNL     1      -0.470  52.105 -10.966  1.00  0.00     0.283 C 
HETATM   38  C31 UNL     1       1.819  51.728 -12.441  1.00  0.00     0.042 C 
HETATM   39  N1  UNL     1       0.255  50.815 -10.819  1.00  0.00     0.126 N 
HETATM   40  H48 UNL     1       0.950  50.911 -10.081  1.00  0.00     0.320 HD
BRANCH  32  41
HETATM   41  O7  UNL     1       1.806  49.407 -11.837  1.00  0.00    -0.358 OA
HETATM   42  H47 UNL     1       1.168  48.734 -11.540  1.00  0.00     0.213 HD
ENDBRANCH  32  41
ENDBRANCH  25  28
ENDBRANCH  21  25
ENDBRANCH  17  21
BRANCH  20  43
HETATM   43  O8  UNL     1      -2.633  51.978 -18.580  1.00  0.00    -0.384 OA
HETATM   44  H55 UNL     1      -2.538  52.887 -18.908  1.00  0.00     0.211 HD
ENDBRANCH  20  43
BRANCH   1  45
HETATM   45  O2  UNL     1      -2.965  52.293 -26.529  1.00  0.00    -0.386 OA
BRANCH  45  46
HETATM   46  C4  UNL     1      -1.910  52.811 -27.340  1.00  0.00     0.170 C 
BRANCH  46  47
HETATM   47  C3  UNL     1      -0.966  51.701 -27.791  1.00  0.00     0.052 C 
BRANCH  47  48
HETATM   48  C2  UNL     1       0.449  52.217 -28.022  1.00  0.00     0.169 C 
BRANCH  48  49
HETATM   49  O1  UNL     1       1.074  52.409 -26.751  1.00  0.00    -0.396 OA
HETATM   50  C1  UNL     1       2.186  51.540 -26.580  1.00  0.00     0.201 C 
ENDBRANCH  48  49
ENDBRANCH  47  48
ENDBRANCH  46  47
ENDBRANCH  45  46
ENDBRANCH   1  45
TORSDOF 12
ENDMDL
MODEL 4
REMARK minimizedAffinity -8.51431561
REMARK CNNscore 0.592501104
REMARK CNNaffinity 7.21627426
REMARK  12 active torsions:
REMARK  status: ('A' for Active; 'I' for Inactive)
REMARK    1  A    between atoms: O1_2  and  C2_3 
REMARK    2  A    between atoms: C2_3  and  C3_4 
REMARK    3  A    between atoms: C3_4  and  C4_5 
REMARK    4  A    between atoms: C4_5  and  O2_6 
REMARK    5  A    between atoms: O2_6  and  C5_7 
REMARK    6  A    between atoms: C20_23  and  C21_24 
REMARK    7  A    between atoms: C21_24  and  O4_26 
REMARK    8  A    between atoms: C21_24  and  C23_27 
REMARK    9  A    between atoms: C23_27  and  O5_28 
REMARK   10  A    between atoms: C23_27  and  C24_29 
REMARK   11  A    between atoms: C32_38  and  O7_39 
REMARK   12  A    between atoms: C36_44  and  O8_45 
ROOT
HETATM    1  C5  UNL     1      -1.984  52.203 -25.966  1.00  0.00     0.122 C 
HETATM    2  C6  UNL     1      -3.464  51.833 -25.903  1.00  0.00     0.033 C 
HETATM    3  C7  UNL     1      -3.857  51.214 -24.563  1.00  0.00     0.013 C 
HETATM    4  C8  UNL     1      -2.963  50.005 -24.141  1.00  0.00    -0.026 C 
HETATM    5  C9  UNL     1      -3.217  48.850 -25.144  1.00  0.00     0.016 C 
HETATM    6  C10 UNL     1      -1.475  50.439 -24.191  1.00  0.00     0.071 C 
HETATM    7  C11 UNL     1      -1.086  51.031 -25.558  1.00  0.00     0.045 C 
HETATM    8  C12 UNL     1      -1.141  51.445 -23.089  1.00  0.00     0.154 C 
HETATM    9  O3  UNL     1      -0.305  52.336 -23.223  1.00  0.00    -0.293 OA
HETATM   10  C13 UNL     1      -1.791  51.299 -21.771  1.00  0.00     0.057 C 
HETATM   11  C14 UNL     1      -2.776  50.412 -21.574  1.00  0.00    -0.037 C 
HETATM   12  C15 UNL     1      -3.378  49.552 -22.690  1.00  0.00     0.026 C 
HETATM   13  C16 UNL     1      -3.138  48.059 -22.352  1.00  0.00     0.011 C 
HETATM   14  C17 UNL     1      -3.637  47.679 -20.941  1.00  0.00     0.014 C 
HETATM   15  C18 UNL     1      -3.036  48.591 -19.849  1.00  0.00    -0.002 C 
HETATM   16  C19 UNL     1      -1.511  48.315 -19.760  1.00  0.00     0.019 C 
HETATM   17  C20 UNL     1      -3.735  48.516 -18.453  1.00  0.00     0.034 C 
HETATM   18  C34 UNL     1      -3.355  49.869 -17.789  1.00  0.00     0.012 C 
HETATM   19  C35 UNL     1      -2.918  50.816 -18.932  1.00  0.00     0.044 C 
HETATM   20  C36 UNL     1      -3.342  50.086 -20.212  1.00  0.00     0.089 C 
ENDROOT
BRANCH  17  21
HETATM   21  C21 UNL     1      -3.647  47.253 -17.535  1.00  0.00     0.087 C 
HETATM   22  C22 UNL     1      -3.284  47.552 -16.072  1.00  0.00     0.049 C 
BRANCH  21  23
HETATM   23  O4  UNL     1      -2.583  46.444 -18.063  1.00  0.00    -0.387 OA
HETATM   24  H34 UNL     1      -2.462  45.690 -17.454  1.00  0.00     0.210 HD
ENDBRANCH  21  23
BRANCH  21  25
HETATM   25  C23 UNL     1      -5.016  46.458 -17.649  1.00  0.00     0.181 C 
BRANCH  25  26
HETATM   26  O5  UNL     1      -4.981  45.517 -18.730  1.00  0.00    -0.390 OA
HETATM   27  H36 UNL     1      -4.909  46.020 -19.557  1.00  0.00     0.210 HD
ENDBRANCH  25  26
BRANCH  25  28
HETATM   28  C24 UNL     1      -6.282  47.356 -17.712  1.00  0.00     0.158 C 
HETATM   29  O6  UNL     1      -6.792  47.442 -19.060  1.00  0.00    -0.372 OA
HETATM   30  C25 UNL     1      -7.891  46.516 -19.189  1.00  0.00     0.197 C 
HETATM   31  C26 UNL     1      -8.347  46.103 -17.776  1.00  0.00     0.035 C 
HETATM   32  C32 UNL     1      -9.117  47.079 -19.990  1.00  0.00     0.301 C 
HETATM   33  C27 UNL     1      -7.486  46.956 -16.851  1.00  0.00     0.020 C 
HETATM   34  C29 UNL     1      -9.887  46.317 -17.675  1.00  0.00     0.043 C 
HETATM   35  C28 UNL     1      -7.184  46.298 -15.514  1.00  0.00     0.013 C 
HETATM   36  C30 UNL     1     -10.516  45.520 -18.815  1.00  0.00    -0.019 C 
HETATM   37  C33 UNL     1     -10.249  47.802 -17.989  1.00  0.00     0.283 C 
HETATM   38  C31 UNL     1     -10.142  45.965 -20.031  1.00  0.00     0.042 C 
HETATM   39  N1  UNL     1      -9.684  48.236 -19.293  1.00  0.00     0.126 N 
HETATM   40  H48 UNL     1     -10.439  48.588 -19.878  1.00  0.00     0.320 HD
BRANCH  32  41
HETATM   41  O7  UNL     1      -8.754  47.465 -21.285  1.00  0.00    -0.358 OA
HETATM   42  H47 UNL     1      -8.152  48.212 -21.121  1.00  0.00     0.213 HD
ENDBRANCH  32  41
ENDBRANCH  25  28
ENDBRANCH  21  25
ENDBRANCH  17  21
BRANCH  20  43
HETATM   43  O8  UNL     1      -4.759  50.305 -20.331  1.00  0.00    -0.384 OA
HETATM   44  H55 UNL     1      -4.889  51.254 -20.494  1.00  0.00     0.211 HD
ENDBRANCH  20  43
BRANCH   1  45
HETATM   45  O2  UNL     1      -1.680  52.548 -27.323  1.00  0.00    -0.386 OA
BRANCH  45  46
HETATM   46  C4  UNL     1      -0.636  53.513 -27.454  1.00  0.00     0.170 C 
BRANCH  46  47
HETATM   47  C3  UNL     1       0.340  53.124 -28.559  1.00  0.00     0.052 C 
BRANCH  47  48
HETATM   48  C2  UNL     1       1.248  51.976 -28.136  1.00  0.00     0.169 C 
BRANCH  48  49
HETATM   49  O1  UNL     1       1.834  52.301 -26.874  1.00  0.00    -0.396 OA
HETATM   50  C1  UNL     1       2.607  51.222 -26.364  1.00  0.00     0.201 C 
ENDBRANCH  48  49
ENDBRANCH  47  48
ENDBRANCH  46  47
ENDBRANCH  45  46
ENDBRANCH   1  45
TORSDOF 12
ENDMDL
MODEL 5
REMARK minimizedAffinity -8.2396698
REMARK CNNscore 0.58795929
REMARK CNNaffinity 7.1357379
REMARK  12 active torsions:
REMARK  status: ('A' for Active; 'I' for Inactive)
REMARK    1  A    between atoms: O1_2  and  C2_3 
REMARK    2  A    between atoms: C2_3  and  C3_4 
REMARK    3  A    between atoms: C3_4  and  C4_5 
REMARK    4  A    between atoms: C4_5  and  O2_6 
REMARK    5  A    between atoms: O2_6  and  C5_7 
REMARK    6  A    between atoms: C20_23  and  C21_24 
REMARK    7  A    between atoms: C21_24  and  O4_26 
REMARK    8  A    between atoms: C21_24  and  C23_27 
REMARK    9  A    between atoms: C23_27  and  O5_28 
REMARK   10  A    between atoms: C23_27  and  C24_29 
REMARK   11  A    between atoms: C32_38  and  O7_39 
REMARK   12  A    between atoms: C36_44  and  O8_45 
ROOT
HETATM    1  C5  UNL     1      -6.001  49.114 -23.640  1.00  0.00     0.122 C 
HETATM    2  C6  UNL     1      -6.763  49.959 -22.621  1.00  0.00     0.033 C 
HETATM    3  C7  UNL     1      -5.885  50.408 -21.455  1.00  0.00     0.013 C 
HETATM    4  C8  UNL     1      -5.128  49.237 -20.751  1.00  0.00    -0.026 C 
HETATM    5  C9  UNL     1      -6.182  48.331 -20.062  1.00  0.00     0.016 C 
HETATM    6  C10 UNL     1      -4.346  48.429 -21.820  1.00  0.00     0.071 C 
HETATM    7  C11 UNL     1      -5.251  47.957 -22.971  1.00  0.00     0.045 C 
HETATM    8  C12 UNL     1      -3.175  49.230 -22.390  1.00  0.00     0.154 C 
HETATM    9  O3  UNL     1      -2.783  49.116 -23.549  1.00  0.00    -0.293 OA
HETATM   10  C13 UNL     1      -2.422  50.128 -21.491  1.00  0.00     0.057 C 
HETATM   11  C14 UNL     1      -2.840  50.376 -20.242  1.00  0.00    -0.037 C 
HETATM   12  C15 UNL     1      -4.157  49.843 -19.668  1.00  0.00     0.026 C 
HETATM   13  C16 UNL     1      -3.839  48.930 -18.457  1.00  0.00     0.011 C 
HETATM   14  C17 UNL     1      -2.941  49.621 -17.408  1.00  0.00     0.014 C 
HETATM   15  C18 UNL     1      -1.642  50.175 -18.032  1.00  0.00    -0.002 C 
HETATM   16  C19 UNL     1      -0.768  48.980 -18.496  1.00  0.00     0.019 C 
HETATM   17  C20 UNL     1      -0.845  51.181 -17.139  1.00  0.00     0.034 C 
HETATM   18  C34 UNL     1       0.004  51.979 -18.169  1.00  0.00     0.012 C 
HETATM   19  C35 UNL     1      -0.665  51.772 -19.548  1.00  0.00     0.044 C 
HETATM   20  C36 UNL     1      -2.016  51.126 -19.222  1.00  0.00     0.089 C 
ENDROOT
BRANCH  17  21
HETATM   21  C21 UNL     1      -0.105  50.743 -15.833  1.00  0.00     0.087 C 
HETATM   22  C22 UNL     1       1.416  50.585 -15.984  1.00  0.00     0.049 C 
BRANCH  21  23
HETATM   23  O4  UNL     1      -0.619  49.443 -15.495  1.00  0.00    -0.387 OA
HETATM   24  H34 UNL     1      -0.109  49.121 -14.727  1.00  0.00     0.210 HD
ENDBRANCH  21  23
BRANCH  21  25
HETATM   25  C23 UNL     1      -0.476  51.770 -14.682  1.00  0.00     0.181 C 
BRANCH  25  26
HETATM   26  O5  UNL     1       0.671  52.527 -14.273  1.00  0.00    -0.390 OA
HETATM   27  H36 UNL     1       1.303  51.910 -13.870  1.00  0.00     0.210 HD
ENDBRANCH  25  26
BRANCH  25  28
HETATM   28  C24 UNL     1      -1.211  51.141 -13.467  1.00  0.00     0.158 C 
HETATM   29  O6  UNL     1      -0.644  51.601 -12.220  1.00  0.00    -0.372 OA
HETATM   30  C25 UNL     1      -1.477  52.663 -11.708  1.00  0.00     0.197 C 
HETATM   31  C26 UNL     1      -2.828  52.622 -12.449  1.00  0.00     0.035 C 
HETATM   32  C32 UNL     1      -1.728  52.593 -10.161  1.00  0.00     0.301 C 
HETATM   33  C27 UNL     1      -2.719  51.388 -13.338  1.00  0.00     0.020 C 
HETATM   34  C29 UNL     1      -3.969  52.610 -11.389  1.00  0.00     0.043 C 
HETATM   35  C28 UNL     1      -3.510  51.492 -14.632  1.00  0.00     0.013 C 
HETATM   36  C30 UNL     1      -3.756  53.834 -10.501  1.00  0.00    -0.019 C 
HETATM   37  C33 UNL     1      -3.801  51.393 -10.426  1.00  0.00     0.283 C 
HETATM   38  C31 UNL     1      -2.594  53.788  -9.820  1.00  0.00     0.042 C 
HETATM   39  N1  UNL     1      -2.443  51.361  -9.823  1.00  0.00     0.126 N 
HETATM   40  H48 UNL     1      -2.535  51.345  -8.808  1.00  0.00     0.320 HD
BRANCH  32  41
HETATM   41  O7  UNL     1      -0.529  52.631  -9.441  1.00  0.00    -0.358 OA
HETATM   42  H47 UNL     1      -0.102  51.795  -9.700  1.00  0.00     0.213 HD
ENDBRANCH  32  41
ENDBRANCH  25  28
ENDBRANCH  21  25
ENDBRANCH  17  21
BRANCH  20  43
HETATM   43  O8  UNL     1      -2.861  52.201 -18.774  1.00  0.00    -0.384 OA
HETATM   44  H55 UNL     1      -3.007  52.786 -19.535  1.00  0.00     0.211 HD
ENDBRANCH  20  43
BRANCH   1  45
HETATM   45  O2  UNL     1      -6.960  48.560 -24.549  1.00  0.00    -0.386 OA
BRANCH  45  46
HETATM   46  C4  UNL     1      -6.384  47.733 -25.561  1.00  0.00     0.170 C 
BRANCH  46  47
HETATM   47  C3  UNL     1      -7.372  47.480 -26.694  1.00  0.00     0.052 C 
BRANCH  47  48
HETATM   48  C2  UNL     1      -7.950  46.071 -26.642  1.00  0.00     0.169 C 
BRANCH  48  49
HETATM   49  O1  UNL     1      -9.139  46.097 -25.850  1.00  0.00    -0.396 OA
HETATM   50  C1  UNL     1      -9.418  44.822 -25.286  1.00  0.00     0.201 C 
ENDBRANCH  48  49
ENDBRANCH  47  48
ENDBRANCH  46  47
ENDBRANCH  45  46
ENDBRANCH   1  45
TORSDOF 12
ENDMDL
MODEL 6
REMARK minimizedAffinity -9.57999516
REMARK CNNscore 0.576370418
REMARK CNNaffinity 7.09187269
REMARK  12 active torsions:
REMARK  status: ('A' for Active; 'I' for Inactive)
REMARK    1  A    between atoms: O1_2  and  C2_3 
REMARK    2  A    between atoms: C2_3  and  C3_4 
REMARK    3  A    between atoms: C3_4  and  C4_5 
REMARK    4  A    between atoms: C4_5  and  O2_6 
REMARK    5  A    between atoms: O2_6  and  C5_7 
REMARK    6  A    between atoms: C20_23  and  C21_24 
REMARK    7  A    between atoms: C21_24  and  O4_26 
REMARK    8  A    between atoms: C21_24  and  C23_27 
REMARK    9  A    between atoms: C23_27  and  O5_28 
REMARK   10  A    between atoms: C23_27  and  C24_29 
REMARK   11  A    between atoms: C32_38  and  O7_39 
REMARK   12  A    between atoms: C36_44  and  O8_45 
ROOT
HETATM    1  C5  UNL     1     -11.534  45.864 -18.953  1.00  0.00     0.122 C 
HETATM    2  C6  UNL     1     -11.804  47.344 -19.215  1.00  0.00     0.033 C 
HETATM    3  C7  UNL     1     -10.785  47.967 -20.168  1.00  0.00     0.013 C 
HETATM    4  C8  UNL     1      -9.301  47.740 -19.739  1.00  0.00    -0.026 C 
HETATM    5  C9  UNL     1      -9.061  48.517 -18.418  1.00  0.00     0.016 C 
HETATM    6  C10 UNL     1      -9.069  46.222 -19.516  1.00  0.00     0.071 C 
HETATM    7  C11 UNL     1     -10.083  45.616 -18.529  1.00  0.00     0.045 C 
HETATM    8  C12 UNL     1      -9.113  45.444 -20.830  1.00  0.00     0.154 C 
HETATM    9  O3  UNL     1      -9.526  44.289 -20.915  1.00  0.00    -0.293 OA
HETATM   10  C13 UNL     1      -8.563  46.072 -22.048  1.00  0.00     0.057 C 
HETATM   11  C14 UNL     1      -8.178  47.356 -22.059  1.00  0.00    -0.037 C 
HETATM   12  C15 UNL     1      -8.357  48.302 -20.867  1.00  0.00     0.026 C 
HETATM   13  C16 UNL     1      -6.960  48.788 -20.403  1.00  0.00     0.011 C 
HETATM   14  C17 UNL     1      -6.125  49.391 -21.553  1.00  0.00     0.014 C 
HETATM   15  C18 UNL     1      -5.999  48.420 -22.748  1.00  0.00    -0.002 C 
HETATM   16  C19 UNL     1      -5.145  47.202 -22.307  1.00  0.00     0.019 C 
HETATM   17  C20 UNL     1      -5.480  49.058 -24.078  1.00  0.00     0.034 C 
HETATM   18  C34 UNL     1      -5.999  48.080 -25.169  1.00  0.00     0.012 C 
HETATM   19  C35 UNL     1      -7.143  47.263 -24.525  1.00  0.00     0.044 C 
HETATM   20  C36 UNL     1      -7.436  47.994 -23.209  1.00  0.00     0.089 C 
ENDROOT
BRANCH  17  21
HETATM   21  C21 UNL     1      -4.011  49.563 -24.251  1.00  0.00     0.087 C 
HETATM   22  C22 UNL     1      -3.177  48.764 -25.267  1.00  0.00     0.049 C 
BRANCH  21  23
HETATM   23  O4  UNL     1      -3.371  49.391 -22.975  1.00  0.00    -0.387 OA
HETATM   24  H34 UNL     1      -2.430  49.627 -23.087  1.00  0.00     0.210 HD
ENDBRANCH  21  23
BRANCH  21  25
HETATM   25  C23 UNL     1      -4.053  51.107 -24.614  1.00  0.00     0.181 C 
BRANCH  25  26
HETATM   26  O5  UNL     1      -5.402  51.596 -24.642  1.00  0.00    -0.390 OA
HETATM   27  H36 UNL     1      -5.862  51.150 -25.371  1.00  0.00     0.210 HD
ENDBRANCH  25  26
BRANCH  25  28
HETATM   28  C24 UNL     1      -3.278  51.490 -25.904  1.00  0.00     0.158 C 
HETATM   29  O6  UNL     1      -2.542  52.720 -25.723  1.00  0.00    -0.372 OA
HETATM   30  C25 UNL     1      -1.168  52.388 -25.435  1.00  0.00     0.197 C 
HETATM   31  C26 UNL     1      -0.932  50.915 -25.821  1.00  0.00     0.035 C 
HETATM   32  C32 UNL     1      -0.120  53.295 -26.169  1.00  0.00     0.301 C 
HETATM   33  C27 UNL     1      -2.254  50.486 -26.447  1.00  0.00     0.020 C 
HETATM   34  C29 UNL     1       0.322  50.844 -26.743  1.00  0.00     0.043 C 
HETATM   35  C28 UNL     1      -2.573  49.012 -26.256  1.00  0.00     0.013 C 
HETATM   36  C30 UNL     1       1.467  51.502 -25.977  1.00  0.00    -0.019 C 
HETATM   37  C33 UNL     1       0.121  51.747 -28.001  1.00  0.00     0.283 C 
HETATM   38  C31 UNL     1       1.244  52.807 -25.726  1.00  0.00     0.042 C 
HETATM   39  N1  UNL     1      -0.246  53.136 -27.619  1.00  0.00     0.126 N 
HETATM   40  H48 UNL     1       0.420  53.780 -28.043  1.00  0.00     0.320 HD
BRANCH  32  41
HETATM   41  O7  UNL     1      -0.290  54.646 -25.847  1.00  0.00    -0.358 OA
HETATM   42  H47 UNL     1      -1.162  54.846 -26.232  1.00  0.00     0.213 HD
ENDBRANCH  32  41
ENDBRANCH  25  28
ENDBRANCH  21  25
ENDBRANCH  17  21
BRANCH  20  43
HETATM   43  O8  UNL     1      -8.221  49.144 -23.571  1.00  0.00    -0.384 OA
HETATM   44  H55 UNL     1      -9.072  48.815 -23.905  1.00  0.00     0.211 HD
ENDBRANCH  20  43
BRANCH   1  45
HETATM   45  O2  UNL     1     -12.391  45.449 -17.882  1.00  0.00    -0.386 OA
BRANCH  45  46
HETATM   46  C4  UNL     1     -13.536  46.283 -17.703  1.00  0.00     0.170 C 
BRANCH  46  47
HETATM   47  C3  UNL     1     -14.642  45.920 -18.688  1.00  0.00     0.052 C 
BRANCH  47  48
HETATM   48  C2  UNL     1     -15.768  46.946 -18.680  1.00  0.00     0.169 C 
BRANCH  48  49
HETATM   49  O1  UNL     1     -15.195  48.250 -18.798  1.00  0.00    -0.396 OA
HETATM   50  C1  UNL     1     -15.798  49.168 -17.895  1.00  0.00     0.201 C 
ENDBRANCH  48  49
ENDBRANCH  47  48
ENDBRANCH  46  47
ENDBRANCH  45  46
ENDBRANCH   1  45
TORSDOF 12
ENDMDL
MODEL 7
REMARK minimizedAffinity -9.10826397
REMARK CNNscore 0.519825161
REMARK CNNaffinity 7.13763285
REMARK  12 active torsions:
REMARK  status: ('A' for Active; 'I' for Inactive)
REMARK    1  A    between atoms: O1_2  and  C2_3 
REMARK    2  A    between atoms: C2_3  and  C3_4 
REMARK    3  A    between atoms: C3_4  and  C4_5 
REMARK    4  A    between atoms: C4_5  and  O2_6 
REMARK    5  A    between atoms: O2_6  and  C5_7 
REMARK    6  A    between atoms: C20_23  and  C21_24 
REMARK    7  A    between atoms: C21_24  and  O4_26 
REMARK    8  A    between atoms: C21_24  and  C23_27 
REMARK    9  A    between atoms: C23_27  and  O5_28 
REMARK   10  A    between atoms: C23_27  and  C24_29 
REMARK   11  A    between atoms: C32_38  and  O7_39 
REMARK   12  A    between atoms: C36_44  and  O8_45 
ROOT
HETATM    1  C5  UNL     1      -1.138  50.978 -20.782  1.00  0.00     0.122 C 
HETATM    2  C6  UNL     1      -1.728  51.933 -21.818  1.00  0.00     0.033 C 
HETATM    3  C7  UNL     1      -3.071  51.450 -22.364  1.00  0.00     0.013 C 
HETATM    4  C8  UNL     1      -3.039  49.988 -22.910  1.00  0.00    -0.026 C 
HETATM    5  C9  UNL     1      -2.126  49.965 -24.164  1.00  0.00     0.016 C 
HETATM    6  C10 UNL     1      -2.462  49.054 -21.813  1.00  0.00     0.071 C 
HETATM    7  C11 UNL     1      -1.095  49.536 -21.297  1.00  0.00     0.045 C 
HETATM    8  C12 UNL     1      -3.425  48.902 -20.636  1.00  0.00     0.154 C 
HETATM    9  O3  UNL     1      -3.050  48.742 -19.477  1.00  0.00    -0.293 OA
HETATM   10  C13 UNL     1      -4.877  48.867 -20.904  1.00  0.00     0.057 C 
HETATM   11  C14 UNL     1      -5.368  49.124 -22.124  1.00  0.00    -0.037 C 
HETATM   12  C15 UNL     1      -4.503  49.565 -23.309  1.00  0.00     0.026 C 
HETATM   13  C16 UNL     1      -4.620  48.504 -24.433  1.00  0.00     0.011 C 
HETATM   14  C17 UNL     1      -6.085  48.198 -24.815  1.00  0.00     0.014 C 
HETATM   15  C18 UNL     1      -6.931  47.793 -23.588  1.00  0.00    -0.002 C 
HETATM   16  C19 UNL     1      -6.420  46.423 -23.066  1.00  0.00     0.019 C 
HETATM   17  C20 UNL     1      -8.479  47.804 -23.808  1.00  0.00     0.034 C 
HETATM   18  C34 UNL     1      -9.044  47.948 -22.368  1.00  0.00     0.012 C 
HETATM   19  C35 UNL     1      -7.891  48.491 -21.491  1.00  0.00     0.044 C 
HETATM   20  C36 UNL     1      -6.816  48.916 -22.500  1.00  0.00     0.089 C 
ENDROOT
BRANCH  17  21
HETATM   21  C21 UNL     1      -9.204  46.770 -24.730  1.00  0.00     0.087 C 
HETATM   22  C22 UNL     1     -10.040  45.722 -23.978  1.00  0.00     0.049 C 
BRANCH  21  23
HETATM   23  O4  UNL     1      -8.170  46.049 -25.420  1.00  0.00    -0.387 OA
HETATM   24  H34 UNL     1      -8.604  45.345 -25.940  1.00  0.00     0.210 HD
ENDBRANCH  21  23
BRANCH  21  25
HETATM   25  C23 UNL     1     -10.080  47.570 -25.784  1.00  0.00     0.181 C 
BRANCH  25  26
HETATM   26  O5  UNL     1     -11.441  47.684 -25.348  1.00  0.00    -0.390 OA
HETATM   27  H36 UNL     1     -11.820  46.790 -25.328  1.00  0.00     0.210 HD
ENDBRANCH  25  26
BRANCH  25  28
HETATM   28  C24 UNL     1      -9.987  47.036 -27.240  1.00  0.00     0.158 C 
HETATM   29  O6  UNL     1      -9.697  48.104 -28.168  1.00  0.00    -0.372 OA
HETATM   30  C25 UNL     1      -8.284  48.082 -28.459  1.00  0.00     0.197 C 
HETATM   31  C26 UNL     1      -7.716  46.723 -28.005  1.00  0.00     0.035 C 
HETATM   32  C32 UNL     1      -7.935  48.315 -29.970  1.00  0.00     0.301 C 
HETATM   33  C27 UNL     1      -8.945  45.951 -27.538  1.00  0.00     0.020 C 
HETATM   34  C29 UNL     1      -6.923  46.101 -29.193  1.00  0.00     0.043 C 
HETATM   35  C28 UNL     1      -8.657  44.954 -26.427  1.00  0.00     0.013 C 
HETATM   36  C30 UNL     1      -5.876  47.132 -29.609  1.00  0.00    -0.019 C 
HETATM   37  C33 UNL     1      -7.846  45.953 -30.443  1.00  0.00     0.283 C 
HETATM   38  C31 UNL     1      -6.424  48.276 -30.065  1.00  0.00     0.042 C 
HETATM   39  N1  UNL     1      -8.502  47.241 -30.789  1.00  0.00     0.126 N 
HETATM   40  H48 UNL     1      -8.288  47.469 -31.758  1.00  0.00     0.320 HD
BRANCH  32  41
HETATM   41  O7  UNL     1      -8.427  49.542 -30.431  1.00  0.00    -0.358 OA
HETATM   42  H47 UNL     1      -9.391  49.415 -30.376  1.00  0.00     0.213 HD
ENDBRANCH  32  41
ENDBRANCH  25  28
ENDBRANCH  21  25
ENDBRANCH  17  21
BRANCH  20  43
HETATM   43  O8  UNL     1      -7.255  50.183 -23.021  1.00  0.00    -0.384 OA
HETATM   44  H55 UNL     1      -7.221  50.821 -22.290  1.00  0.00     0.211 HD
ENDBRANCH  20  43
BRANCH   1  45
HETATM   45  O2  UNL     1       0.205  51.400 -20.518  1.00  0.00    -0.386 OA
BRANCH  45  46
HETATM   46  C4  UNL     1       0.318  52.324 -19.435  1.00  0.00     0.170 C 
BRANCH  46  47
HETATM   47  C3  UNL     1       0.763  53.697 -19.926  1.00  0.00     0.052 C 
BRANCH  47  48
HETATM   48  C2  UNL     1       1.733  53.596 -21.096  1.00  0.00     0.169 C 
BRANCH  48  49
HETATM   49  O1  UNL     1       1.710  54.831 -21.814  1.00  0.00    -0.396 OA
HETATM   50  C1  UNL     1       1.293  54.645 -23.160  1.00  0.00     0.201 C 
ENDBRANCH  48  49
ENDBRANCH  47  48
ENDBRANCH  46  47
ENDBRANCH  45  46
ENDBRANCH   1  45
TORSDOF 12
ENDMDL
MODEL 8
REMARK minimizedAffinity -9.71307564
REMARK CNNscore 0.512980044
REMARK CNNaffinity 6.47409391
REMARK  12 active torsions:
REMARK  status: ('A' for Active; 'I' for Inactive)
REMARK    1  A    between atoms: O1_2  and  C2_3 
REMARK    2  A    between atoms: C2_3  and  C3_4 
REMARK    3  A    between atoms: C3_4  and  C4_5 
REMARK    4  A    between atoms: C4_5  and  O2_6 
REMARK    5  A    between atoms: O2_6  and  C5_7 
REMARK    6  A    between atoms: C20_23  and  C21_24 
REMARK    7  A    between atoms: C21_24  and  O4_26 
REMARK    8  A    between atoms: C21_24  and  C23_27 
REMARK    9  A    between atoms: C23_27  and  O5_28 
REMARK   10  A    between atoms: C23_27  and  C24_29 
REMARK   11  A    between atoms: C32_38  and  O7_39 
REMARK   12  A    between atoms: C36_44  and  O8_45 
ROOT
HETATM    1  C5  UNL     1      -2.840  52.227 -25.193  1.00  0.00     0.122 C 
HETATM    2  C6  UNL     1      -4.083  52.456 -24.335  1.00  0.00     0.033 C 
HETATM    3  C7  UNL     1      -3.845  52.141 -22.860  1.00  0.00     0.013 C 
HETATM    4  C8  UNL     1      -3.251  50.719 -22.609  1.00  0.00    -0.026 C 
HETATM    5  C9  UNL     1      -4.322  49.674 -23.018  1.00  0.00     0.016 C 
HETATM    6  C10 UNL     1      -1.976  50.546 -23.476  1.00  0.00     0.071 C 
HETATM    7  C11 UNL     1      -2.240  50.836 -24.964  1.00  0.00     0.045 C 
HETATM    8  C12 UNL     1      -0.831  51.429 -22.982  1.00  0.00     0.154 C 
HETATM    9  O3  UNL     1       0.011  51.920 -23.731  1.00  0.00    -0.293 OA
HETATM   10  C13 UNL     1      -0.674  51.645 -21.530  1.00  0.00     0.057 C 
HETATM   11  C14 UNL     1      -1.598  51.221 -20.657  1.00  0.00    -0.037 C 
HETATM   12  C15 UNL     1      -2.922  50.573 -21.075  1.00  0.00     0.026 C 
HETATM   13  C16 UNL     1      -2.973  49.132 -20.505  1.00  0.00     0.011 C 
HETATM   14  C17 UNL     1      -2.711  49.082 -18.984  1.00  0.00     0.014 C 
HETATM   15  C18 UNL     1      -1.387  49.777 -18.601  1.00  0.00    -0.002 C 
HETATM   16  C19 UNL     1      -0.209  48.947 -19.178  1.00  0.00     0.019 C 
HETATM   17  C20 UNL     1      -1.206  50.083 -17.078  1.00  0.00     0.034 C 
HETATM   18  C34 UNL     1      -0.163  51.235 -17.067  1.00  0.00     0.012 C 
HETATM   19  C35 UNL     1      -0.167  51.851 -18.485  1.00  0.00     0.044 C 
HETATM   20  C36 UNL     1      -1.402  51.242 -19.160  1.00  0.00     0.089 C 
ENDROOT
BRANCH  17  21
HETATM   21  C21 UNL     1      -0.998  48.958 -16.013  1.00  0.00     0.087 C 
HETATM   22  C22 UNL     1       0.466  48.730 -15.604  1.00  0.00     0.049 C 
BRANCH  21  23
HETATM   23  O4  UNL     1      -1.445  47.736 -16.624  1.00  0.00    -0.387 OA
HETATM   24  H34 UNL     1      -1.248  47.010 -16.001  1.00  0.00     0.210 HD
ENDBRANCH  21  23
BRANCH  21  25
HETATM   25  C23 UNL     1      -1.912  49.284 -14.758  1.00  0.00     0.181 C 
BRANCH  25  26
HETATM   26  O5  UNL     1      -3.288  49.419 -15.141  1.00  0.00    -0.390 OA
HETATM   27  H36 UNL     1      -3.359  50.197 -15.717  1.00  0.00     0.210 HD
ENDBRANCH  25  26
BRANCH  25  28
HETATM   28  C24 UNL     1      -1.434  50.490 -13.905  1.00  0.00     0.158 C 
HETATM   29  O6  UNL     1      -2.402  51.561 -13.928  1.00  0.00    -0.372 OA
HETATM   30  C25 UNL     1      -3.189  51.489 -12.721  1.00  0.00     0.197 C 
HETATM   31  C26 UNL     1      -2.452  50.581 -11.715  1.00  0.00     0.035 C 
HETATM   32  C32 UNL     1      -3.476  52.879 -12.056  1.00  0.00     0.301 C 
HETATM   33  C27 UNL     1      -1.143  50.243 -12.419  1.00  0.00     0.020 C 
HETATM   34  C29 UNL     1      -2.329  51.346 -10.363  1.00  0.00     0.043 C 
HETATM   35  C28 UNL     1      -0.581  48.880 -12.048  1.00  0.00     0.013 C 
HETATM   36  C30 UNL     1      -3.746  51.746  -9.955  1.00  0.00    -0.019 C 
HETATM   37  C33 UNL     1      -1.584  52.701 -10.573  1.00  0.00     0.283 C 
HETATM   38  C31 UNL     1      -4.320  52.595 -10.830  1.00  0.00     0.042 C 
HETATM   39  N1  UNL     1      -2.219  53.511 -11.646  1.00  0.00     0.126 N 
HETATM   40  H48 UNL     1      -2.461  54.425 -11.269  1.00  0.00     0.320 HD
BRANCH  32  41
HETATM   41  O7  UNL     1      -4.149  53.741 -12.930  1.00  0.00    -0.358 OA
HETATM   42  H47 UNL     1      -3.488  53.889 -13.629  1.00  0.00     0.213 HD
ENDBRANCH  32  41
ENDBRANCH  25  28
ENDBRANCH  21  25
ENDBRANCH  17  21
BRANCH  20  43
HETATM   43  O8  UNL     1      -2.527  51.976 -18.643  1.00  0.00    -0.384 OA
HETATM   44  H55 UNL     1      -2.448  52.887 -18.972  1.00  0.00     0.211 HD
ENDBRANCH  20  43
BRANCH   1  45
HETATM   45  O2  UNL     1      -3.237  52.323 -26.567  1.00  0.00    -0.386 OA
BRANCH  45  46
HETATM   46  C4  UNL     1      -2.453  51.521 -27.451  1.00  0.00     0.170 C 
BRANCH  46  47
HETATM   47  C3  UNL     1      -3.296  50.423 -28.091  1.00  0.00     0.052 C 
BRANCH  47  48
HETATM   48  C2  UNL     1      -3.239  49.126 -27.294  1.00  0.00     0.169 C 
BRANCH  48  49
HETATM   49  O1  UNL     1      -3.954  48.119 -28.013  1.00  0.00    -0.396 OA
HETATM   50  C1  UNL     1      -4.788  48.687 -29.016  1.00  0.00     0.201 C 
ENDBRANCH  48  49
ENDBRANCH  47  48
ENDBRANCH  46  47
ENDBRANCH  45  46
ENDBRANCH   1  45
TORSDOF 12
ENDMDL
MODEL 9
REMARK minimizedAffinity -8.53868008
REMARK CNNscore 0.449790925
REMARK CNNaffinity 6.63797235
REMARK  12 active torsions:
REMARK  status: ('A' for Active; 'I' for Inactive)
REMARK    1  A    between atoms: O1_2  and  C2_3 
REMARK    2  A    between atoms: C2_3  and  C3_4 
REMARK    3  A    between atoms: C3_4  and  C4_5 
REMARK    4  A    between atoms: C4_5  and  O2_6 
REMARK    5  A    between atoms: O2_6  and  C5_7 
REMARK    6  A    between atoms: C20_23  and  C21_24 
REMARK    7  A    between atoms: C21_24  and  O4_26 
REMARK    8  A    between atoms: C21_24  and  C23_27 
REMARK    9  A    between atoms: C23_27  and  O5_28 
REMARK   10  A    between atoms: C23_27  and  C24_29 
REMARK   11  A    between atoms: C32_38  and  O7_39 
REMARK   12  A    between atoms: C36_44  and  O8_45 
ROOT
HETATM    1  C5  UNL     1      -3.634  49.581 -21.276  1.00  0.00     0.122 C 
HETATM    2  C6  UNL     1      -3.808  50.701 -22.298  1.00  0.00     0.033 C 
HETATM    3  C7  UNL     1      -4.896  50.395 -23.326  1.00  0.00     0.013 C 
HETATM    4  C8  UNL     1      -4.719  49.016 -24.037  1.00  0.00    -0.026 C 
HETATM    5  C9  UNL     1      -3.434  49.086 -24.903  1.00  0.00     0.016 C 
HETATM    6  C10 UNL     1      -4.577  47.909 -22.959  1.00  0.00     0.071 C 
HETATM    7  C11 UNL     1      -3.456  48.217 -21.951  1.00  0.00     0.045 C 
HETATM    8  C12 UNL     1      -5.888  47.680 -22.207  1.00  0.00     0.154 C 
HETATM    9  O3  UNL     1      -5.936  47.345 -21.025  1.00  0.00    -0.293 OA
HETATM   10  C13 UNL     1      -7.162  47.789 -22.946  1.00  0.00     0.057 C 
HETATM   11  C14 UNL     1      -7.200  48.236 -24.209  1.00  0.00    -0.037 C 
HETATM   12  C15 UNL     1      -5.970  48.759 -24.959  1.00  0.00     0.026 C 
HETATM   13  C16 UNL     1      -5.725  47.862 -26.199  1.00  0.00     0.011 C 
HETATM   14  C17 UNL     1      -6.979  47.718 -27.089  1.00  0.00     0.014 C 
HETATM   15  C18 UNL     1      -8.203  47.224 -26.289  1.00  0.00    -0.002 C 
HETATM   16  C19 UNL     1      -7.939  45.765 -25.832  1.00  0.00     0.019 C 
HETATM   17  C20 UNL     1      -9.583  47.379 -27.010  1.00  0.00     0.034 C 
HETATM   18  C34 UNL     1     -10.601  47.380 -25.836  1.00  0.00     0.012 C 
HETATM   19  C35 UNL     1      -9.803  47.718 -24.556  1.00  0.00     0.044 C 
HETATM   20  C36 UNL     1      -8.437  48.187 -25.073  1.00  0.00     0.089 C 
ENDROOT
BRANCH  17  21
HETATM   21  C21 UNL     1      -9.977  46.529 -28.261  1.00  0.00     0.087 C 
HETATM   22  C22 UNL     1     -10.771  45.253 -27.940  1.00  0.00     0.049 C 
BRANCH  21  23
HETATM   23  O4  UNL     1      -8.745  46.102 -28.865  1.00  0.00    -0.387 OA
HETATM   24  H34 UNL     1      -8.974  45.503 -29.601  1.00  0.00     0.210 HD
ENDBRANCH  21  23
BRANCH  21  25
HETATM   25  C23 UNL     1     -10.761  47.467 -29.274  1.00  0.00     0.181 C 
BRANCH  25  26
HETATM   26  O5  UNL     1     -12.084  46.972 -29.520  1.00  0.00    -0.390 OA
HETATM   27  H36 UNL     1     -12.000  46.119 -29.976  1.00  0.00     0.210 HD
ENDBRANCH  25  26
BRANCH  25  28
HETATM   28  C24 UNL     1     -10.004  47.764 -30.597  1.00  0.00     0.158 C 
HETATM   29  O6  UNL     1      -8.711  48.352 -30.336  1.00  0.00    -0.372 OA
HETATM   30  C25 UNL     1      -7.713  47.314 -30.427  1.00  0.00     0.197 C 
HETATM   31  C26 UNL     1      -8.337  46.101 -31.145  1.00  0.00     0.035 C 
HETATM   32  C32 UNL     1      -6.403  47.745 -31.174  1.00  0.00     0.301 C 
HETATM   33  C27 UNL     1      -9.727  46.588 -31.541  1.00  0.00     0.020 C 
HETATM   34  C29 UNL     1      -7.395  45.684 -32.313  1.00  0.00     0.043 C 
HETATM   35  C28 UNL     1     -10.773  45.485 -31.587  1.00  0.00     0.013 C 
HETATM   36  C30 UNL     1      -6.019  45.432 -31.698  1.00  0.00    -0.019 C 
HETATM   37  C33 UNL     1      -7.175  46.882 -33.288  1.00  0.00     0.283 C 
HETATM   38  C31 UNL     1      -5.485  46.540 -31.146  1.00  0.00     0.042 C 
HETATM   39  N1  UNL     1      -6.707  48.093 -32.563  1.00  0.00     0.126 N 
HETATM   40  H48 UNL     1      -5.835  48.410 -32.983  1.00  0.00     0.320 HD
BRANCH  32  41
HETATM   41  O7  UNL     1      -5.794  48.843 -30.556  1.00  0.00    -0.358 OA
HETATM   42  H47 UNL     1      -6.448  49.551 -30.694  1.00  0.00     0.213 HD
ENDBRANCH  32  41
ENDBRANCH  25  28
ENDBRANCH  21  25
ENDBRANCH  17  21
BRANCH  20  43
HETATM   43  O8  UNL     1      -8.637  49.540 -25.521  1.00  0.00    -0.384 OA
HETATM   44  H55 UNL     1      -8.837  50.075 -24.735  1.00  0.00     0.211 HD
ENDBRANCH  20  43
BRANCH   1  45
HETATM   45  O2  UNL     1      -2.450  49.864 -20.519  1.00  0.00    -0.386 OA
BRANCH  45  46
HETATM   46  C4  UNL     1      -1.863  51.131 -20.817  1.00  0.00     0.170 C 
BRANCH  46  47
HETATM   47  C3  UNL     1      -0.347  51.024 -20.929  1.00  0.00     0.052 C 
BRANCH  47  48
HETATM   48  C2  UNL     1       0.229  52.075 -21.871  1.00  0.00     0.169 C 
BRANCH  48  49
HETATM   49  O1  UNL     1       1.406  52.623 -21.273  1.00  0.00    -0.396 OA
HETATM   50  C1  UNL     1       1.175  53.935 -20.775  1.00  0.00     0.201 C 
ENDBRANCH  48  49
ENDBRANCH  47  48
ENDBRANCH  46  47
ENDBRANCH  45  46
ENDBRANCH   1  45
TORSDOF 12
ENDMDL
