MODEL 1
REMARK minimizedAffinity -9.36885643
REMARK CNNscore 0.65218544
REMARK CNNaffinity 7.0280571
REMARK  8 active torsions:
REMARK  status: ('A' for Active; 'I' for Inactive)
REMARK    1  A    between atoms: C4_4  and  C5_5 
REMARK    2  A    between atoms: C5_5  and  C6_6 
REMARK    3  A    between atoms: C6_6  and  C7_7 
REMARK    4  A    between atoms: C7_7  and  C9_9 
REMARK    5  A    between atoms: C18_18  and  C20_20 
REMARK    6  A    between atoms: C20_20  and  O2_22 
REMARK    7  A    between atoms: C21_23  and  O3_24 
REMARK    8  A    between atoms: C23_26  and  O4_27 
ROOT
HETATM    1  C9  UNL     1      -5.793   6.138  14.591  1.00  0.00    -0.002 C 
HETATM    2  C10 UNL     1      -6.051   5.081  13.480  1.00  0.00     0.006 C 
HETATM    3  C11 UNL     1      -4.770   4.992  12.638  1.00  0.00     0.011 C 
HETATM    4  C12 UNL     1      -3.679   5.654  13.500  1.00  0.00    -0.032 C 
HETATM    5  C13 UNL     1      -3.198   4.567  14.514  1.00  0.00     0.016 C 
HETATM    6  C14 UNL     1      -2.481   6.215  12.693  1.00  0.00     0.004 C 
HETATM    7  C15 UNL     1      -1.606   5.131  12.042  1.00  0.00     0.007 C 
HETATM    8  C16 UNL     1      -0.521   5.782  11.193  1.00  0.00     0.007 C 
HETATM    9  C17 UNL     1       0.506   6.481  12.097  1.00  0.00     0.018 C 
HETATM   10  C18 UNL     1       1.668   7.200  11.320  1.00  0.00     0.072 C 
HETATM   11  C19 UNL     1       1.156   8.072  10.152  1.00  0.00     0.030 C 
HETATM   12  C21 UNL     1       2.565   8.040  12.287  1.00  0.00     0.139 C 
HETATM   13  C22 UNL     1       2.356   7.662  13.747  1.00  0.00     0.065 C 
HETATM   14  C23 UNL     1       0.902   7.854  14.204  1.00  0.00     0.130 C 
HETATM   15  C24 UNL     1      -0.125   7.400  13.156  1.00  0.00    -0.001 A 
HETATM   16  C25 UNL     1      -1.145   8.433  12.727  1.00  0.00     0.024 A 
HETATM   17  C26 UNL     1      -1.643   7.235  13.509  1.00  0.00    -0.025 A 
HETATM   18  C27 UNL     1      -2.102   7.513  14.950  1.00  0.00     0.011 C 
HETATM   19  C28 UNL     1      -3.615   7.467  15.252  1.00  0.00     0.011 C 
HETATM   20  C29 UNL     1      -4.477   6.852  14.137  1.00  0.00    -0.032 C 
HETATM   21  C30 UNL     1      -4.803   7.995  13.138  1.00  0.00     0.016 C 
ENDROOT
BRANCH   1  22
HETATM   22  C7  UNL     1      -7.082   6.911  15.009  1.00  0.00    -0.014 C 
HETATM   23  C8  UNL     1      -7.432   6.868  16.503  1.00  0.00     0.010 C 
BRANCH  22  24
HETATM   24  C6  UNL     1      -8.288   6.522  14.118  1.00  0.00     0.008 C 
BRANCH  24  25
HETATM   25  C5  UNL     1      -9.671   6.783  14.736  1.00  0.00     0.028 C 
BRANCH  25  26
HETATM   26  C4  UNL     1     -10.606   7.573  13.864  1.00  0.00    -0.025 C 
HETATM   27  C2  UNL     1     -11.937   7.417  13.709  1.00  0.00    -0.091 C 
HETATM   28  C1  UNL     1     -12.707   8.313  12.779  1.00  0.00     0.042 C 
HETATM   29  C3  UNL     1     -12.781   6.366  14.387  1.00  0.00     0.042 C 
ENDBRANCH  25  26
ENDBRANCH  24  25
ENDBRANCH  22  24
ENDBRANCH   1  22
BRANCH  14  30
HETATM   30  O4  UNL     1       0.744   7.083  15.397  1.00  0.00    -0.395 OA
HETATM   31  H39 UNL     1       1.266   7.525  16.089  1.00  0.00     0.210 HD
ENDBRANCH  14  30
BRANCH  10  32
HETATM   32  C20 UNL     1       2.565   6.120  10.708  1.00  0.00     0.151 C 
HETATM   33  O1  UNL     1       2.315   5.432   9.732  1.00  0.00    -0.649 OA
BRANCH  32  34
HETATM   34  O2  UNL     1       3.745   5.967  11.337  1.00  0.00    -0.776 OA
HETATM   35  H33 UNL     1       4.181   5.230  10.858  1.00  0.00     0.167 HD
ENDBRANCH  32  34
ENDBRANCH  10  32
BRANCH  12  36
HETATM   36  O3  UNL     1       2.339   9.452  12.174  1.00  0.00    -0.394 OA
HETATM   37  H35 UNL     1       2.795   9.762  11.368  1.00  0.00     0.210 HD
ENDBRANCH  12  36
TORSDOF 8
ENDMDL
MODEL 2
REMARK minimizedAffinity -6.72325134
REMARK CNNscore 0.489075601
REMARK CNNaffinity 5.6087575
REMARK  8 active torsions:
REMARK  status: ('A' for Active; 'I' for Inactive)
REMARK    1  A    between atoms: C4_4  and  C5_5 
REMARK    2  A    between atoms: C5_5  and  C6_6 
REMARK    3  A    between atoms: C6_6  and  C7_7 
REMARK    4  A    between atoms: C7_7  and  C9_9 
REMARK    5  A    between atoms: C18_18  and  C20_20 
REMARK    6  A    between atoms: C20_20  and  O2_22 
REMARK    7  A    between atoms: C21_23  and  O3_24 
REMARK    8  A    between atoms: C23_26  and  O4_27 
ROOT
HETATM    1  C9  UNL     1       6.879   9.019  13.322  1.00  0.00    -0.002 C 
HETATM    2  C10 UNL     1       7.053   7.709  14.144  1.00  0.00     0.006 C 
HETATM    3  C11 UNL     1       7.990   8.035  15.315  1.00  0.00     0.011 C 
HETATM    4  C12 UNL     1       8.000   9.572  15.403  1.00  0.00    -0.032 C 
HETATM    5  C13 UNL     1       6.717   9.978  16.197  1.00  0.00     0.016 C 
HETATM    6  C14 UNL     1       9.265  10.165  16.074  1.00  0.00     0.004 C 
HETATM    7  C15 UNL     1       9.370   9.868  17.578  1.00  0.00     0.007 C 
HETATM    8  C16 UNL     1      10.690  10.403  18.120  1.00  0.00     0.007 C 
HETATM    9  C17 UNL     1      10.672  11.940  18.128  1.00  0.00     0.018 C 
HETATM   10  C18 UNL     1      11.996  12.599  18.659  1.00  0.00     0.072 C 
HETATM   11  C19 UNL     1      13.266  11.984  18.029  1.00  0.00     0.030 C 
HETATM   12  C21 UNL     1      11.978  14.150  18.465  1.00  0.00     0.139 C 
HETATM   13  C22 UNL     1      10.579  14.683  18.187  1.00  0.00     0.065 C 
HETATM   14  C23 UNL     1       9.952  14.066  16.927  1.00  0.00     0.130 C 
HETATM   15  C24 UNL     1      10.222  12.559  16.795  1.00  0.00    -0.001 A 
HETATM   16  C25 UNL     1      10.881  12.108  15.509  1.00  0.00     0.024 A 
HETATM   17  C26 UNL     1       9.451  11.674  15.757  1.00  0.00    -0.025 A 
HETATM   18  C27 UNL     1       8.381  12.333  14.871  1.00  0.00     0.011 C 
HETATM   19  C28 UNL     1       7.720  11.475  13.771  1.00  0.00     0.011 C 
HETATM   20  C29 UNL     1       7.992   9.966  13.879  1.00  0.00    -0.032 C 
HETATM   21  C30 UNL     1       9.338   9.698  13.152  1.00  0.00     0.016 C 
ENDROOT
BRANCH   1  22
HETATM   22  C7  UNL     1       6.662   8.758  11.799  1.00  0.00    -0.014 C 
HETATM   23  C8  UNL     1       5.915   9.858  11.033  1.00  0.00     0.010 C 
BRANCH  22  24
HETATM   24  C6  UNL     1       6.054   7.357  11.546  1.00  0.00     0.008 C 
BRANCH  24  25
HETATM   25  C5  UNL     1       4.518   7.295  11.563  1.00  0.00     0.028 C 
BRANCH  25  26
HETATM   26  C4  UNL     1       3.914   6.463  10.468  1.00  0.00    -0.025 C 
HETATM   27  C2  UNL     1       3.411   6.875   9.286  1.00  0.00    -0.091 C 
HETATM   28  C1  UNL     1       2.840   5.881   8.312  1.00  0.00     0.042 C 
HETATM   29  C3  UNL     1       3.332   8.307   8.818  1.00  0.00     0.042 C 
ENDBRANCH  25  26
ENDBRANCH  24  25
ENDBRANCH  22  24
ENDBRANCH   1  22
BRANCH  14  30
HETATM   30  O4  UNL     1       8.543  14.295  17.018  1.00  0.00    -0.395 OA
HETATM   31  H39 UNL     1       8.406  15.251  16.902  1.00  0.00     0.210 HD
ENDBRANCH  14  30
BRANCH  10  32
HETATM   32  C20 UNL     1      12.080  12.341  20.166  1.00  0.00     0.151 C 
HETATM   33  O1  UNL     1      13.054  11.948  20.786  1.00  0.00    -0.649 OA
BRANCH  32  34
HETATM   34  O2  UNL     1      10.939  12.608  20.831  1.00  0.00    -0.776 OA
HETATM   35  H33 UNL     1      11.138  12.363  21.760  1.00  0.00     0.167 HD
ENDBRANCH  32  34
ENDBRANCH  10  32
BRANCH  12  36
HETATM   36  O3  UNL     1      12.824  14.590  17.393  1.00  0.00    -0.394 OA
HETATM   37  H35 UNL     1      13.745  14.571  17.715  1.00  0.00     0.210 HD
ENDBRANCH  12  36
TORSDOF 8
ENDMDL
MODEL 3
REMARK minimizedAffinity -6.46421766
REMARK CNNscore 0.448875517
REMARK CNNaffinity 5.79532623
REMARK  8 active torsions:
REMARK  status: ('A' for Active; 'I' for Inactive)
REMARK    1  A    between atoms: C4_4  and  C5_5 
REMARK    2  A    between atoms: C5_5  and  C6_6 
REMARK    3  A    between atoms: C6_6  and  C7_7 
REMARK    4  A    between atoms: C7_7  and  C9_9 
REMARK    5  A    between atoms: C18_18  and  C20_20 
REMARK    6  A    between atoms: C20_20  and  O2_22 
REMARK    7  A    between atoms: C21_23  and  O3_24 
REMARK    8  A    between atoms: C23_26  and  O4_27 
ROOT
HETATM    1  C9  UNL     1      -5.799 -11.323   1.960  1.00  0.00    -0.002 C 
HETATM    2  C10 UNL     1      -4.294 -11.185   2.328  1.00  0.00     0.006 C 
HETATM    3  C11 UNL     1      -4.227 -10.808   3.814  1.00  0.00     0.011 C 
HETATM    4  C12 UNL     1      -5.621 -11.145   4.375  1.00  0.00    -0.032 C 
HETATM    5  C13 UNL     1      -5.620 -12.679   4.669  1.00  0.00     0.016 C 
HETATM    6  C14 UNL     1      -6.008 -10.347   5.646  1.00  0.00     0.004 C 
HETATM    7  C15 UNL     1      -5.186 -10.719   6.890  1.00  0.00     0.007 C 
HETATM    8  C16 UNL     1      -5.571  -9.814   8.054  1.00  0.00     0.007 C 
HETATM    9  C17 UNL     1      -6.992 -10.148   8.534  1.00  0.00     0.018 C 
HETATM   10  C18 UNL     1      -7.496  -9.261   9.729  1.00  0.00     0.072 C 
HETATM   11  C19 UNL     1      -7.241  -7.754   9.504  1.00  0.00     0.030 C 
HETATM   12  C21 UNL     1      -9.004  -9.528  10.040  1.00  0.00     0.139 C 
HETATM   13  C22 UNL     1      -9.507 -10.817   9.406  1.00  0.00     0.065 C 
HETATM   14  C23 UNL     1      -9.357 -10.820   7.877  1.00  0.00     0.130 C 
HETATM   15  C24 UNL     1      -8.027 -10.217   7.400  1.00  0.00    -0.001 A 
HETATM   16  C25 UNL     1      -8.126  -9.071   6.417  1.00  0.00     0.024 A 
HETATM   17  C26 UNL     1      -7.536 -10.375   5.920  1.00  0.00    -0.025 A 
HETATM   18  C27 UNL     1      -8.402 -11.176   4.934  1.00  0.00     0.011 C 
HETATM   19  C28 UNL     1      -7.967 -11.217   3.453  1.00  0.00     0.011 C 
HETATM   20  C29 UNL     1      -6.547 -10.697   3.183  1.00  0.00    -0.032 C 
HETATM   21  C30 UNL     1      -6.656  -9.157   3.014  1.00  0.00     0.016 C 
ENDROOT
BRANCH   1  22
HETATM   22  C7  UNL     1      -6.104 -10.932   0.481  1.00  0.00    -0.014 C 
HETATM   23  C8  UNL     1      -4.882 -10.602  -0.388  1.00  0.00     0.010 C 
BRANCH  22  24
HETATM   24  C6  UNL     1      -7.190  -9.831   0.399  1.00  0.00     0.008 C 
BRANCH  24  25
HETATM   25  C5  UNL     1      -8.161  -9.953  -0.786  1.00  0.00     0.028 C 
BRANCH  25  26
HETATM   26  C4  UNL     1      -7.902  -8.988  -1.908  1.00  0.00    -0.025 C 
HETATM   27  C2  UNL     1      -8.390  -7.740  -2.066  1.00  0.00    -0.091 C 
HETATM   28  C1  UNL     1      -8.015  -6.921  -3.270  1.00  0.00     0.042 C 
HETATM   29  C3  UNL     1      -9.345  -7.047  -1.126  1.00  0.00     0.042 C 
ENDBRANCH  25  26
ENDBRANCH  24  25
ENDBRANCH  22  24
ENDBRANCH   1  22
BRANCH  14  30
HETATM   30  O4  UNL     1      -9.442 -12.186   7.461  1.00  0.00    -0.395 OA
HETATM   31  H39 UNL     1     -10.362 -12.467   7.605  1.00  0.00     0.210 HD
ENDBRANCH  14  30
BRANCH  10  32
HETATM   32  C20 UNL     1      -6.706  -9.662  10.979  1.00  0.00     0.151 C 
HETATM   33  O1  UNL     1      -5.712  -9.111  11.422  1.00  0.00    -0.649 OA
BRANCH  32  34
HETATM   34  O2  UNL     1      -7.215 -10.726  11.630  1.00  0.00    -0.776 OA
HETATM   35  H33 UNL     1      -6.591 -10.877  12.372  1.00  0.00     0.167 HD
ENDBRANCH  32  34
ENDBRANCH  10  32
BRANCH  12  36
HETATM   36  O3  UNL     1      -9.863  -8.468   9.595  1.00  0.00    -0.394 OA
HETATM   37  H35 UNL     1      -9.788  -7.736  10.237  1.00  0.00     0.210 HD
ENDBRANCH  12  36
TORSDOF 8
ENDMDL
MODEL 4
REMARK minimizedAffinity -6.54635191
REMARK CNNscore 0.428853363
REMARK CNNaffinity 6.65069723
REMARK  8 active torsions:
REMARK  status: ('A' for Active; 'I' for Inactive)
REMARK    1  A    between atoms: C4_4  and  C5_5 
REMARK    2  A    between atoms: C5_5  and  C6_6 
REMARK    3  A    between atoms: C6_6  and  C7_7 
REMARK    4  A    between atoms: C7_7  and  C9_9 
REMARK    5  A    between atoms: C18_18  and  C20_20 
REMARK    6  A    between atoms: C20_20  and  O2_22 
REMARK    7  A    between atoms: C21_23  and  O3_24 
REMARK    8  A    between atoms: C23_26  and  O4_27 
ROOT
HETATM    1  C9  UNL     1      -8.810   6.794  15.115  1.00  0.00    -0.002 C 
HETATM    2  C10 UNL     1      -7.788   7.952  15.300  1.00  0.00     0.006 C 
HETATM    3  C11 UNL     1      -8.557   9.266  15.100  1.00  0.00     0.011 C 
HETATM    4  C12 UNL     1     -10.043   8.883  15.226  1.00  0.00    -0.032 C 
HETATM    5  C13 UNL     1     -10.356   8.825  16.755  1.00  0.00     0.016 C 
HETATM    6  C14 UNL     1     -11.015   9.851  14.506  1.00  0.00     0.004 C 
HETATM    7  C15 UNL     1     -11.102  11.242  15.154  1.00  0.00     0.007 C 
HETATM    8  C16 UNL     1     -12.001  12.147  14.319  1.00  0.00     0.007 C 
HETATM    9  C17 UNL     1     -13.462  11.684  14.429  1.00  0.00     0.018 C 
HETATM   10  C18 UNL     1     -14.477  12.544  13.592  1.00  0.00     0.072 C 
HETATM   11  C19 UNL     1     -13.999  12.793  12.145  1.00  0.00     0.030 C 
HETATM   12  C21 UNL     1     -15.905  11.908  13.602  1.00  0.00     0.139 C 
HETATM   13  C22 UNL     1     -16.069  10.867  14.700  1.00  0.00     0.065 C 
HETATM   14  C23 UNL     1     -15.064   9.711  14.572  1.00  0.00     0.130 C 
HETATM   15  C24 UNL     1     -13.653  10.178  14.184  1.00  0.00    -0.001 A 
HETATM   16  C25 UNL     1     -13.057   9.549  12.943  1.00  0.00     0.024 A 
HETATM   17  C26 UNL     1     -12.415   9.221  14.276  1.00  0.00    -0.025 A 
HETATM   18  C27 UNL     1     -12.624   7.788  14.792  1.00  0.00     0.011 C 
HETATM   19  C28 UNL     1     -11.420   6.822  14.759  1.00  0.00     0.011 C 
HETATM   20  C29 UNL     1     -10.063   7.491  14.490  1.00  0.00    -0.032 C 
HETATM   21  C30 UNL     1      -9.909   7.592  12.948  1.00  0.00     0.016 C 
ENDROOT
BRANCH   1  22
HETATM   22  C7  UNL     1      -8.166   5.503  14.521  1.00  0.00    -0.014 C 
HETATM   23  C8  UNL     1      -7.577   4.520  15.542  1.00  0.00     0.010 C 
BRANCH  22  24
HETATM   24  C6  UNL     1      -7.162   5.840  13.391  1.00  0.00     0.008 C 
BRANCH  24  25
HETATM   25  C5  UNL     1      -5.929   4.924  13.314  1.00  0.00     0.028 C 
BRANCH  25  26
HETATM   26  C4  UNL     1      -6.173   3.604  12.642  1.00  0.00    -0.025 C 
HETATM   27  C2  UNL     1      -5.424   2.996  11.698  1.00  0.00    -0.091 C 
HETATM   28  C1  UNL     1      -5.838   1.662  11.138  1.00  0.00     0.042 C 
HETATM   29  C3  UNL     1      -4.158   3.549  11.092  1.00  0.00     0.042 C 
ENDBRANCH  25  26
ENDBRANCH  24  25
ENDBRANCH  22  24
ENDBRANCH   1  22
BRANCH  14  30
HETATM   30  O4  UNL     1     -15.021   9.063  15.846  1.00  0.00    -0.395 OA
HETATM   31  H39 UNL     1     -15.877   8.616  15.963  1.00  0.00     0.210 HD
ENDBRANCH  14  30
BRANCH  10  32
HETATM   32  C20 UNL     1     -14.597  13.916  14.263  1.00  0.00     0.151 C 
HETATM   33  O1  UNL     1     -13.966  14.921  13.983  1.00  0.00    -0.649 OA
BRANCH  32  34
HETATM   34  O2  UNL     1     -15.520  13.968  15.242  1.00  0.00    -0.776 OA
HETATM   35  H33 UNL     1     -15.453  14.883  15.589  1.00  0.00     0.167 HD
ENDBRANCH  32  34
ENDBRANCH  10  32
BRANCH  12  36
HETATM   36  O3  UNL     1     -16.245  11.276  12.359  1.00  0.00    -0.394 OA
HETATM   37  H35 UNL     1     -16.485  11.979  11.725  1.00  0.00     0.210 HD
ENDBRANCH  12  36
TORSDOF 8
ENDMDL
MODEL 5
REMARK minimizedAffinity -6.58182049
REMARK CNNscore 0.41080147
REMARK CNNaffinity 6.05403471
REMARK  8 active torsions:
REMARK  status: ('A' for Active; 'I' for Inactive)
REMARK    1  A    between atoms: C4_4  and  C5_5 
REMARK    2  A    between atoms: C5_5  and  C6_6 
REMARK    3  A    between atoms: C6_6  and  C7_7 
REMARK    4  A    between atoms: C7_7  and  C9_9 
REMARK    5  A    between atoms: C18_18  and  C20_20 
REMARK    6  A    between atoms: C20_20  and  O2_22 
REMARK    7  A    between atoms: C21_23  and  O3_24 
REMARK    8  A    between atoms: C23_26  and  O4_27 
ROOT
HETATM    1  C9  UNL     1      -8.443 -10.697   3.889  1.00  0.00    -0.002 C 
HETATM    2  C10 UNL     1      -9.562 -11.748   4.141  1.00  0.00     0.006 C 
HETATM    3  C11 UNL     1      -9.720 -11.880   5.662  1.00  0.00     0.011 C 
HETATM    4  C12 UNL     1      -9.024 -10.637   6.245  1.00  0.00    -0.032 C 
HETATM    5  C13 UNL     1     -10.054  -9.466   6.147  1.00  0.00     0.016 C 
HETATM    6  C14 UNL     1      -8.531 -10.807   7.705  1.00  0.00     0.004 C 
HETATM    7  C15 UNL     1      -9.664 -10.916   8.737  1.00  0.00     0.007 C 
HETATM    8  C16 UNL     1      -9.081 -11.181  10.119  1.00  0.00     0.007 C 
HETATM    9  C17 UNL     1      -8.344  -9.932  10.628  1.00  0.00     0.018 C 
HETATM   10  C18 UNL     1      -7.690 -10.100  12.048  1.00  0.00     0.072 C 
HETATM   11  C19 UNL     1      -6.884 -11.411  12.183  1.00  0.00     0.030 C 
HETATM   12  C21 UNL     1      -6.807  -8.865  12.418  1.00  0.00     0.139 C 
HETATM   13  C22 UNL     1      -7.093  -7.661  11.531  1.00  0.00     0.065 C 
HETATM   14  C23 UNL     1      -6.852  -7.955  10.042  1.00  0.00     0.130 C 
HETATM   15  C24 UNL     1      -7.354  -9.342   9.612  1.00  0.00    -0.001 A 
HETATM   16  C25 UNL     1      -6.334 -10.249   8.958  1.00  0.00     0.024 A 
HETATM   17  C26 UNL     1      -7.475  -9.740   8.101  1.00  0.00    -0.025 A 
HETATM   18  C27 UNL     1      -7.103  -8.702   7.029  1.00  0.00     0.011 C 
HETATM   19  C28 UNL     1      -7.109  -9.149   5.552  1.00  0.00     0.011 C 
HETATM   20  C29 UNL     1      -7.778 -10.508   5.292  1.00  0.00    -0.032 C 
HETATM   21  C30 UNL     1      -6.693 -11.595   5.523  1.00  0.00     0.016 C 
ENDROOT
BRANCH   1  22
HETATM   22  C7  UNL     1      -7.628 -10.975   2.588  1.00  0.00    -0.014 C 
HETATM   23  C8  UNL     1      -7.405 -12.454   2.243  1.00  0.00     0.010 C 
BRANCH  22  24
HETATM   24  C6  UNL     1      -6.308 -10.166   2.564  1.00  0.00     0.008 C 
BRANCH  24  25
HETATM   25  C5  UNL     1      -5.520 -10.235   1.245  1.00  0.00     0.028 C 
BRANCH  25  26
HETATM   26  C4  UNL     1      -4.103 -10.710   1.389  1.00  0.00    -0.025 C 
HETATM   27  C2  UNL     1      -3.201 -10.377   2.336  1.00  0.00    -0.091 C 
HETATM   28  C1  UNL     1      -1.815 -10.961   2.309  1.00  0.00     0.042 C 
HETATM   29  C3  UNL     1      -3.437  -9.409   3.469  1.00  0.00     0.042 C 
ENDBRANCH  25  26
ENDBRANCH  24  25
ENDBRANCH  22  24
ENDBRANCH   1  22
BRANCH  14  30
HETATM   30  O4  UNL     1      -7.547  -6.943   9.308  1.00  0.00    -0.395 OA
HETATM   31  H39 UNL     1      -7.072  -6.108   9.461  1.00  0.00     0.210 HD
ENDBRANCH  14  30
BRANCH  10  32
HETATM   32  C20 UNL     1      -8.819 -10.166  13.081  1.00  0.00     0.151 C 
HETATM   33  O1  UNL     1      -8.696 -10.181  14.295  1.00  0.00    -0.649 OA
BRANCH  32  34
HETATM   34  O2  UNL     1     -10.054 -10.187  12.544  1.00  0.00    -0.776 OA
HETATM   35  H33 UNL     1     -10.653 -10.264  13.316  1.00  0.00     0.167 HD
ENDBRANCH  32  34
ENDBRANCH  10  32
BRANCH  12  36
HETATM   36  O3  UNL     1      -5.401  -9.137  12.331  1.00  0.00    -0.394 OA
HETATM   37  H35 UNL     1      -5.147  -9.645  13.125  1.00  0.00     0.210 HD
ENDBRANCH  12  36
TORSDOF 8
ENDMDL
MODEL 6
REMARK minimizedAffinity -6.45274162
REMARK CNNscore 0.388813376
REMARK CNNaffinity 5.75390053
REMARK  8 active torsions:
REMARK  status: ('A' for Active; 'I' for Inactive)
REMARK    1  A    between atoms: C4_4  and  C5_5 
REMARK    2  A    between atoms: C5_5  and  C6_6 
REMARK    3  A    between atoms: C6_6  and  C7_7 
REMARK    4  A    between atoms: C7_7  and  C9_9 
REMARK    5  A    between atoms: C18_18  and  C20_20 
REMARK    6  A    between atoms: C20_20  and  O2_22 
REMARK    7  A    between atoms: C21_23  and  O3_24 
REMARK    8  A    between atoms: C23_26  and  O4_27 
ROOT
HETATM    1  C9  UNL     1     -10.119 -10.025   3.418  1.00  0.00    -0.002 C 
HETATM    2  C10 UNL     1      -8.706  -9.610   2.918  1.00  0.00     0.006 C 
HETATM    3  C11 UNL     1      -7.798  -9.528   4.153  1.00  0.00     0.011 C 
HETATM    4  C12 UNL     1      -8.556 -10.287   5.257  1.00  0.00    -0.032 C 
HETATM    5  C13 UNL     1      -8.264 -11.805   5.030  1.00  0.00     0.016 C 
HETATM    6  C14 UNL     1      -8.172  -9.869   6.699  1.00  0.00     0.004 C 
HETATM    7  C15 UNL     1      -6.747 -10.274   7.106  1.00  0.00     0.007 C 
HETATM    8  C16 UNL     1      -6.432  -9.732   8.495  1.00  0.00     0.007 C 
HETATM    9  C17 UNL     1      -7.259 -10.479   9.553  1.00  0.00     0.018 C 
HETATM   10  C18 UNL     1      -7.021  -9.988  11.026  1.00  0.00     0.072 C 
HETATM   11  C19 UNL     1      -7.065  -8.450  11.159  1.00  0.00     0.030 C 
HETATM   12  C21 UNL     1      -8.024 -10.659  12.020  1.00  0.00     0.139 C 
HETATM   13  C22 UNL     1      -8.706 -11.880  11.419  1.00  0.00     0.065 C 
HETATM   14  C23 UNL     1      -9.494 -11.547  10.142  1.00  0.00     0.130 C 
HETATM   15  C24 UNL     1      -8.757 -10.566   9.217  1.00  0.00    -0.001 A 
HETATM   16  C25 UNL     1      -9.507  -9.305   8.845  1.00  0.00     0.024 A 
HETATM   17  C26 UNL     1      -9.231 -10.310   7.745  1.00  0.00    -0.025 A 
HETATM   18  C27 UNL     1     -10.450 -11.082   7.214  1.00  0.00     0.011 C 
HETATM   19  C28 UNL     1     -10.977 -10.728   5.808  1.00  0.00     0.011 C 
HETATM   20  C29 UNL     1     -10.039  -9.845   4.970  1.00  0.00    -0.032 C 
HETATM   21  C30 UNL     1     -10.343  -8.372   5.356  1.00  0.00     0.016 C 
ENDROOT
BRANCH   1  22
HETATM   22  C7  UNL     1     -11.271  -9.433   2.548  1.00  0.00    -0.014 C 
HETATM   23  C8  UNL     1     -11.589 -10.194   1.254  1.00  0.00     0.010 C 
BRANCH  22  24
HETATM   24  C6  UNL     1     -11.070  -7.918   2.298  1.00  0.00     0.008 C 
BRANCH  24  25
HETATM   25  C5  UNL     1     -12.169  -7.007   2.870  1.00  0.00     0.028 C 
BRANCH  25  26
HETATM   26  C4  UNL     1     -11.890  -5.537   2.743  1.00  0.00    -0.025 C 
HETATM   27  C2  UNL     1     -12.236  -4.545   3.589  1.00  0.00    -0.091 C 
HETATM   28  C1  UNL     1     -11.866  -3.119   3.285  1.00  0.00     0.042 C 
HETATM   29  C3  UNL     1     -13.017  -4.716   4.869  1.00  0.00     0.042 C 
ENDBRANCH  25  26
ENDBRANCH  24  25
ENDBRANCH  22  24
ENDBRANCH   1  22
BRANCH  14  30
HETATM   30  O4  UNL     1      -9.706 -12.785   9.458  1.00  0.00    -0.395 OA
HETATM   31  H39 UNL     1     -10.336 -13.297   9.993  1.00  0.00     0.210 HD
ENDBRANCH  14  30
BRANCH  10  32
HETATM   32  C20 UNL     1      -5.616 -10.430  11.448  1.00  0.00     0.151 C 
HETATM   33  O1  UNL     1      -4.567  -9.860  11.199  1.00  0.00    -0.649 OA
BRANCH  32  34
HETATM   34  O2  UNL     1      -5.594 -11.558  12.184  1.00  0.00    -0.776 OA
HETATM   35  H33 UNL     1      -4.640 -11.726  12.342  1.00  0.00     0.167 HD
ENDBRANCH  32  34
ENDBRANCH  10  32
BRANCH  12  36
HETATM   36  O3  UNL     1      -9.056  -9.766  12.460  1.00  0.00    -0.394 OA
HETATM   37  H35 UNL     1      -8.671  -9.177  13.137  1.00  0.00     0.210 HD
ENDBRANCH  12  36
TORSDOF 8
ENDMDL
MODEL 7
REMARK minimizedAffinity -9.16900539
REMARK CNNscore 0.33062166
REMARK CNNaffinity 6.52387381
REMARK  8 active torsions:
REMARK  status: ('A' for Active; 'I' for Inactive)
REMARK    1  A    between atoms: C4_4  and  C5_5 
REMARK    2  A    between atoms: C5_5  and  C6_6 
REMARK    3  A    between atoms: C6_6  and  C7_7 
REMARK    4  A    between atoms: C7_7  and  C9_9 
REMARK    5  A    between atoms: C18_18  and  C20_20 
REMARK    6  A    between atoms: C20_20  and  O2_22 
REMARK    7  A    between atoms: C21_23  and  O3_24 
REMARK    8  A    between atoms: C23_26  and  O4_27 
ROOT
HETATM    1  C9  UNL     1      -3.092   6.232  13.264  1.00  0.00    -0.002 C 
HETATM    2  C10 UNL     1      -3.115   7.216  14.468  1.00  0.00     0.006 C 
HETATM    3  C11 UNL     1      -1.757   7.930  14.492  1.00  0.00     0.011 C 
HETATM    4  C12 UNL     1      -1.149   7.678  13.100  1.00  0.00    -0.032 C 
HETATM    5  C13 UNL     1      -1.789   8.732  12.140  1.00  0.00     0.016 C 
HETATM    6  C14 UNL     1       0.398   7.767  13.053  1.00  0.00     0.004 C 
HETATM    7  C15 UNL     1       0.947   9.186  13.267  1.00  0.00     0.007 C 
HETATM    8  C16 UNL     1       2.470   9.152  13.304  1.00  0.00     0.007 C 
HETATM    9  C17 UNL     1       3.024   8.835  11.906  1.00  0.00     0.018 C 
HETATM   10  C18 UNL     1       4.592   8.762  11.833  1.00  0.00     0.072 C 
HETATM   11  C19 UNL     1       5.205   7.908  12.965  1.00  0.00     0.030 C 
HETATM   12  C21 UNL     1       5.074   8.256  10.434  1.00  0.00     0.139 C 
HETATM   13  C22 UNL     1       3.977   8.330   9.381  1.00  0.00     0.065 C 
HETATM   14  C23 UNL     1       2.740   7.499   9.758  1.00  0.00     0.130 C 
HETATM   15  C24 UNL     1       2.365   7.614  11.243  1.00  0.00    -0.001 A 
HETATM   16  C25 UNL     1       2.272   6.314  12.012  1.00  0.00     0.024 A 
HETATM   17  C26 UNL     1       0.991   7.092  11.787  1.00  0.00    -0.025 A 
HETATM   18  C27 UNL     1      -0.010   6.473  10.798  1.00  0.00     0.011 C 
HETATM   19  C28 UNL     1      -1.304   5.852  11.367  1.00  0.00     0.011 C 
HETATM   20  C29 UNL     1      -1.587   6.188  12.839  1.00  0.00    -0.032 C 
HETATM   21  C30 UNL     1      -0.818   5.146  13.696  1.00  0.00     0.016 C 
ENDROOT
BRANCH   1  22
HETATM   22  C7  UNL     1      -3.948   4.951  13.507  1.00  0.00    -0.014 C 
HETATM   23  C8  UNL     1      -3.825   3.853  12.442  1.00  0.00     0.010 C 
BRANCH  22  24
HETATM   24  C6  UNL     1      -5.425   5.306  13.810  1.00  0.00     0.008 C 
BRANCH  24  25
HETATM   25  C5  UNL     1      -6.458   4.268  13.343  1.00  0.00     0.028 C 
BRANCH  25  26
HETATM   26  C4  UNL     1      -7.399   4.757  12.280  1.00  0.00    -0.025 C 
HETATM   27  C2  UNL     1      -8.421   5.629  12.405  1.00  0.00    -0.091 C 
HETATM   28  C1  UNL     1      -9.262   5.997  11.213  1.00  0.00     0.042 C 
HETATM   29  C3  UNL     1      -8.853   6.295  13.689  1.00  0.00     0.042 C 
ENDBRANCH  25  26
ENDBRANCH  24  25
ENDBRANCH  22  24
ENDBRANCH   1  22
BRANCH  14  30
HETATM   30  O4  UNL     1       1.663   7.982   8.951  1.00  0.00    -0.395 OA
HETATM   31  H39 UNL     1       1.854   7.714   8.036  1.00  0.00     0.210 HD
ENDBRANCH  14  30
BRANCH  10  32
HETATM   32  C20 UNL     1       5.138  10.183  12.003  1.00  0.00     0.151 C 
HETATM   33  O1  UNL     1       5.050  10.883  12.998  1.00  0.00    -0.649 OA
BRANCH  32  34
HETATM   34  O2  UNL     1       5.789  10.653  10.922  1.00  0.00    -0.776 OA
HETATM   35  H33 UNL     1       6.042  11.568  11.170  1.00  0.00     0.167 HD
ENDBRANCH  32  34
ENDBRANCH  10  32
BRANCH  12  36
HETATM   36  O3  UNL     1       5.548   6.902  10.463  1.00  0.00    -0.394 OA
HETATM   37  H35 UNL     1       6.446   6.911  10.847  1.00  0.00     0.210 HD
ENDBRANCH  12  36
TORSDOF 8
ENDMDL
MODEL 8
REMARK minimizedAffinity -6.3887229
REMARK CNNscore 0.330263346
REMARK CNNaffinity 5.05982399
REMARK  8 active torsions:
REMARK  status: ('A' for Active; 'I' for Inactive)
REMARK    1  A    between atoms: C4_4  and  C5_5 
REMARK    2  A    between atoms: C5_5  and  C6_6 
REMARK    3  A    between atoms: C6_6  and  C7_7 
REMARK    4  A    between atoms: C7_7  and  C9_9 
REMARK    5  A    between atoms: C18_18  and  C20_20 
REMARK    6  A    between atoms: C20_20  and  O2_22 
REMARK    7  A    between atoms: C21_23  and  O3_24 
REMARK    8  A    between atoms: C23_26  and  O4_27 
ROOT
HETATM    1  C9  UNL     1     -11.859  -8.861  16.147  1.00  0.00    -0.002 C 
HETATM    2  C10 UNL     1     -12.809  -9.171  17.340  1.00  0.00     0.006 C 
HETATM    3  C11 UNL     1     -13.880  -8.071  17.358  1.00  0.00     0.011 C 
HETATM    4  C12 UNL     1     -13.796  -7.408  15.971  1.00  0.00    -0.032 C 
HETATM    5  C13 UNL     1     -14.614  -8.316  14.997  1.00  0.00     0.016 C 
HETATM    6  C14 UNL     1     -14.321  -5.951  15.927  1.00  0.00     0.004 C 
HETATM    7  C15 UNL     1     -15.840  -5.829  16.126  1.00  0.00     0.007 C 
HETATM    8  C16 UNL     1     -16.241  -4.360  16.167  1.00  0.00     0.007 C 
HETATM    9  C17 UNL     1     -16.079  -3.730  14.774  1.00  0.00     0.018 C 
HETATM   10  C18 UNL     1     -16.455  -2.206  14.706  1.00  0.00     0.072 C 
HETATM   11  C19 UNL     1     -15.823  -1.382  15.850  1.00  0.00     0.030 C 
HETATM   12  C21 UNL     1     -16.092  -1.592  13.315  1.00  0.00     0.139 C 
HETATM   13  C22 UNL     1     -15.839  -2.658  12.259  1.00  0.00     0.065 C 
HETATM   14  C23 UNL     1     -14.695  -3.609  12.642  1.00  0.00     0.130 C 
HETATM   15  C24 UNL     1     -14.715  -4.010  14.124  1.00  0.00    -0.001 A 
HETATM   16  C25 UNL     1     -13.450  -3.734  14.909  1.00  0.00     0.024 A 
HETATM   17  C26 UNL     1     -13.829  -5.182  14.671  1.00  0.00    -0.025 A 
HETATM   18  C27 UNL     1     -12.940  -5.960  13.687  1.00  0.00     0.011 C 
HETATM   19  C28 UNL     1     -11.983  -7.027  14.260  1.00  0.00     0.011 C 
HETATM   20  C29 UNL     1     -12.241  -7.403  15.727  1.00  0.00    -0.032 C 
HETATM   21  C30 UNL     1     -11.470  -6.374  16.598  1.00  0.00     0.016 C 
ENDROOT
BRANCH   1  22
HETATM   22  C7  UNL     1     -10.390  -9.318  16.404  1.00  0.00    -0.014 C 
HETATM   23  C8  UNL     1      -9.800 -10.284  15.367  1.00  0.00     0.010 C 
BRANCH  22  24
HETATM   24  C6  UNL     1     -10.203  -9.835  17.852  1.00  0.00     0.008 C 
BRANCH  24  25
HETATM   25  C5  UNL     1      -9.626  -8.813  18.845  1.00  0.00     0.028 C 
BRANCH  25  26
HETATM   26  C4  UNL     1      -8.765  -9.406  19.923  1.00  0.00    -0.025 C 
HETATM   27  C2  UNL     1      -9.137 -10.210  20.941  1.00  0.00    -0.091 C 
HETATM   28  C1  UNL     1      -8.120 -10.704  21.933  1.00  0.00     0.042 C 
HETATM   29  C3  UNL     1     -10.544 -10.674  21.223  1.00  0.00     0.042 C 
ENDBRANCH  25  26
ENDBRANCH  24  25
ENDBRANCH  22  24
ENDBRANCH   1  22
BRANCH  14  30
HETATM   30  O4  UNL     1     -14.843  -4.775  11.827  1.00  0.00    -0.395 OA
HETATM   31  H39 UNL     1     -14.630  -4.509  10.915  1.00  0.00     0.210 HD
ENDBRANCH  14  30
BRANCH  10  32
HETATM   32  C20 UNL     1     -17.974  -2.088  14.861  1.00  0.00     0.151 C 
HETATM   33  O1  UNL     1     -18.634  -2.398  15.839  1.00  0.00    -0.649 OA
BRANCH  32  34
HETATM   34  O2  UNL     1     -18.595  -1.565  13.787  1.00  0.00    -0.776 OA
HETATM   35  H33 UNL     1     -19.547  -1.587  14.022  1.00  0.00     0.167 HD
ENDBRANCH  32  34
ENDBRANCH  10  32
BRANCH  12  36
HETATM   36  O3  UNL     1     -14.930  -0.752  13.362  1.00  0.00    -0.394 OA
HETATM   37  H35 UNL     1     -15.197   0.104  13.749  1.00  0.00     0.210 HD
ENDBRANCH  12  36
TORSDOF 8
ENDMDL
MODEL 9
REMARK minimizedAffinity -6.79337883
REMARK CNNscore 0.320994049
REMARK CNNaffinity 5.88897753
REMARK  8 active torsions:
REMARK  status: ('A' for Active; 'I' for Inactive)
REMARK    1  A    between atoms: C4_4  and  C5_5 
REMARK    2  A    between atoms: C5_5  and  C6_6 
REMARK    3  A    between atoms: C6_6  and  C7_7 
REMARK    4  A    between atoms: C7_7  and  C9_9 
REMARK    5  A    between atoms: C18_18  and  C20_20 
REMARK    6  A    between atoms: C20_20  and  O2_22 
REMARK    7  A    between atoms: C21_23  and  O3_24 
REMARK    8  A    between atoms: C23_26  and  O4_27 
ROOT
HETATM    1  C9  UNL     1      -3.583  13.027  18.141  1.00  0.00    -0.002 C 
HETATM    2  C10 UNL     1      -2.458  13.671  19.000  1.00  0.00     0.006 C 
HETATM    3  C11 UNL     1      -1.146  12.970  18.619  1.00  0.00     0.011 C 
HETATM    4  C12 UNL     1      -1.445  12.260  17.287  1.00  0.00    -0.032 C 
HETATM    5  C13 UNL     1      -1.299  13.340  16.167  1.00  0.00     0.016 C 
HETATM    6  C14 UNL     1      -0.530  11.044  16.992  1.00  0.00     0.004 C 
HETATM    7  C15 UNL     1       0.933  11.420  16.706  1.00  0.00     0.007 C 
HETATM    8  C16 UNL     1       1.767  10.157  16.529  1.00  0.00     0.007 C 
HETATM    9  C17 UNL     1       1.386   9.453  15.217  1.00  0.00     0.018 C 
HETATM   10  C18 UNL     1       2.181   8.126  14.941  1.00  0.00     0.072 C 
HETATM   11  C19 UNL     1       2.229   7.191  16.170  1.00  0.00     0.030 C 
HETATM   12  C21 UNL     1       1.615   7.372  13.694  1.00  0.00     0.139 C 
HETATM   13  C22 UNL     1       0.725   8.259  12.835  1.00  0.00     0.065 C 
HETATM   14  C23 UNL     1      -0.481   8.812  13.611  1.00  0.00     0.130 C 
HETATM   15  C24 UNL     1      -0.128   9.258  15.037  1.00  0.00    -0.001 A 
HETATM   16  C25 UNL     1      -0.931   8.627  16.154  1.00  0.00     0.024 A 
HETATM   17  C26 UNL     1      -1.120  10.109  15.902  1.00  0.00    -0.025 A 
HETATM   18  C27 UNL     1      -2.469  10.523  15.290  1.00  0.00     0.011 C 
HETATM   19  C28 UNL     1      -3.484  11.253  16.196  1.00  0.00     0.011 C 
HETATM   20  C29 UNL     1      -2.914  11.751  17.533  1.00  0.00    -0.032 C 
HETATM   21  C30 UNL     1      -3.011  10.566  18.533  1.00  0.00     0.016 C 
ENDROOT
BRANCH   1  22
HETATM   22  C7  UNL     1      -4.965  13.004  18.865  1.00  0.00    -0.014 C 
HETATM   23  C8  UNL     1      -6.043  13.926  18.278  1.00  0.00     0.010 C 
BRANCH  22  24
HETATM   24  C6  UNL     1      -4.805  13.196  20.394  1.00  0.00     0.008 C 
BRANCH  24  25
HETATM   25  C5  UNL     1      -5.775  14.202  21.034  1.00  0.00     0.028 C 
BRANCH  25  26
HETATM   26  C4  UNL     1      -6.632  13.635  22.129  1.00  0.00    -0.025 C 
HETATM   27  C2  UNL     1      -7.901  13.182  22.048  1.00  0.00    -0.091 C 
HETATM   28  C1  UNL     1      -8.600  12.649  23.268  1.00  0.00     0.042 C 
HETATM   29  C3  UNL     1      -8.751  13.174  20.801  1.00  0.00     0.042 C 
ENDBRANCH  25  26
ENDBRANCH  24  25
ENDBRANCH  22  24
ENDBRANCH   1  22
BRANCH  14  30
HETATM   30  O4  UNL     1      -0.969   9.930  12.865  1.00  0.00    -0.395 OA
HETATM   31  H39 UNL     1      -1.360   9.575  12.048  1.00  0.00     0.210 HD
ENDBRANCH  14  30
BRANCH  10  32
HETATM   32  C20 UNL     1       3.629   8.503  14.614  1.00  0.00     0.151 C 
HETATM   33  O1  UNL     1       4.021   9.565  14.162  1.00  0.00    -0.649 OA
BRANCH  32  34
HETATM   34  O2  UNL     1       4.523   7.534  14.889  1.00  0.00    -0.776 OA
HETATM   35  H33 UNL     1       5.382   7.907  14.597  1.00  0.00     0.167 HD
ENDBRANCH  32  34
ENDBRANCH  10  32
BRANCH  12  36
HETATM   36  O3  UNL     1       0.851   6.209  14.043  1.00  0.00    -0.394 OA
HETATM   37  H35 UNL     1       1.481   5.499  14.274  1.00  0.00     0.210 HD
ENDBRANCH  12  36
TORSDOF 8
ENDMDL
