MODEL 1
REMARK minimizedAffinity -6.59878063
REMARK CNNscore 0.875968933
REMARK CNNaffinity 6.80356979
REMARK  13 active torsions:
REMARK  status: ('A' for Active; 'I' for Inactive)
REMARK    1  A    between atoms: C5_5  and  C6_6 
REMARK    2  A    between atoms: C6_6  and  C8_8 
REMARK    3  A    between atoms: C8_8  and  O1_9 
REMARK    4  A    between atoms: C13_15  and  O3_17 
REMARK    5  A    between atoms: C15_18  and  O4_19 
REMARK    6  A    between atoms: C18_22  and  O5_24 
REMARK    7  A    between atoms: O5_24  and  C20_25 
REMARK    8  A    between atoms: C20_25  and  C21_27 
REMARK    9  A    between atoms: C21_27  and  C22_28 
REMARK   10  A    between atoms: C21_27  and  O7_30 
REMARK   11  A    between atoms: O7_30  and  C24_31 
REMARK   12  A    between atoms: C24_31  and  C25_33 
REMARK   13  A    between atoms: C25_33  and  C26_34 
ROOT
HETATM    1  C1  UNL     1       6.583  54.918  -9.143  1.00  0.00     0.015 C 
HETATM    2  C2  UNL     1       5.311  54.774  -9.552  1.00  0.00    -0.082 C 
HETATM    3  C3  UNL     1       4.766  55.529 -10.730  1.00  0.00     0.034 C 
HETATM    4  C4  UNL     1       3.525  56.358 -10.372  1.00  0.00     0.010 C 
HETATM    5  C5  UNL     1       2.708  55.860  -9.148  1.00  0.00    -0.001 C 
HETATM    6  C9  UNL     1       2.845  54.323  -8.980  1.00  0.00     0.033 C 
HETATM    7  C10 UNL     1       2.320  53.476 -10.189  1.00  0.00     0.162 C 
HETATM    8  O2  UNL     1       3.425  52.625 -10.543  1.00  0.00    -0.376 OA
HETATM    9  C11 UNL     1       4.192  52.476  -9.344  1.00  0.00     0.133 C 
HETATM   10  C12 UNL     1       5.368  51.566  -9.588  1.00  0.00     0.072 C 
HETATM   11  C13 UNL     1       4.904  50.161 -10.093  1.00  0.00     0.082 C 
HETATM   12  C14 UNL     1       6.060  49.183  -9.807  1.00  0.00     0.049 C 
HETATM   13  C15 UNL     1       3.573  49.588  -9.466  1.00  0.00     0.152 C 
HETATM   14  C16 UNL     1       2.220  50.108 -10.045  1.00  0.00     0.038 C 
HETATM   15  C17 UNL     1       1.378  51.167  -9.277  1.00  0.00     0.043 C 
HETATM   16  C18 UNL     1       1.068  52.547  -9.977  1.00  0.00     0.093 C 
HETATM   17  C19 UNL     1       0.405  52.238 -11.343  1.00  0.00     0.049 C 
HETATM   18  C28 UNL     1       4.326  53.889  -8.815  1.00  0.00     0.050 C 
ENDROOT
BRANCH  16  19
HETATM   19  O5  UNL     1       0.074  53.157  -9.094  1.00  0.00    -0.306 OA
BRANCH  19  20
HETATM   20  C20 UNL     1      -1.256  52.900  -9.224  1.00  0.00     0.289 C 
HETATM   21  O6  UNL     1      -1.908  52.164  -8.493  1.00  0.00    -0.262 OA
BRANCH  20  22
HETATM   22  C21 UNL     1      -1.838  53.699 -10.399  1.00  0.00     0.231 C 
BRANCH  22  23
HETATM   23  C22 UNL     1      -1.446  55.183 -10.312  1.00  0.00     0.038 C 
HETATM   24  C23 UNL     1      -0.914  55.595  -8.943  1.00  0.00     0.008 C 
ENDBRANCH  22  23
BRANCH  22  25
HETATM   25  O7  UNL     1      -3.273  53.644 -10.440  1.00  0.00    -0.306 OA
BRANCH  25  26
HETATM   26  C24 UNL     1      -3.814  53.012 -11.514  1.00  0.00     0.259 C 
HETATM   27  O8  UNL     1      -4.335  53.563 -12.476  1.00  0.00    -0.265 OA
BRANCH  26  28
HETATM   28  C25 UNL     1      -3.704  51.518 -11.354  1.00  0.00     0.111 C 
BRANCH  28  29
HETATM   29  C26 UNL     1      -4.882  50.926 -10.588  1.00  0.00     0.005 C 
HETATM   30  C27 UNL     1      -4.475  49.754  -9.706  1.00  0.00     0.005 C 
ENDBRANCH  28  29
ENDBRANCH  26  28
ENDBRANCH  25  26
ENDBRANCH  22  25
ENDBRANCH  20  22
ENDBRANCH  19  20
ENDBRANCH  16  19
BRANCH   5  31
HETATM   31  C6  UNL     1       3.070  56.659  -7.844  1.00  0.00     0.010 C 
HETATM   32  C7  UNL     1       3.870  57.935  -8.169  1.00  0.00     0.012 C 
BRANCH  31  33
HETATM   33  C8  UNL     1       1.850  57.050  -6.987  1.00  0.00     0.168 C 
BRANCH  33  34
HETATM   34  O1  UNL     1       1.705  56.246  -5.825  1.00  0.00    -0.400 OA
HETATM   35  H14 UNL     1       1.768  55.302  -6.090  1.00  0.00     0.209 HD
ENDBRANCH  33  34
ENDBRANCH  31  33
ENDBRANCH   5  31
BRANCH  13  36
HETATM   36  O4  UNL     1       3.582  49.651  -8.041  1.00  0.00    -0.393 OA
HETATM   37  H25 UNL     1       4.058  48.867  -7.716  1.00  0.00     0.210 HD
ENDBRANCH  13  36
BRANCH  11  38
HETATM   38  O3  UNL     1       4.753  50.148 -11.521  1.00  0.00    -0.388 OA
HETATM   39  H23 UNL     1       5.260  50.889 -11.900  1.00  0.00     0.210 HD
ENDBRANCH  11  38
TORSDOF 13
ENDMDL
MODEL 2
REMARK minimizedAffinity -6.57120752
REMARK CNNscore 0.839675486
REMARK CNNaffinity 7.38821793
REMARK  13 active torsions:
REMARK  status: ('A' for Active; 'I' for Inactive)
REMARK    1  A    between atoms: C5_5  and  C6_6 
REMARK    2  A    between atoms: C6_6  and  C8_8 
REMARK    3  A    between atoms: C8_8  and  O1_9 
REMARK    4  A    between atoms: C13_15  and  O3_17 
REMARK    5  A    between atoms: C15_18  and  O4_19 
REMARK    6  A    between atoms: C18_22  and  O5_24 
REMARK    7  A    between atoms: O5_24  and  C20_25 
REMARK    8  A    between atoms: C20_25  and  C21_27 
REMARK    9  A    between atoms: C21_27  and  C22_28 
REMARK   10  A    between atoms: C21_27  and  O7_30 
REMARK   11  A    between atoms: O7_30  and  C24_31 
REMARK   12  A    between atoms: C24_31  and  C25_33 
REMARK   13  A    between atoms: C25_33  and  C26_34 
ROOT
HETATM    1  C1  UNL     1      -3.437  51.984 -13.307  1.00  0.00     0.015 C 
HETATM    2  C2  UNL     1      -2.295  51.815 -12.619  1.00  0.00    -0.082 C 
HETATM    3  C3  UNL     1      -2.222  50.927 -11.409  1.00  0.00     0.034 C 
HETATM    4  C4  UNL     1      -1.711  51.670 -10.167  1.00  0.00     0.010 C 
HETATM    5  C5  UNL     1      -0.825  52.917 -10.441  1.00  0.00    -0.001 C 
HETATM    6  C9  UNL     1      -0.058  52.767 -11.782  1.00  0.00     0.033 C 
HETATM    7  C10 UNL     1       0.925  51.550 -11.849  1.00  0.00     0.162 C 
HETATM    8  O2  UNL     1       0.537  50.834 -13.035  1.00  0.00    -0.376 OA
HETATM    9  C11 UNL     1      -0.068  51.810 -13.890  1.00  0.00     0.133 C 
HETATM   10  C12 UNL     1      -0.486  51.175 -15.190  1.00  0.00     0.072 C 
HETATM   11  C13 UNL     1       0.732  50.521 -15.920  1.00  0.00     0.082 C 
HETATM   12  C14 UNL     1       0.339  50.386 -17.405  1.00  0.00     0.049 C 
HETATM   13  C15 UNL     1       2.112  51.280 -15.815  1.00  0.00     0.152 C 
HETATM   14  C16 UNL     1       2.945  51.085 -14.510  1.00  0.00     0.038 C 
HETATM   15  C17 UNL     1       2.976  52.187 -13.411  1.00  0.00     0.043 C 
HETATM   16  C18 UNL     1       2.470  51.829 -11.960  1.00  0.00     0.093 C 
HETATM   17  C19 UNL     1       3.265  50.588 -11.482  1.00  0.00     0.049 C 
HETATM   18  C28 UNL     1      -1.023  52.554 -12.979  1.00  0.00     0.050 C 
ENDROOT
BRANCH  16  19
HETATM   19  O5  UNL     1       2.878  52.988 -11.166  1.00  0.00    -0.306 OA
BRANCH  19  20
HETATM   20  C20 UNL     1       3.782  52.883 -10.153  1.00  0.00     0.289 C 
HETATM   21  O6  UNL     1       4.317  51.843  -9.790  1.00  0.00    -0.262 OA
BRANCH  20  22
HETATM   22  C21 UNL     1       4.069  54.267  -9.554  1.00  0.00     0.231 C 
BRANCH  22  23
HETATM   23  C22 UNL     1       2.992  55.286  -9.962  1.00  0.00     0.038 C 
HETATM   24  C23 UNL     1       3.503  56.369 -10.906  1.00  0.00     0.008 C 
ENDBRANCH  22  23
BRANCH  22  25
HETATM   25  O7  UNL     1       5.334  54.795  -9.981  1.00  0.00    -0.306 OA
BRANCH  25  26
HETATM   26  C24 UNL     1       6.409  54.452  -9.225  1.00  0.00     0.259 C 
HETATM   27  O8  UNL     1       7.035  53.403  -9.312  1.00  0.00    -0.265 OA
BRANCH  26  28
HETATM   28  C25 UNL     1       6.724  55.544  -8.235  1.00  0.00     0.111 C 
BRANCH  28  29
HETATM   29  C26 UNL     1       5.482  56.047  -7.507  1.00  0.00     0.005 C 
HETATM   30  C27 UNL     1       5.725  57.358  -6.776  1.00  0.00     0.005 C 
ENDBRANCH  28  29
ENDBRANCH  26  28
ENDBRANCH  25  26
ENDBRANCH  22  25
ENDBRANCH  20  22
ENDBRANCH  19  20
ENDBRANCH  16  19
BRANCH   5  31
HETATM   31  C6  UNL     1      -1.654  54.249 -10.349  1.00  0.00     0.010 C 
HETATM   32  C7  UNL     1      -3.115  53.977  -9.942  1.00  0.00     0.012 C 
BRANCH  31  33
HETATM   33  C8  UNL     1      -1.063  55.293  -9.380  1.00  0.00     0.168 C 
BRANCH  33  34
HETATM   34  O1  UNL     1      -0.331  54.708  -8.311  1.00  0.00    -0.400 OA
HETATM   35  H14 UNL     1      -0.880  54.000  -7.909  1.00  0.00     0.209 HD
ENDBRANCH  33  34
ENDBRANCH  31  33
ENDBRANCH   5  31
BRANCH  13  36
HETATM   36  O4  UNL     1       1.989  52.662 -16.147  1.00  0.00    -0.393 OA
HETATM   37  H25 UNL     1       2.036  52.736 -17.116  1.00  0.00     0.210 HD
ENDBRANCH  13  36
BRANCH  11  38
HETATM   38  O3  UNL     1       0.941  49.173 -15.470  1.00  0.00    -0.388 OA
HETATM   39  H23 UNL     1       0.122  48.845 -15.057  1.00  0.00     0.210 HD
ENDBRANCH  11  38
TORSDOF 13
ENDMDL
MODEL 3
REMARK minimizedAffinity -6.4052515
REMARK CNNscore 0.83477056
REMARK CNNaffinity 7.29282045
REMARK  13 active torsions:
REMARK  status: ('A' for Active; 'I' for Inactive)
REMARK    1  A    between atoms: C5_5  and  C6_6 
REMARK    2  A    between atoms: C6_6  and  C8_8 
REMARK    3  A    between atoms: C8_8  and  O1_9 
REMARK    4  A    between atoms: C13_15  and  O3_17 
REMARK    5  A    between atoms: C15_18  and  O4_19 
REMARK    6  A    between atoms: C18_22  and  O5_24 
REMARK    7  A    between atoms: O5_24  and  C20_25 
REMARK    8  A    between atoms: C20_25  and  C21_27 
REMARK    9  A    between atoms: C21_27  and  C22_28 
REMARK   10  A    between atoms: C21_27  and  O7_30 
REMARK   11  A    between atoms: O7_30  and  C24_31 
REMARK   12  A    between atoms: C24_31  and  C25_33 
REMARK   13  A    between atoms: C25_33  and  C26_34 
ROOT
HETATM    1  C1  UNL     1      -0.359  49.496 -14.351  1.00  0.00     0.015 C 
HETATM    2  C2  UNL     1       0.215  50.565 -13.774  1.00  0.00    -0.082 C 
HETATM    3  C3  UNL     1       0.857  51.655 -14.585  1.00  0.00     0.034 C 
HETATM    4  C4  UNL     1       2.323  51.887 -14.197  1.00  0.00     0.010 C 
HETATM    5  C5  UNL     1       2.717  51.469 -12.754  1.00  0.00    -0.001 C 
HETATM    6  C9  UNL     1       1.502  51.583 -11.794  1.00  0.00     0.033 C 
HETATM    7  C10 UNL     1       0.906  53.024 -11.650  1.00  0.00     0.162 C 
HETATM    8  O2  UNL     1      -0.494  52.869 -11.944  1.00  0.00    -0.376 OA
HETATM    9  C11 UNL     1      -0.805  51.510 -11.619  1.00  0.00     0.133 C 
HETATM   10  C12 UNL     1      -2.268  51.240 -11.857  1.00  0.00     0.072 C 
HETATM   11  C13 UNL     1      -3.167  52.201 -11.013  1.00  0.00     0.082 C 
HETATM   12  C14 UNL     1      -4.551  51.532 -10.905  1.00  0.00     0.049 C 
HETATM   13  C15 UNL     1      -2.652  52.565  -9.566  1.00  0.00     0.152 C 
HETATM   14  C16 UNL     1      -1.562  53.676  -9.446  1.00  0.00     0.038 C 
HETATM   15  C17 UNL     1      -0.071  53.307  -9.197  1.00  0.00     0.043 C 
HETATM   16  C18 UNL     1       1.010  53.750 -10.258  1.00  0.00     0.093 C 
HETATM   17  C19 UNL     1       0.872  55.281 -10.452  1.00  0.00     0.049 C 
HETATM   18  C28 UNL     1       0.307  50.713 -12.269  1.00  0.00     0.050 C 
ENDROOT
BRANCH  16  19
HETATM   19  O5  UNL     1       2.278  53.471  -9.584  1.00  0.00    -0.306 OA
BRANCH  19  20
HETATM   20  C20 UNL     1       2.664  54.149  -8.469  1.00  0.00     0.289 C 
HETATM   21  O6  UNL     1       2.253  53.936  -7.335  1.00  0.00    -0.262 OA
BRANCH  20  22
HETATM   22  C21 UNL     1       3.725  55.198  -8.828  1.00  0.00     0.231 C 
BRANCH  22  23
HETATM   23  C22 UNL     1       4.512  54.788 -10.084  1.00  0.00     0.038 C 
HETATM   24  C23 UNL     1       4.390  55.783 -11.234  1.00  0.00     0.008 C 
ENDBRANCH  22  23
BRANCH  22  25
HETATM   25  O7  UNL     1       4.681  55.391  -7.775  1.00  0.00    -0.306 OA
BRANCH  25  26
HETATM   26  C24 UNL     1       4.932  56.680  -7.426  1.00  0.00     0.259 C 
HETATM   27  O8  UNL     1       5.972  57.093  -6.927  1.00  0.00    -0.265 OA
BRANCH  26  28
HETATM   28  C25 UNL     1       3.734  57.545  -7.720  1.00  0.00     0.111 C 
BRANCH  28  29
HETATM   29  C26 UNL     1       2.740  57.578  -6.563  1.00  0.00     0.005 C 
HETATM   30  C27 UNL     1       3.143  58.562  -5.476  1.00  0.00     0.005 C 
ENDBRANCH  28  29
ENDBRANCH  26  28
ENDBRANCH  25  26
ENDBRANCH  22  25
ENDBRANCH  20  22
ENDBRANCH  19  20
ENDBRANCH  16  19
BRANCH   5  31
HETATM   31  C6  UNL     1       3.397  50.053 -12.725  1.00  0.00     0.010 C 
HETATM   32  C7  UNL     1       4.305  49.839 -13.952  1.00  0.00     0.012 C 
BRANCH  31  33
HETATM   33  C8  UNL     1       4.221  49.776 -11.452  1.00  0.00     0.168 C 
BRANCH  33  34
HETATM   34  O1  UNL     1       5.622  49.753 -11.690  1.00  0.00    -0.400 OA
HETATM   35  H14 UNL     1       5.797  49.168 -12.459  1.00  0.00     0.209 HD
ENDBRANCH  33  34
ENDBRANCH  31  33
ENDBRANCH   5  31
BRANCH  13  36
HETATM   36  O4  UNL     1      -2.289  51.404  -8.820  1.00  0.00    -0.393 OA
HETATM   37  H25 UNL     1      -3.102  51.043  -8.427  1.00  0.00     0.210 HD
ENDBRANCH  13  36
BRANCH  11  38
HETATM   38  O3  UNL     1      -3.406  53.432 -11.712  1.00  0.00    -0.388 OA
HETATM   39  H23 UNL     1      -3.237  53.297 -12.662  1.00  0.00     0.210 HD
ENDBRANCH  11  38
TORSDOF 13
ENDMDL
MODEL 4
REMARK minimizedAffinity -8.40843296
REMARK CNNscore 0.759760797
REMARK CNNaffinity 7.70544291
REMARK  13 active torsions:
REMARK  status: ('A' for Active; 'I' for Inactive)
REMARK    1  A    between atoms: C5_5  and  C6_6 
REMARK    2  A    between atoms: C6_6  and  C8_8 
REMARK    3  A    between atoms: C8_8  and  O1_9 
REMARK    4  A    between atoms: C13_15  and  O3_17 
REMARK    5  A    between atoms: C15_18  and  O4_19 
REMARK    6  A    between atoms: C18_22  and  O5_24 
REMARK    7  A    between atoms: O5_24  and  C20_25 
REMARK    8  A    between atoms: C20_25  and  C21_27 
REMARK    9  A    between atoms: C21_27  and  C22_28 
REMARK   10  A    between atoms: C21_27  and  O7_30 
REMARK   11  A    between atoms: O7_30  and  C24_31 
REMARK   12  A    between atoms: C24_31  and  C25_33 
REMARK   13  A    between atoms: C25_33  and  C26_34 
ROOT
HETATM    1  C1  UNL     1      -3.543  48.343 -18.184  1.00  0.00     0.015 C 
HETATM    2  C2  UNL     1      -3.083  48.625 -19.415  1.00  0.00    -0.082 C 
HETATM    3  C3  UNL     1      -1.917  47.890 -20.014  1.00  0.00     0.034 C 
HETATM    4  C4  UNL     1      -0.786  48.835 -20.442  1.00  0.00     0.010 C 
HETATM    5  C5  UNL     1      -1.209  50.296 -20.763  1.00  0.00    -0.001 C 
HETATM    6  C9  UNL     1      -2.672  50.348 -21.279  1.00  0.00     0.033 C 
HETATM    7  C10 UNL     1      -2.934  49.551 -22.602  1.00  0.00     0.162 C 
HETATM    8  O2  UNL     1      -4.034  48.678 -22.288  1.00  0.00    -0.376 OA
HETATM    9  C11 UNL     1      -4.750  49.328 -21.233  1.00  0.00     0.133 C 
HETATM   10  C12 UNL     1      -5.954  48.513 -20.842  1.00  0.00     0.072 C 
HETATM   11  C13 UNL     1      -6.907  48.287 -22.060  1.00  0.00     0.082 C 
HETATM   12  C14 UNL     1      -8.293  47.938 -21.482  1.00  0.00     0.049 C 
HETATM   13  C15 UNL     1      -7.055  49.487 -23.076  1.00  0.00     0.152 C 
HETATM   14  C16 UNL     1      -5.932  49.672 -24.143  1.00  0.00     0.038 C 
HETATM   15  C17 UNL     1      -4.848  50.776 -23.977  1.00  0.00     0.043 C 
HETATM   16  C18 UNL     1      -3.331  50.347 -23.900  1.00  0.00     0.093 C 
HETATM   17  C19 UNL     1      -3.024  49.493 -25.156  1.00  0.00     0.049 C 
HETATM   18  C28 UNL     1      -3.668  49.741 -20.255  1.00  0.00     0.050 C 
ENDROOT
BRANCH  16  19
HETATM   19  O5  UNL     1      -2.616  51.619 -24.005  1.00  0.00    -0.306 OA
BRANCH  19  20
HETATM   20  C20 UNL     1      -2.457  52.257 -25.197  1.00  0.00     0.289 C 
HETATM   21  O6  UNL     1      -3.357  52.773 -25.847  1.00  0.00    -0.262 OA
BRANCH  20  22
HETATM   22  C21 UNL     1      -0.974  52.278 -25.593  1.00  0.00     0.231 C 
BRANCH  22  23
HETATM   23  C22 UNL     1      -0.065  52.299 -24.352  1.00  0.00     0.038 C 
HETATM   24  C23 UNL     1       0.723  53.595 -24.196  1.00  0.00     0.008 C 
ENDBRANCH  22  23
BRANCH  22  25
HETATM   25  O7  UNL     1      -0.635  53.427 -26.384  1.00  0.00    -0.306 OA
BRANCH  25  26
HETATM   26  C24 UNL     1      -0.222  53.177 -27.654  1.00  0.00     0.259 C 
HETATM   27  O8  UNL     1      -0.224  53.983 -28.575  1.00  0.00    -0.265 OA
BRANCH  26  28
HETATM   28  C25 UNL     1       0.227  51.744 -27.786  1.00  0.00     0.111 C 
BRANCH  28  29
HETATM   29  C26 UNL     1       1.699  51.627 -28.165  1.00  0.00     0.005 C 
HETATM   30  C27 UNL     1       2.611  51.553 -26.950  1.00  0.00     0.005 C 
ENDBRANCH  28  29
ENDBRANCH  26  28
ENDBRANCH  25  26
ENDBRANCH  22  25
ENDBRANCH  20  22
ENDBRANCH  19  20
ENDBRANCH  16  19
BRANCH   5  31
HETATM   31  C6  UNL     1      -0.949  51.255 -19.545  1.00  0.00     0.010 C 
HETATM   32  C7  UNL     1      -0.225  50.526 -18.397  1.00  0.00     0.012 C 
BRANCH  31  33
HETATM   33  C8  UNL     1      -0.147  52.522 -19.903  1.00  0.00     0.168 C 
BRANCH  33  34
HETATM   34  O1  UNL     1      -0.066  53.451 -18.830  1.00  0.00    -0.400 OA
HETATM   35  H14 UNL     1      -0.970  53.592 -18.473  1.00  0.00     0.209 HD
ENDBRANCH  33  34
ENDBRANCH  31  33
ENDBRANCH   5  31
BRANCH  13  36
HETATM   36  O4  UNL     1      -7.344  50.716 -22.413  1.00  0.00    -0.393 OA
HETATM   37  H25 UNL     1      -8.304  50.746 -22.256  1.00  0.00     0.210 HD
ENDBRANCH  13  36
BRANCH  11  38
HETATM   38  O3  UNL     1      -6.518  47.127 -22.812  1.00  0.00    -0.388 OA
HETATM   39  H23 UNL     1      -5.962  46.556 -22.251  1.00  0.00     0.210 HD
ENDBRANCH  11  38
TORSDOF 13
ENDMDL
MODEL 5
REMARK minimizedAffinity -6.01383495
REMARK CNNscore 0.657277524
REMARK CNNaffinity 6.96490145
REMARK  13 active torsions:
REMARK  status: ('A' for Active; 'I' for Inactive)
REMARK    1  A    between atoms: C5_5  and  C6_6 
REMARK    2  A    between atoms: C6_6  and  C8_8 
REMARK    3  A    between atoms: C8_8  and  O1_9 
REMARK    4  A    between atoms: C13_15  and  O3_17 
REMARK    5  A    between atoms: C15_18  and  O4_19 
REMARK    6  A    between atoms: C18_22  and  O5_24 
REMARK    7  A    between atoms: O5_24  and  C20_25 
REMARK    8  A    between atoms: C20_25  and  C21_27 
REMARK    9  A    between atoms: C21_27  and  C22_28 
REMARK   10  A    between atoms: C21_27  and  O7_30 
REMARK   11  A    between atoms: O7_30  and  C24_31 
REMARK   12  A    between atoms: C24_31  and  C25_33 
REMARK   13  A    between atoms: C25_33  and  C26_34 
ROOT
HETATM    1  C1  UNL     1      -0.645  49.360 -14.421  1.00  0.00     0.015 C 
HETATM    2  C2  UNL     1      -0.084  50.450 -13.871  1.00  0.00    -0.082 C 
HETATM    3  C3  UNL     1       0.425  51.589 -14.709  1.00  0.00     0.034 C 
HETATM    4  C4  UNL     1       1.904  51.898 -14.442  1.00  0.00     0.010 C 
HETATM    5  C5  UNL     1       2.443  51.477 -13.047  1.00  0.00    -0.001 C 
HETATM    6  C9  UNL     1       1.311  51.504 -11.986  1.00  0.00     0.033 C 
HETATM    7  C10 UNL     1       0.651  52.906 -11.758  1.00  0.00     0.162 C 
HETATM    8  O2  UNL     1      -0.758  52.677 -11.936  1.00  0.00    -0.376 OA
HETATM    9  C11 UNL     1      -0.965  51.297 -11.617  1.00  0.00     0.133 C 
HETATM   10  C12 UNL     1      -2.426  50.948 -11.736  1.00  0.00     0.072 C 
HETATM   11  C13 UNL     1      -3.301  51.841 -10.797  1.00  0.00     0.082 C 
HETATM   12  C14 UNL     1      -4.632  51.092 -10.587  1.00  0.00     0.049 C 
HETATM   13  C15 UNL     1      -2.684  52.207  -9.391  1.00  0.00     0.152 C 
HETATM   14  C16 UNL     1      -1.651  53.376  -9.339  1.00  0.00     0.038 C 
HETATM   15  C17 UNL     1      -0.126  53.089  -9.226  1.00  0.00     0.043 C 
HETATM   16  C18 UNL     1       0.833  53.612 -10.364  1.00  0.00     0.093 C 
HETATM   17  C19 UNL     1       0.595  55.136 -10.511  1.00  0.00     0.049 C 
HETATM   18  C28 UNL     1       0.130  50.576 -12.377  1.00  0.00     0.050 C 
ENDROOT
BRANCH  16  19
HETATM   19  O5  UNL     1       2.168  53.393  -9.807  1.00  0.00    -0.306 OA
BRANCH  19  20
HETATM   20  C20 UNL     1       2.618  54.088  -8.727  1.00  0.00     0.289 C 
HETATM   21  O6  UNL     1       2.070  54.126  -7.633  1.00  0.00    -0.262 OA
BRANCH  20  22
HETATM   22  C21 UNL     1       3.943  54.788  -9.062  1.00  0.00     0.231 C 
BRANCH  22  23
HETATM   23  C22 UNL     1       3.711  56.030  -9.939  1.00  0.00     0.038 C 
HETATM   24  C23 UNL     1       4.119  55.834 -11.396  1.00  0.00     0.008 C 
ENDBRANCH  22  23
BRANCH  22  25
HETATM   25  O7  UNL     1       4.849  53.932  -9.775  1.00  0.00    -0.306 OA
BRANCH  25  26
HETATM   26  C24 UNL     1       6.134  53.926  -9.335  1.00  0.00     0.259 C 
HETATM   27  O8  UNL     1       6.801  54.919  -9.073  1.00  0.00    -0.265 OA
BRANCH  26  28
HETATM   28  C25 UNL     1       6.646  52.512  -9.229  1.00  0.00     0.111 C 
BRANCH  28  29
HETATM   29  C26 UNL     1       5.543  51.517  -8.887  1.00  0.00     0.005 C 
HETATM   30  C27 UNL     1       5.980  50.073  -9.077  1.00  0.00     0.005 C 
ENDBRANCH  28  29
ENDBRANCH  26  28
ENDBRANCH  25  26
ENDBRANCH  22  25
ENDBRANCH  20  22
ENDBRANCH  19  20
ENDBRANCH  16  19
BRANCH   5  31
HETATM   31  C6  UNL     1       3.200  50.101 -13.108  1.00  0.00     0.010 C 
HETATM   32  C7  UNL     1       4.381  50.152 -14.097  1.00  0.00     0.012 C 
BRANCH  31  33
HETATM   33  C8  UNL     1       3.725  49.610 -11.744  1.00  0.00     0.168 C 
BRANCH  33  34
HETATM   34  O1  UNL     1       3.634  48.200 -11.588  1.00  0.00    -0.400 OA
HETATM   35  H14 UNL     1       2.727  47.918 -11.835  1.00  0.00     0.209 HD
ENDBRANCH  33  34
ENDBRANCH  31  33
ENDBRANCH   5  31
BRANCH  13  36
HETATM   36  O4  UNL     1      -2.195  51.056  -8.705  1.00  0.00    -0.393 OA
HETATM   37  H25 UNL     1      -2.949  50.642  -8.252  1.00  0.00     0.210 HD
ENDBRANCH  13  36
BRANCH  11  38
HETATM   38  O3  UNL     1      -3.667  53.069 -11.445  1.00  0.00    -0.388 OA
HETATM   39  H23 UNL     1      -3.573  52.960 -12.409  1.00  0.00     0.210 HD
ENDBRANCH  11  38
TORSDOF 13
ENDMDL
MODEL 6
REMARK minimizedAffinity -7.655159
REMARK CNNscore 0.627663255
REMARK CNNaffinity 6.86129189
REMARK  13 active torsions:
REMARK  status: ('A' for Active; 'I' for Inactive)
REMARK    1  A    between atoms: C5_5  and  C6_6 
REMARK    2  A    between atoms: C6_6  and  C8_8 
REMARK    3  A    between atoms: C8_8  and  O1_9 
REMARK    4  A    between atoms: C13_15  and  O3_17 
REMARK    5  A    between atoms: C15_18  and  O4_19 
REMARK    6  A    between atoms: C18_22  and  O5_24 
REMARK    7  A    between atoms: O5_24  and  C20_25 
REMARK    8  A    between atoms: C20_25  and  C21_27 
REMARK    9  A    between atoms: C21_27  and  C22_28 
REMARK   10  A    between atoms: C21_27  and  O7_30 
REMARK   11  A    between atoms: O7_30  and  C24_31 
REMARK   12  A    between atoms: C24_31  and  C25_33 
REMARK   13  A    between atoms: C25_33  and  C26_34 
ROOT
HETATM    1  C1  UNL     1      -4.775  48.482 -25.387  1.00  0.00     0.015 C 
HETATM    2  C2  UNL     1      -4.476  49.418 -24.470  1.00  0.00    -0.082 C 
HETATM    3  C3  UNL     1      -5.369  50.601 -24.224  1.00  0.00     0.034 C 
HETATM    4  C4  UNL     1      -4.632  51.936 -24.395  1.00  0.00     0.010 C 
HETATM    5  C5  UNL     1      -3.093  51.892 -24.184  1.00  0.00    -0.001 C 
HETATM    6  C9  UNL     1      -2.703  50.768 -23.188  1.00  0.00     0.033 C 
HETATM    7  C10 UNL     1      -3.304  50.922 -21.749  1.00  0.00     0.162 C 
HETATM    8  O2  UNL     1      -3.967  49.670 -21.497  1.00  0.00    -0.376 OA
HETATM    9  C11 UNL     1      -3.289  48.707 -22.311  1.00  0.00     0.133 C 
HETATM   10  C12 UNL     1      -3.881  47.338 -22.101  1.00  0.00     0.072 C 
HETATM   11  C13 UNL     1      -3.798  46.908 -20.600  1.00  0.00     0.082 C 
HETATM   12  C14 UNL     1      -3.917  45.372 -20.571  1.00  0.00     0.049 C 
HETATM   13  C15 UNL     1      -2.503  47.344 -19.808  1.00  0.00     0.152 C 
HETATM   14  C16 UNL     1      -2.446  48.806 -19.267  1.00  0.00     0.038 C 
HETATM   15  C17 UNL     1      -1.601  49.893 -19.992  1.00  0.00     0.043 C 
HETATM   16  C18 UNL     1      -2.327  51.181 -20.543  1.00  0.00     0.093 C 
HETATM   17  C19 UNL     1      -3.104  51.818 -19.364  1.00  0.00     0.049 C 
HETATM   18  C28 UNL     1      -3.192  49.375 -23.667  1.00  0.00     0.050 C 
ENDROOT
BRANCH  16  19
HETATM   19  O5  UNL     1      -1.219  52.061 -20.912  1.00  0.00    -0.306 OA
BRANCH  19  20
HETATM   20  C20 UNL     1       0.052  51.835 -20.481  1.00  0.00     0.289 C 
HETATM   21  O6  UNL     1       0.801  50.969 -20.916  1.00  0.00    -0.262 OA
BRANCH  20  22
HETATM   22  C21 UNL     1       0.432  52.852 -19.395  1.00  0.00     0.231 C 
BRANCH  22  23
HETATM   23  C22 UNL     1       0.979  54.149 -20.014  1.00  0.00     0.038 C 
HETATM   24  C23 UNL     1       1.339  54.018 -21.490  1.00  0.00     0.008 C 
ENDBRANCH  22  23
BRANCH  22  25
HETATM   25  O7  UNL     1       1.441  52.350 -18.506  1.00  0.00    -0.306 OA
BRANCH  25  26
HETATM   26  C24 UNL     1       0.998  51.856 -17.320  1.00  0.00     0.259 C 
HETATM   27  O8  UNL     1       0.180  50.954 -17.186  1.00  0.00    -0.265 OA
BRANCH  26  28
HETATM   28  C25 UNL     1       1.641  52.591 -16.172  1.00  0.00     0.111 C 
BRANCH  28  29
HETATM   29  C26 UNL     1       3.084  52.986 -16.468  1.00  0.00     0.005 C 
HETATM   30  C27 UNL     1       4.090  52.035 -15.838  1.00  0.00     0.005 C 
ENDBRANCH  28  29
ENDBRANCH  26  28
ENDBRANCH  25  26
ENDBRANCH  22  25
ENDBRANCH  20  22
ENDBRANCH  19  20
ENDBRANCH  16  19
BRANCH   5  31
HETATM   31  C6  UNL     1      -2.322  51.801 -25.551  1.00  0.00     0.010 C 
HETATM   32  C7  UNL     1      -1.180  50.769 -25.486  1.00  0.00     0.012 C 
BRANCH  31  33
HETATM   33  C8  UNL     1      -3.220  51.464 -26.758  1.00  0.00     0.168 C 
BRANCH  33  34
HETATM   34  O1  UNL     1      -2.666  51.885 -27.998  1.00  0.00    -0.400 OA
HETATM   35  H14 UNL     1      -2.385  52.821 -27.911  1.00  0.00     0.209 HD
ENDBRANCH  33  34
ENDBRANCH  31  33
ENDBRANCH   5  31
BRANCH  13  36
HETATM   36  O4  UNL     1      -1.308  47.007 -20.511  1.00  0.00    -0.393 OA
HETATM   37  H25 UNL     1      -1.103  46.078 -20.312  1.00  0.00     0.210 HD
ENDBRANCH  13  36
BRANCH  11  38
HETATM   38  O3  UNL     1      -4.937  47.380 -19.863  1.00  0.00    -0.388 OA
HETATM   39  H23 UNL     1      -5.657  47.585 -20.488  1.00  0.00     0.210 HD
ENDBRANCH  11  38
TORSDOF 13
ENDMDL
MODEL 7
REMARK minimizedAffinity -5.96547413
REMARK CNNscore 0.623707533
REMARK CNNaffinity 6.17361498
REMARK  13 active torsions:
REMARK  status: ('A' for Active; 'I' for Inactive)
REMARK    1  A    between atoms: C5_5  and  C6_6 
REMARK    2  A    between atoms: C6_6  and  C8_8 
REMARK    3  A    between atoms: C8_8  and  O1_9 
REMARK    4  A    between atoms: C13_15  and  O3_17 
REMARK    5  A    between atoms: C15_18  and  O4_19 
REMARK    6  A    between atoms: C18_22  and  O5_24 
REMARK    7  A    between atoms: O5_24  and  C20_25 
REMARK    8  A    between atoms: C20_25  and  C21_27 
REMARK    9  A    between atoms: C21_27  and  C22_28 
REMARK   10  A    between atoms: C21_27  and  O7_30 
REMARK   11  A    between atoms: O7_30  and  C24_31 
REMARK   12  A    between atoms: C24_31  and  C25_33 
REMARK   13  A    between atoms: C25_33  and  C26_34 
ROOT
HETATM    1  C1  UNL     1       6.359  54.648  -8.484  1.00  0.00     0.015 C 
HETATM    2  C2  UNL     1       5.270  54.453  -9.247  1.00  0.00    -0.082 C 
HETATM    3  C3  UNL     1       5.011  55.265 -10.484  1.00  0.00     0.034 C 
HETATM    4  C4  UNL     1       3.651  55.974 -10.445  1.00  0.00     0.010 C 
HETATM    5  C5  UNL     1       2.572  55.320  -9.538  1.00  0.00    -0.001 C 
HETATM    6  C9  UNL     1       2.793  53.788  -9.432  1.00  0.00     0.033 C 
HETATM    7  C10 UNL     1       2.705  53.011 -10.790  1.00  0.00     0.162 C 
HETATM    8  O2  UNL     1       3.936  52.270 -10.864  1.00  0.00    -0.376 OA
HETATM    9  C11 UNL     1       4.348  52.074  -9.507  1.00  0.00     0.133 C 
HETATM   10  C12 UNL     1       5.621  51.271  -9.461  1.00  0.00     0.072 C 
HETATM   11  C13 UNL     1       5.444  49.884 -10.161  1.00  0.00     0.082 C 
HETATM   12  C14 UNL     1       6.557  48.967  -9.617  1.00  0.00     0.049 C 
HETATM   13  C15 UNL     1       4.047  49.171  -9.977  1.00  0.00     0.152 C 
HETATM   14  C16 UNL     1       2.870  49.644 -10.885  1.00  0.00     0.038 C 
HETATM   15  C17 UNL     1       1.756  50.575 -10.326  1.00  0.00     0.043 C 
HETATM   16  C18 UNL     1       1.532  51.984 -11.000  1.00  0.00     0.093 C 
HETATM   17  C19 UNL     1       1.307  51.746 -12.515  1.00  0.00     0.049 C 
HETATM   18  C28 UNL     1       4.202  53.444  -8.877  1.00  0.00     0.050 C 
ENDROOT
BRANCH  16  19
HETATM   19  O5  UNL     1       0.280  52.449 -10.403  1.00  0.00    -0.306 OA
BRANCH  19  20
HETATM   20  C20 UNL     1      -0.906  51.826 -10.645  1.00  0.00     0.289 C 
HETATM   21  O6  UNL     1      -1.213  50.712 -10.242  1.00  0.00    -0.262 OA
BRANCH  20  22
HETATM   22  C21 UNL     1      -1.826  52.741 -11.465  1.00  0.00     0.231 C 
BRANCH  22  23
HETATM   23  C22 UNL     1      -2.374  53.894 -10.608  1.00  0.00     0.038 C 
HETATM   24  C23 UNL     1      -3.886  53.847 -10.414  1.00  0.00     0.008 C 
ENDBRANCH  22  23
BRANCH  22  25
HETATM   25  O7  UNL     1      -2.959  52.039 -12.001  1.00  0.00    -0.306 OA
BRANCH  25  26
HETATM   26  C24 UNL     1      -3.035  51.978 -13.356  1.00  0.00     0.259 C 
HETATM   27  O8  UNL     1      -3.697  52.725 -14.066  1.00  0.00    -0.265 OA
BRANCH  26  28
HETATM   28  C25 UNL     1      -2.199  50.838 -13.878  1.00  0.00     0.111 C 
BRANCH  28  29
HETATM   29  C26 UNL     1      -2.210  50.756 -15.400  1.00  0.00     0.005 C 
HETATM   30  C27 UNL     1      -2.777  49.440 -15.910  1.00  0.00     0.005 C 
ENDBRANCH  28  29
ENDBRANCH  26  28
ENDBRANCH  25  26
ENDBRANCH  22  25
ENDBRANCH  20  22
ENDBRANCH  19  20
ENDBRANCH  16  19
BRANCH   5  31
HETATM   31  C6  UNL     1       2.482  56.030  -8.139  1.00  0.00     0.010 C 
HETATM   32  C7  UNL     1       3.298  57.337  -8.117  1.00  0.00     0.012 C 
BRANCH  31  33
HETATM   33  C8  UNL     1       1.043  56.344  -7.684  1.00  0.00     0.168 C 
BRANCH  33  34
HETATM   34  O1  UNL     1       0.976  57.408  -6.744  1.00  0.00    -0.400 OA
HETATM   35  H14 UNL     1       1.632  57.236  -6.033  1.00  0.00     0.209 HD
ENDBRANCH  33  34
ENDBRANCH  31  33
ENDBRANCH   5  31
BRANCH  13  36
HETATM   36  O4  UNL     1       3.652  49.115  -8.607  1.00  0.00    -0.393 OA
HETATM   37  H25 UNL     1       4.086  48.342  -8.208  1.00  0.00     0.210 HD
ENDBRANCH  13  36
BRANCH  11  38
HETATM   38  O3  UNL     1       5.701  49.981 -11.570  1.00  0.00    -0.388 OA
HETATM   39  H23 UNL     1       6.225  50.784 -11.744  1.00  0.00     0.210 HD
ENDBRANCH  11  38
TORSDOF 13
ENDMDL
MODEL 8
REMARK minimizedAffinity -8.09587765
REMARK CNNscore 0.576706469
REMARK CNNaffinity 6.9456439
REMARK  13 active torsions:
REMARK  status: ('A' for Active; 'I' for Inactive)
REMARK    1  A    between atoms: C5_5  and  C6_6 
REMARK    2  A    between atoms: C6_6  and  C8_8 
REMARK    3  A    between atoms: C8_8  and  O1_9 
REMARK    4  A    between atoms: C13_15  and  O3_17 
REMARK    5  A    between atoms: C15_18  and  O4_19 
REMARK    6  A    between atoms: C18_22  and  O5_24 
REMARK    7  A    between atoms: O5_24  and  C20_25 
REMARK    8  A    between atoms: C20_25  and  C21_27 
REMARK    9  A    between atoms: C21_27  and  C22_28 
REMARK   10  A    between atoms: C21_27  and  O7_30 
REMARK   11  A    between atoms: O7_30  and  C24_31 
REMARK   12  A    between atoms: C24_31  and  C25_33 
REMARK   13  A    between atoms: C25_33  and  C26_34 
ROOT
HETATM    1  C1  UNL     1      -4.201  49.241 -26.518  1.00  0.00     0.015 C 
HETATM    2  C2  UNL     1      -3.545  49.384 -25.353  1.00  0.00    -0.082 C 
HETATM    3  C3  UNL     1      -3.191  48.205 -24.492  1.00  0.00     0.034 C 
HETATM    4  C4  UNL     1      -3.747  48.332 -23.068  1.00  0.00     0.010 C 
HETATM    5  C5  UNL     1      -4.013  49.780 -22.571  1.00  0.00    -0.001 C 
HETATM    6  C9  UNL     1      -3.050  50.786 -23.256  1.00  0.00     0.033 C 
HETATM    7  C10 UNL     1      -1.528  50.537 -22.979  1.00  0.00     0.162 C 
HETATM    8  O2  UNL     1      -0.929  50.465 -24.285  1.00  0.00    -0.376 OA
HETATM    9  C11 UNL     1      -1.782  51.234 -25.140  1.00  0.00     0.133 C 
HETATM   10  C12 UNL     1      -1.229  51.259 -26.541  1.00  0.00     0.072 C 
HETATM   11  C13 UNL     1       0.217  51.854 -26.569  1.00  0.00     0.082 C 
HETATM   12  C14 UNL     1       0.475  52.323 -28.015  1.00  0.00     0.049 C 
HETATM   13  C15 UNL     1       0.512  53.046 -25.577  1.00  0.00     0.152 C 
HETATM   14  C16 UNL     1       0.820  52.688 -24.090  1.00  0.00     0.038 C 
HETATM   15  C17 UNL     1      -0.261  52.870 -22.985  1.00  0.00     0.043 C 
HETATM   16  C18 UNL     1      -0.722  51.609 -22.156  1.00  0.00     0.093 C 
HETATM   17  C19 UNL     1       0.547  50.961 -21.549  1.00  0.00     0.049 C 
HETATM   18  C28 UNL     1      -3.176  50.746 -24.802  1.00  0.00     0.050 C 
ENDROOT
BRANCH  16  19
HETATM   19  O5  UNL     1      -1.521  52.189 -21.077  1.00  0.00    -0.306 OA
BRANCH  19  20
HETATM   20  C20 UNL     1      -1.954  51.444 -20.023  1.00  0.00     0.289 C 
HETATM   21  O6  UNL     1      -3.125  51.191 -19.771  1.00  0.00    -0.262 OA
BRANCH  20  22
HETATM   22  C21 UNL     1      -0.756  50.927 -19.213  1.00  0.00     0.231 C 
BRANCH  22  23
HETATM   23  C22 UNL     1      -1.013  49.506 -18.684  1.00  0.00     0.038 C 
HETATM   24  C23 UNL     1      -1.985  49.458 -17.509  1.00  0.00     0.008 C 
ENDBRANCH  22  23
BRANCH  22  25
HETATM   25  O7  UNL     1      -0.467  51.755 -18.077  1.00  0.00    -0.306 OA
BRANCH  25  26
HETATM   26  C24 UNL     1       0.731  52.395 -18.095  1.00  0.00     0.259 C 
HETATM   27  O8  UNL     1       1.176  53.047 -19.032  1.00  0.00    -0.265 OA
BRANCH  26  28
HETATM   28  C25 UNL     1       1.463  52.176 -16.796  1.00  0.00     0.111 C 
BRANCH  28  29
HETATM   29  C26 UNL     1       2.846  52.819 -16.790  1.00  0.00     0.005 C 
HETATM   30  C27 UNL     1       3.744  52.261 -15.697  1.00  0.00     0.005 C 
ENDBRANCH  28  29
ENDBRANCH  26  28
ENDBRANCH  25  26
ENDBRANCH  22  25
ENDBRANCH  20  22
ENDBRANCH  19  20
ENDBRANCH  16  19
BRANCH   5  31
HETATM   31  C6  UNL     1      -5.527  50.175 -22.720  1.00  0.00     0.010 C 
HETATM   32  C7  UNL     1      -5.686  51.564 -23.367  1.00  0.00     0.012 C 
BRANCH  31  33
HETATM   33  C8  UNL     1      -6.366  49.162 -23.523  1.00  0.00     0.168 C 
BRANCH  33  34
HETATM   34  O1  UNL     1      -7.279  49.781 -24.419  1.00  0.00    -0.400 OA
HETATM   35  H14 UNL     1      -7.778  50.469 -23.927  1.00  0.00     0.209 HD
ENDBRANCH  33  34
ENDBRANCH  31  33
ENDBRANCH   5  31
BRANCH  13  36
HETATM   36  O4  UNL     1      -0.474  54.073 -25.666  1.00  0.00    -0.393 OA
HETATM   37  H25 UNL     1      -0.231  54.649 -26.412  1.00  0.00     0.210 HD
ENDBRANCH  13  36
BRANCH  11  38
HETATM   38  O3  UNL     1       1.200  50.836 -26.330  1.00  0.00    -0.388 OA
HETATM   39  H23 UNL     1       0.806  49.964 -26.513  1.00  0.00     0.210 HD
ENDBRANCH  11  38
TORSDOF 13
ENDMDL
MODEL 9
REMARK minimizedAffinity -8.36101818
REMARK CNNscore 0.565525055
REMARK CNNaffinity 7.18002176
REMARK  13 active torsions:
REMARK  status: ('A' for Active; 'I' for Inactive)
REMARK    1  A    between atoms: C5_5  and  C6_6 
REMARK    2  A    between atoms: C6_6  and  C8_8 
REMARK    3  A    between atoms: C8_8  and  O1_9 
REMARK    4  A    between atoms: C13_15  and  O3_17 
REMARK    5  A    between atoms: C15_18  and  O4_19 
REMARK    6  A    between atoms: C18_22  and  O5_24 
REMARK    7  A    between atoms: O5_24  and  C20_25 
REMARK    8  A    between atoms: C20_25  and  C21_27 
REMARK    9  A    between atoms: C21_27  and  C22_28 
REMARK   10  A    between atoms: C21_27  and  O7_30 
REMARK   11  A    between atoms: O7_30  and  C24_31 
REMARK   12  A    between atoms: C24_31  and  C25_33 
REMARK   13  A    between atoms: C25_33  and  C26_34 
ROOT
HETATM    1  C1  UNL     1      -3.614  47.964 -18.427  1.00  0.00     0.015 C 
HETATM    2  C2  UNL     1      -3.112  48.236 -19.644  1.00  0.00    -0.082 C 
HETATM    3  C3  UNL     1      -2.002  47.421 -20.245  1.00  0.00     0.034 C 
HETATM    4  C4  UNL     1      -0.791  48.279 -20.633  1.00  0.00     0.010 C 
HETATM    5  C5  UNL     1      -1.086  49.777 -20.923  1.00  0.00    -0.001 C 
HETATM    6  C9  UNL     1      -2.531  49.963 -21.458  1.00  0.00     0.033 C 
HETATM    7  C10 UNL     1      -2.837  49.222 -22.804  1.00  0.00     0.162 C 
HETATM    8  O2  UNL     1      -4.010  48.436 -22.527  1.00  0.00    -0.376 OA
HETATM    9  C11 UNL     1      -4.686  49.118 -21.466  1.00  0.00     0.133 C 
HETATM   10  C12 UNL     1      -5.960  48.397 -21.113  1.00  0.00     0.072 C 
HETATM   11  C13 UNL     1      -6.909  48.280 -22.350  1.00  0.00     0.082 C 
HETATM   12  C14 UNL     1      -8.328  48.034 -21.800  1.00  0.00     0.049 C 
HETATM   13  C15 UNL     1      -6.941  49.512 -23.337  1.00  0.00     0.152 C 
HETATM   14  C16 UNL     1      -5.789  49.629 -24.383  1.00  0.00     0.038 C 
HETATM   15  C17 UNL     1      -4.620  50.634 -24.174  1.00  0.00     0.043 C 
HETATM   16  C18 UNL     1      -3.145  50.080 -24.087  1.00  0.00     0.093 C 
HETATM   17  C19 UNL     1      -2.890  49.234 -25.359  1.00  0.00     0.049 C 
HETATM   18  C28 UNL     1      -3.590  49.417 -20.464  1.00  0.00     0.050 C 
ENDROOT
BRANCH  16  19
HETATM   19  O5  UNL     1      -2.326  51.290 -24.150  1.00  0.00    -0.306 OA
BRANCH  19  20
HETATM   20  C20 UNL     1      -2.174  51.995 -25.304  1.00  0.00     0.289 C 
HETATM   21  O6  UNL     1      -3.083  52.514 -25.939  1.00  0.00    -0.262 OA
BRANCH  20  22
HETATM   22  C21 UNL     1      -0.687  52.084 -25.678  1.00  0.00     0.231 C 
BRANCH  22  23
HETATM   23  C22 UNL     1      -0.320  51.049 -26.754  1.00  0.00     0.038 C 
HETATM   24  C23 UNL     1       0.611  51.593 -27.833  1.00  0.00     0.008 C 
ENDBRANCH  22  23
BRANCH  22  25
HETATM   25  O7  UNL     1       0.174  51.849 -24.554  1.00  0.00    -0.306 OA
BRANCH  25  26
HETATM   26  C24 UNL     1       0.658  52.955 -23.932  1.00  0.00     0.259 C 
HETATM   27  O8  UNL     1       1.093  53.954 -24.492  1.00  0.00    -0.265 OA
BRANCH  26  28
HETATM   28  C25 UNL     1       0.606  52.781 -22.436  1.00  0.00     0.111 C 
BRANCH  28  29
HETATM   29  C26 UNL     1       1.225  53.958 -21.690  1.00  0.00     0.005 C 
HETATM   30  C27 UNL     1       1.229  53.756 -20.182  1.00  0.00     0.005 C 
ENDBRANCH  28  29
ENDBRANCH  26  28
ENDBRANCH  25  26
ENDBRANCH  22  25
ENDBRANCH  20  22
ENDBRANCH  19  20
ENDBRANCH  16  19
BRANCH   5  31
HETATM   31  C6  UNL     1      -0.767  50.682 -19.678  1.00  0.00     0.010 C 
HETATM   32  C7  UNL     1      -1.880  51.720 -19.436  1.00  0.00     0.012 C 
BRANCH  31  33
HETATM   33  C8  UNL     1      -0.536  49.897 -18.371  1.00  0.00     0.168 C 
BRANCH  33  34
HETATM   34  O1  UNL     1       0.307  50.580 -17.454  1.00  0.00    -0.400 OA
HETATM   35  H14 UNL     1       1.111  50.877 -17.932  1.00  0.00     0.209 HD
ENDBRANCH  33  34
ENDBRANCH  31  33
ENDBRANCH   5  31
BRANCH  13  36
HETATM   36  O4  UNL     1      -7.138  50.745 -22.647  1.00  0.00    -0.393 OA
HETATM   37  H25 UNL     1      -8.094  50.851 -22.503  1.00  0.00     0.210 HD
ENDBRANCH  13  36
BRANCH  11  38
HETATM   38  O3  UNL     1      -6.605  47.110 -23.125  1.00  0.00    -0.388 OA
HETATM   39  H23 UNL     1      -6.108  46.482 -22.571  1.00  0.00     0.210 HD
ENDBRANCH  11  38
TORSDOF 13
ENDMDL
