MODEL 1
REMARK minimizedAffinity -9.42775345
REMARK CNNscore 0.372556657
REMARK CNNaffinity 6.73707581
REMARK  8 active torsions:
REMARK  status: ('A' for Active; 'I' for Inactive)
REMARK    1  A    between atoms: C3_3  and  O1_4 
REMARK    2  A    between atoms: N1_14  and  O2_16 
REMARK    3  A    between atoms: O2_16  and  C13_17 
REMARK    4  A    between atoms: C13_17  and  C14_18 
REMARK       I    between atoms: C14_18  and  N2_20 
REMARK    5  A    between atoms: N2_20  and  C15_21 
REMARK    6  A    between atoms: C15_21  and  C16_22 
REMARK    7  A    between atoms: C16_22  and  O4_23 
REMARK    8  A    between atoms: C16_22  and  C17_24 
ROOT
HETATM    1  C1  UNL     1      -0.087  55.342 -27.243  1.00  0.00     0.015 C 
HETATM    2  C2  UNL     1      -0.424  54.203 -27.069  1.00  0.00    -0.078 C 
HETATM    3  C3  UNL     1      -0.860  52.810 -26.880  1.00  0.00     0.128 C 
HETATM    4  C4  UNL     1       0.162  51.804 -27.422  1.00  0.00     0.052 C 
HETATM    5  C5  UNL     1      -0.337  50.485 -26.841  1.00  0.00     0.010 C 
HETATM    6  C6  UNL     1      -0.693  50.843 -25.393  1.00  0.00     0.002 C 
HETATM    7  C7  UNL     1      -1.668  49.889 -24.664  1.00  0.00    -0.004 C 
HETATM    8  C8  UNL     1      -2.875  49.380 -25.470  1.00  0.00     0.010 C 
HETATM    9  C9  UNL     1      -3.756  48.428 -24.656  1.00  0.00     0.035 C 
HETATM   10  C10 UNL     1      -4.115  48.933 -23.273  1.00  0.00    -0.069 C 
HETATM   11  C11 UNL     1      -5.377  48.811 -22.822  1.00  0.00     0.030 C 
HETATM   12  C12 UNL     1      -5.741  49.148 -21.412  1.00  0.00     0.032 C 
HETATM   13  N1  UNL     1      -6.938  49.143 -20.910  1.00  0.00    -0.271 N 
ATOM     14  H1  UNL     1      -7.147  49.352 -19.933  1.00  0.00     0.194 HD
HETATM   15  C23 UNL     1      -4.605  49.462 -20.461  1.00  0.00     0.060 C 
HETATM   16  C24 UNL     1      -3.514  50.247 -21.177  1.00  0.00     0.020 C 
HETATM   17  C25 UNL     1      -2.972  49.522 -22.445  1.00  0.00    -0.016 C 
HETATM   18  C26 UNL     1      -2.061  48.359 -21.966  1.00  0.00     0.020 C 
HETATM   19  C27 UNL     1      -2.133  50.526 -23.329  1.00  0.00     0.002 C 
HETATM   20  C28 UNL     1      -2.845  51.884 -23.576  1.00  0.00     0.007 C 
HETATM   21  C29 UNL     1      -2.494  52.605 -24.881  1.00  0.00     0.014 C 
HETATM   22  C30 UNL     1      -1.062  52.366 -25.386  1.00  0.00     0.003 C 
HETATM   23  C31 UNL     1      -0.076  53.096 -24.432  1.00  0.00     0.020 C 
ENDROOT
BRANCH   3  24
HETATM   24  O1  UNL     1      -2.065  52.620 -27.629  1.00  0.00    -0.377 OA
HETATM   25  H2  UNL     1      -1.935  53.063 -28.486  1.00  0.00     0.211 HD
ENDBRANCH   3  24
BRANCH  13  26
HETATM   26  O2  UNL     1      -7.910  48.817 -21.865  1.00  0.00    -0.271 OA
BRANCH  26  27
HETATM   27  C13 UNL     1      -7.435  49.218 -23.147  1.00  0.00     0.303 C 
BRANCH  27  28
HETATM   28  C14 UNL     1      -8.475  48.817 -24.181  1.00  0.00     0.243 C 
HETATM   29  O3  UNL     1      -9.151  47.798 -24.098  1.00  0.00    -0.271 OA
HETATM   30  N2  UNL     1      -8.598  49.708 -25.233  1.00  0.00    -0.356 N 
HETATM   31  H16 UNL     1      -8.246  50.646 -25.080  1.00  0.00     0.162 HD
BRANCH  30  32
HETATM   32  C15 UNL     1      -9.676  49.560 -26.208  1.00  0.00     0.159 C 
BRANCH  32  33
HETATM   33  C16 UNL     1      -9.443  48.399 -27.203  1.00  0.00     0.170 C 
BRANCH  33  34
HETATM   34  O4  UNL     1      -8.814  48.934 -28.379  1.00  0.00    -0.389 OA
HETATM   35  H20 UNL     1      -7.947  49.253 -28.080  1.00  0.00     0.210 HD
ENDBRANCH  33  34
BRANCH  33  36
HETATM   36  C17 UNL     1     -10.740  47.710 -27.559  1.00  0.00    -0.013 A 
HETATM   37  C18 UNL     1     -11.974  48.076 -27.022  1.00  0.00     0.013 A 
HETATM   38  C19 UNL     1     -13.127  47.387 -27.394  1.00  0.00     0.025 A 
HETATM   39  C20 UNL     1     -13.021  46.343 -28.307  1.00  0.00     0.005 A 
HETATM   40  C21 UNL     1     -14.241  45.581 -28.728  1.00  0.00     0.068 C 
HETATM   41  N3  UNL     1     -11.836  45.962 -28.838  1.00  0.00    -0.369 N 
HETATM   42  C22 UNL     1     -10.737  46.652 -28.462  1.00  0.00     0.097 A 
ATOM     43  H3  UNL     1     -11.775  45.184 -29.494  1.00  0.00     0.165 HD
ENDBRANCH  33  36
ENDBRANCH  32  33
ENDBRANCH  30  32
ENDBRANCH  27  28
ENDBRANCH  26  27
ENDBRANCH  13  26
TORSDOF 8
ENDMDL
MODEL 2
REMARK minimizedAffinity -10.1362133
REMARK CNNscore 0.314744264
REMARK CNNaffinity 6.74505377
REMARK  8 active torsions:
REMARK  status: ('A' for Active; 'I' for Inactive)
REMARK    1  A    between atoms: C3_3  and  O1_4 
REMARK    2  A    between atoms: N1_14  and  O2_16 
REMARK    3  A    between atoms: O2_16  and  C13_17 
REMARK    4  A    between atoms: C13_17  and  C14_18 
REMARK       I    between atoms: C14_18  and  N2_20 
REMARK    5  A    between atoms: N2_20  and  C15_21 
REMARK    6  A    between atoms: C15_21  and  C16_22 
REMARK    7  A    between atoms: C16_22  and  O4_23 
REMARK    8  A    between atoms: C16_22  and  C17_24 
ROOT
HETATM    1  C1  UNL     1       0.105  55.724 -26.985  1.00  0.00     0.015 C 
HETATM    2  C2  UNL     1      -0.130  54.546 -26.975  1.00  0.00    -0.078 C 
HETATM    3  C3  UNL     1      -0.432  53.106 -26.994  1.00  0.00     0.128 C 
HETATM    4  C4  UNL     1       0.820  52.254 -27.231  1.00  0.00     0.052 C 
HETATM    5  C5  UNL     1       0.329  50.850 -26.894  1.00  0.00     0.010 C 
HETATM    6  C6  UNL     1      -0.495  51.054 -25.616  1.00  0.00     0.002 C 
HETATM    7  C7  UNL     1      -1.526  49.953 -25.273  1.00  0.00    -0.004 C 
HETATM    8  C8  UNL     1      -2.356  49.391 -26.439  1.00  0.00     0.010 C 
HETATM    9  C9  UNL     1      -3.323  48.294 -25.985  1.00  0.00     0.035 C 
HETATM   10  C10 UNL     1      -4.147  48.649 -24.765  1.00  0.00    -0.069 C 
HETATM   11  C11 UNL     1      -5.463  48.366 -24.739  1.00  0.00     0.030 C 
HETATM   12  C12 UNL     1      -6.281  48.552 -23.502  1.00  0.00     0.032 C 
HETATM   13  N1  UNL     1      -7.564  48.387 -23.402  1.00  0.00    -0.271 N 
ATOM     14  H1  UNL     1      -8.086  48.496 -22.532  1.00  0.00     0.194 HD
HETATM   15  C23 UNL     1      -5.538  48.903 -22.229  1.00  0.00     0.060 C 
HETATM   16  C24 UNL     1      -4.383  49.847 -22.531  1.00  0.00     0.020 C 
HETATM   17  C25 UNL     1      -3.394  49.283 -23.595  1.00  0.00    -0.016 C 
HETATM   18  C26 UNL     1      -2.542  48.183 -22.905  1.00  0.00     0.020 C 
HETATM   19  C27 UNL     1      -2.451  50.433 -24.125  1.00  0.00     0.002 C 
HETATM   20  C28 UNL     1      -3.210  51.728 -24.525  1.00  0.00     0.007 C 
HETATM   21  C29 UNL     1      -2.565  52.581 -25.621  1.00  0.00     0.014 C 
HETATM   22  C30 UNL     1      -1.029  52.527 -25.659  1.00  0.00     0.003 C 
HETATM   23  C31 UNL     1      -0.479  53.276 -24.414  1.00  0.00     0.020 C 
ENDROOT
BRANCH   3  24
HETATM   24  O1  UNL     1      -1.317  52.856 -28.091  1.00  0.00    -0.377 OA
HETATM   25  H2  UNL     1      -0.984  53.376 -28.843  1.00  0.00     0.211 HD
ENDBRANCH   3  24
BRANCH  13  26
HETATM   26  O2  UNL     1      -8.149  48.042 -24.627  1.00  0.00    -0.271 OA
BRANCH  26  27
HETATM   27  C13 UNL     1      -8.871  49.169 -25.117  1.00  0.00     0.303 C 
BRANCH  27  28
HETATM   28  C14 UNL     1      -9.752  48.701 -26.263  1.00  0.00     0.243 C 
HETATM   29  O3  UNL     1     -10.937  48.416 -26.130  1.00  0.00    -0.271 OA
HETATM   30  N2  UNL     1      -9.101  48.627 -27.482  1.00  0.00    -0.356 N 
HETATM   31  H16 UNL     1      -8.242  49.157 -27.573  1.00  0.00     0.162 HD
BRANCH  30  32
HETATM   32  C15 UNL     1      -9.852  48.371 -28.709  1.00  0.00     0.159 C 
BRANCH  32  33
HETATM   33  C16 UNL     1      -8.996  48.519 -29.990  1.00  0.00     0.170 C 
BRANCH  33  34
HETATM   34  O4  UNL     1      -8.957  49.911 -30.345  1.00  0.00    -0.389 OA
HETATM   35  H20 UNL     1      -8.485  50.346 -29.616  1.00  0.00     0.210 HD
ENDBRANCH  33  34
BRANCH  33  36
HETATM   36  C17 UNL     1      -9.556  47.695 -31.125  1.00  0.00    -0.013 A 
HETATM   37  C18 UNL     1      -8.823  47.358 -32.262  1.00  0.00     0.013 A 
HETATM   38  C19 UNL     1      -9.412  46.599 -33.272  1.00  0.00     0.025 A 
HETATM   39  C20 UNL     1     -10.731  46.185 -33.118  1.00  0.00     0.005 A 
HETATM   40  C21 UNL     1     -11.395  45.368 -34.185  1.00  0.00     0.068 C 
HETATM   41  N3  UNL     1     -11.469  46.504 -32.029  1.00  0.00    -0.369 N 
HETATM   42  C22 UNL     1     -10.868  47.236 -31.065  1.00  0.00     0.097 A 
ATOM     43  H3  UNL     1     -12.439  46.204 -31.940  1.00  0.00     0.165 HD
ENDBRANCH  33  36
ENDBRANCH  32  33
ENDBRANCH  30  32
ENDBRANCH  27  28
ENDBRANCH  26  27
ENDBRANCH  13  26
TORSDOF 8
ENDMDL
MODEL 3
REMARK minimizedAffinity -8.54529953
REMARK CNNscore 0.313334018
REMARK CNNaffinity 6.28517008
REMARK  8 active torsions:
REMARK  status: ('A' for Active; 'I' for Inactive)
REMARK    1  A    between atoms: C3_3  and  O1_4 
REMARK    2  A    between atoms: N1_14  and  O2_16 
REMARK    3  A    between atoms: O2_16  and  C13_17 
REMARK    4  A    between atoms: C13_17  and  C14_18 
REMARK       I    between atoms: C14_18  and  N2_20 
REMARK    5  A    between atoms: N2_20  and  C15_21 
REMARK    6  A    between atoms: C15_21  and  C16_22 
REMARK    7  A    between atoms: C16_22  and  O4_23 
REMARK    8  A    between atoms: C16_22  and  C17_24 
ROOT
HETATM    1  C1  UNL     1     -15.178  45.060 -25.129  1.00  0.00     0.015 C 
HETATM    2  C2  UNL     1     -14.334  44.716 -25.912  1.00  0.00    -0.078 C 
HETATM    3  C3  UNL     1     -13.282  44.280 -26.844  1.00  0.00     0.128 C 
HETATM    4  C4  UNL     1     -13.717  43.073 -27.684  1.00  0.00     0.052 C 
HETATM    5  C5  UNL     1     -12.634  43.016 -28.757  1.00  0.00     0.010 C 
HETATM    6  C6  UNL     1     -12.451  44.483 -29.163  1.00  0.00     0.002 C 
HETATM    7  C7  UNL     1     -11.119  44.848 -29.860  1.00  0.00    -0.004 C 
HETATM    8  C8  UNL     1      -9.839  44.221 -29.284  1.00  0.00     0.010 C 
HETATM    9  C9  UNL     1      -8.589  44.634 -30.066  1.00  0.00     0.035 C 
HETATM   10  C10 UNL     1      -8.475  46.122 -30.327  1.00  0.00    -0.069 C 
HETATM   11  C11 UNL     1      -7.295  46.745 -30.151  1.00  0.00     0.030 C 
HETATM   12  C12 UNL     1      -7.096  48.173 -30.546  1.00  0.00     0.032 C 
HETATM   13  N1  UNL     1      -6.028  48.881 -30.341  1.00  0.00    -0.271 N 
ATOM     14  H1  UNL     1      -5.917  49.847 -30.651  1.00  0.00     0.194 HD
HETATM   15  C23 UNL     1      -8.218  48.839 -31.315  1.00  0.00     0.060 C 
HETATM   16  C24 UNL     1      -9.570  48.373 -30.795  1.00  0.00     0.020 C 
HETATM   17  C25 UNL     1      -9.737  46.824 -30.831  1.00  0.00    -0.016 C 
HETATM   18  C26 UNL     1      -9.970  46.413 -32.310  1.00  0.00     0.020 C 
HETATM   19  C27 UNL     1     -10.978  46.389 -29.956  1.00  0.00     0.002 C 
HETATM   20  C28 UNL     1     -11.005  47.041 -28.546  1.00  0.00     0.007 C 
HETATM   21  C29 UNL     1     -11.693  46.235 -27.440  1.00  0.00     0.014 C 
HETATM   22  C30 UNL     1     -12.852  45.345 -27.917  1.00  0.00     0.003 C 
HETATM   23  C31 UNL     1     -14.039  46.260 -28.325  1.00  0.00     0.020 C 
ENDROOT
BRANCH   3  24
HETATM   24  O1  UNL     1     -12.154  43.859 -26.070  1.00  0.00    -0.377 OA
HETATM   25  H2  UNL     1     -12.503  43.340 -25.325  1.00  0.00     0.211 HD
ENDBRANCH   3  24
BRANCH  13  26
HETATM   26  O2  UNL     1      -5.046  48.164 -29.646  1.00  0.00    -0.271 OA
BRANCH  26  27
HETATM   27  C13 UNL     1      -5.449  48.049 -28.284  1.00  0.00     0.303 C 
BRANCH  27  28
HETATM   28  C14 UNL     1      -4.246  48.358 -27.409  1.00  0.00     0.243 C 
HETATM   29  O3  UNL     1      -3.089  48.314 -27.811  1.00  0.00    -0.271 OA
HETATM   30  N2  UNL     1      -4.568  48.700 -26.106  1.00  0.00    -0.356 N 
HETATM   31  H16 UNL     1      -5.518  49.009 -25.938  1.00  0.00     0.162 HD
BRANCH  30  32
HETATM   32  C15 UNL     1      -3.541  49.200 -25.195  1.00  0.00     0.159 C 
BRANCH  32  33
HETATM   33  C16 UNL     1      -3.420  50.742 -25.199  1.00  0.00     0.170 C 
BRANCH  33  34
HETATM   34  O4  UNL     1      -3.227  51.174 -26.555  1.00  0.00    -0.389 OA
HETATM   35  H20 UNL     1      -4.048  50.935 -27.017  1.00  0.00     0.210 HD
ENDBRANCH  33  34
BRANCH  33  36
HETATM   36  C17 UNL     1      -2.280  51.207 -24.324  1.00  0.00    -0.013 A 
HETATM   37  C18 UNL     1      -1.510  52.336 -24.604  1.00  0.00     0.013 A 
HETATM   38  C19 UNL     1      -0.469  52.698 -23.752  1.00  0.00     0.025 A 
HETATM   39  C20 UNL     1      -0.221  51.920 -22.625  1.00  0.00     0.005 A 
HETATM   40  C21 UNL     1       0.891  52.282 -21.689  1.00  0.00     0.068 C 
HETATM   41  N3  UNL     1      -0.947  50.816 -22.333  1.00  0.00    -0.369 N 
HETATM   42  C22 UNL     1      -1.954  50.494 -23.175  1.00  0.00     0.097 A 
ATOM     43  H3  UNL     1      -0.741  50.250 -21.511  1.00  0.00     0.165 HD
ENDBRANCH  33  36
ENDBRANCH  32  33
ENDBRANCH  30  32
ENDBRANCH  27  28
ENDBRANCH  26  27
ENDBRANCH  13  26
TORSDOF 8
ENDMDL
MODEL 4
REMARK minimizedAffinity -7.49200249
REMARK CNNscore 0.296596885
REMARK CNNaffinity 6.10210752
REMARK  8 active torsions:
REMARK  status: ('A' for Active; 'I' for Inactive)
REMARK    1  A    between atoms: C3_3  and  O1_4 
REMARK    2  A    between atoms: N1_14  and  O2_16 
REMARK    3  A    between atoms: O2_16  and  C13_17 
REMARK    4  A    between atoms: C13_17  and  C14_18 
REMARK       I    between atoms: C14_18  and  N2_20 
REMARK    5  A    between atoms: N2_20  and  C15_21 
REMARK    6  A    between atoms: C15_21  and  C16_22 
REMARK    7  A    between atoms: C16_22  and  O4_23 
REMARK    8  A    between atoms: C16_22  and  C17_24 
ROOT
HETATM    1  C1  UNL     1       0.289  51.678 -21.431  1.00  0.00     0.015 C 
HETATM    2  C2  UNL     1      -0.732  51.213 -21.859  1.00  0.00    -0.078 C 
HETATM    3  C3  UNL     1      -1.997  50.675 -22.384  1.00  0.00     0.128 C 
HETATM    4  C4  UNL     1      -1.905  50.328 -23.874  1.00  0.00     0.052 C 
HETATM    5  C5  UNL     1      -3.177  49.516 -24.100  1.00  0.00     0.010 C 
HETATM    6  C6  UNL     1      -3.237  48.594 -22.876  1.00  0.00     0.002 C 
HETATM    7  C7  UNL     1      -4.619  47.991 -22.531  1.00  0.00    -0.004 C 
HETATM    8  C8  UNL     1      -5.832  48.930 -22.633  1.00  0.00     0.010 C 
HETATM    9  C9  UNL     1      -7.145  48.220 -22.291  1.00  0.00     0.035 C 
HETATM   10  C10 UNL     1      -7.106  47.412 -21.011  1.00  0.00    -0.069 C 
HETATM   11  C11 UNL     1      -8.132  47.481 -20.142  1.00  0.00     0.030 C 
HETATM   12  C12 UNL     1      -8.211  46.586 -18.948  1.00  0.00     0.032 C 
HETATM   13  N1  UNL     1      -9.112  46.634 -18.015  1.00  0.00    -0.271 N 
ATOM     14  H1  UNL     1      -9.150  45.987 -17.227  1.00  0.00     0.194 HD
HETATM   15  C23 UNL     1      -7.185  45.477 -18.848  1.00  0.00     0.060 C 
HETATM   16  C24 UNL     1      -5.832  45.956 -19.355  1.00  0.00     0.020 C 
HETATM   17  C25 UNL     1      -5.886  46.512 -20.810  1.00  0.00    -0.016 C 
HETATM   18  C26 UNL     1      -6.009  45.296 -21.770  1.00  0.00     0.020 C 
HETATM   19  C27 UNL     1      -4.567  47.316 -21.136  1.00  0.00     0.002 C 
HETATM   20  C28 UNL     1      -4.172  48.338 -20.035  1.00  0.00     0.007 C 
HETATM   21  C29 UNL     1      -3.394  49.571 -20.503  1.00  0.00     0.014 C 
HETATM   22  C30 UNL     1      -2.484  49.336 -21.720  1.00  0.00     0.003 C 
HETATM   23  C31 UNL     1      -1.289  48.449 -21.275  1.00  0.00     0.020 C 
ENDROOT
BRANCH   3  24
HETATM   24  O1  UNL     1      -2.996  51.693 -22.257  1.00  0.00    -0.377 OA
HETATM   25  H2  UNL     1      -2.579  52.529 -22.528  1.00  0.00     0.211 HD
ENDBRANCH   3  24
BRANCH  13  26
HETATM   26  O2  UNL     1     -10.024  47.678 -18.215  1.00  0.00    -0.271 OA
BRANCH  26  27
HETATM   27  C13 UNL     1     -11.211  47.388 -17.483  1.00  0.00     0.303 C 
BRANCH  27  28
HETATM   28  C14 UNL     1     -12.158  46.633 -18.400  1.00  0.00     0.243 C 
HETATM   29  O3  UNL     1     -12.879  45.717 -18.019  1.00  0.00    -0.271 OA
HETATM   30  N2  UNL     1     -12.141  47.070 -19.714  1.00  0.00    -0.356 N 
HETATM   31  H16 UNL     1     -11.769  47.997 -19.880  1.00  0.00     0.162 HD
BRANCH  30  32
HETATM   32  C15 UNL     1     -13.122  46.570 -20.674  1.00  0.00     0.159 C 
BRANCH  32  33
HETATM   33  C16 UNL     1     -13.866  47.698 -21.428  1.00  0.00     0.170 C 
BRANCH  33  34
HETATM   34  O4  UNL     1     -14.135  48.759 -20.498  1.00  0.00    -0.389 OA
HETATM   35  H20 UNL     1     -13.262  49.096 -20.237  1.00  0.00     0.210 HD
ENDBRANCH  33  34
BRANCH  33  36
HETATM   36  C17 UNL     1     -15.148  47.193 -22.047  1.00  0.00    -0.013 A 
HETATM   37  C18 UNL     1     -15.401  47.221 -23.418  1.00  0.00     0.013 A 
HETATM   38  C19 UNL     1     -16.612  46.744 -23.914  1.00  0.00     0.025 A 
HETATM   39  C20 UNL     1     -17.551  46.238 -23.020  1.00  0.00     0.005 A 
HETATM   40  C21 UNL     1     -18.864  45.717 -23.520  1.00  0.00     0.068 C 
HETATM   41  N3  UNL     1     -17.337  46.206 -21.685  1.00  0.00    -0.369 N 
HETATM   42  C22 UNL     1     -16.150  46.671 -21.235  1.00  0.00     0.097 A 
ATOM     43  H3  UNL     1     -18.043  45.846 -21.043  1.00  0.00     0.165 HD
ENDBRANCH  33  36
ENDBRANCH  32  33
ENDBRANCH  30  32
ENDBRANCH  27  28
ENDBRANCH  26  27
ENDBRANCH  13  26
TORSDOF 8
ENDMDL
MODEL 5
REMARK minimizedAffinity -8.71896267
REMARK CNNscore 0.289710641
REMARK CNNaffinity 6.27132559
REMARK  8 active torsions:
REMARK  status: ('A' for Active; 'I' for Inactive)
REMARK    1  A    between atoms: C3_3  and  O1_4 
REMARK    2  A    between atoms: N1_14  and  O2_16 
REMARK    3  A    between atoms: O2_16  and  C13_17 
REMARK    4  A    between atoms: C13_17  and  C14_18 
REMARK       I    between atoms: C14_18  and  N2_20 
REMARK    5  A    between atoms: N2_20  and  C15_21 
REMARK    6  A    between atoms: C15_21  and  C16_22 
REMARK    7  A    between atoms: C16_22  and  O4_23 
REMARK    8  A    between atoms: C16_22  and  C17_24 
ROOT
HETATM    1  C1  UNL     1      -0.165  54.028 -26.168  1.00  0.00     0.015 C 
HETATM    2  C2  UNL     1      -0.856  53.053 -26.053  1.00  0.00    -0.078 C 
HETATM    3  C3  UNL     1      -1.729  51.875 -25.926  1.00  0.00     0.128 C 
HETATM    4  C4  UNL     1      -1.359  50.770 -26.922  1.00  0.00     0.052 C 
HETATM    5  C5  UNL     1      -2.155  49.579 -26.398  1.00  0.00     0.010 C 
HETATM    6  C6  UNL     1      -1.947  49.646 -24.880  1.00  0.00     0.002 C 
HETATM    7  C7  UNL     1      -2.984  48.902 -24.006  1.00  0.00    -0.004 C 
HETATM    8  C8  UNL     1      -4.460  49.034 -24.415  1.00  0.00     0.010 C 
HETATM    9  C9  UNL     1      -5.390  48.240 -23.493  1.00  0.00     0.035 C 
HETATM   10  C10 UNL     1      -5.145  48.460 -22.015  1.00  0.00    -0.069 C 
HETATM   11  C11 UNL     1      -6.187  48.638 -21.182  1.00  0.00     0.030 C 
HETATM   12  C12 UNL     1      -6.005  48.699 -19.699  1.00  0.00     0.032 C 
HETATM   13  N1  UNL     1      -6.931  48.950 -18.825  1.00  0.00    -0.271 N 
ATOM     14  H1  UNL     1      -6.775  48.956 -17.817  1.00  0.00     0.194 HD
HETATM   15  C23 UNL     1      -4.627  48.376 -19.159  1.00  0.00     0.060 C 
HETATM   16  C24 UNL     1      -3.551  48.925 -20.084  1.00  0.00     0.020 C 
HETATM   17  C25 UNL     1      -3.688  48.417 -21.551  1.00  0.00    -0.016 C 
HETATM   18  C26 UNL     1      -3.206  46.941 -21.582  1.00  0.00     0.020 C 
HETATM   19  C27 UNL     1      -2.793  49.289 -22.516  1.00  0.00     0.002 C 
HETATM   20  C28 UNL     1      -2.964  50.819 -22.310  1.00  0.00     0.007 C 
HETATM   21  C29 UNL     1      -2.722  51.700 -23.540  1.00  0.00     0.014 C 
HETATM   22  C30 UNL     1      -1.683  51.151 -24.532  1.00  0.00     0.003 C 
HETATM   23  C31 UNL     1      -0.277  51.255 -23.879  1.00  0.00     0.020 C 
ENDROOT
BRANCH   3  24
HETATM   24  O1  UNL     1      -3.066  52.282 -26.238  1.00  0.00    -0.377 OA
HETATM   25  H2  UNL     1      -3.007  52.864 -27.016  1.00  0.00     0.211 HD
ENDBRANCH   3  24
BRANCH  13  26
HETATM   26  O2  UNL     1      -8.168  49.211 -19.427  1.00  0.00    -0.271 OA
BRANCH  26  27
HETATM   27  C13 UNL     1      -9.198  48.718 -18.576  1.00  0.00     0.303 C 
BRANCH  27  28
HETATM   28  C14 UNL     1     -10.188  47.947 -19.433  1.00  0.00     0.243 C 
HETATM   29  O3  UNL     1      -9.862  47.286 -20.413  1.00  0.00    -0.271 OA
HETATM   30  N2  UNL     1     -11.503  48.051 -19.010  1.00  0.00    -0.356 N 
HETATM   31  H16 UNL     1     -11.651  48.343 -18.051  1.00  0.00     0.162 HD
BRANCH  30  32
HETATM   32  C15 UNL     1     -12.544  47.225 -19.616  1.00  0.00     0.159 C 
BRANCH  32  33
HETATM   33  C16 UNL     1     -13.500  48.024 -20.534  1.00  0.00     0.170 C 
BRANCH  33  34
HETATM   34  O4  UNL     1     -13.428  49.409 -20.159  1.00  0.00    -0.389 OA
HETATM   35  H20 UNL     1     -12.518  49.681 -20.363  1.00  0.00     0.210 HD
ENDBRANCH  33  34
BRANCH  33  36
HETATM   36  C17 UNL     1     -14.918  47.516 -20.427  1.00  0.00    -0.013 A 
HETATM   37  C18 UNL     1     -15.659  47.551 -19.246  1.00  0.00     0.013 A 
HETATM   38  C19 UNL     1     -16.961  47.056 -19.224  1.00  0.00     0.025 A 
HETATM   39  C20 UNL     1     -17.502  46.537 -20.396  1.00  0.00     0.005 A 
HETATM   40  C21 UNL     1     -18.899  45.996 -20.408  1.00  0.00     0.068 C 
HETATM   41  N3  UNL     1     -16.804  46.483 -21.554  1.00  0.00    -0.369 N 
HETATM   42  C22 UNL     1     -15.546  46.976 -21.545  1.00  0.00     0.097 A 
ATOM     43  H3  UNL     1     -17.212  46.086 -22.401  1.00  0.00     0.165 HD
ENDBRANCH  33  36
ENDBRANCH  32  33
ENDBRANCH  30  32
ENDBRANCH  27  28
ENDBRANCH  26  27
ENDBRANCH  13  26
TORSDOF 8
ENDMDL
MODEL 6
REMARK minimizedAffinity -9.93523216
REMARK CNNscore 0.275099576
REMARK CNNaffinity 6.8111434
REMARK  8 active torsions:
REMARK  status: ('A' for Active; 'I' for Inactive)
REMARK    1  A    between atoms: C3_3  and  O1_4 
REMARK    2  A    between atoms: N1_14  and  O2_16 
REMARK    3  A    between atoms: O2_16  and  C13_17 
REMARK    4  A    between atoms: C13_17  and  C14_18 
REMARK       I    between atoms: C14_18  and  N2_20 
REMARK    5  A    between atoms: N2_20  and  C15_21 
REMARK    6  A    between atoms: C15_21  and  C16_22 
REMARK    7  A    between atoms: C16_22  and  O4_23 
REMARK    8  A    between atoms: C16_22  and  C17_24 
ROOT
HETATM    1  C1  UNL     1       0.081  55.743 -26.831  1.00  0.00     0.015 C 
HETATM    2  C2  UNL     1      -0.186  54.573 -26.873  1.00  0.00    -0.078 C 
HETATM    3  C3  UNL     1      -0.529  53.144 -26.955  1.00  0.00     0.128 C 
HETATM    4  C4  UNL     1       0.698  52.269 -27.233  1.00  0.00     0.052 C 
HETATM    5  C5  UNL     1       0.168  50.865 -26.957  1.00  0.00     0.010 C 
HETATM    6  C6  UNL     1      -0.649  51.036 -25.670  1.00  0.00     0.002 C 
HETATM    7  C7  UNL     1      -1.710  49.949 -25.375  1.00  0.00    -0.004 C 
HETATM    8  C8  UNL     1      -2.557  49.463 -26.563  1.00  0.00     0.010 C 
HETATM    9  C9  UNL     1      -3.554  48.374 -26.156  1.00  0.00     0.035 C 
HETATM   10  C10 UNL     1      -4.367  48.698 -24.920  1.00  0.00    -0.069 C 
HETATM   11  C11 UNL     1      -5.690  48.451 -24.904  1.00  0.00     0.030 C 
HETATM   12  C12 UNL     1      -6.501  48.605 -23.658  1.00  0.00     0.032 C 
HETATM   13  N1  UNL     1      -7.789  48.472 -23.563  1.00  0.00    -0.271 N 
ATOM     14  H1  UNL     1      -8.307  48.557 -22.688  1.00  0.00     0.194 HD
HETATM   15  C23 UNL     1      -5.747  48.877 -22.373  1.00  0.00     0.060 C 
HETATM   16  C24 UNL     1      -4.567  49.802 -22.634  1.00  0.00     0.020 C 
HETATM   17  C25 UNL     1      -3.595  49.258 -23.725  1.00  0.00    -0.016 C 
HETATM   18  C26 UNL     1      -2.774  48.105 -23.086  1.00  0.00     0.020 C 
HETATM   19  C27 UNL     1      -2.620  50.404 -24.205  1.00  0.00     0.002 C 
HETATM   20  C28 UNL     1      -3.343  51.736 -24.545  1.00  0.00     0.007 C 
HETATM   21  C29 UNL     1      -2.675  52.618 -25.603  1.00  0.00     0.014 C 
HETATM   22  C30 UNL     1      -1.141  52.523 -25.647  1.00  0.00     0.003 C 
HETATM   23  C31 UNL     1      -0.569  53.200 -24.370  1.00  0.00     0.020 C 
ENDROOT
BRANCH   3  24
HETATM   24  O1  UNL     1      -1.421  52.968 -28.061  1.00  0.00    -0.377 OA
HETATM   25  H2  UNL     1      -1.074  53.511 -28.790  1.00  0.00     0.211 HD
ENDBRANCH   3  24
BRANCH  13  26
HETATM   26  O2  UNL     1      -8.383  48.198 -24.801  1.00  0.00    -0.271 OA
BRANCH  26  27
HETATM   27  C13 UNL     1      -7.434  47.521 -25.619  1.00  0.00     0.303 C 
BRANCH  27  28
HETATM   28  C14 UNL     1      -7.934  47.562 -27.054  1.00  0.00     0.243 C 
HETATM   29  O3  UNL     1      -9.106  47.379 -27.366  1.00  0.00    -0.271 OA
HETATM   30  N2  UNL     1      -6.948  47.827 -27.989  1.00  0.00    -0.356 N 
HETATM   31  H16 UNL     1      -6.098  48.260 -27.645  1.00  0.00     0.162 HD
BRANCH  30  32
HETATM   32  C15 UNL     1      -7.298  48.079 -29.384  1.00  0.00     0.159 C 
BRANCH  32  33
HETATM   33  C16 UNL     1      -6.282  47.480 -30.386  1.00  0.00     0.170 C 
BRANCH  33  34
HETATM   34  O4  UNL     1      -5.096  48.290 -30.361  1.00  0.00    -0.389 OA
HETATM   35  H20 UNL     1      -4.734  48.184 -29.466  1.00  0.00     0.210 HD
ENDBRANCH  33  34
BRANCH  33  36
HETATM   36  C17 UNL     1      -6.856  47.417 -31.781  1.00  0.00    -0.013 A 
HETATM   37  C18 UNL     1      -8.214  47.242 -32.045  1.00  0.00     0.013 A 
HETATM   38  C19 UNL     1      -8.668  47.187 -33.361  1.00  0.00     0.025 A 
HETATM   39  C20 UNL     1      -7.746  47.316 -34.395  1.00  0.00     0.005 A 
HETATM   40  C21 UNL     1      -8.200  47.261 -35.822  1.00  0.00     0.068 C 
HETATM   41  N3  UNL     1      -6.422  47.479 -34.170  1.00  0.00    -0.369 N 
HETATM   42  C22 UNL     1      -6.014  47.535 -32.882  1.00  0.00     0.097 A 
ATOM     43  H3  UNL     1      -5.759  47.558 -34.940  1.00  0.00     0.165 HD
ENDBRANCH  33  36
ENDBRANCH  32  33
ENDBRANCH  30  32
ENDBRANCH  27  28
ENDBRANCH  26  27
ENDBRANCH  13  26
TORSDOF 8
ENDMDL
MODEL 7
REMARK minimizedAffinity -7.56794548
REMARK CNNscore 0.256420016
REMARK CNNaffinity 5.75475311
REMARK  8 active torsions:
REMARK  status: ('A' for Active; 'I' for Inactive)
REMARK    1  A    between atoms: C3_3  and  O1_4 
REMARK    2  A    between atoms: N1_14  and  O2_16 
REMARK    3  A    between atoms: O2_16  and  C13_17 
REMARK    4  A    between atoms: C13_17  and  C14_18 
REMARK       I    between atoms: C14_18  and  N2_20 
REMARK    5  A    between atoms: N2_20  and  C15_21 
REMARK    6  A    between atoms: C15_21  and  C16_22 
REMARK    7  A    between atoms: C16_22  and  O4_23 
REMARK    8  A    between atoms: C16_22  and  C17_24 
ROOT
HETATM    1  C1  UNL     1      -2.562  52.593 -23.774  1.00  0.00     0.015 C 
HETATM    2  C2  UNL     1      -3.037  51.526 -23.497  1.00  0.00    -0.078 C 
HETATM    3  C3  UNL     1      -3.631  50.215 -23.190  1.00  0.00     0.128 C 
HETATM    4  C4  UNL     1      -2.575  49.109 -23.086  1.00  0.00     0.052 C 
HETATM    5  C5  UNL     1      -3.362  47.962 -22.462  1.00  0.00     0.010 C 
HETATM    6  C6  UNL     1      -4.183  48.645 -21.362  1.00  0.00     0.002 C 
HETATM    7  C7  UNL     1      -5.435  47.887 -20.861  1.00  0.00    -0.004 C 
HETATM    8  C8  UNL     1      -6.310  47.207 -21.927  1.00  0.00     0.010 C 
HETATM    9  C9  UNL     1      -7.504  46.471 -21.314  1.00  0.00     0.035 C 
HETATM   10  C10 UNL     1      -8.291  47.282 -20.306  1.00  0.00    -0.069 C 
HETATM   11  C11 UNL     1      -9.637  47.270 -20.340  1.00  0.00     0.030 C 
HETATM   12  C12 UNL     1     -10.454  47.924 -19.273  1.00  0.00     0.032 C 
HETATM   13  N1  UNL     1     -11.747  48.037 -19.262  1.00  0.00    -0.271 N 
ATOM     14  H1  UNL     1     -12.274  48.467 -18.501  1.00  0.00     0.194 HD
HETATM   15  C23 UNL     1      -9.713  48.448 -18.059  1.00  0.00     0.060 C 
HETATM   16  C24 UNL     1      -8.375  49.045 -18.470  1.00  0.00     0.020 C 
HETATM   17  C25 UNL     1      -7.477  48.045 -19.260  1.00  0.00    -0.016 C 
HETATM   18  C26 UNL     1      -6.905  47.023 -18.240  1.00  0.00     0.020 C 
HETATM   19  C27 UNL     1      -6.292  48.817 -19.963  1.00  0.00     0.002 C 
HETATM   20  C28 UNL     1      -6.746  50.081 -20.741  1.00  0.00     0.007 C 
HETATM   21  C29 UNL     1      -5.887  50.480 -21.945  1.00  0.00     0.014 C 
HETATM   22  C30 UNL     1      -4.396  50.129 -21.819  1.00  0.00     0.003 C 
HETATM   23  C31 UNL     1      -3.760  51.058 -20.749  1.00  0.00     0.020 C 
ENDROOT
BRANCH   3  24
HETATM   24  O1  UNL     1      -4.497  49.859 -24.273  1.00  0.00    -0.377 OA
HETATM   25  H2  UNL     1      -4.029  50.091 -25.094  1.00  0.00     0.211 HD
ENDBRANCH   3  24
BRANCH  13  26
HETATM   26  O2  UNL     1     -12.333  47.502 -20.415  1.00  0.00    -0.271 OA
BRANCH  26  27
HETATM   27  C13 UNL     1     -13.682  47.956 -20.489  1.00  0.00     0.303 C 
BRANCH  27  28
HETATM   28  C14 UNL     1     -14.302  47.384 -21.753  1.00  0.00     0.243 C 
HETATM   29  O3  UNL     1     -13.816  47.529 -22.869  1.00  0.00    -0.271 OA
HETATM   30  N2  UNL     1     -15.473  46.677 -21.538  1.00  0.00    -0.356 N 
HETATM   31  H16 UNL     1     -15.638  46.346 -20.594  1.00  0.00     0.162 HD
BRANCH  30  32
HETATM   32  C15 UNL     1     -16.089  45.915 -22.621  1.00  0.00     0.159 C 
BRANCH  32  33
HETATM   33  C16 UNL     1     -17.517  46.396 -22.970  1.00  0.00     0.170 C 
BRANCH  33  34
HETATM   34  O4  UNL     1     -18.310  46.357 -21.773  1.00  0.00    -0.389 OA
HETATM   35  H20 UNL     1     -17.907  47.013 -21.180  1.00  0.00     0.210 HD
ENDBRANCH  33  34
BRANCH  33  36
HETATM   36  C17 UNL     1     -18.138  45.541 -24.049  1.00  0.00    -0.013 A 
HETATM   37  C18 UNL     1     -19.040  46.032 -24.993  1.00  0.00     0.013 A 
HETATM   38  C19 UNL     1     -19.578  45.178 -25.954  1.00  0.00     0.025 A 
HETATM   39  C20 UNL     1     -19.193  43.841 -25.954  1.00  0.00     0.005 A 
HETATM   40  C21 UNL     1     -19.752  42.895 -26.974  1.00  0.00     0.068 C 
HETATM   41  N3  UNL     1     -18.327  43.335 -25.047  1.00  0.00    -0.369 N 
HETATM   42  C22 UNL     1     -17.818  44.190 -24.131  1.00  0.00     0.097 A 
ATOM     43  H3  UNL     1     -18.068  42.349 -25.053  1.00  0.00     0.165 HD
ENDBRANCH  33  36
ENDBRANCH  32  33
ENDBRANCH  30  32
ENDBRANCH  27  28
ENDBRANCH  26  27
ENDBRANCH  13  26
TORSDOF 8
ENDMDL
MODEL 8
REMARK minimizedAffinity -8.44938374
REMARK CNNscore 0.249890059
REMARK CNNaffinity 5.93417358
REMARK  8 active torsions:
REMARK  status: ('A' for Active; 'I' for Inactive)
REMARK    1  A    between atoms: C3_3  and  O1_4 
REMARK    2  A    between atoms: N1_14  and  O2_16 
REMARK    3  A    between atoms: O2_16  and  C13_17 
REMARK    4  A    between atoms: C13_17  and  C14_18 
REMARK       I    between atoms: C14_18  and  N2_20 
REMARK    5  A    between atoms: N2_20  and  C15_21 
REMARK    6  A    between atoms: C15_21  and  C16_22 
REMARK    7  A    between atoms: C16_22  and  O4_23 
REMARK    8  A    between atoms: C16_22  and  C17_24 
ROOT
HETATM    1  C1  UNL     1      -0.753  53.027 -24.490  1.00  0.00     0.015 C 
HETATM    2  C2  UNL     1      -1.549  52.134 -24.599  1.00  0.00    -0.078 C 
HETATM    3  C3  UNL     1      -2.545  51.062 -24.748  1.00  0.00     0.128 C 
HETATM    4  C4  UNL     1      -2.137  50.035 -25.810  1.00  0.00     0.052 C 
HETATM    5  C5  UNL     1      -3.120  48.897 -25.561  1.00  0.00     0.010 C 
HETATM    6  C6  UNL     1      -3.148  48.774 -24.032  1.00  0.00     0.002 C 
HETATM    7  C7  UNL     1      -4.378  48.068 -23.416  1.00  0.00    -0.004 C 
HETATM    8  C8  UNL     1      -5.752  48.417 -24.014  1.00  0.00     0.010 C 
HETATM    9  C9  UNL     1      -6.889  47.643 -23.343  1.00  0.00     0.035 C 
HETATM   10  C10 UNL     1      -6.859  47.671 -21.828  1.00  0.00    -0.069 C 
HETATM   11  C11 UNL     1      -7.996  47.879 -21.139  1.00  0.00     0.030 C 
HETATM   12  C12 UNL     1      -8.043  47.758 -19.650  1.00  0.00     0.032 C 
HETATM   13  N1  UNL     1      -9.065  48.020 -18.894  1.00  0.00    -0.271 N 
ATOM     14  H1  UNL     1      -9.069  47.898 -17.880  1.00  0.00     0.194 HD
HETATM   15  C23 UNL     1      -6.807  47.216 -18.962  1.00  0.00     0.060 C 
HETATM   16  C24 UNL     1      -5.549  47.731 -19.646  1.00  0.00     0.020 C 
HETATM   17  C25 UNL     1      -5.505  47.405 -21.169  1.00  0.00    -0.016 C 
HETATM   18  C26 UNL     1      -5.175  45.894 -21.315  1.00  0.00     0.020 C 
HETATM   19  C27 UNL     1      -4.386  48.265 -21.878  1.00  0.00     0.002 C 
HETATM   20  C28 UNL     1      -4.432  49.773 -21.509  1.00  0.00     0.007 C 
HETATM   21  C29 UNL     1      -3.913  50.747 -22.571  1.00  0.00     0.014 C 
HETATM   22  C30 UNL     1      -2.791  50.190 -23.463  1.00  0.00     0.003 C 
HETATM   23  C31 UNL     1      -1.502  50.055 -22.607  1.00  0.00     0.020 C 
ENDROOT
BRANCH   3  24
HETATM   24  O1  UNL     1      -3.768  51.656 -25.196  1.00  0.00    -0.377 OA
HETATM   25  H2  UNL     1      -3.530  52.308 -25.877  1.00  0.00     0.211 HD
ENDBRANCH   3  24
BRANCH  13  26
HETATM   26  O2  UNL     1     -10.159  48.490 -19.630  1.00  0.00    -0.271 OA
BRANCH  26  27
HETATM   27  C13 UNL     1     -11.197  47.515 -19.569  1.00  0.00     0.303 C 
BRANCH  27  28
HETATM   28  C14 UNL     1     -12.529  48.246 -19.541  1.00  0.00     0.243 C 
HETATM   29  O3  UNL     1     -12.771  49.234 -20.226  1.00  0.00    -0.271 OA
HETATM   30  N2  UNL     1     -13.457  47.698 -18.672  1.00  0.00    -0.356 N 
HETATM   31  H16 UNL     1     -13.301  46.738 -18.386  1.00  0.00     0.162 HD
BRANCH  30  32
HETATM   32  C15 UNL     1     -14.838  48.172 -18.666  1.00  0.00     0.159 C 
BRANCH  32  33
HETATM   33  C16 UNL     1     -15.869  47.045 -18.421  1.00  0.00     0.170 C 
BRANCH  33  34
HETATM   34  O4  UNL     1     -15.153  45.851 -18.068  1.00  0.00    -0.389 OA
HETATM   35  H20 UNL     1     -14.721  46.053 -17.222  1.00  0.00     0.210 HD
ENDBRANCH  33  34
BRANCH  33  36
HETATM   36  C17 UNL     1     -16.730  46.812 -19.639  1.00  0.00    -0.013 A 
HETATM   37  C18 UNL     1     -18.122  46.742 -19.593  1.00  0.00     0.013 A 
HETATM   38  C19 UNL     1     -18.848  46.516 -20.761  1.00  0.00     0.025 A 
HETATM   39  C20 UNL     1     -18.161  46.369 -21.961  1.00  0.00     0.005 A 
HETATM   40  C21 UNL     1     -18.911  46.124 -23.235  1.00  0.00     0.068 C 
HETATM   41  N3  UNL     1     -16.811  46.424 -22.035  1.00  0.00    -0.369 N 
HETATM   42  C22 UNL     1     -16.135  46.650 -20.886  1.00  0.00     0.097 A 
ATOM     43  H3  UNL     1     -16.323  46.299 -22.921  1.00  0.00     0.165 HD
ENDBRANCH  33  36
ENDBRANCH  32  33
ENDBRANCH  30  32
ENDBRANCH  27  28
ENDBRANCH  26  27
ENDBRANCH  13  26
TORSDOF 8
ENDMDL
MODEL 9
REMARK minimizedAffinity -7.23520374
REMARK CNNscore 0.240741938
REMARK CNNaffinity 5.1661191
REMARK  8 active torsions:
REMARK  status: ('A' for Active; 'I' for Inactive)
REMARK    1  A    between atoms: C3_3  and  O1_4 
REMARK    2  A    between atoms: N1_14  and  O2_16 
REMARK    3  A    between atoms: O2_16  and  C13_17 
REMARK    4  A    between atoms: C13_17  and  C14_18 
REMARK       I    between atoms: C14_18  and  N2_20 
REMARK    5  A    between atoms: N2_20  and  C15_21 
REMARK    6  A    between atoms: C15_21  and  C16_22 
REMARK    7  A    between atoms: C16_22  and  O4_23 
REMARK    8  A    between atoms: C16_22  and  C17_24 
ROOT
HETATM    1  C1  UNL     1      -5.049  48.117 -28.847  1.00  0.00     0.015 C 
HETATM    2  C2  UNL     1      -6.223  48.042 -29.090  1.00  0.00    -0.078 C 
HETATM    3  C3  UNL     1      -7.664  47.985 -29.381  1.00  0.00     0.128 C 
HETATM    4  C4  UNL     1      -7.949  47.898 -30.885  1.00  0.00     0.052 C 
HETATM    5  C5  UNL     1      -9.429  47.532 -30.917  1.00  0.00     0.010 C 
HETATM    6  C6  UNL     1      -9.558  46.460 -29.828  1.00  0.00     0.002 C 
HETATM    7  C7  UNL     1     -10.976  46.219 -29.258  1.00  0.00    -0.004 C 
HETATM    8  C8  UNL     1     -11.833  47.464 -28.978  1.00  0.00     0.010 C 
HETATM    9  C9  UNL     1     -13.220  47.103 -28.439  1.00  0.00     0.035 C 
HETATM   10  C10 UNL     1     -13.211  46.101 -27.303  1.00  0.00    -0.069 C 
HETATM   11  C11 UNL     1     -13.995  46.300 -26.227  1.00  0.00     0.030 C 
HETATM   12  C12 UNL     1     -14.138  45.265 -25.159  1.00  0.00     0.032 C 
HETATM   13  N1  UNL     1     -14.800  45.397 -24.050  1.00  0.00    -0.271 N 
ATOM     14  H1  UNL     1     -14.900  44.657 -23.355  1.00  0.00     0.194 HD
HETATM   15  C23 UNL     1     -13.508  43.912 -25.420  1.00  0.00     0.060 C 
HETATM   16  C24 UNL     1     -12.185  44.074 -26.153  1.00  0.00     0.020 C 
HETATM   17  C25 UNL     1     -12.318  44.873 -27.485  1.00  0.00    -0.016 C 
HETATM   18  C26 UNL     1     -12.981  43.934 -28.529  1.00  0.00     0.020 C 
HETATM   19  C27 UNL     1     -10.893  45.318 -27.998  1.00  0.00     0.002 C 
HETATM   20  C28 UNL     1     -10.012  45.974 -26.900  1.00  0.00     0.007 C 
HETATM   21  C29 UNL     1      -8.982  47.001 -27.380  1.00  0.00     0.014 C 
HETATM   22  C30 UNL     1      -8.420  46.740 -28.787  1.00  0.00     0.003 C 
HETATM   23  C31 UNL     1      -7.503  45.488 -28.726  1.00  0.00     0.020 C 
ENDROOT
BRANCH   3  24
HETATM   24  O1  UNL     1      -8.257  49.203 -28.918  1.00  0.00    -0.377 OA
HETATM   25  H2  UNL     1      -7.654  49.923 -29.174  1.00  0.00     0.211 HD
ENDBRANCH   3  24
BRANCH  13  26
HETATM   26  O2  UNL     1     -15.361  46.674 -23.919  1.00  0.00    -0.271 OA
BRANCH  26  27
HETATM   27  C13 UNL     1     -15.937  46.783 -22.621  1.00  0.00     0.303 C 
BRANCH  27  28
HETATM   28  C14 UNL     1     -14.870  47.308 -21.675  1.00  0.00     0.243 C 
HETATM   29  O3  UNL     1     -13.726  47.573 -22.028  1.00  0.00    -0.271 OA
HETATM   30  N2  UNL     1     -15.301  47.467 -20.369  1.00  0.00    -0.356 N 
HETATM   31  H16 UNL     1     -16.303  47.525 -20.224  1.00  0.00     0.162 HD
BRANCH  30  32
HETATM   32  C15 UNL     1     -14.453  48.132 -19.384  1.00  0.00     0.159 C 
BRANCH  32  33
HETATM   33  C16 UNL     1     -14.858  47.825 -17.922  1.00  0.00     0.170 C 
BRANCH  33  34
HETATM   34  O4  UNL     1     -15.123  49.071 -17.259  1.00  0.00    -0.389 OA
HETATM   35  H20 UNL     1     -15.897  49.442 -17.714  1.00  0.00     0.210 HD
ENDBRANCH  33  34
BRANCH  33  36
HETATM   36  C17 UNL     1     -13.777  47.056 -17.201  1.00  0.00    -0.013 A 
HETATM   37  C18 UNL     1     -12.415  47.228 -17.453  1.00  0.00     0.013 A 
HETATM   38  C19 UNL     1     -11.476  46.475 -16.751  1.00  0.00     0.025 A 
HETATM   39  C20 UNL     1     -11.922  45.564 -15.799  1.00  0.00     0.005 A 
HETATM   40  C21 UNL     1     -10.938  44.739 -15.026  1.00  0.00     0.068 C 
HETATM   41  N3  UNL     1     -13.235  45.371 -15.539  1.00  0.00    -0.369 N 
HETATM   42  C22 UNL     1     -14.122  46.120 -16.232  1.00  0.00     0.097 A 
ATOM     43  H3  UNL     1     -13.544  44.688 -14.847  1.00  0.00     0.165 HD
ENDBRANCH  33  36
ENDBRANCH  32  33
ENDBRANCH  30  32
ENDBRANCH  27  28
ENDBRANCH  26  27
ENDBRANCH  13  26
TORSDOF 8
ENDMDL
