MODEL 1
REMARK minimizedAffinity -8.38273525
REMARK  13 active torsions:
REMARK  status: ('A' for Active; 'I' for Inactive)
REMARK    1  A    between atoms: C2_2  and  C3_3 
REMARK    2  A    between atoms: C2_2  and  C14_14 
REMARK    3  A    between atoms: C4_4  and  C5_5 
REMARK    4  A    between atoms: C6_6  and  C8_8 
REMARK    5  A    between atoms: C8_8  and  C9_9 
REMARK    6  A    between atoms: C9_9  and  C10_10 
REMARK    7  A    between atoms: C18_18  and  C19_19 
REMARK    8  A    between atoms: C19_19  and  C20_20 
REMARK    9  A    between atoms: C20_20  and  C21_21 
REMARK   10  A    between atoms: C21_21  and  O1_22 
REMARK   11  A    between atoms: C23_24  and  C25_26 
REMARK   12  A    between atoms: C28_30  and  O3_32 
REMARK   13  A    between atoms: C30_33  and  O4_34 
ROOT
HETATM    1  C14 UNL     1      -1.058  50.633 -22.428  1.00  0.00     0.047 C 
HETATM    2  C15 UNL     1      -2.014  51.805 -22.170  1.00  0.00     0.013 C 
HETATM    3  C16 UNL     1      -2.046  52.494 -23.530  1.00  0.00     0.017 C 
HETATM    4  C17 UNL     1      -2.059  51.352 -24.604  1.00  0.00     0.024 C 
HETATM    5  C18 UNL     1      -3.469  51.210 -25.327  1.00  0.00     0.029 C 
HETATM    6  C22 UNL     1      -3.410  50.137 -26.454  1.00  0.00    -0.066 C 
HETATM    7  C23 UNL     1      -4.111  48.983 -26.618  1.00  0.00    -0.021 C 
HETATM    8  C24 UNL     1      -4.073  48.137 -27.872  1.00  0.00     0.052 C 
HETATM    9  C26 UNL     1      -2.367  50.537 -27.493  1.00  0.00     0.038 C 
HETATM   10  C27 UNL     1      -0.991  50.647 -26.847  1.00  0.00     0.042 C 
HETATM   11  C28 UNL     1      -0.951  51.673 -25.699  1.00  0.00     0.065 C 
HETATM   12  C29 UNL     1      -1.045  53.100 -26.291  1.00  0.00     0.047 C 
HETATM   13  C30 UNL     1      -1.632  50.083 -23.763  1.00  0.00     0.138 C 
ENDROOT
BRANCH   5  14
HETATM   14  C19 UNL     1      -4.717  51.272 -24.398  1.00  0.00     0.012 C 
BRANCH  14  15
HETATM   15  C20 UNL     1      -4.452  51.982 -23.059  1.00  0.00     0.027 C 
BRANCH  15  16
HETATM   16  C21 UNL     1      -5.066  51.241 -21.875  1.00  0.00     0.164 C 
BRANCH  16  17
HETATM   17  O1  UNL     1      -4.977  51.995 -20.674  1.00  0.00    -0.401 OA
HETATM   18  H32 UNL     1      -5.493  52.806 -20.803  1.00  0.00     0.209 HD
ENDBRANCH  16  17
ENDBRANCH  15  16
ENDBRANCH  14  15
ENDBRANCH   5  14
BRANCH  11  19
HETATM   19  O3  UNL     1       0.354  51.586 -25.100  1.00  0.00    -0.389 OA
HETATM   20  H44 UNL     1       1.015  51.734 -25.801  1.00  0.00     0.210 HD
ENDBRANCH  11  19
BRANCH  13  21
HETATM   21  O4  UNL     1      -2.737  49.219 -23.509  1.00  0.00    -0.394 OA
HETATM   22  H46 UNL     1      -2.442  48.556 -22.858  1.00  0.00     0.210 HD
ENDBRANCH  13  21
BRANCH   1  23
HETATM   23  C2  UNL     1      -0.869  49.619 -21.301  1.00  0.00    -0.061 C 
HETATM   24  C1  UNL     1      -1.284  48.341 -21.391  1.00  0.00     0.019 C 
BRANCH  23  25
HETATM   25  C3  UNL     1      -0.224  50.039 -20.058  1.00  0.00     0.007 C 
HETATM   26  C4  UNL     1      -0.792  50.683 -19.025  1.00  0.00     0.001 C 
BRANCH  26  27
HETATM   27  C5  UNL     1      -0.030  51.108 -17.865  1.00  0.00     0.002 C 
HETATM   28  C6  UNL     1       0.804  52.163 -17.794  1.00  0.00    -0.084 C 
HETATM   29  C7  UNL     1       1.053  53.145 -18.910  1.00  0.00     0.043 C 
BRANCH  28  30
HETATM   30  C8  UNL     1       1.571  52.437 -16.511  1.00  0.00     0.037 C 
BRANCH  30  31
HETATM   31  C9  UNL     1       0.977  51.710 -15.302  1.00  0.00     0.031 C 
BRANCH  31  32
HETATM   32  C10 UNL     1       2.001  50.854 -14.603  1.00  0.00    -0.024 C 
HETATM   33  C11 UNL     1       3.338  51.012 -14.622  1.00  0.00    -0.091 C 
HETATM   34  C12 UNL     1       4.060  52.132 -15.322  1.00  0.00     0.042 C 
HETATM   35  C13 UNL     1       4.239  50.048 -13.902  1.00  0.00     0.042 C 
ENDBRANCH  31  32
ENDBRANCH  30  31
ENDBRANCH  28  30
ENDBRANCH  26  27
ENDBRANCH  23  25
ENDBRANCH   1  23
BRANCH   7  36
HETATM   36  C25 UNL     1      -4.998  48.378 -25.580  1.00  0.00     0.265 C 
HETATM   37  O2  UNL     1      -6.095  47.886 -25.835  1.00  0.00    -0.302 OA
ENDBRANCH   7  36
TORSDOF 13
ENDMDL
MODEL 2
REMARK minimizedAffinity -8.32893753
REMARK  13 active torsions:
REMARK  status: ('A' for Active; 'I' for Inactive)
REMARK    1  A    between atoms: C2_2  and  C3_3 
REMARK    2  A    between atoms: C2_2  and  C14_14 
REMARK    3  A    between atoms: C4_4  and  C5_5 
REMARK    4  A    between atoms: C6_6  and  C8_8 
REMARK    5  A    between atoms: C8_8  and  C9_9 
REMARK    6  A    between atoms: C9_9  and  C10_10 
REMARK    7  A    between atoms: C18_18  and  C19_19 
REMARK    8  A    between atoms: C19_19  and  C20_20 
REMARK    9  A    between atoms: C20_20  and  C21_21 
REMARK   10  A    between atoms: C21_21  and  O1_22 
REMARK   11  A    between atoms: C23_24  and  C25_26 
REMARK   12  A    between atoms: C28_30  and  O3_32 
REMARK   13  A    between atoms: C30_33  and  O4_34 
ROOT
HETATM    1  C14 UNL     1      -1.436  48.870 -20.118  1.00  0.00     0.047 C 
HETATM    2  C15 UNL     1      -0.850  48.124 -21.324  1.00  0.00     0.013 C 
HETATM    3  C16 UNL     1      -1.910  47.060 -21.585  1.00  0.00     0.017 C 
HETATM    4  C17 UNL     1      -3.297  47.754 -21.359  1.00  0.00     0.024 C 
HETATM    5  C18 UNL     1      -4.087  47.998 -22.719  1.00  0.00     0.029 C 
HETATM    6  C22 UNL     1      -5.498  48.594 -22.442  1.00  0.00    -0.066 C 
HETATM    7  C23 UNL     1      -6.060  49.768 -22.840  1.00  0.00    -0.021 C 
HETATM    8  C24 UNL     1      -7.518  50.120 -22.646  1.00  0.00     0.052 C 
HETATM    9  C26 UNL     1      -6.305  47.630 -21.577  1.00  0.00     0.038 C 
HETATM   10  C27 UNL     1      -5.601  47.398 -20.246  1.00  0.00     0.042 C 
HETATM   11  C28 UNL     1      -4.180  46.827 -20.414  1.00  0.00     0.065 C 
HETATM   12  C29 UNL     1      -4.277  45.356 -20.886  1.00  0.00     0.047 C 
HETATM   13  C30 UNL     1      -2.900  49.079 -20.593  1.00  0.00     0.138 C 
ENDROOT
BRANCH   5  14
HETATM   14  C19 UNL     1      -3.242  48.557 -23.901  1.00  0.00     0.012 C 
BRANCH  14  15
HETATM   15  C20 UNL     1      -3.840  48.245 -25.286  1.00  0.00     0.027 C 
BRANCH  15  16
HETATM   16  C21 UNL     1      -2.858  48.526 -26.419  1.00  0.00     0.164 C 
BRANCH  16  17
HETATM   17  O1  UNL     1      -3.448  48.315 -27.695  1.00  0.00    -0.401 OA
HETATM   18  H32 UNL     1      -4.178  48.948 -27.784  1.00  0.00     0.209 HD
ENDBRANCH  16  17
ENDBRANCH  15  16
ENDBRANCH  14  15
ENDBRANCH   5  14
BRANCH  11  19
HETATM   19  O3  UNL     1      -3.588  46.777 -19.104  1.00  0.00    -0.389 OA
HETATM   20  H44 UNL     1      -4.173  46.247 -18.531  1.00  0.00     0.210 HD
ENDBRANCH  11  19
BRANCH  13  21
HETATM   21  O4  UNL     1      -2.989  50.225 -21.436  1.00  0.00    -0.394 OA
HETATM   22  H46 UNL     1      -2.578  50.968 -20.958  1.00  0.00     0.210 HD
ENDBRANCH  13  21
BRANCH   1  23
HETATM   23  C2  UNL     1      -0.694  50.116 -19.635  1.00  0.00    -0.061 C 
HETATM   24  C1  UNL     1      -0.521  50.403 -18.331  1.00  0.00     0.019 C 
BRANCH  23  25
HETATM   25  C3  UNL     1      -0.154  51.055 -20.617  1.00  0.00     0.007 C 
HETATM   26  C4  UNL     1       0.359  52.273 -20.378  1.00  0.00     0.001 C 
BRANCH  26  27
HETATM   27  C5  UNL     1       0.808  53.147 -21.447  1.00  0.00     0.002 C 
HETATM   28  C6  UNL     1       0.472  53.063 -22.748  1.00  0.00    -0.084 C 
HETATM   29  C7  UNL     1      -0.497  52.066 -23.328  1.00  0.00     0.043 C 
BRANCH  28  30
HETATM   30  C8  UNL     1       1.080  54.029 -23.751  1.00  0.00     0.037 C 
BRANCH  30  31
HETATM   31  C9  UNL     1       0.290  54.093 -25.062  1.00  0.00     0.031 C 
BRANCH  31  32
HETATM   32  C10 UNL     1       0.736  53.035 -26.037  1.00  0.00    -0.024 C 
HETATM   33  C11 UNL     1       0.308  52.868 -27.303  1.00  0.00    -0.091 C 
HETATM   34  C12 UNL     1      -0.680  53.764 -28.000  1.00  0.00     0.042 C 
HETATM   35  C13 UNL     1       0.821  51.736 -28.148  1.00  0.00     0.042 C 
ENDBRANCH  31  32
ENDBRANCH  30  31
ENDBRANCH  28  30
ENDBRANCH  26  27
ENDBRANCH  23  25
ENDBRANCH   1  23
BRANCH   7  36
HETATM   36  C25 UNL     1      -5.315  50.879 -23.503  1.00  0.00     0.265 C 
HETATM   37  O2  UNL     1      -4.887  51.858 -22.896  1.00  0.00    -0.302 OA
ENDBRANCH   7  36
TORSDOF 13
ENDMDL
MODEL 3
REMARK minimizedAffinity -8.25122643
REMARK  13 active torsions:
REMARK  status: ('A' for Active; 'I' for Inactive)
REMARK    1  A    between atoms: C2_2  and  C3_3 
REMARK    2  A    between atoms: C2_2  and  C14_14 
REMARK    3  A    between atoms: C4_4  and  C5_5 
REMARK    4  A    between atoms: C6_6  and  C8_8 
REMARK    5  A    between atoms: C8_8  and  C9_9 
REMARK    6  A    between atoms: C9_9  and  C10_10 
REMARK    7  A    between atoms: C18_18  and  C19_19 
REMARK    8  A    between atoms: C19_19  and  C20_20 
REMARK    9  A    between atoms: C20_20  and  C21_21 
REMARK   10  A    between atoms: C21_21  and  O1_22 
REMARK   11  A    between atoms: C23_24  and  C25_26 
REMARK   12  A    between atoms: C28_30  and  O3_32 
REMARK   13  A    between atoms: C30_33  and  O4_34 
ROOT
HETATM    1  C14 UNL     1      -7.412  47.483 -27.440  1.00  0.00     0.047 C 
HETATM    2  C15 UNL     1      -8.016  46.073 -27.445  1.00  0.00     0.013 C 
HETATM    3  C16 UNL     1      -8.954  46.134 -28.645  1.00  0.00     0.017 C 
HETATM    4  C17 UNL     1      -8.204  46.953 -29.751  1.00  0.00     0.024 C 
HETATM    5  C18 UNL     1      -7.712  46.040 -30.958  1.00  0.00     0.029 C 
HETATM    6  C22 UNL     1      -7.064  46.904 -32.079  1.00  0.00    -0.066 C 
HETATM    7  C23 UNL     1      -5.809  46.881 -32.605  1.00  0.00    -0.021 C 
HETATM    8  C24 UNL     1      -5.386  47.662 -33.829  1.00  0.00     0.052 C 
HETATM    9  C26 UNL     1      -8.083  47.907 -32.611  1.00  0.00     0.038 C 
HETATM   10  C27 UNL     1      -8.552  48.828 -31.492  1.00  0.00     0.042 C 
HETATM   11  C28 UNL     1      -9.192  48.063 -30.318  1.00  0.00     0.065 C 
HETATM   12  C29 UNL     1     -10.569  47.514 -30.762  1.00  0.00     0.047 C 
HETATM   13  C30 UNL     1      -7.034  47.639 -28.939  1.00  0.00     0.138 C 
ENDROOT
BRANCH   5  14
HETATM   14  C19 UNL     1      -7.051  44.688 -30.560  1.00  0.00     0.012 C 
BRANCH  14  15
HETATM   15  C20 UNL     1      -7.898  43.456 -30.926  1.00  0.00     0.027 C 
BRANCH  15  16
HETATM   16  C21 UNL     1      -7.100  42.411 -31.699  1.00  0.00     0.164 C 
BRANCH  16  17
HETATM   17  O1  UNL     1      -5.711  42.708 -31.711  1.00  0.00    -0.401 OA
HETATM   18  H32 UNL     1      -5.402  42.682 -30.791  1.00  0.00     0.209 HD
ENDBRANCH  16  17
ENDBRANCH  15  16
ENDBRANCH  14  15
ENDBRANCH   5  14
BRANCH  11  19
HETATM   19  O3  UNL     1      -9.471  49.027 -29.288  1.00  0.00    -0.389 OA
HETATM   20  H44 UNL     1     -10.035  49.723 -29.674  1.00  0.00     0.210 HD
ENDBRANCH  11  19
BRANCH  13  21
HETATM   21  O4  UNL     1      -5.775  47.022 -29.199  1.00  0.00    -0.394 OA
HETATM   22  H46 UNL     1      -5.139  47.379 -28.553  1.00  0.00     0.210 HD
ENDBRANCH  13  21
BRANCH   1  23
HETATM   23  C2  UNL     1      -6.303  47.769 -26.428  1.00  0.00    -0.061 C 
HETATM   24  C1  UNL     1      -6.444  47.547 -25.108  1.00  0.00     0.019 C 
BRANCH  23  25
HETATM   25  C3  UNL     1      -5.032  48.322 -26.893  1.00  0.00     0.007 C 
HETATM   26  C4  UNL     1      -3.949  48.606 -26.150  1.00  0.00     0.001 C 
BRANCH  26  27
HETATM   27  C5  UNL     1      -2.760  49.215 -26.716  1.00  0.00     0.002 C 
HETATM   28  C6  UNL     1      -2.461  50.528 -26.734  1.00  0.00    -0.084 C 
HETATM   29  C7  UNL     1      -3.294  51.614 -26.103  1.00  0.00     0.043 C 
BRANCH  28  30
HETATM   30  C8  UNL     1      -1.193  51.007 -27.422  1.00  0.00     0.037 C 
BRANCH  30  31
HETATM   31  C9  UNL     1       0.063  50.759 -26.581  1.00  0.00     0.031 C 
BRANCH  31  32
HETATM   32  C10 UNL     1       0.527  52.011 -25.883  1.00  0.00    -0.024 C 
HETATM   33  C11 UNL     1       0.247  52.384 -24.620  1.00  0.00    -0.091 C 
HETATM   34  C12 UNL     1      -0.557  51.571 -23.642  1.00  0.00     0.042 C 
HETATM   35  C13 UNL     1       0.753  53.689 -24.071  1.00  0.00     0.042 C 
ENDBRANCH  31  32
ENDBRANCH  30  31
ENDBRANCH  28  30
ENDBRANCH  26  27
ENDBRANCH  23  25
ENDBRANCH   1  23
BRANCH   7  36
HETATM   36  C25 UNL     1      -4.669  46.102 -32.035  1.00  0.00     0.265 C 
HETATM   37  O2  UNL     1      -3.798  46.603 -31.328  1.00  0.00    -0.302 OA
ENDBRANCH   7  36
TORSDOF 13
ENDMDL
MODEL 4
REMARK minimizedAffinity -8.24451256
REMARK  13 active torsions:
REMARK  status: ('A' for Active; 'I' for Inactive)
REMARK    1  A    between atoms: C2_2  and  C3_3 
REMARK    2  A    between atoms: C2_2  and  C14_14 
REMARK    3  A    between atoms: C4_4  and  C5_5 
REMARK    4  A    between atoms: C6_6  and  C8_8 
REMARK    5  A    between atoms: C8_8  and  C9_9 
REMARK    6  A    between atoms: C9_9  and  C10_10 
REMARK    7  A    between atoms: C18_18  and  C19_19 
REMARK    8  A    between atoms: C19_19  and  C20_20 
REMARK    9  A    between atoms: C20_20  and  C21_21 
REMARK   10  A    between atoms: C21_21  and  O1_22 
REMARK   11  A    between atoms: C23_24  and  C25_26 
REMARK   12  A    between atoms: C28_30  and  O3_32 
REMARK   13  A    between atoms: C30_33  and  O4_34 
ROOT
HETATM    1  C14 UNL     1      -3.614  48.363 -24.459  1.00  0.00     0.047 C 
HETATM    2  C15 UNL     1      -4.850  48.968 -23.781  1.00  0.00     0.013 C 
HETATM    3  C16 UNL     1      -4.494  48.845 -22.304  1.00  0.00     0.017 C 
HETATM    4  C17 UNL     1      -2.968  49.183 -22.188  1.00  0.00     0.024 C 
HETATM    5  C18 UNL     1      -2.706  50.596 -21.502  1.00  0.00     0.029 C 
HETATM    6  C22 UNL     1      -1.181  50.847 -21.314  1.00  0.00    -0.066 C 
HETATM    7  C23 UNL     1      -0.377  51.833 -21.797  1.00  0.00    -0.021 C 
HETATM    8  C24 UNL     1       1.056  52.047 -21.367  1.00  0.00     0.052 C 
HETATM    9  C26 UNL     1      -0.584  49.757 -20.429  1.00  0.00     0.038 C 
HETATM   10  C27 UNL     1      -0.780  48.389 -21.068  1.00  0.00     0.042 C 
HETATM   11  C28 UNL     1      -2.263  48.053 -21.318  1.00  0.00     0.065 C 
HETATM   12  C29 UNL     1      -2.955  47.778 -19.962  1.00  0.00     0.047 C 
HETATM   13  C30 UNL     1      -2.478  49.090 -23.688  1.00  0.00     0.138 C 
ENDROOT
BRANCH   5  14
HETATM   14  C19 UNL     1      -3.616  51.762 -21.985  1.00  0.00     0.012 C 
BRANCH  14  15
HETATM   15  C20 UNL     1      -3.451  52.094 -23.479  1.00  0.00     0.027 C 
BRANCH  15  16
HETATM   16  C21 UNL     1      -4.790  52.256 -24.191  1.00  0.00     0.164 C 
BRANCH  16  17
HETATM   17  O1  UNL     1      -5.875  52.301 -23.274  1.00  0.00    -0.401 OA
HETATM   18  H32 UNL     1      -5.750  53.085 -22.716  1.00  0.00     0.209 HD
ENDBRANCH  16  17
ENDBRANCH  15  16
ENDBRANCH  14  15
ENDBRANCH   5  14
BRANCH  11  19
HETATM   19  O3  UNL     1      -2.299  46.806 -22.033  1.00  0.00    -0.389 OA
HETATM   20  H44 UNL     1      -1.816  46.144 -21.505  1.00  0.00     0.210 HD
ENDBRANCH  11  19
BRANCH  13  21
HETATM   21  O4  UNL     1      -2.244  50.380 -24.250  1.00  0.00    -0.394 OA
HETATM   22  H46 UNL     1      -2.109  50.257 -25.207  1.00  0.00     0.210 HD
ENDBRANCH  13  21
BRANCH   1  23
HETATM   23  C2  UNL     1      -3.547  48.427 -25.985  1.00  0.00    -0.061 C 
HETATM   24  C1  UNL     1      -2.460  48.855 -26.651  1.00  0.00     0.019 C 
BRANCH  23  25
HETATM   25  C3  UNL     1      -4.712  48.020 -26.771  1.00  0.00     0.007 C 
HETATM   26  C4  UNL     1      -4.881  48.150 -28.097  1.00  0.00     0.001 C 
BRANCH  26  27
HETATM   27  C5  UNL     1      -6.113  47.767 -28.761  1.00  0.00     0.002 C 
HETATM   28  C6  UNL     1      -6.338  47.748 -30.089  1.00  0.00    -0.084 C 
HETATM   29  C7  UNL     1      -5.312  48.067 -31.144  1.00  0.00     0.043 C 
BRANCH  28  30
HETATM   30  C8  UNL     1      -7.713  47.372 -30.619  1.00  0.00     0.037 C 
BRANCH  30  31
HETATM   31  C9  UNL     1      -8.643  48.581 -30.754  1.00  0.00     0.031 C 
BRANCH  31  32
HETATM   32  C10 UNL     1      -9.947  48.368 -30.031  1.00  0.00    -0.024 C 
HETATM   33  C11 UNL     1     -10.994  47.630 -30.448  1.00  0.00    -0.091 C 
HETATM   34  C12 UNL     1     -11.024  46.825 -31.719  1.00  0.00     0.042 C 
HETATM   35  C13 UNL     1     -12.252  47.544 -29.629  1.00  0.00     0.042 C 
ENDBRANCH  31  32
ENDBRANCH  30  31
ENDBRANCH  28  30
ENDBRANCH  26  27
ENDBRANCH  23  25
ENDBRANCH   1  23
BRANCH   7  36
HETATM   36  C25 UNL     1      -0.789  52.826 -22.834  1.00  0.00     0.265 C 
HETATM   37  O2  UNL     1      -0.281  52.883 -23.951  1.00  0.00    -0.302 OA
ENDBRANCH   7  36
TORSDOF 13
ENDMDL
MODEL 5
REMARK minimizedAffinity -8.16154671
REMARK  13 active torsions:
REMARK  status: ('A' for Active; 'I' for Inactive)
REMARK    1  A    between atoms: C2_2  and  C3_3 
REMARK    2  A    between atoms: C2_2  and  C14_14 
REMARK    3  A    between atoms: C4_4  and  C5_5 
REMARK    4  A    between atoms: C6_6  and  C8_8 
REMARK    5  A    between atoms: C8_8  and  C9_9 
REMARK    6  A    between atoms: C9_9  and  C10_10 
REMARK    7  A    between atoms: C18_18  and  C19_19 
REMARK    8  A    between atoms: C19_19  and  C20_20 
REMARK    9  A    between atoms: C20_20  and  C21_21 
REMARK   10  A    between atoms: C21_21  and  O1_22 
REMARK   11  A    between atoms: C23_24  and  C25_26 
REMARK   12  A    between atoms: C28_30  and  O3_32 
REMARK   13  A    between atoms: C30_33  and  O4_34 
ROOT
HETATM    1  C14 UNL     1      -6.000  48.071 -27.641  1.00  0.00     0.047 C 
HETATM    2  C15 UNL     1      -6.523  46.654 -27.370  1.00  0.00     0.013 C 
HETATM    3  C16 UNL     1      -7.785  46.613 -28.223  1.00  0.00     0.017 C 
HETATM    4  C17 UNL     1      -7.443  47.363 -29.556  1.00  0.00     0.024 C 
HETATM    5  C18 UNL     1      -7.310  46.374 -30.797  1.00  0.00     0.029 C 
HETATM    6  C22 UNL     1      -7.071  47.167 -32.115  1.00  0.00    -0.066 C 
HETATM    7  C23 UNL     1      -6.037  47.128 -32.999  1.00  0.00    -0.021 C 
HETATM    8  C24 UNL     1      -6.041  47.826 -34.341  1.00  0.00     0.052 C 
HETATM    9  C26 UNL     1      -8.241  48.113 -32.368  1.00  0.00     0.038 C 
HETATM   10  C27 UNL     1      -8.380  49.103 -31.219  1.00  0.00     0.042 C 
HETATM   11  C28 UNL     1      -8.599  48.413 -29.859  1.00  0.00     0.065 C 
HETATM   12  C29 UNL     1     -10.023  47.810 -29.821  1.00  0.00     0.047 C 
HETATM   13  C30 UNL     1      -6.107  48.125 -29.190  1.00  0.00     0.138 C 
ENDROOT
BRANCH   5  14
HETATM   14  C19 UNL     1      -6.507  45.066 -30.538  1.00  0.00     0.012 C 
BRANCH  14  15
HETATM   15  C20 UNL     1      -7.198  43.802 -31.080  1.00  0.00     0.027 C 
BRANCH  15  16
HETATM   16  C21 UNL     1      -6.390  43.125 -32.183  1.00  0.00     0.164 C 
BRANCH  16  17
HETATM   17  O1  UNL     1      -6.765  43.588 -33.473  1.00  0.00    -0.401 OA
HETATM   18  H32 UNL     1      -6.562  44.536 -33.510  1.00  0.00     0.209 HD
ENDBRANCH  16  17
ENDBRANCH  15  16
ENDBRANCH  14  15
ENDBRANCH   5  14
BRANCH  11  19
HETATM   19  O3  UNL     1      -8.585  49.444 -28.856  1.00  0.00    -0.389 OA
HETATM   20  H44 UNL     1      -9.266  50.100 -29.092  1.00  0.00     0.210 HD
ENDBRANCH  11  19
BRANCH  13  21
HETATM   21  O4  UNL     1      -4.966  47.513 -29.787  1.00  0.00    -0.394 OA
HETATM   22  H46 UNL     1      -4.176  47.926 -29.392  1.00  0.00     0.210 HD
ENDBRANCH  13  21
BRANCH   1  23
HETATM   23  C2  UNL     1      -4.647  48.447 -27.040  1.00  0.00    -0.061 C 
HETATM   24  C1  UNL     1      -3.589  48.807 -27.791  1.00  0.00     0.019 C 
BRANCH  23  25
HETATM   25  C3  UNL     1      -4.470  48.409 -25.589  1.00  0.00     0.007 C 
HETATM   26  C4  UNL     1      -3.332  48.606 -24.904  1.00  0.00     0.001 C 
BRANCH  26  27
HETATM   27  C5  UNL     1      -3.266  48.478 -23.460  1.00  0.00     0.002 C 
HETATM   28  C6  UNL     1      -2.454  49.160 -22.629  1.00  0.00    -0.084 C 
HETATM   29  C7  UNL     1      -1.495  50.242 -23.052  1.00  0.00     0.043 C 
BRANCH  28  30
HETATM   30  C8  UNL     1      -2.472  48.862 -21.139  1.00  0.00     0.037 C 
BRANCH  30  31
HETATM   31  C9  UNL     1      -1.542  49.781 -20.342  1.00  0.00     0.031 C 
BRANCH  31  32
HETATM   32  C10 UNL     1      -1.183  49.192 -19.003  1.00  0.00    -0.024 C 
HETATM   33  C11 UNL     1      -0.514  49.798 -18.004  1.00  0.00    -0.091 C 
HETATM   34  C12 UNL     1      -0.039  51.226 -18.032  1.00  0.00     0.042 C 
HETATM   35  C13 UNL     1      -0.195  49.064 -16.731  1.00  0.00     0.042 C 
ENDBRANCH  31  32
ENDBRANCH  30  31
ENDBRANCH  28  30
ENDBRANCH  26  27
ENDBRANCH  23  25
ENDBRANCH   1  23
BRANCH   7  36
HETATM   36  C25 UNL     1      -4.749  46.411 -32.762  1.00  0.00     0.265 C 
HETATM   37  O2  UNL     1      -3.754  46.954 -32.287  1.00  0.00    -0.302 OA
ENDBRANCH   7  36
TORSDOF 13
ENDMDL
MODEL 6
REMARK minimizedAffinity -8.07211399
REMARK  13 active torsions:
REMARK  status: ('A' for Active; 'I' for Inactive)
REMARK    1  A    between atoms: C2_2  and  C3_3 
REMARK    2  A    between atoms: C2_2  and  C14_14 
REMARK    3  A    between atoms: C4_4  and  C5_5 
REMARK    4  A    between atoms: C6_6  and  C8_8 
REMARK    5  A    between atoms: C8_8  and  C9_9 
REMARK    6  A    between atoms: C9_9  and  C10_10 
REMARK    7  A    between atoms: C18_18  and  C19_19 
REMARK    8  A    between atoms: C19_19  and  C20_20 
REMARK    9  A    between atoms: C20_20  and  C21_21 
REMARK   10  A    between atoms: C21_21  and  O1_22 
REMARK   11  A    between atoms: C23_24  and  C25_26 
REMARK   12  A    between atoms: C28_30  and  O3_32 
REMARK   13  A    between atoms: C30_33  and  O4_34 
ROOT
HETATM    1  C14 UNL     1      -3.231  48.509 -24.554  1.00  0.00     0.047 C 
HETATM    2  C15 UNL     1      -4.539  49.035 -23.949  1.00  0.00     0.013 C 
HETATM    3  C16 UNL     1      -4.305  48.828 -22.458  1.00  0.00     0.017 C 
HETATM    4  C17 UNL     1      -2.806  49.201 -22.190  1.00  0.00     0.024 C 
HETATM    5  C18 UNL     1      -2.650  50.574 -21.399  1.00  0.00     0.029 C 
HETATM    6  C22 UNL     1      -1.156  50.855 -21.065  1.00  0.00    -0.066 C 
HETATM    7  C23 UNL     1      -0.348  51.892 -21.416  1.00  0.00    -0.021 C 
HETATM    8  C24 UNL     1       1.037  52.118 -20.851  1.00  0.00     0.052 C 
HETATM    9  C26 UNL     1      -0.600  49.729 -20.200  1.00  0.00     0.038 C 
HETATM   10  C27 UNL     1      -0.696  48.399 -20.936  1.00  0.00     0.042 C 
HETATM   11  C28 UNL     1      -2.140  48.038 -21.333  1.00  0.00     0.065 C 
HETATM   12  C29 UNL     1      -2.935  47.658 -20.061  1.00  0.00     0.047 C 
HETATM   13  C30 UNL     1      -2.189  49.217 -23.645  1.00  0.00     0.138 C 
ENDROOT
BRANCH   5  14
HETATM   14  C19 UNL     1      -3.555  51.743 -21.887  1.00  0.00     0.012 C 
BRANCH  14  15
HETATM   15  C20 UNL     1      -3.364  52.090 -23.374  1.00  0.00     0.027 C 
BRANCH  15  16
HETATM   16  C21 UNL     1      -4.691  52.237 -24.113  1.00  0.00     0.164 C 
BRANCH  16  17
HETATM   17  O1  UNL     1      -5.784  52.370 -23.215  1.00  0.00    -0.401 OA
HETATM   18  H32 UNL     1      -5.645  53.187 -22.709  1.00  0.00     0.209 HD
ENDBRANCH  16  17
ENDBRANCH  15  16
ENDBRANCH  14  15
ENDBRANCH   5  14
BRANCH  11  19
HETATM   19  O3  UNL     1      -2.074  46.838 -22.123  1.00  0.00    -0.389 OA
HETATM   20  H44 UNL     1      -1.616  46.158 -21.597  1.00  0.00     0.210 HD
ENDBRANCH  11  19
BRANCH  13  21
HETATM   21  O4  UNL     1      -1.952  50.546 -24.105  1.00  0.00    -0.394 OA
HETATM   22  H46 UNL     1      -1.732  50.489 -25.053  1.00  0.00     0.210 HD
ENDBRANCH  13  21
BRANCH   1  23
HETATM   23  C2  UNL     1      -3.038  48.672 -26.061  1.00  0.00    -0.061 C 
HETATM   24  C1  UNL     1      -2.011  49.357 -26.597  1.00  0.00     0.019 C 
BRANCH  23  25
HETATM   25  C3  UNL     1      -4.009  48.075 -26.978  1.00  0.00     0.007 C 
HETATM   26  C4  UNL     1      -4.392  48.546 -28.176  1.00  0.00     0.001 C 
BRANCH  26  27
HETATM   27  C5  UNL     1      -5.417  47.897 -28.971  1.00  0.00     0.002 C 
HETATM   28  C6  UNL     1      -6.568  47.364 -28.518  1.00  0.00    -0.084 C 
HETATM   29  C7  UNL     1      -7.034  47.401 -27.086  1.00  0.00     0.043 C 
BRANCH  28  30
HETATM   30  C8  UNL     1      -7.513  46.667 -29.484  1.00  0.00     0.037 C 
BRANCH  30  31
HETATM   31  C9  UNL     1      -7.039  46.753 -30.938  1.00  0.00     0.031 C 
BRANCH  31  32
HETATM   32  C10 UNL     1      -6.421  45.461 -31.404  1.00  0.00    -0.024 C 
HETATM   33  C11 UNL     1      -5.230  45.306 -32.014  1.00  0.00    -0.091 C 
HETATM   34  C12 UNL     1      -4.261  46.420 -32.299  1.00  0.00     0.042 C 
HETATM   35  C13 UNL     1      -4.762  43.948 -32.459  1.00  0.00     0.042 C 
ENDBRANCH  31  32
ENDBRANCH  30  31
ENDBRANCH  28  30
ENDBRANCH  26  27
ENDBRANCH  23  25
ENDBRANCH   1  23
BRANCH   7  36
HETATM   36  C25 UNL     1      -0.703  52.937 -22.422  1.00  0.00     0.265 C 
HETATM   37  O2  UNL     1      -0.154  53.032 -23.517  1.00  0.00    -0.302 OA
ENDBRANCH   7  36
TORSDOF 13
ENDMDL
MODEL 7
REMARK minimizedAffinity -7.92867422
REMARK  13 active torsions:
REMARK  status: ('A' for Active; 'I' for Inactive)
REMARK    1  A    between atoms: C2_2  and  C3_3 
REMARK    2  A    between atoms: C2_2  and  C14_14 
REMARK    3  A    between atoms: C4_4  and  C5_5 
REMARK    4  A    between atoms: C6_6  and  C8_8 
REMARK    5  A    between atoms: C8_8  and  C9_9 
REMARK    6  A    between atoms: C9_9  and  C10_10 
REMARK    7  A    between atoms: C18_18  and  C19_19 
REMARK    8  A    between atoms: C19_19  and  C20_20 
REMARK    9  A    between atoms: C20_20  and  C21_21 
REMARK   10  A    between atoms: C21_21  and  O1_22 
REMARK   11  A    between atoms: C23_24  and  C25_26 
REMARK   12  A    between atoms: C28_30  and  O3_32 
REMARK   13  A    between atoms: C30_33  and  O4_34 
ROOT
HETATM    1  C14 UNL     1      -2.781  48.991 -21.113  1.00  0.00     0.047 C 
HETATM    2  C15 UNL     1      -3.832  50.094 -20.936  1.00  0.00     0.013 C 
HETATM    3  C16 UNL     1      -2.969  51.302 -20.592  1.00  0.00     0.017 C 
HETATM    4  C17 UNL     1      -1.695  51.209 -21.500  1.00  0.00     0.024 C 
HETATM    5  C18 UNL     1      -1.687  52.304 -22.656  1.00  0.00     0.029 C 
HETATM    6  C22 UNL     1      -0.361  52.243 -23.469  1.00  0.00    -0.066 C 
HETATM    7  C23 UNL     1      -0.141  52.008 -24.791  1.00  0.00    -0.021 C 
HETATM    8  C24 UNL     1       1.201  52.171 -25.470  1.00  0.00     0.052 C 
HETATM    9  C26 UNL     1       0.824  52.502 -22.544  1.00  0.00     0.038 C 
HETATM   10  C27 UNL     1       0.876  51.451 -21.443  1.00  0.00     0.042 C 
HETATM   11  C28 UNL     1      -0.407  51.416 -20.590  1.00  0.00     0.065 C 
HETATM   12  C29 UNL     1      -0.459  52.682 -19.702  1.00  0.00     0.047 C 
HETATM   13  C30 UNL     1      -1.751  49.718 -22.021  1.00  0.00     0.138 C 
ENDROOT
BRANCH   5  14
HETATM   14  C19 UNL     1      -3.035  52.503 -23.409  1.00  0.00     0.012 C 
BRANCH  14  15
HETATM   15  C20 UNL     1      -3.680  51.186 -23.876  1.00  0.00     0.027 C 
BRANCH  15  16
HETATM   16  C21 UNL     1      -5.203  51.261 -23.903  1.00  0.00     0.164 C 
BRANCH  16  17
HETATM   17  O1  UNL     1      -5.680  52.505 -23.409  1.00  0.00    -0.401 OA
HETATM   18  H32 UNL     1      -5.348  53.198 -24.003  1.00  0.00     0.209 HD
ENDBRANCH  16  17
ENDBRANCH  15  16
ENDBRANCH  14  15
ENDBRANCH   5  14
BRANCH  11  19
HETATM   19  O3  UNL     1      -0.279  50.308 -19.681  1.00  0.00    -0.389 OA
HETATM   20  H44 UNL     1       0.543  50.432 -19.172  1.00  0.00     0.210 HD
ENDBRANCH  11  19
BRANCH  13  21
HETATM   21  O4  UNL     1      -2.158  49.648 -23.386  1.00  0.00    -0.394 OA
HETATM   22  H46 UNL     1      -2.329  48.710 -23.589  1.00  0.00     0.210 HD
ENDBRANCH  13  21
BRANCH   1  23
HETATM   23  C2  UNL     1      -3.269  47.626 -21.597  1.00  0.00    -0.061 C 
HETATM   24  C1  UNL     1      -2.833  46.466 -21.072  1.00  0.00     0.019 C 
BRANCH  23  25
HETATM   25  C3  UNL     1      -4.242  47.557 -22.687  1.00  0.00     0.007 C 
HETATM   26  C4  UNL     1      -5.542  47.890 -22.636  1.00  0.00     0.001 C 
BRANCH  26  27
HETATM   27  C5  UNL     1      -6.430  47.716 -23.771  1.00  0.00     0.002 C 
HETATM   28  C6  UNL     1      -6.118  47.894 -25.069  1.00  0.00    -0.084 C 
HETATM   29  C7  UNL     1      -4.750  48.251 -25.590  1.00  0.00     0.043 C 
BRANCH  28  30
HETATM   30  C8  UNL     1      -7.188  47.724 -26.135  1.00  0.00     0.037 C 
BRANCH  30  31
HETATM   31  C9  UNL     1      -6.603  47.402 -27.513  1.00  0.00     0.031 C 
BRANCH  31  32
HETATM   32  C10 UNL     1      -7.329  48.129 -28.615  1.00  0.00    -0.024 C 
HETATM   33  C11 UNL     1      -7.219  47.911 -29.939  1.00  0.00    -0.091 C 
HETATM   34  C12 UNL     1      -6.365  46.842 -30.564  1.00  0.00     0.042 C 
HETATM   35  C13 UNL     1      -7.984  48.748 -30.925  1.00  0.00     0.042 C 
ENDBRANCH  31  32
ENDBRANCH  30  31
ENDBRANCH  28  30
ENDBRANCH  26  27
ENDBRANCH  23  25
ENDBRANCH   1  23
BRANCH   7  36
HETATM   36  C25 UNL     1      -1.184  51.536 -25.751  1.00  0.00     0.265 C 
HETATM   37  O2  UNL     1      -1.259  50.376 -26.146  1.00  0.00    -0.302 OA
ENDBRANCH   7  36
TORSDOF 13
ENDMDL
MODEL 8
REMARK minimizedAffinity -7.92050171
REMARK  13 active torsions:
REMARK  status: ('A' for Active; 'I' for Inactive)
REMARK    1  A    between atoms: C2_2  and  C3_3 
REMARK    2  A    between atoms: C2_2  and  C14_14 
REMARK    3  A    between atoms: C4_4  and  C5_5 
REMARK    4  A    between atoms: C6_6  and  C8_8 
REMARK    5  A    between atoms: C8_8  and  C9_9 
REMARK    6  A    between atoms: C9_9  and  C10_10 
REMARK    7  A    between atoms: C18_18  and  C19_19 
REMARK    8  A    between atoms: C19_19  and  C20_20 
REMARK    9  A    between atoms: C20_20  and  C21_21 
REMARK   10  A    between atoms: C21_21  and  O1_22 
REMARK   11  A    between atoms: C23_24  and  C25_26 
REMARK   12  A    between atoms: C28_30  and  O3_32 
REMARK   13  A    between atoms: C30_33  and  O4_34 
ROOT
HETATM    1  C14 UNL     1      -6.152  47.912 -27.688  1.00  0.00     0.047 C 
HETATM    2  C15 UNL     1      -6.712  46.496 -27.500  1.00  0.00     0.013 C 
HETATM    3  C16 UNL     1      -7.920  46.506 -28.429  1.00  0.00     0.017 C 
HETATM    4  C17 UNL     1      -7.485  47.296 -29.712  1.00  0.00     0.024 C 
HETATM    5  C18 UNL     1      -7.291  46.348 -30.976  1.00  0.00     0.029 C 
HETATM    6  C22 UNL     1      -6.960  47.181 -32.248  1.00  0.00    -0.066 C 
HETATM    7  C23 UNL     1      -5.874  47.154 -33.069  1.00  0.00    -0.021 C 
HETATM    8  C24 UNL     1      -5.785  47.898 -34.383  1.00  0.00     0.052 C 
HETATM    9  C26 UNL     1      -8.097  48.155 -32.539  1.00  0.00     0.038 C 
HETATM   10  C27 UNL     1      -8.291  49.107 -31.366  1.00  0.00     0.042 C 
HETATM   11  C28 UNL     1      -8.604  48.375 -30.047  1.00  0.00     0.065 C 
HETATM   12  C29 UNL     1     -10.037  47.797 -30.116  1.00  0.00     0.047 C 
HETATM   13  C30 UNL     1      -6.162  48.021 -29.238  1.00  0.00     0.138 C 
ENDROOT
BRANCH   5  14
HETATM   14  C19 UNL     1      -6.526  45.018 -30.715  1.00  0.00     0.012 C 
BRANCH  14  15
HETATM   15  C20 UNL     1      -7.236  43.777 -31.286  1.00  0.00     0.027 C 
BRANCH  15  16
HETATM   16  C21 UNL     1      -6.647  43.334 -32.622  1.00  0.00     0.164 C 
BRANCH  16  17
HETATM   17  O1  UNL     1      -7.317  43.935 -33.721  1.00  0.00    -0.401 OA
HETATM   18  H32 UNL     1      -7.183  44.894 -33.652  1.00  0.00     0.209 HD
ENDBRANCH  16  17
ENDBRANCH  15  16
ENDBRANCH  14  15
ENDBRANCH   5  14
BRANCH  11  19
HETATM   19  O3  UNL     1      -8.636  49.371 -29.009  1.00  0.00    -0.389 OA
HETATM   20  H44 UNL     1      -9.290  50.046 -29.262  1.00  0.00     0.210 HD
ENDBRANCH  11  19
BRANCH  13  21
HETATM   21  O4  UNL     1      -4.996  47.410 -29.786  1.00  0.00    -0.394 OA
HETATM   22  H46 UNL     1      -4.226  47.795 -29.329  1.00  0.00     0.210 HD
ENDBRANCH  13  21
BRANCH   1  23
HETATM   23  C2  UNL     1      -4.832  48.244 -26.993  1.00  0.00    -0.061 C 
HETATM   24  C1  UNL     1      -3.667  48.366 -27.657  1.00  0.00     0.019 C 
BRANCH  23  25
HETATM   25  C3  UNL     1      -4.811  48.427 -25.542  1.00  0.00     0.007 C 
HETATM   26  C4  UNL     1      -3.738  48.655 -24.768  1.00  0.00     0.001 C 
BRANCH  26  27
HETATM   27  C5  UNL     1      -3.833  48.756 -23.324  1.00  0.00     0.002 C 
HETATM   28  C6  UNL     1      -3.688  49.873 -22.585  1.00  0.00    -0.084 C 
HETATM   29  C7  UNL     1      -3.457  51.254 -23.142  1.00  0.00     0.043 C 
BRANCH  28  30
HETATM   30  C8  UNL     1      -3.763  49.794 -21.069  1.00  0.00     0.037 C 
BRANCH  30  31
HETATM   31  C9  UNL     1      -5.010  50.479 -20.504  1.00  0.00     0.031 C 
BRANCH  31  32
HETATM   32  C10 UNL     1      -6.165  49.522 -20.371  1.00  0.00    -0.024 C 
HETATM   33  C11 UNL     1      -7.163  49.328 -21.255  1.00  0.00    -0.091 C 
HETATM   34  C12 UNL     1      -7.273  50.016 -22.589  1.00  0.00     0.042 C 
HETATM   35  C13 UNL     1      -8.274  48.358 -20.964  1.00  0.00     0.042 C 
ENDBRANCH  31  32
ENDBRANCH  30  31
ENDBRANCH  28  30
ENDBRANCH  26  27
ENDBRANCH  23  25
ENDBRANCH   1  23
BRANCH   7  36
HETATM   36  C25 UNL     1      -4.614  46.407 -32.779  1.00  0.00     0.265 C 
HETATM   37  O2  UNL     1      -3.624  46.929 -32.273  1.00  0.00    -0.302 OA
ENDBRANCH   7  36
TORSDOF 13
ENDMDL
MODEL 9
REMARK minimizedAffinity -7.87290192
REMARK  13 active torsions:
REMARK  status: ('A' for Active; 'I' for Inactive)
REMARK    1  A    between atoms: C2_2  and  C3_3 
REMARK    2  A    between atoms: C2_2  and  C14_14 
REMARK    3  A    between atoms: C4_4  and  C5_5 
REMARK    4  A    between atoms: C6_6  and  C8_8 
REMARK    5  A    between atoms: C8_8  and  C9_9 
REMARK    6  A    between atoms: C9_9  and  C10_10 
REMARK    7  A    between atoms: C18_18  and  C19_19 
REMARK    8  A    between atoms: C19_19  and  C20_20 
REMARK    9  A    between atoms: C20_20  and  C21_21 
REMARK   10  A    between atoms: C21_21  and  O1_22 
REMARK   11  A    between atoms: C23_24  and  C25_26 
REMARK   12  A    between atoms: C28_30  and  O3_32 
REMARK   13  A    between atoms: C30_33  and  O4_34 
ROOT
HETATM    1  C14 UNL     1      -6.117  48.008 -27.552  1.00  0.00     0.047 C 
HETATM    2  C15 UNL     1      -6.682  46.612 -27.259  1.00  0.00     0.013 C 
HETATM    3  C16 UNL     1      -7.956  46.602 -28.097  1.00  0.00     0.017 C 
HETATM    4  C17 UNL     1      -7.605  47.326 -29.442  1.00  0.00     0.024 C 
HETATM    5  C18 UNL     1      -7.520  46.320 -30.673  1.00  0.00     0.029 C 
HETATM    6  C22 UNL     1      -7.272  47.090 -32.003  1.00  0.00    -0.066 C 
HETATM    7  C23 UNL     1      -6.251  47.008 -32.899  1.00  0.00    -0.021 C 
HETATM    8  C24 UNL     1      -6.248  47.691 -34.248  1.00  0.00     0.052 C 
HETATM    9  C26 UNL     1      -8.414  48.070 -32.253  1.00  0.00     0.038 C 
HETATM   10  C27 UNL     1      -8.506  49.077 -31.113  1.00  0.00     0.042 C 
HETATM   11  C28 UNL     1      -8.730  48.410 -29.743  1.00  0.00     0.065 C 
HETATM   12  C29 UNL     1     -10.173  47.854 -29.680  1.00  0.00     0.047 C 
HETATM   13  C30 UNL     1      -6.241  48.048 -29.100  1.00  0.00     0.138 C 
ENDROOT
BRANCH   5  14
HETATM   14  C19 UNL     1      -6.757  44.990 -30.408  1.00  0.00     0.012 C 
BRANCH  14  15
HETATM   15  C20 UNL     1      -7.427  43.758 -31.045  1.00  0.00     0.027 C 
BRANCH  15  16
HETATM   16  C21 UNL     1      -6.425  42.851 -31.752  1.00  0.00     0.164 C 
BRANCH  16  17
HETATM   17  O1  UNL     1      -7.067  41.778 -32.426  1.00  0.00    -0.401 OA
HETATM   18  H32 UNL     1      -7.636  42.165 -33.111  1.00  0.00     0.209 HD
ENDBRANCH  16  17
ENDBRANCH  15  16
ENDBRANCH  14  15
ENDBRANCH   5  14
BRANCH  11  19
HETATM   19  O3  UNL     1      -8.671  49.450 -28.752  1.00  0.00    -0.389 OA
HETATM   20  H44 UNL     1      -9.333  50.126 -28.987  1.00  0.00     0.210 HD
ENDBRANCH  11  19
BRANCH  13  21
HETATM   21  O4  UNL     1      -5.128  47.393 -29.704  1.00  0.00    -0.394 OA
HETATM   22  H46 UNL     1      -4.321  47.784 -29.324  1.00  0.00     0.210 HD
ENDBRANCH  13  21
BRANCH   1  23
HETATM   23  C2  UNL     1      -4.745  48.346 -26.972  1.00  0.00    -0.061 C 
HETATM   24  C1  UNL     1      -3.682  48.650 -27.740  1.00  0.00     0.019 C 
BRANCH  23  25
HETATM   25  C3  UNL     1      -4.556  48.333 -25.522  1.00  0.00     0.007 C 
HETATM   26  C4  UNL     1      -3.431  48.621 -24.847  1.00  0.00     0.001 C 
BRANCH  26  27
HETATM   27  C5  UNL     1      -3.345  48.509 -23.403  1.00  0.00     0.002 C 
HETATM   28  C6  UNL     1      -3.553  49.493 -22.507  1.00  0.00    -0.084 C 
HETATM   29  C7  UNL     1      -3.982  50.897 -22.848  1.00  0.00     0.043 C 
BRANCH  28  30
HETATM   30  C8  UNL     1      -3.366  49.219 -21.024  1.00  0.00     0.037 C 
BRANCH  30  31
HETATM   31  C9  UNL     1      -1.911  49.378 -20.573  1.00  0.00     0.031 C 
BRANCH  31  32
HETATM   32  C10 UNL     1      -1.122  50.244 -21.521  1.00  0.00    -0.024 C 
HETATM   33  C11 UNL     1      -0.324  51.279 -21.198  1.00  0.00    -0.091 C 
HETATM   34  C12 UNL     1      -0.032  51.733 -19.793  1.00  0.00     0.042 C 
HETATM   35  C13 UNL     1       0.373  52.078 -22.264  1.00  0.00     0.042 C 
ENDBRANCH  31  32
ENDBRANCH  30  31
ENDBRANCH  28  30
ENDBRANCH  26  27
ENDBRANCH  23  25
ENDBRANCH   1  23
BRANCH   7  36
HETATM   36  C25 UNL     1      -4.984  46.252 -32.669  1.00  0.00     0.265 C 
HETATM   37  O2  UNL     1      -3.945  46.782 -32.280  1.00  0.00    -0.302 OA
ENDBRANCH   7  36
TORSDOF 13
ENDMDL
