MODEL 1
REMARK minimizedAffinity -9.78580952
REMARK CNNscore 0.501542211
REMARK CNNaffinity 7.55811548
REMARK  15 active torsions:
REMARK  status: ('A' for Active; 'I' for Inactive)
REMARK    1  A    between atoms: C2_2  and  C3_3 
REMARK    2  A    between atoms: C2_2  and  C35_44 
REMARK    3  A    between atoms: C3_3  and  C4_4 
REMARK    4  A    between atoms: C4_4  and  C5_5 
REMARK    5  A    between atoms: C5_5  and  C7_7 
REMARK    6  A    between atoms: C9_9  and  O1_10 
REMARK    7  A    between atoms: C10_11  and  C11_12 
REMARK    8  A    between atoms: C11_12  and  O3_14 
REMARK    9  A    between atoms: C22_25  and  O4_26 
REMARK   10  A    between atoms: O4_26  and  C23_27 
REMARK   11  A    between atoms: C24_29  and  C25_30 
REMARK   12  A    between atoms: C25_30  and  O6_31 
REMARK   13  A    between atoms: C26_32  and  O7_33 
REMARK   14  A    between atoms: C28_35  and  O8_36 
REMARK   15  A    between atoms: C29_37  and  O9_38 
ROOT
HETATM    1  C7  UNL     1       3.671   7.845  12.916  1.00  0.00     0.001 C 
HETATM    2  C8  UNL     1       3.929   9.278  13.439  1.00  0.00     0.039 C 
HETATM    3  C9  UNL     1       2.660   9.689  14.232  1.00  0.00     0.142 C 
HETATM    4  C10 UNL     1       1.825   8.376  14.372  1.00  0.00     0.102 C 
HETATM    5  C12 UNL     1       0.316   8.379  14.640  1.00  0.00    -0.054 C 
HETATM    6  C13 UNL     1      -0.474   7.389  14.145  1.00  0.00    -0.067 C 
HETATM    7  C14 UNL     1       0.100   6.228  13.319  1.00  0.00     0.036 C 
HETATM    8  C15 UNL     1       1.591   6.275  12.945  1.00  0.00     0.015 C 
HETATM    9  C16 UNL     1       2.125   7.708  12.967  1.00  0.00    -0.016 C 
HETATM   10  C17 UNL     1       1.441   8.464  11.785  1.00  0.00     0.017 C 
HETATM   11  C18 UNL     1      -2.014   7.418  14.302  1.00  0.00    -0.013 C 
HETATM   12  C19 UNL     1      -2.575   7.891  12.928  1.00  0.00     0.021 C 
HETATM   13  C20 UNL     1      -2.587   6.025  14.678  1.00  0.00     0.017 C 
HETATM   14  C21 UNL     1      -4.113   5.999  14.703  1.00  0.00     0.037 C 
HETATM   15  C22 UNL     1      -4.818   7.183  15.375  1.00  0.00     0.153 C 
HETATM   16  C30 UNL     1      -4.009   8.478  15.512  1.00  0.00    -0.055 C 
HETATM   17  C31 UNL     1      -4.655   9.666  15.655  1.00  0.00     0.017 C 
HETATM   18  C32 UNL     1      -2.479   8.361  15.463  1.00  0.00     0.029 C 
HETATM   19  C33 UNL     1      -1.729   9.700  15.397  1.00  0.00     0.014 C 
HETATM   20  C34 UNL     1      -0.222   9.499  15.489  1.00  0.00     0.036 C 
ENDROOT
BRANCH  15  21
HETATM   21  O4  UNL     1      -5.931   7.486  14.518  1.00  0.00    -0.349 OA
BRANCH  21  22
HETATM   22  C23 UNL     1      -7.183   7.693  15.147  1.00  0.00     0.292 C 
HETATM   23  O5  UNL     1      -8.184   7.771  14.123  1.00  0.00    -0.348 OA
HETATM   24  C24 UNL     1      -8.534   6.514  13.494  1.00  0.00     0.179 C 
HETATM   25  C26 UNL     1      -7.814   5.226  13.972  1.00  0.00     0.183 C 
HETATM   26  C28 UNL     1      -7.516   5.224  15.485  1.00  0.00     0.183 C 
HETATM   27  C29 UNL     1      -7.606   6.605  16.137  1.00  0.00     0.204 C 
BRANCH  24  28
HETATM   28  C25 UNL     1     -10.056   6.373  13.672  1.00  0.00     0.198 C 
BRANCH  28  29
HETATM   29  O6  UNL     1     -10.413   6.576  15.041  1.00  0.00    -0.398 OA
HETATM   30  H36 UNL     1      -9.701   6.169  15.567  1.00  0.00     0.209 HD
ENDBRANCH  28  29
ENDBRANCH  24  28
BRANCH  25  31
HETATM   31  O7  UNL     1      -6.542   5.006  13.333  1.00  0.00    -0.385 OA
HETATM   32  C27 UNL     1      -6.534   4.031  12.303  1.00  0.00     0.202 C 
ENDBRANCH  25  31
BRANCH  26  33
HETATM   33  O8  UNL     1      -8.428   4.349  16.179  1.00  0.00    -0.390 OA
HETATM   34  H42 UNL     1      -8.198   3.444  15.909  1.00  0.00     0.210 HD
ENDBRANCH  26  33
BRANCH  27  35
HETATM   35  O9  UNL     1      -6.842   6.621  17.349  1.00  0.00    -0.388 OA
HETATM   36  H44 UNL     1      -7.185   5.880  17.884  1.00  0.00     0.210 HD
ENDBRANCH  27  35
ENDBRANCH  21  22
ENDBRANCH  15  21
BRANCH   4  37
HETATM   37  C11 UNL     1       2.395   7.610  15.600  1.00  0.00     0.156 C 
HETATM   38  O2  UNL     1       3.562   7.397  15.885  1.00  0.00    -0.649 OA
BRANCH  37  39
HETATM   39  O3  UNL     1       1.450   7.069  16.398  1.00  0.00    -0.775 OA
HETATM   40  H16 UNL     1       1.974   6.569  17.062  1.00  0.00     0.167 HD
ENDBRANCH  37  39
ENDBRANCH   4  37
BRANCH   3  41
HETATM   41  O1  UNL     1       1.975  10.711  13.508  1.00  0.00    -0.394 OA
HETATM   42  H15 UNL     1       2.582  11.463  13.400  1.00  0.00     0.210 HD
ENDBRANCH   3  41
BRANCH   1  43
HETATM   43  C5  UNL     1       4.487   7.348  11.693  1.00  0.00    -0.013 C 
HETATM   44  C6  UNL     1       5.867   8.040  11.671  1.00  0.00     0.010 C 
BRANCH  43  45
HETATM   45  C4  UNL     1       3.885   7.339  10.270  1.00  0.00     0.009 C 
BRANCH  45  46
HETATM   46  C3  UNL     1       3.217   6.045   9.788  1.00  0.00     0.034 C 
BRANCH  46  47
HETATM   47  C2  UNL     1       2.776   6.122   8.334  1.00  0.00    -0.086 C 
HETATM   48  C1  UNL     1       3.043   5.100   7.502  1.00  0.00     0.014 C 
BRANCH  47  49
HETATM   49  C35 UNL     1       2.073   7.374   7.819  1.00  0.00     0.005 C 
HETATM   50  C36 UNL     1       1.795   7.318   6.320  1.00  0.00     0.014 C 
HETATM   51  C37 UNL     1       0.800   7.686   8.606  1.00  0.00     0.014 C 
ENDBRANCH  47  49
ENDBRANCH  46  47
ENDBRANCH  45  46
ENDBRANCH  43  45
ENDBRANCH   1  43
TORSDOF 15
ENDMDL
MODEL 2
REMARK minimizedAffinity -7.0942626
REMARK CNNscore 0.465753883
REMARK CNNaffinity 6.72706223
REMARK  15 active torsions:
REMARK  status: ('A' for Active; 'I' for Inactive)
REMARK    1  A    between atoms: C2_2  and  C3_3 
REMARK    2  A    between atoms: C2_2  and  C35_44 
REMARK    3  A    between atoms: C3_3  and  C4_4 
REMARK    4  A    between atoms: C4_4  and  C5_5 
REMARK    5  A    between atoms: C5_5  and  C7_7 
REMARK    6  A    between atoms: C9_9  and  O1_10 
REMARK    7  A    between atoms: C10_11  and  C11_12 
REMARK    8  A    between atoms: C11_12  and  O3_14 
REMARK    9  A    between atoms: C22_25  and  O4_26 
REMARK   10  A    between atoms: O4_26  and  C23_27 
REMARK   11  A    between atoms: C24_29  and  C25_30 
REMARK   12  A    between atoms: C25_30  and  O6_31 
REMARK   13  A    between atoms: C26_32  and  O7_33 
REMARK   14  A    between atoms: C28_35  and  O8_36 
REMARK   15  A    between atoms: C29_37  and  O9_38 
ROOT
HETATM    1  C7  UNL     1       0.550   6.960  13.571  1.00  0.00     0.001 C 
HETATM    2  C8  UNL     1       1.813   7.758  13.172  1.00  0.00     0.039 C 
HETATM    3  C9  UNL     1       1.814   9.041  14.046  1.00  0.00     0.142 C 
HETATM    4  C10 UNL     1       0.699   8.805  15.114  1.00  0.00     0.102 C 
HETATM    5  C12 UNL     1       0.016   9.952  15.867  1.00  0.00    -0.054 C 
HETATM    6  C13 UNL     1      -1.282   9.845  16.258  1.00  0.00    -0.067 C 
HETATM    7  C14 UNL     1      -2.112   8.582  15.983  1.00  0.00     0.036 C 
HETATM    8  C15 UNL     1      -1.476   7.472  15.129  1.00  0.00     0.015 C 
HETATM    9  C16 UNL     1      -0.364   8.025  14.236  1.00  0.00    -0.016 C 
HETATM   10  C17 UNL     1      -1.050   8.939  13.173  1.00  0.00     0.017 C 
HETATM   11  C18 UNL     1      -2.036  11.025  16.920  1.00  0.00    -0.013 C 
HETATM   12  C19 UNL     1      -2.928  11.644  15.804  1.00  0.00     0.021 C 
HETATM   13  C20 UNL     1      -2.903  10.559  18.121  1.00  0.00     0.017 C 
HETATM   14  C21 UNL     1      -3.760  11.681  18.702  1.00  0.00     0.037 C 
HETATM   15  C22 UNL     1      -3.086  13.045  18.891  1.00  0.00     0.153 C 
HETATM   16  C30 UNL     1      -1.826  13.311  18.059  1.00  0.00    -0.055 C 
HETATM   17  C31 UNL     1      -1.440  14.591  17.808  1.00  0.00     0.017 C 
HETATM   18  C32 UNL     1      -1.062  12.090  17.529  1.00  0.00     0.029 C 
HETATM   19  C33 UNL     1       0.065  12.413  16.536  1.00  0.00     0.014 C 
HETATM   20  C34 UNL     1       0.857  11.165  16.167  1.00  0.00     0.036 C 
ENDROOT
BRANCH  15  21
HETATM   21  O4  UNL     1      -4.067  14.005  18.465  1.00  0.00    -0.349 OA
BRANCH  21  22
HETATM   22  C23 UNL     1      -5.426  13.634  18.608  1.00  0.00     0.292 C 
HETATM   23  O5  UNL     1      -5.933  14.265  19.792  1.00  0.00    -0.348 OA
HETATM   24  C24 UNL     1      -6.172  15.689  19.688  1.00  0.00     0.179 C 
HETATM   25  C26 UNL     1      -5.867  16.391  18.339  1.00  0.00     0.183 C 
HETATM   26  C28 UNL     1      -6.183  15.509  17.113  1.00  0.00     0.183 C 
HETATM   27  C29 UNL     1      -6.337  14.024  17.441  1.00  0.00     0.204 C 
BRANCH  24  28
HETATM   28  C25 UNL     1      -7.648  15.890  20.074  1.00  0.00     0.198 C 
BRANCH  28  29
HETATM   29  O6  UNL     1      -8.198  14.668  20.571  1.00  0.00    -0.398 OA
HETATM   30  H36 UNL     1      -7.802  13.957  20.033  1.00  0.00     0.209 HD
ENDBRANCH  28  29
ENDBRANCH  24  28
BRANCH  25  31
HETATM   31  O7  UNL     1      -4.488  16.775  18.188  1.00  0.00    -0.385 OA
HETATM   32  C27 UNL     1      -4.105  17.187  16.885  1.00  0.00     0.202 C 
ENDBRANCH  25  31
BRANCH  26  33
HETATM   33  O8  UNL     1      -7.397  15.949  16.473  1.00  0.00    -0.390 OA
HETATM   34  H42 UNL     1      -7.200  16.815  16.076  1.00  0.00     0.210 HD
ENDBRANCH  26  33
BRANCH  27  35
HETATM   35  O9  UNL     1      -6.107  13.239  16.263  1.00  0.00    -0.388 OA
HETATM   36  H44 UNL     1      -6.724  13.589  15.592  1.00  0.00     0.210 HD
ENDBRANCH  27  35
ENDBRANCH  21  22
ENDBRANCH  15  21
BRANCH   4  37
HETATM   37  C11 UNL     1       1.343   7.973  16.261  1.00  0.00     0.156 C 
HETATM   38  O2  UNL     1       2.350   8.222  16.903  1.00  0.00    -0.649 OA
BRANCH  37  39
HETATM   39  O3  UNL     1       0.720   6.801  16.507  1.00  0.00    -0.775 OA
HETATM   40  H16 UNL     1       1.291   6.380  17.187  1.00  0.00     0.167 HD
ENDBRANCH  37  39
ENDBRANCH   4  37
BRANCH   3  41
HETATM   41  O1  UNL     1       1.555  10.169  13.211  1.00  0.00    -0.394 OA
HETATM   42  H15 UNL     1       2.249  10.206  12.530  1.00  0.00     0.210 HD
ENDBRANCH   3  41
BRANCH   1  43
HETATM   43  C5  UNL     1      -0.016   5.923  12.565  1.00  0.00    -0.013 C 
HETATM   44  C6  UNL     1      -0.125   4.542  13.246  1.00  0.00     0.010 C 
BRANCH  43  45
HETATM   45  C4  UNL     1       0.583   5.761  11.149  1.00  0.00     0.009 C 
BRANCH  45  46
HETATM   46  C3  UNL     1       0.064   6.692  10.047  1.00  0.00     0.034 C 
BRANCH  46  47
HETATM   47  C2  UNL     1       1.189   7.376   9.283  1.00  0.00    -0.086 C 
HETATM   48  C1  UNL     1       0.926   8.470   8.547  1.00  0.00     0.014 C 
BRANCH  47  49
HETATM   49  C35 UNL     1       2.597   6.790   9.320  1.00  0.00     0.005 C 
HETATM   50  C36 UNL     1       2.872   5.845   8.155  1.00  0.00     0.014 C 
HETATM   51  C37 UNL     1       3.671   7.875   9.418  1.00  0.00     0.014 C 
ENDBRANCH  47  49
ENDBRANCH  46  47
ENDBRANCH  45  46
ENDBRANCH  43  45
ENDBRANCH   1  43
TORSDOF 15
ENDMDL
MODEL 3
REMARK minimizedAffinity -6.91103125
REMARK CNNscore 0.359013349
REMARK CNNaffinity 6.46863317
REMARK  15 active torsions:
REMARK  status: ('A' for Active; 'I' for Inactive)
REMARK    1  A    between atoms: C2_2  and  C3_3 
REMARK    2  A    between atoms: C2_2  and  C35_44 
REMARK    3  A    between atoms: C3_3  and  C4_4 
REMARK    4  A    between atoms: C4_4  and  C5_5 
REMARK    5  A    between atoms: C5_5  and  C7_7 
REMARK    6  A    between atoms: C9_9  and  O1_10 
REMARK    7  A    between atoms: C10_11  and  C11_12 
REMARK    8  A    between atoms: C11_12  and  O3_14 
REMARK    9  A    between atoms: C22_25  and  O4_26 
REMARK   10  A    between atoms: O4_26  and  C23_27 
REMARK   11  A    between atoms: C24_29  and  C25_30 
REMARK   12  A    between atoms: C25_30  and  O6_31 
REMARK   13  A    between atoms: C26_32  and  O7_33 
REMARK   14  A    between atoms: C28_35  and  O8_36 
REMARK   15  A    between atoms: C29_37  and  O9_38 
ROOT
HETATM    1  C7  UNL     1       3.932  12.534  17.392  1.00  0.00     0.001 C 
HETATM    2  C8  UNL     1       5.045  11.626  16.819  1.00  0.00     0.039 C 
HETATM    3  C9  UNL     1       4.381  10.768  15.709  1.00  0.00     0.142 C 
HETATM    4  C10 UNL     1       2.971  11.406  15.492  1.00  0.00     0.102 C 
HETATM    5  C12 UNL     1       1.801  10.637  14.869  1.00  0.00    -0.054 C 
HETATM    6  C13 UNL     1       0.522  10.903  15.246  1.00  0.00    -0.067 C 
HETATM    7  C14 UNL     1       0.190  11.981  16.289  1.00  0.00     0.036 C 
HETATM    8  C15 UNL     1       1.359  12.677  17.005  1.00  0.00     0.015 C 
HETATM    9  C16 UNL     1       2.620  11.812  16.983  1.00  0.00    -0.016 C 
HETATM   10  C17 UNL     1       2.337  10.574  17.890  1.00  0.00     0.017 C 
HETATM   11  C18 UNL     1      -0.674  10.071  14.720  1.00  0.00    -0.013 C 
HETATM   12  C19 UNL     1      -1.051   9.089  15.869  1.00  0.00     0.021 C 
HETATM   13  C20 UNL     1      -1.885  10.968  14.345  1.00  0.00     0.017 C 
HETATM   14  C21 UNL     1      -3.121  10.161  13.955  1.00  0.00     0.037 C 
HETATM   15  C22 UNL     1      -2.903   8.960  13.028  1.00  0.00     0.153 C 
HETATM   16  C30 UNL     1      -1.484   8.381  12.972  1.00  0.00    -0.055 C 
HETATM   17  C31 UNL     1      -1.294   7.096  12.570  1.00  0.00     0.017 C 
HETATM   18  C32 UNL     1      -0.332   9.300  13.400  1.00  0.00     0.029 C 
HETATM   19  C33 UNL     1       1.035   8.611  13.523  1.00  0.00     0.014 C 
HETATM   20  C34 UNL     1       2.141   9.616  13.816  1.00  0.00     0.036 C 
ENDROOT
BRANCH  15  21
HETATM   21  O4  UNL     1      -3.746   7.924  13.559  1.00  0.00    -0.349 OA
BRANCH  21  22
HETATM   22  C23 UNL     1      -5.063   8.297  13.923  1.00  0.00     0.292 C 
HETATM   23  O5  UNL     1      -5.966   7.694  12.986  1.00  0.00    -0.348 OA
HETATM   24  C24 UNL     1      -6.164   6.267  13.137  1.00  0.00     0.179 C 
HETATM   25  C26 UNL     1      -5.399   5.534  14.271  1.00  0.00     0.183 C 
HETATM   26  C28 UNL     1      -5.246   6.386  15.547  1.00  0.00     0.183 C 
HETATM   27  C29 UNL     1      -5.496   7.879  15.331  1.00  0.00     0.204 C 
BRANCH  24  28
HETATM   28  C25 UNL     1      -7.681   6.075  13.304  1.00  0.00     0.198 C 
BRANCH  28  29
HETATM   29  O6  UNL     1      -8.235   5.489  12.123  1.00  0.00    -0.398 OA
HETATM   30  H36 UNL     1      -7.752   5.885  11.375  1.00  0.00     0.209 HD
ENDBRANCH  28  29
ENDBRANCH  24  28
BRANCH  25  31
HETATM   31  O7  UNL     1      -4.061   5.148  13.907  1.00  0.00    -0.385 OA
HETATM   32  C27 UNL     1      -3.108   5.175  14.958  1.00  0.00     0.202 C 
ENDBRANCH  25  31
BRANCH  26  33
HETATM   33  O8  UNL     1      -6.152   5.931  16.571  1.00  0.00    -0.390 OA
HETATM   34  H42 UNL     1      -5.833   5.056  16.851  1.00  0.00     0.210 HD
ENDBRANCH  26  33
BRANCH  27  35
HETATM   35  O9  UNL     1      -4.853   8.635  16.364  1.00  0.00    -0.388 OA
HETATM   36  H44 UNL     1      -5.190   8.269  17.204  1.00  0.00     0.210 HD
ENDBRANCH  27  35
ENDBRANCH  21  22
ENDBRANCH  15  21
BRANCH   4  37
HETATM   37  C11 UNL     1       3.164  12.600  14.513  1.00  0.00     0.156 C 
HETATM   38  O2  UNL     1       2.396  13.519  14.280  1.00  0.00    -0.649 OA
BRANCH  37  39
HETATM   39  O3  UNL     1       4.308  12.547  13.799  1.00  0.00    -0.775 OA
HETATM   40  H16 UNL     1       4.231  13.315  13.191  1.00  0.00     0.167 HD
ENDBRANCH  37  39
ENDBRANCH   4  37
BRANCH   3  41
HETATM   41  O1  UNL     1       4.316   9.412  16.150  1.00  0.00    -0.394 OA
HETATM   42  H15 UNL     1       5.223   9.111  16.332  1.00  0.00     0.210 HD
ENDBRANCH   3  41
BRANCH   1  43
HETATM   43  C5  UNL     1       4.121  13.122  18.816  1.00  0.00    -0.013 C 
HETATM   44  C6  UNL     1       5.482  13.844  18.905  1.00  0.00     0.010 C 
BRANCH  43  45
HETATM   45  C4  UNL     1       3.903  12.262  20.081  1.00  0.00     0.009 C 
BRANCH  45  46
HETATM   46  C3  UNL     1       2.837  12.725  21.081  1.00  0.00     0.034 C 
BRANCH  46  47
HETATM   47  C2  UNL     1       3.137  12.278  22.505  1.00  0.00    -0.086 C 
HETATM   48  C1  UNL     1       2.775  13.057  23.539  1.00  0.00     0.014 C 
BRANCH  47  49
HETATM   49  C35 UNL     1       3.886  10.971  22.747  1.00  0.00     0.005 C 
HETATM   50  C36 UNL     1       5.353  11.191  23.100  1.00  0.00     0.014 C 
HETATM   51  C37 UNL     1       3.192  10.093  23.790  1.00  0.00     0.014 C 
ENDBRANCH  47  49
ENDBRANCH  46  47
ENDBRANCH  45  46
ENDBRANCH  43  45
ENDBRANCH   1  43
TORSDOF 15
ENDMDL
MODEL 4
REMARK minimizedAffinity -6.97499514
REMARK CNNscore 0.286849678
REMARK CNNaffinity 6.68430328
REMARK  15 active torsions:
REMARK  status: ('A' for Active; 'I' for Inactive)
REMARK    1  A    between atoms: C2_2  and  C3_3 
REMARK    2  A    between atoms: C2_2  and  C35_44 
REMARK    3  A    between atoms: C3_3  and  C4_4 
REMARK    4  A    between atoms: C4_4  and  C5_5 
REMARK    5  A    between atoms: C5_5  and  C7_7 
REMARK    6  A    between atoms: C9_9  and  O1_10 
REMARK    7  A    between atoms: C10_11  and  C11_12 
REMARK    8  A    between atoms: C11_12  and  O3_14 
REMARK    9  A    between atoms: C22_25  and  O4_26 
REMARK   10  A    between atoms: O4_26  and  C23_27 
REMARK   11  A    between atoms: C24_29  and  C25_30 
REMARK   12  A    between atoms: C25_30  and  O6_31 
REMARK   13  A    between atoms: C26_32  and  O7_33 
REMARK   14  A    between atoms: C28_35  and  O8_36 
REMARK   15  A    between atoms: C29_37  and  O9_38 
ROOT
HETATM    1  C7  UNL     1      -8.789  -9.524  12.364  1.00  0.00     0.001 C 
HETATM    2  C8  UNL     1      -7.489  -9.795  13.157  1.00  0.00     0.039 C 
HETATM    3  C9  UNL     1      -6.335  -9.791  12.121  1.00  0.00     0.142 C 
HETATM    4  C10 UNL     1      -6.974  -9.244  10.804  1.00  0.00     0.102 C 
HETATM    5  C12 UNL     1      -6.373  -9.508   9.419  1.00  0.00    -0.054 C 
HETATM    6  C13 UNL     1      -7.177  -9.617   8.328  1.00  0.00    -0.067 C 
HETATM    7  C14 UNL     1      -8.702  -9.468   8.424  1.00  0.00     0.036 C 
HETATM    8  C15 UNL     1      -9.326  -9.318   9.822  1.00  0.00     0.015 C 
HETATM    9  C16 UNL     1      -8.413  -9.897  10.904  1.00  0.00    -0.016 C 
HETATM   10  C17 UNL     1      -8.386 -11.443  10.694  1.00  0.00     0.017 C 
HETATM   11  C18 UNL     1      -6.615  -9.994   6.935  1.00  0.00    -0.013 C 
HETATM   12  C19 UNL     1      -6.950 -11.502   6.732  1.00  0.00     0.021 C 
HETATM   13  C20 UNL     1      -7.243  -9.136   5.803  1.00  0.00     0.017 C 
HETATM   14  C21 UNL     1      -6.808  -9.582   4.410  1.00  0.00     0.037 C 
HETATM   15  C22 UNL     1      -5.322  -9.907   4.217  1.00  0.00     0.153 C 
HETATM   16  C30 UNL     1      -4.519 -10.235   5.480  1.00  0.00    -0.055 C 
HETATM   17  C31 UNL     1      -3.372 -10.959   5.383  1.00  0.00     0.017 C 
HETATM   18  C32 UNL     1      -5.075  -9.731   6.819  1.00  0.00     0.029 C 
HETATM   19  C33 UNL     1      -4.348 -10.261   8.064  1.00  0.00     0.014 C 
HETATM   20  C34 UNL     1      -4.873  -9.608   9.336  1.00  0.00     0.036 C 
ENDROOT
BRANCH  15  21
HETATM   21  O4  UNL     1      -5.305 -11.092   3.403  1.00  0.00    -0.349 OA
BRANCH  21  22
HETATM   22  C23 UNL     1      -6.181 -11.114   2.291  1.00  0.00     0.292 C 
HETATM   23  O5  UNL     1      -5.666 -10.211   1.304  1.00  0.00    -0.348 OA
HETATM   24  C24 UNL     1      -4.495 -10.671   0.586  1.00  0.00     0.179 C 
HETATM   25  C26 UNL     1      -3.916 -12.067   0.939  1.00  0.00     0.183 C 
HETATM   26  C28 UNL     1      -5.004 -13.100   1.296  1.00  0.00     0.183 C 
HETATM   27  C29 UNL     1      -6.363 -12.482   1.628  1.00  0.00     0.204 C 
BRANCH  24  28
HETATM   28  C25 UNL     1      -4.873 -10.610  -0.904  1.00  0.00     0.198 C 
BRANCH  28  29
HETATM   29  O6  UNL     1      -4.251 -11.683  -1.614  1.00  0.00    -0.398 OA
HETATM   30  H36 UNL     1      -3.368 -11.792  -1.216  1.00  0.00     0.209 HD
ENDBRANCH  28  29
ENDBRANCH  24  28
BRANCH  25  31
HETATM   31  O7  UNL     1      -3.020 -12.051   2.066  1.00  0.00    -0.385 OA
HETATM   32  C27 UNL     1      -2.057 -11.009   2.068  1.00  0.00     0.202 C 
ENDBRANCH  25  31
BRANCH  26  33
HETATM   33  O8  UNL     1      -5.195 -14.029   0.210  1.00  0.00    -0.390 OA
HETATM   34  H42 UNL     1      -4.387 -14.567   0.164  1.00  0.00     0.210 HD
ENDBRANCH  26  33
BRANCH  27  35
HETATM   35  O9  UNL     1      -7.131 -13.394   2.423  1.00  0.00    -0.388 OA
HETATM   36  H44 UNL     1      -7.160 -14.225   1.912  1.00  0.00     0.210 HD
ENDBRANCH  27  35
ENDBRANCH  21  22
ENDBRANCH  15  21
BRANCH   4  37
HETATM   37  C11 UNL     1      -6.947  -7.691  10.903  1.00  0.00     0.156 C 
HETATM   38  O2  UNL     1      -6.623  -6.998  11.853  1.00  0.00    -0.649 OA
BRANCH  37  39
HETATM   39  O3  UNL     1      -7.408  -7.062   9.801  1.00  0.00    -0.775 OA
HETATM   40  H16 UNL     1      -7.395  -6.114  10.061  1.00  0.00     0.167 HD
ENDBRANCH  37  39
ENDBRANCH   4  37
BRANCH   3  41
HETATM   41  O1  UNL     1      -5.831 -11.120  11.984  1.00  0.00    -0.394 OA
HETATM   42  H15 UNL     1      -5.519 -11.415  12.858  1.00  0.00     0.210 HD
ENDBRANCH   3  41
BRANCH   1  43
HETATM   43  C5  UNL     1     -10.140  -9.963  12.988  1.00  0.00    -0.013 C 
HETATM   44  C6  UNL     1     -11.283  -9.093  12.422  1.00  0.00     0.010 C 
BRANCH  43  45
HETATM   45  C4  UNL     1     -10.312 -10.119  14.517  1.00  0.00     0.009 C 
BRANCH  45  46
HETATM   46  C3  UNL     1     -11.355  -9.234  15.209  1.00  0.00     0.034 C 
BRANCH  46  47
HETATM   47  C2  UNL     1     -10.945  -8.843  16.622  1.00  0.00    -0.086 C 
HETATM   48  C1  UNL     1     -11.200  -7.601  17.070  1.00  0.00     0.014 C 
BRANCH  47  49
HETATM   49  C35 UNL     1     -10.210  -9.847  17.503  1.00  0.00     0.005 C 
HETATM   50  C36 UNL     1      -9.457  -9.182  18.651  1.00  0.00     0.014 C 
HETATM   51  C37 UNL     1     -11.136 -10.951  18.016  1.00  0.00     0.014 C 
ENDBRANCH  47  49
ENDBRANCH  46  47
ENDBRANCH  45  46
ENDBRANCH  43  45
ENDBRANCH   1  43
TORSDOF 15
ENDMDL
MODEL 5
REMARK minimizedAffinity -7.06884527
REMARK CNNscore 0.24052678
REMARK CNNaffinity 5.61161804
REMARK  15 active torsions:
REMARK  status: ('A' for Active; 'I' for Inactive)
REMARK    1  A    between atoms: C2_2  and  C3_3 
REMARK    2  A    between atoms: C2_2  and  C35_44 
REMARK    3  A    between atoms: C3_3  and  C4_4 
REMARK    4  A    between atoms: C4_4  and  C5_5 
REMARK    5  A    between atoms: C5_5  and  C7_7 
REMARK    6  A    between atoms: C9_9  and  O1_10 
REMARK    7  A    between atoms: C10_11  and  C11_12 
REMARK    8  A    between atoms: C11_12  and  O3_14 
REMARK    9  A    between atoms: C22_25  and  O4_26 
REMARK   10  A    between atoms: O4_26  and  C23_27 
REMARK   11  A    between atoms: C24_29  and  C25_30 
REMARK   12  A    between atoms: C25_30  and  O6_31 
REMARK   13  A    between atoms: C26_32  and  O7_33 
REMARK   14  A    between atoms: C28_35  and  O8_36 
REMARK   15  A    between atoms: C29_37  and  O9_38 
ROOT
HETATM    1  C7  UNL     1      -7.024  15.192  22.607  1.00  0.00     0.001 C 
HETATM    2  C8  UNL     1      -5.908  15.913  23.398  1.00  0.00     0.039 C 
HETATM    3  C9  UNL     1      -4.627  15.826  22.525  1.00  0.00     0.142 C 
HETATM    4  C10 UNL     1      -5.117  15.298  21.138  1.00  0.00     0.102 C 
HETATM    5  C12 UNL     1      -4.183  14.608  20.138  1.00  0.00    -0.054 C 
HETATM    6  C13 UNL     1      -4.655  13.638  19.310  1.00  0.00    -0.067 C 
HETATM    7  C14 UNL     1      -6.128  13.202  19.325  1.00  0.00     0.036 C 
HETATM    8  C15 UNL     1      -7.048  13.804  20.402  1.00  0.00     0.015 C 
HETATM    9  C16 UNL     1      -6.246  14.292  21.609  1.00  0.00    -0.016 C 
HETATM   10  C17 UNL     1      -5.665  13.024  22.310  1.00  0.00     0.017 C 
HETATM   11  C18 UNL     1      -3.719  12.843  18.367  1.00  0.00    -0.013 C 
HETATM   12  C19 UNL     1      -3.485  11.466  19.057  1.00  0.00     0.021 C 
HETATM   13  C20 UNL     1      -4.341  12.652  16.957  1.00  0.00     0.017 C 
HETATM   14  C21 UNL     1      -3.498  11.755  16.054  1.00  0.00     0.037 C 
HETATM   15  C22 UNL     1      -1.983  11.991  16.059  1.00  0.00     0.153 C 
HETATM   16  C30 UNL     1      -1.403  12.721  17.276  1.00  0.00    -0.055 C 
HETATM   17  C31 UNL     1      -0.088  12.573  17.590  1.00  0.00     0.017 C 
HETATM   18  C32 UNL     1      -2.365  13.586  18.102  1.00  0.00     0.029 C 
HETATM   19  C33 UNL     1      -1.785  14.124  19.419  1.00  0.00     0.014 C 
HETATM   20  C34 UNL     1      -2.753  15.078  20.106  1.00  0.00     0.036 C 
ENDROOT
BRANCH  15  21
HETATM   21  O4  UNL     1      -1.403  10.676  16.057  1.00  0.00    -0.349 OA
BRANCH  21  22
HETATM   22  C23 UNL     1      -2.096   9.674  15.337  1.00  0.00     0.292 C 
HETATM   23  O5  UNL     1      -1.679   9.748  13.966  1.00  0.00    -0.348 OA
HETATM   24  C24 UNL     1      -0.350   9.244  13.689  1.00  0.00     0.179 C 
HETATM   25  C26 UNL     1       0.486   8.682  14.870  1.00  0.00     0.183 C 
HETATM   26  C28 UNL     1      -0.370   7.941  15.918  1.00  0.00     0.183 C 
HETATM   27  C29 UNL     1      -1.866   8.240  15.822  1.00  0.00     0.204 C 
BRANCH  24  28
HETATM   28  C25 UNL     1      -0.533   8.168  12.604  1.00  0.00     0.198 C 
BRANCH  28  29
HETATM   29  O6  UNL     1       0.651   7.375  12.493  1.00  0.00    -0.398 OA
HETATM   30  H36 UNL     1       1.398   7.988  12.620  1.00  0.00     0.209 HD
ENDBRANCH  28  29
ENDBRANCH  24  28
BRANCH  25  31
HETATM   31  O7  UNL     1       1.197   9.694  15.605  1.00  0.00    -0.385 OA
HETATM   32  C27 UNL     1       1.981   9.226  16.691  1.00  0.00     0.202 C 
ENDBRANCH  25  31
BRANCH  26  33
HETATM   33  O8  UNL     1      -0.196   6.515  15.796  1.00  0.00    -0.390 OA
HETATM   34  H42 UNL     1       0.714   6.325  16.080  1.00  0.00     0.210 HD
ENDBRANCH  26  33
BRANCH  27  35
HETATM   35  O9  UNL     1      -2.500   7.964  17.078  1.00  0.00    -0.388 OA
HETATM   36  H44 UNL     1      -2.267   7.040  17.289  1.00  0.00     0.210 HD
ENDBRANCH  27  35
ENDBRANCH  21  22
ENDBRANCH  15  21
BRANCH   4  37
HETATM   37  C11 UNL     1      -5.627  16.534  20.341  1.00  0.00     0.156 C 
HETATM   38  O2  UNL     1      -6.230  17.508  20.760  1.00  0.00    -0.649 OA
BRANCH  37  39
HETATM   39  O3  UNL     1      -5.415  16.456  19.011  1.00  0.00    -0.775 OA
HETATM   40  H16 UNL     1      -5.858  17.262  18.664  1.00  0.00     0.167 HD
ENDBRANCH  37  39
ENDBRANCH   4  37
BRANCH   3  41
HETATM   41  O1  UNL     1      -3.696  14.949  23.157  1.00  0.00    -0.394 OA
HETATM   42  H15 UNL     1      -3.497  15.306  24.040  1.00  0.00     0.210 HD
ENDBRANCH   3  41
BRANCH   1  43
HETATM   43  C5  UNL     1      -8.254  14.658  23.388  1.00  0.00    -0.013 C 
HETATM   44  C6  UNL     1      -8.400  15.426  24.720  1.00  0.00     0.010 C 
BRANCH  43  45
HETATM   45  C4  UNL     1      -8.461  13.145  23.633  1.00  0.00     0.009 C 
BRANCH  45  46
HETATM   46  C3  UNL     1      -9.303  12.369  22.614  1.00  0.00     0.034 C 
BRANCH  46  47
HETATM   47  C2  UNL     1     -10.494  11.668  23.252  1.00  0.00    -0.086 C 
HETATM   48  C1  UNL     1     -11.068  12.194  24.348  1.00  0.00     0.014 C 
BRANCH  47  49
HETATM   49  C35 UNL     1     -11.000  10.352  22.672  1.00  0.00     0.005 C 
HETATM   50  C36 UNL     1     -10.865   9.188  23.648  1.00  0.00     0.014 C 
HETATM   51  C37 UNL     1     -12.430  10.467  22.142  1.00  0.00     0.014 C 
ENDBRANCH  47  49
ENDBRANCH  46  47
ENDBRANCH  45  46
ENDBRANCH  43  45
ENDBRANCH   1  43
TORSDOF 15
ENDMDL
MODEL 6
REMARK minimizedAffinity -7.89691877
REMARK CNNscore 0.235326156
REMARK CNNaffinity 5.83208513
REMARK  15 active torsions:
REMARK  status: ('A' for Active; 'I' for Inactive)
REMARK    1  A    between atoms: C2_2  and  C3_3 
REMARK    2  A    between atoms: C2_2  and  C35_44 
REMARK    3  A    between atoms: C3_3  and  C4_4 
REMARK    4  A    between atoms: C4_4  and  C5_5 
REMARK    5  A    between atoms: C5_5  and  C7_7 
REMARK    6  A    between atoms: C9_9  and  O1_10 
REMARK    7  A    between atoms: C10_11  and  C11_12 
REMARK    8  A    between atoms: C11_12  and  O3_14 
REMARK    9  A    between atoms: C22_25  and  O4_26 
REMARK   10  A    between atoms: O4_26  and  C23_27 
REMARK   11  A    between atoms: C24_29  and  C25_30 
REMARK   12  A    between atoms: C25_30  and  O6_31 
REMARK   13  A    between atoms: C26_32  and  O7_33 
REMARK   14  A    between atoms: C28_35  and  O8_36 
REMARK   15  A    between atoms: C29_37  and  O9_38 
ROOT
HETATM    1  C7  UNL     1     -15.103   9.606  13.562  1.00  0.00     0.001 C 
HETATM    2  C8  UNL     1     -15.579   9.626  12.090  1.00  0.00     0.039 C 
HETATM    3  C9  UNL     1     -16.441   8.351  11.891  1.00  0.00     0.142 C 
HETATM    4  C10 UNL     1     -16.661   7.782  13.329  1.00  0.00     0.102 C 
HETATM    5  C12 UNL     1     -17.024   6.316  13.593  1.00  0.00    -0.054 C 
HETATM    6  C13 UNL     1     -16.602   5.694  14.726  1.00  0.00    -0.067 C 
HETATM    7  C14 UNL     1     -15.765   6.422  15.789  1.00  0.00     0.036 C 
HETATM    8  C15 UNL     1     -15.297   7.855  15.483  1.00  0.00     0.015 C 
HETATM    9  C16 UNL     1     -15.255   8.117  13.976  1.00  0.00    -0.016 C 
HETATM   10  C17 UNL     1     -14.103   7.237  13.397  1.00  0.00     0.017 C 
HETATM   11  C18 UNL     1     -16.855   4.186  14.973  1.00  0.00    -0.013 C 
HETATM   12  C19 UNL     1     -15.509   3.469  14.655  1.00  0.00     0.021 C 
HETATM   13  C20 UNL     1     -17.296   3.903  16.435  1.00  0.00     0.017 C 
HETATM   14  C21 UNL     1     -17.418   2.412  16.738  1.00  0.00     0.037 C 
HETATM   15  C22 UNL     1     -18.108   1.541  15.681  1.00  0.00     0.153 C 
HETATM   16  C30 UNL     1     -18.166   2.105  14.256  1.00  0.00    -0.055 C 
HETATM   17  C31 UNL     1     -18.324   1.261  13.202  1.00  0.00     0.017 C 
HETATM   18  C32 UNL     1     -18.023   3.624  14.093  1.00  0.00     0.029 C 
HETATM   19  C33 UNL     1     -17.881   4.110  12.643  1.00  0.00     0.014 C 
HETATM   20  C34 UNL     1     -17.882   5.631  12.563  1.00  0.00     0.036 C 
ENDROOT
BRANCH  15  21
HETATM   21  O4  UNL     1     -17.317   0.343  15.614  1.00  0.00    -0.349 OA
BRANCH  21  22
HETATM   22  C23 UNL     1     -16.505   0.051  16.737  1.00  0.00     0.292 C 
HETATM   23  O5  UNL     1     -17.212  -0.887  17.559  1.00  0.00    -0.348 OA
HETATM   24  C24 UNL     1     -17.268  -2.243  17.054  1.00  0.00     0.179 C 
HETATM   25  C26 UNL     1     -16.576  -2.554  15.700  1.00  0.00     0.183 C 
HETATM   26  C28 UNL     1     -15.277  -1.751  15.487  1.00  0.00     0.183 C 
HETATM   27  C29 UNL     1     -15.132  -0.545  16.416  1.00  0.00     0.204 C 
BRANCH  24  28
HETATM   28  C25 UNL     1     -16.682  -3.126  18.170  1.00  0.00     0.198 C 
BRANCH  28  29
HETATM   29  O6  UNL     1     -16.363  -2.327  19.312  1.00  0.00    -0.398 OA
HETATM   30  H36 UNL     1     -16.022  -1.484  18.963  1.00  0.00     0.209 HD
ENDBRANCH  28  29
ENDBRANCH  24  28
BRANCH  25  31
HETATM   31  O7  UNL     1     -17.396  -2.264  14.554  1.00  0.00    -0.385 OA
HETATM   32  C27 UNL     1     -16.902  -2.737  13.311  1.00  0.00     0.202 C 
ENDBRANCH  25  31
BRANCH  26  33
HETATM   33  O8  UNL     1     -14.124  -2.595  15.678  1.00  0.00    -0.390 OA
HETATM   34  H42 UNL     1     -14.118  -3.224  14.936  1.00  0.00     0.210 HD
ENDBRANCH  26  33
BRANCH  27  35
HETATM   35  O9  UNL     1     -14.228   0.406  15.841  1.00  0.00    -0.388 OA
HETATM   36  H44 UNL     1     -13.406  -0.089  15.663  1.00  0.00     0.210 HD
ENDBRANCH  27  35
ENDBRANCH  21  22
ENDBRANCH  15  21
BRANCH   4  37
HETATM   37  C11 UNL     1     -17.867   8.553  13.939  1.00  0.00     0.156 C 
HETATM   38  O2  UNL     1     -18.212   9.705  13.731  1.00  0.00    -0.649 OA
BRANCH  37  39
HETATM   39  O3  UNL     1     -18.561   7.851  14.859  1.00  0.00    -0.775 OA
HETATM   40  H16 UNL     1     -19.221   8.500  15.188  1.00  0.00     0.167 HD
ENDBRANCH  37  39
ENDBRANCH   4  37
BRANCH   3  41
HETATM   41  O1  UNL     1     -15.740   7.448  11.036  1.00  0.00    -0.394 OA
HETATM   42  H15 UNL     1     -15.578   7.899  10.189  1.00  0.00     0.210 HD
ENDBRANCH   3  41
BRANCH   1  43
HETATM   43  C5  UNL     1     -13.843  10.426  13.941  1.00  0.00    -0.013 C 
HETATM   44  C6  UNL     1     -13.259  11.099  12.680  1.00  0.00     0.010 C 
BRANCH  43  45
HETATM   45  C4  UNL     1     -12.699   9.810  14.779  1.00  0.00     0.009 C 
BRANCH  45  46
HETATM   46  C3  UNL     1     -11.437   9.357  14.035  1.00  0.00     0.034 C 
BRANCH  46  47
HETATM   47  C2  UNL     1     -10.175   9.523  14.870  1.00  0.00    -0.086 C 
HETATM   48  C1  UNL     1      -9.758  10.755  15.211  1.00  0.00     0.014 C 
BRANCH  47  49
HETATM   49  C35 UNL     1      -9.368   8.294  15.278  1.00  0.00     0.005 C 
HETATM   50  C36 UNL     1      -9.775   7.042  14.508  1.00  0.00     0.014 C 
HETATM   51  C37 UNL     1      -7.862   8.536  15.184  1.00  0.00     0.014 C 
ENDBRANCH  47  49
ENDBRANCH  46  47
ENDBRANCH  45  46
ENDBRANCH  43  45
ENDBRANCH   1  43
TORSDOF 15
ENDMDL
MODEL 7
REMARK minimizedAffinity -7.49307156
REMARK CNNscore 0.216968268
REMARK CNNaffinity 6.54464674
REMARK  15 active torsions:
REMARK  status: ('A' for Active; 'I' for Inactive)
REMARK    1  A    between atoms: C2_2  and  C3_3 
REMARK    2  A    between atoms: C2_2  and  C35_44 
REMARK    3  A    between atoms: C3_3  and  C4_4 
REMARK    4  A    between atoms: C4_4  and  C5_5 
REMARK    5  A    between atoms: C5_5  and  C7_7 
REMARK    6  A    between atoms: C9_9  and  O1_10 
REMARK    7  A    between atoms: C10_11  and  C11_12 
REMARK    8  A    between atoms: C11_12  and  O3_14 
REMARK    9  A    between atoms: C22_25  and  O4_26 
REMARK   10  A    between atoms: O4_26  and  C23_27 
REMARK   11  A    between atoms: C24_29  and  C25_30 
REMARK   12  A    between atoms: C25_30  and  O6_31 
REMARK   13  A    between atoms: C26_32  and  O7_33 
REMARK   14  A    between atoms: C28_35  and  O8_36 
REMARK   15  A    between atoms: C29_37  and  O9_38 
ROOT
HETATM    1  C7  UNL     1       3.594   7.640  11.640  1.00  0.00     0.001 C 
HETATM    2  C8  UNL     1       4.001   8.290  10.298  1.00  0.00     0.039 C 
HETATM    3  C9  UNL     1       5.416   8.890  10.513  1.00  0.00     0.142 C 
HETATM    4  C10 UNL     1       5.891   8.326  11.890  1.00  0.00     0.102 C 
HETATM    5  C12 UNL     1       6.981   8.999  12.730  1.00  0.00    -0.054 C 
HETATM    6  C13 UNL     1       6.946   8.933  14.088  1.00  0.00    -0.067 C 
HETATM    7  C14 UNL     1       5.837   8.178  14.836  1.00  0.00     0.036 C 
HETATM    8  C15 UNL     1       4.676   7.597  14.011  1.00  0.00     0.015 C 
HETATM    9  C16 UNL     1       4.517   8.332  12.679  1.00  0.00    -0.016 C 
HETATM   10  C17 UNL     1       4.026   9.775  13.015  1.00  0.00     0.017 C 
HETATM   11  C18 UNL     1       7.967   9.693  14.970  1.00  0.00    -0.013 C 
HETATM   12  C19 UNL     1       7.222  10.957  15.495  1.00  0.00     0.021 C 
HETATM   13  C20 UNL     1       8.475   8.824  16.153  1.00  0.00     0.017 C 
HETATM   14  C21 UNL     1       9.376   9.598  17.112  1.00  0.00     0.037 C 
HETATM   15  C22 UNL     1      10.438  10.510  16.486  1.00  0.00     0.153 C 
HETATM   16  C30 UNL     1      10.200  10.949  15.037  1.00  0.00    -0.055 C 
HETATM   17  C31 UNL     1      10.800  12.075  14.565  1.00  0.00     0.017 C 
HETATM   18  C32 UNL     1       9.265  10.082  14.183  1.00  0.00     0.029 C 
HETATM   19  C33 UNL     1       8.901  10.676  12.813  1.00  0.00     0.014 C 
HETATM   20  C34 UNL     1       8.085   9.697  11.980  1.00  0.00     0.036 C 
ENDROOT
BRANCH  15  21
HETATM   21  O4  UNL     1      10.415  11.706  17.284  1.00  0.00    -0.349 OA
BRANCH  21  22
HETATM   22  C23 UNL     1      11.609  12.467  17.325  1.00  0.00     0.292 C 
HETATM   23  O5  UNL     1      11.251  13.834  17.570  1.00  0.00    -0.348 OA
HETATM   24  C24 UNL     1      10.829  14.138  18.921  1.00  0.00     0.179 C 
HETATM   25  C26 UNL     1      10.800  12.985  19.960  1.00  0.00     0.183 C 
HETATM   26  C28 UNL     1      11.942  11.967  19.766  1.00  0.00     0.183 C 
HETATM   27  C29 UNL     1      12.618  12.045  18.396  1.00  0.00     0.204 C 
BRANCH  24  28
HETATM   28  C25 UNL     1      11.756  15.267  19.401  1.00  0.00     0.198 C 
BRANCH  28  29
HETATM   29  O6  UNL     1      11.118  16.024  20.432  1.00  0.00    -0.398 OA
HETATM   30  H36 UNL     1      10.177  16.076  20.183  1.00  0.00     0.209 HD
ENDBRANCH  28  29
ENDBRANCH  24  28
BRANCH  25  31
HETATM   31  O7  UNL     1       9.588  12.209  19.927  1.00  0.00    -0.385 OA
HETATM   32  C27 UNL     1       8.382  12.957  19.918  1.00  0.00     0.202 C 
ENDBRANCH  25  31
BRANCH  26  33
HETATM   33  O8  UNL     1      12.960  12.151  20.771  1.00  0.00    -0.390 OA
HETATM   34  H42 UNL     1      12.564  11.879  21.616  1.00  0.00     0.210 HD
ENDBRANCH  26  33
BRANCH  27  35
HETATM   35  O9  UNL     1      13.263  10.800  18.100  1.00  0.00    -0.388 OA
HETATM   36  H44 UNL     1      13.858  10.629  18.854  1.00  0.00     0.210 HD
ENDBRANCH  27  35
ENDBRANCH  21  22
ENDBRANCH  15  21
BRANCH   4  37
HETATM   37  C11 UNL     1       6.486   6.914  11.617  1.00  0.00     0.156 C 
HETATM   38  O2  UNL     1       7.202   6.560  10.695  1.00  0.00    -0.649 OA
BRANCH  37  39
HETATM   39  O3  UNL     1       6.087   5.969  12.495  1.00  0.00    -0.775 OA
HETATM   40  H16 UNL     1       6.484   5.145  12.135  1.00  0.00     0.167 HD
ENDBRANCH  37  39
ENDBRANCH   4  37
BRANCH   3  41
HETATM   41  O1  UNL     1       5.321  10.315  10.499  1.00  0.00    -0.394 OA
HETATM   42  H15 UNL     1       4.951  10.583   9.640  1.00  0.00     0.210 HD
ENDBRANCH   3  41
BRANCH   1  43
HETATM   43  C5  UNL     1       2.086   7.413  11.924  1.00  0.00    -0.013 C 
HETATM   44  C6  UNL     1       1.677   5.996  11.468  1.00  0.00     0.010 C 
BRANCH  43  45
HETATM   45  C4  UNL     1       1.016   8.435  11.472  1.00  0.00     0.009 C 
BRANCH  45  46
HETATM   46  C3  UNL     1      -0.363   7.893  11.080  1.00  0.00     0.034 C 
BRANCH  46  47
HETATM   47  C2  UNL     1      -1.355   7.929  12.234  1.00  0.00    -0.086 C 
HETATM   48  C1  UNL     1      -1.819   9.110  12.677  1.00  0.00     0.014 C 
BRANCH  47  49
HETATM   49  C35 UNL     1      -1.782   6.628  12.908  1.00  0.00     0.005 C 
HETATM   50  C36 UNL     1      -0.976   6.327  14.167  1.00  0.00     0.014 C 
HETATM   51  C37 UNL     1      -3.284   6.591  13.190  1.00  0.00     0.014 C 
ENDBRANCH  47  49
ENDBRANCH  46  47
ENDBRANCH  45  46
ENDBRANCH  43  45
ENDBRANCH   1  43
TORSDOF 15
ENDMDL
MODEL 8
REMARK minimizedAffinity -7.05632448
REMARK CNNscore 0.188549832
REMARK CNNaffinity 5.71272135
REMARK  15 active torsions:
REMARK  status: ('A' for Active; 'I' for Inactive)
REMARK    1  A    between atoms: C2_2  and  C3_3 
REMARK    2  A    between atoms: C2_2  and  C35_44 
REMARK    3  A    between atoms: C3_3  and  C4_4 
REMARK    4  A    between atoms: C4_4  and  C5_5 
REMARK    5  A    between atoms: C5_5  and  C7_7 
REMARK    6  A    between atoms: C9_9  and  O1_10 
REMARK    7  A    between atoms: C10_11  and  C11_12 
REMARK    8  A    between atoms: C11_12  and  O3_14 
REMARK    9  A    between atoms: C22_25  and  O4_26 
REMARK   10  A    between atoms: O4_26  and  C23_27 
REMARK   11  A    between atoms: C24_29  and  C25_30 
REMARK   12  A    between atoms: C25_30  and  O6_31 
REMARK   13  A    between atoms: C26_32  and  O7_33 
REMARK   14  A    between atoms: C28_35  and  O8_36 
REMARK   15  A    between atoms: C29_37  and  O9_38 
ROOT
HETATM    1  C7  UNL     1      -2.321   6.720  13.900  1.00  0.00     0.001 C 
HETATM    2  C8  UNL     1      -1.574   7.068  12.592  1.00  0.00     0.039 C 
HETATM    3  C9  UNL     1      -0.608   8.233  12.936  1.00  0.00     0.142 C 
HETATM    4  C10 UNL     1      -0.632   8.332  14.494  1.00  0.00     0.102 C 
HETATM    5  C12 UNL     1      -0.231   9.605  15.249  1.00  0.00    -0.054 C 
HETATM    6  C13 UNL     1      -0.821   9.919  16.433  1.00  0.00    -0.067 C 
HETATM    7  C14 UNL     1      -1.892   9.022  17.071  1.00  0.00     0.036 C 
HETATM    8  C15 UNL     1      -2.386   7.805  16.269  1.00  0.00     0.015 C 
HETATM    9  C16 UNL     1      -2.155   7.996  14.769  1.00  0.00    -0.016 C 
HETATM   10  C17 UNL     1      -3.114   9.137  14.306  1.00  0.00     0.017 C 
HETATM   11  C18 UNL     1      -0.522  11.250  17.167  1.00  0.00    -0.013 C 
HETATM   12  C19 UNL     1      -1.731  12.185  16.868  1.00  0.00     0.021 C 
HETATM   13  C20 UNL     1      -0.352  11.045  18.697  1.00  0.00     0.017 C 
HETATM   14  C21 UNL     1      -0.193  12.359  19.456  1.00  0.00     0.037 C 
HETATM   15  C22 UNL     1       0.743  13.408  18.844  1.00  0.00     0.153 C 
HETATM   16  C30 UNL     1       1.037  13.277  17.345  1.00  0.00    -0.055 C 
HETATM   17  C31 UNL     1       1.449  14.364  16.639  1.00  0.00     0.017 C 
HETATM   18  C32 UNL     1       0.828  11.897  16.704  1.00  0.00     0.029 C 
HETATM   19  C33 UNL     1       0.936  11.871  15.172  1.00  0.00     0.014 C 
HETATM   20  C34 UNL     1       0.852  10.449  14.632  1.00  0.00     0.036 C 
ENDROOT
BRANCH  15  21
HETATM   21  O4  UNL     1       0.059  14.661  19.018  1.00  0.00    -0.349 OA
BRANCH  21  22
HETATM   22  C23 UNL     1      -0.821  14.759  20.122  1.00  0.00     0.292 C 
HETATM   23  O5  UNL     1      -0.144  15.474  21.164  1.00  0.00    -0.348 OA
HETATM   24  C24 UNL     1      -0.002  16.900  20.953  1.00  0.00     0.179 C 
HETATM   25  C26 UNL     1      -0.582  17.513  19.651  1.00  0.00     0.183 C 
HETATM   26  C28 UNL     1      -1.890  16.836  19.194  1.00  0.00     0.183 C 
HETATM   27  C29 UNL     1      -2.145  15.476  19.842  1.00  0.00     0.204 C 
BRANCH  24  28
HETATM   28  C25 UNL     1      -0.638  17.566  22.187  1.00  0.00     0.198 C 
BRANCH  28  29
HETATM   29  O6  UNL     1      -1.933  17.013  22.432  1.00  0.00    -0.398 OA
HETATM   30  H36 UNL     1      -2.329  16.858  21.554  1.00  0.00     0.209 HD
ENDBRANCH  28  29
ENDBRANCH  24  28
BRANCH  25  31
HETATM   31  O7  UNL     1       0.310  17.421  18.524  1.00  0.00    -0.385 OA
HETATM   32  C27 UNL     1      -0.258  17.747  17.265  1.00  0.00     0.202 C 
ENDBRANCH  25  31
BRANCH  26  33
HETATM   33  O8  UNL     1      -3.023  17.681  19.479  1.00  0.00    -0.390 OA
HETATM   34  H42 UNL     1      -2.951  18.446  18.884  1.00  0.00     0.210 HD
ENDBRANCH  26  33
BRANCH  27  35
HETATM   35  O9  UNL     1      -3.038  14.707  19.027  1.00  0.00    -0.388 OA
HETATM   36  H44 UNL     1      -3.827  15.268  18.902  1.00  0.00     0.210 HD
ENDBRANCH  27  35
ENDBRANCH  21  22
ENDBRANCH  15  21
BRANCH   4  37
HETATM   37  C11 UNL     1       0.382   7.279  15.028  1.00  0.00     0.156 C 
HETATM   38  O2  UNL     1       1.298   6.739  14.430  1.00  0.00    -0.649 OA
BRANCH  37  39
HETATM   39  O3  UNL     1       0.149   6.886  16.298  1.00  0.00    -0.775 OA
HETATM   40  H16 UNL     1       0.817   6.180  16.442  1.00  0.00     0.167 HD
ENDBRANCH  37  39
ENDBRANCH   4  37
BRANCH   3  41
HETATM   41  O1  UNL     1      -1.070   9.421  12.295  1.00  0.00    -0.394 OA
HETATM   42  H15 UNL     1      -1.096   9.256  11.336  1.00  0.00     0.210 HD
ENDBRANCH   3  41
BRANCH   1  43
HETATM   43  C5  UNL     1      -3.683   5.983  13.800  1.00  0.00    -0.013 C 
HETATM   44  C6  UNL     1      -3.453   4.524  13.351  1.00  0.00     0.010 C 
BRANCH  43  45
HETATM   45  C4  UNL     1      -4.873   6.587  13.020  1.00  0.00     0.009 C 
BRANCH  45  46
HETATM   46  C3  UNL     1      -6.043   7.151  13.835  1.00  0.00     0.034 C 
BRANCH  46  47
HETATM   47  C2  UNL     1      -6.766   6.080  14.639  1.00  0.00    -0.086 C 
HETATM   48  C1  UNL     1      -6.531   5.963  15.957  1.00  0.00     0.014 C 
BRANCH  47  49
HETATM   49  C35 UNL     1      -7.719   5.118  13.936  1.00  0.00     0.005 C 
HETATM   50  C36 UNL     1      -8.314   5.707  12.661  1.00  0.00     0.014 C 
HETATM   51  C37 UNL     1      -7.073   3.758  13.668  1.00  0.00     0.014 C 
ENDBRANCH  47  49
ENDBRANCH  46  47
ENDBRANCH  45  46
ENDBRANCH  43  45
ENDBRANCH   1  43
TORSDOF 15
ENDMDL
MODEL 9
REMARK minimizedAffinity -7.28069735
REMARK CNNscore 0.182187423
REMARK CNNaffinity 5.9304409
REMARK  15 active torsions:
REMARK  status: ('A' for Active; 'I' for Inactive)
REMARK    1  A    between atoms: C2_2  and  C3_3 
REMARK    2  A    between atoms: C2_2  and  C35_44 
REMARK    3  A    between atoms: C3_3  and  C4_4 
REMARK    4  A    between atoms: C4_4  and  C5_5 
REMARK    5  A    between atoms: C5_5  and  C7_7 
REMARK    6  A    between atoms: C9_9  and  O1_10 
REMARK    7  A    between atoms: C10_11  and  C11_12 
REMARK    8  A    between atoms: C11_12  and  O3_14 
REMARK    9  A    between atoms: C22_25  and  O4_26 
REMARK   10  A    between atoms: O4_26  and  C23_27 
REMARK   11  A    between atoms: C24_29  and  C25_30 
REMARK   12  A    between atoms: C25_30  and  O6_31 
REMARK   13  A    between atoms: C26_32  and  O7_33 
REMARK   14  A    between atoms: C28_35  and  O8_36 
REMARK   15  A    between atoms: C29_37  and  O9_38 
ROOT
HETATM    1  C7  UNL     1       1.144   6.423  13.287  1.00  0.00     0.001 C 
HETATM    2  C8  UNL     1       2.276   7.239  12.621  1.00  0.00     0.039 C 
HETATM    3  C9  UNL     1       2.342   8.593  13.376  1.00  0.00     0.142 C 
HETATM    4  C10 UNL     1       1.430   8.403  14.630  1.00  0.00     0.102 C 
HETATM    5  C12 UNL     1       0.811   9.581  15.389  1.00  0.00    -0.054 C 
HETATM    6  C13 UNL     1      -0.399   9.451  15.998  1.00  0.00    -0.067 C 
HETATM    7  C14 UNL     1      -1.186   8.132  15.967  1.00  0.00     0.036 C 
HETATM    8  C15 UNL     1      -0.631   6.980  15.112  1.00  0.00     0.015 C 
HETATM    9  C16 UNL     1       0.288   7.501  14.005  1.00  0.00    -0.016 C 
HETATM   10  C17 UNL     1      -0.614   8.284  13.000  1.00  0.00     0.017 C 
HETATM   11  C18 UNL     1      -1.104  10.650  16.678  1.00  0.00    -0.013 C 
HETATM   12  C19 UNL     1      -2.199  11.126  15.678  1.00  0.00     0.021 C 
HETATM   13  C20 UNL     1      -1.738  10.256  18.040  1.00  0.00     0.017 C 
HETATM   14  C21 UNL     1      -2.555  11.385  18.662  1.00  0.00     0.037 C 
HETATM   15  C22 UNL     1      -1.940  12.789  18.626  1.00  0.00     0.153 C 
HETATM   16  C30 UNL     1      -0.849  13.036  17.578  1.00  0.00    -0.055 C 
HETATM   17  C31 UNL     1      -0.585  14.305  17.163  1.00  0.00     0.017 C 
HETATM   18  C32 UNL     1      -0.109  11.809  17.029  1.00  0.00     0.029 C 
HETATM   19  C33 UNL     1       0.822  12.091  15.840  1.00  0.00     0.014 C 
HETATM   20  C34 UNL     1       1.616  10.852  15.447  1.00  0.00     0.036 C 
ENDROOT
BRANCH  15  21
HETATM   21  O4  UNL     1      -3.033  13.663  18.291  1.00  0.00    -0.349 OA
BRANCH  21  22
HETATM   22  C23 UNL     1      -3.559  14.455  19.340  1.00  0.00     0.292 C 
HETATM   23  O5  UNL     1      -3.398  15.833  18.975  1.00  0.00    -0.348 OA
HETATM   24  C24 UNL     1      -4.299  16.317  17.949  1.00  0.00     0.179 C 
HETATM   25  C26 UNL     1      -5.334  15.327  17.350  1.00  0.00     0.183 C 
HETATM   26  C28 UNL     1      -5.881  14.325  18.387  1.00  0.00     0.183 C 
HETATM   27  C29 UNL     1      -5.038  14.222  19.658  1.00  0.00     0.204 C 
BRANCH  24  28
HETATM   28  C25 UNL     1      -5.016  17.530  18.567  1.00  0.00     0.198 C 
BRANCH  28  29
HETATM   29  O6  UNL     1      -4.502  17.792  19.875  1.00  0.00    -0.398 OA
HETATM   30  H36 UNL     1      -4.332  16.919  20.276  1.00  0.00     0.209 HD
ENDBRANCH  28  29
ENDBRANCH  24  28
BRANCH  25  31
HETATM   31  O7  UNL     1      -4.807  14.520  16.281  1.00  0.00    -0.385 OA
HETATM   32  C27 UNL     1      -5.422  14.703  15.015  1.00  0.00     0.202 C 
ENDBRANCH  25  31
BRANCH  26  33
HETATM   33  O8  UNL     1      -7.223  14.681  18.775  1.00  0.00    -0.390 OA
HETATM   34  H42 UNL     1      -7.785  14.523  17.997  1.00  0.00     0.210 HD
ENDBRANCH  26  33
BRANCH  27  35
HETATM   35  O9  UNL     1      -5.282  12.966  20.304  1.00  0.00    -0.388 OA
HETATM   36  H44 UNL     1      -6.248  12.923  20.435  1.00  0.00     0.210 HD
ENDBRANCH  27  35
ENDBRANCH  21  22
ENDBRANCH  15  21
BRANCH   4  37
HETATM   37  C11 UNL     1       2.298   7.707  15.717  1.00  0.00     0.156 C 
HETATM   38  O2  UNL     1       3.514   7.691  15.819  1.00  0.00    -0.649 OA
BRANCH  37  39
HETATM   39  O3  UNL     1       1.588   6.983  16.608  1.00  0.00    -0.775 OA
HETATM   40  H16 UNL     1       2.283   6.560  17.160  1.00  0.00     0.167 HD
ENDBRANCH  37  39
ENDBRANCH   4  37
BRANCH   3  41
HETATM   41  O1  UNL     1       1.886   9.629  12.507  1.00  0.00    -0.394 OA
HETATM   42  H15 UNL     1       2.458   9.636  11.720  1.00  0.00     0.210 HD
ENDBRANCH   3  41
BRANCH   1  43
HETATM   43  C5  UNL     1       0.485   5.276  12.475  1.00  0.00    -0.013 C 
HETATM   44  C6  UNL     1       0.416   5.666  10.983  1.00  0.00     0.010 C 
BRANCH  43  45
HETATM   45  C4  UNL     1      -0.856   4.644  12.912  1.00  0.00     0.009 C 
BRANCH  45  46
HETATM   46  C3  UNL     1      -2.091   4.929  12.048  1.00  0.00     0.034 C 
BRANCH  46  47
HETATM   47  C2  UNL     1      -2.878   3.668  11.720  1.00  0.00    -0.086 C 
HETATM   48  C1  UNL     1      -2.224   2.538  11.402  1.00  0.00     0.014 C 
BRANCH  47  49
HETATM   49  C35 UNL     1      -4.403   3.708  11.710  1.00  0.00     0.005 C 
HETATM   50  C36 UNL     1      -5.025   2.339  11.452  1.00  0.00     0.014 C 
HETATM   51  C37 UNL     1      -4.972   4.343  12.978  1.00  0.00     0.014 C 
ENDBRANCH  47  49
ENDBRANCH  46  47
ENDBRANCH  45  46
ENDBRANCH  43  45
ENDBRANCH   1  43
TORSDOF 15
ENDMDL
