MODEL 1
REMARK minimizedAffinity -9.71897697
REMARK CNNscore 0.279446572
REMARK CNNaffinity 7.46089554
REMARK  14 active torsions:
REMARK  status: ('A' for Active; 'I' for Inactive)
REMARK    1  A    between atoms: C2_2  and  C3_3 
REMARK    2  A    between atoms: C6_6  and  C7_7 
REMARK    3  A    between atoms: C7_7  and  C8_8 
REMARK    4  A    between atoms: C14_17  and  C15_18 
REMARK    5  A    between atoms: C15_18  and  O3_20 
REMARK    6  A    between atoms: C19_24  and  C20_25 
REMARK    7  A    between atoms: C20_25  and  C21_26 
REMARK    8  A    between atoms: C22_27  and  C23_28 
REMARK    9  A    between atoms: C25_30  and  C26_31 
REMARK   10  A    between atoms: C27_33  and  C28_34 
REMARK   11  A    between atoms: C29_38  and  C30_39 
REMARK   12  A    between atoms: C30_39  and  C31_40 
REMARK   13  A    between atoms: C31_40  and  C32_41 
REMARK   14  A    between atoms: C32_41  and  O7_43 
ROOT
HETATM    1  C8  UNL     1      -0.663   5.844  12.424  1.00  0.00     0.016 C 
HETATM    2  N1  UNL     1      -1.558   5.092  11.865  1.00  0.00    -0.362 N 
ATOM      3  H1  UNL     1      -1.444   4.568  10.997  1.00  0.00     0.165 HD
HETATM    4  C9  UNL     1      -2.691   5.126  12.647  1.00  0.00     0.024 C 
HETATM    5  C10 UNL     1      -3.723   4.311  12.385  1.00  0.00     0.014 C 
HETATM    6  C11 UNL     1      -4.984   4.313  13.013  1.00  0.00     0.056 A 
HETATM    7  C12 UNL     1      -5.930   3.622  12.314  1.00  0.00     0.046 A 
HETATM    8  C13 UNL     1      -5.324   3.079  11.111  1.00  0.00     0.180 C 
HETATM    9  O1  UNL     1      -5.927   2.522  10.201  1.00  0.00    -0.291 OA
HETATM   10  C14 UNL     1      -3.792   3.347  11.161  1.00  0.00     0.197 C 
HETATM   11  C17 UNL     1      -7.140   3.688  13.026  1.00  0.00    -0.023 A 
HETATM   12  C18 UNL     1      -8.432   3.060  12.640  1.00  0.00     0.051 C 
HETATM   13  C19 UNL     1      -6.851   4.418  14.188  1.00  0.00     0.022 A 
HETATM   14  N3  UNL     1      -5.513   4.795  14.155  1.00  0.00    -0.357 N 
HETATM   15  C29 UNL     1      -2.582   6.197  13.713  1.00  0.00     0.046 C 
HETATM   16  C34 UNL     1      -1.064   6.450  13.749  1.00  0.00     0.041 C 
HETATM   17  C35 UNL     1      -0.376   5.697  14.885  1.00  0.00     0.017 C 
HETATM   18  H25 UNL     1      -5.039   5.304  14.886  1.00  0.00     0.166 HD
ENDROOT
BRANCH  10  19
HETATM   19  C15 UNL     1      -3.051   2.059  11.427  1.00  0.00     0.274 C 
HETATM   20  O2  UNL     1      -3.558   1.034  11.874  1.00  0.00    -0.264 OA
BRANCH  19  21
HETATM   21  O3  UNL     1      -1.728   2.187  11.111  1.00  0.00    -0.326 OA
HETATM   22  C16 UNL     1      -1.064   0.949  10.827  1.00  0.00     0.213 C 
ENDBRANCH  19  21
ENDBRANCH  10  19
BRANCH  15  23
HETATM   23  C30 UNL     1      -3.379   7.481  13.395  1.00  0.00     0.021 C 
BRANCH  23  24
HETATM   24  C31 UNL     1      -2.855   8.775  14.032  1.00  0.00     0.112 C 
BRANCH  24  25
HETATM   25  C32 UNL     1      -1.955   9.529  13.079  1.00  0.00     0.258 C 
HETATM   26  O6  UNL     1      -1.802   9.254  11.898  1.00  0.00    -0.265 OA
BRANCH  25  27
HETATM   27  O7  UNL     1      -1.376  10.582  13.724  1.00  0.00    -0.326 OA
HETATM   28  C33 UNL     1      -0.225  10.235  14.493  1.00  0.00     0.213 C 
ENDBRANCH  25  27
ENDBRANCH  24  25
ENDBRANCH  23  24
ENDBRANCH  15  23
BRANCH   1  29
HETATM   29  C7  UNL     1       0.680   6.130  11.869  1.00  0.00     0.055 C 
BRANCH  29  30
HETATM   30  C6  UNL     1       0.851   6.785  10.717  1.00  0.00     0.043 A 
HETATM   31  C4  UNL     1       1.836   6.555   9.677  1.00  0.00    -0.019 A 
HETATM   32  C3  UNL     1       1.655   7.414   8.647  1.00  0.00     0.039 A 
HETATM   33  C5  UNL     1       2.870   5.487   9.813  1.00  0.00     0.052 C 
HETATM   34  C36 UNL     1       0.491   8.275   9.043  1.00  0.00     0.256 A 
HETATM   35  N4  UNL     1       0.093   7.824  10.279  1.00  0.00    -0.322 N 
HETATM   36  O8  UNL     1      -0.012   9.185   8.412  1.00  0.00    -0.267 OA
HETATM   37  H38 UNL     1      -0.664   8.248  10.812  1.00  0.00     0.169 HD
BRANCH  32  38
HETATM   38  C2  UNL     1       2.423   7.523   7.429  1.00  0.00     0.007 C 
HETATM   39  C1  UNL     1       1.996   7.250   6.191  1.00  0.00     0.012 C 
ENDBRANCH  32  38
ENDBRANCH  29  30
ENDBRANCH   1  29
BRANCH  13  40
HETATM   40  C20 UNL     1      -7.719   4.786  15.355  1.00  0.00     0.115 C 
BRANCH  40  41
HETATM   41  C21 UNL     1      -8.381   6.118  15.170  1.00  0.00     0.022 A 
HETATM   42  C22 UNL     1      -7.959   7.414  15.443  1.00  0.00    -0.020 A 
HETATM   43  C25 UNL     1      -9.043   8.293  15.079  1.00  0.00     0.040 A 
HETATM   44  C27 UNL     1     -10.068   7.498  14.585  1.00  0.00     0.084 A 
HETATM   45  N2  UNL     1      -9.642   6.194  14.642  1.00  0.00    -0.356 N 
HETATM   46  H24 UNL     1     -10.216   5.411  14.350  1.00  0.00     0.166 HD
BRANCH  42  47
HETATM   47  C23 UNL     1      -6.636   7.826  16.023  1.00  0.00     0.037 C 
HETATM   48  C24 UNL     1      -6.053   9.053  15.336  1.00  0.00     0.010 C 
ENDBRANCH  42  47
BRANCH  43  49
HETATM   49  C26 UNL     1      -9.079   9.745  15.204  1.00  0.00     0.273 C 
HETATM   50  O4  UNL     1     -10.110  10.398  15.326  1.00  0.00    -0.301 OA
ENDBRANCH  43  49
BRANCH  44  51
HETATM   51  C28 UNL     1     -11.377   7.840  14.080  1.00  0.00     0.288 C 
HETATM   52  O5  UNL     1     -11.544   8.513  13.064  1.00  0.00    -0.300 OA
ENDBRANCH  44  51
ENDBRANCH  40  41
ENDBRANCH  13  40
TORSDOF 14
ENDMDL
MODEL 2
REMARK minimizedAffinity -7.95539045
REMARK CNNscore 0.178845987
REMARK CNNaffinity 6.43180418
REMARK  14 active torsions:
REMARK  status: ('A' for Active; 'I' for Inactive)
REMARK    1  A    between atoms: C2_2  and  C3_3 
REMARK    2  A    between atoms: C6_6  and  C7_7 
REMARK    3  A    between atoms: C7_7  and  C8_8 
REMARK    4  A    between atoms: C14_17  and  C15_18 
REMARK    5  A    between atoms: C15_18  and  O3_20 
REMARK    6  A    between atoms: C19_24  and  C20_25 
REMARK    7  A    between atoms: C20_25  and  C21_26 
REMARK    8  A    between atoms: C22_27  and  C23_28 
REMARK    9  A    between atoms: C25_30  and  C26_31 
REMARK   10  A    between atoms: C27_33  and  C28_34 
REMARK   11  A    between atoms: C29_38  and  C30_39 
REMARK   12  A    between atoms: C30_39  and  C31_40 
REMARK   13  A    between atoms: C31_40  and  C32_41 
REMARK   14  A    between atoms: C32_41  and  O7_43 
ROOT
HETATM    1  C8  UNL     1       0.358   8.862  13.202  1.00  0.00     0.016 C 
HETATM    2  N1  UNL     1       0.069   9.936  13.867  1.00  0.00    -0.362 N 
ATOM      3  H1  UNL     1      -0.459  10.735  13.515  1.00  0.00     0.165 HD
HETATM    4  C9  UNL     1       0.601   9.810  15.130  1.00  0.00     0.024 C 
HETATM    5  C10 UNL     1       0.316  10.712  16.081  1.00  0.00     0.014 C 
HETATM    6  C11 UNL     1       0.875  10.786  17.372  1.00  0.00     0.056 A 
HETATM    7  C12 UNL     1       0.661  11.989  17.979  1.00  0.00     0.046 A 
HETATM    8  C13 UNL     1      -0.101  12.840  17.082  1.00  0.00     0.180 C 
HETATM    9  O1  UNL     1      -0.346  14.027  17.265  1.00  0.00    -0.291 OA
HETATM   10  C14 UNL     1      -0.530  12.001  15.843  1.00  0.00     0.197 C 
HETATM   11  C17 UNL     1       1.254  11.953  19.252  1.00  0.00    -0.023 A 
HETATM   12  C18 UNL     1       1.252  13.043  20.265  1.00  0.00     0.051 C 
HETATM   13  C19 UNL     1       1.793  10.664  19.376  1.00  0.00     0.022 A 
HETATM   14  N3  UNL     1       1.547   9.963  18.201  1.00  0.00    -0.357 N 
HETATM   15  C29 UNL     1       1.524   8.612  15.214  1.00  0.00     0.046 C 
HETATM   16  C34 UNL     1       1.088   7.795  13.984  1.00  0.00     0.041 C 
HETATM   17  C35 UNL     1       0.119   6.673  14.346  1.00  0.00     0.017 C 
HETATM   18  H25 UNL     1       1.803   9.001  18.038  1.00  0.00     0.166 HD
ENDROOT
BRANCH  10  19
HETATM   19  C15 UNL     1      -2.010  11.712  15.903  1.00  0.00     0.274 C 
HETATM   20  O2  UNL     1      -2.720  11.872  16.892  1.00  0.00    -0.264 OA
BRANCH  19  21
HETATM   21  O3  UNL     1      -2.459  11.233  14.705  1.00  0.00    -0.326 OA
HETATM   22  C16 UNL     1      -3.432  10.186  14.812  1.00  0.00     0.213 C 
ENDBRANCH  19  21
ENDBRANCH  10  19
BRANCH  15  23
HETATM   23  C30 UNL     1       3.025   8.974  15.170  1.00  0.00     0.021 C 
BRANCH  23  24
HETATM   24  C31 UNL     1       4.004   7.793  15.199  1.00  0.00     0.112 C 
BRANCH  24  25
HETATM   25  C32 UNL     1       5.413   8.242  14.885  1.00  0.00     0.258 C 
HETATM   26  O6  UNL     1       5.869   8.377  13.759  1.00  0.00    -0.265 OA
BRANCH  25  27
HETATM   27  O7  UNL     1       6.081   8.514  16.042  1.00  0.00    -0.326 OA
HETATM   28  C33 UNL     1       7.500   8.568  15.900  1.00  0.00     0.213 C 
ENDBRANCH  25  27
ENDBRANCH  24  25
ENDBRANCH  23  24
ENDBRANCH  15  23
BRANCH   1  29
HETATM   29  C7  UNL     1       0.024   8.622  11.779  1.00  0.00     0.055 C 
BRANCH  29  30
HETATM   30  C6  UNL     1       0.959   8.358  10.862  1.00  0.00     0.043 A 
HETATM   31  C4  UNL     1       0.835   8.332   9.416  1.00  0.00    -0.019 A 
HETATM   32  C3  UNL     1       2.027   8.055   8.838  1.00  0.00     0.039 A 
HETATM   33  C5  UNL     1      -0.474   8.592   8.748  1.00  0.00     0.052 C 
HETATM   34  C36 UNL     1       2.990   7.868   9.974  1.00  0.00     0.256 A 
HETATM   35  N4  UNL     1       2.260   8.066  11.123  1.00  0.00    -0.322 N 
HETATM   36  O8  UNL     1       4.175   7.601   9.910  1.00  0.00    -0.267 OA
HETATM   37  H38 UNL     1       2.652   7.969  12.057  1.00  0.00     0.169 HD
BRANCH  32  38
HETATM   38  C2  UNL     1       2.329   7.928   7.432  1.00  0.00     0.007 C 
HETATM   39  C1  UNL     1       1.995   6.907   6.634  1.00  0.00     0.012 C 
ENDBRANCH  32  38
ENDBRANCH  29  30
ENDBRANCH   1  29
BRANCH  13  40
HETATM   40  C20 UNL     1       2.513  10.009  20.519  1.00  0.00     0.115 C 
BRANCH  40  41
HETATM   41  C21 UNL     1       3.742  10.766  20.922  1.00  0.00     0.022 A 
HETATM   42  C22 UNL     1       4.288  11.065  22.165  1.00  0.00    -0.020 A 
HETATM   43  C25 UNL     1       5.471  11.852  21.926  1.00  0.00     0.040 A 
HETATM   44  C27 UNL     1       5.605  11.985  20.550  1.00  0.00     0.084 A 
HETATM   45  N2  UNL     1       4.557  11.315  19.968  1.00  0.00    -0.356 N 
HETATM   46  H24 UNL     1       4.417  11.272  18.965  1.00  0.00     0.166 HD
BRANCH  42  47
HETATM   47  C23 UNL     1       3.743  10.661  23.506  1.00  0.00     0.037 C 
HETATM   48  C24 UNL     1       3.006   9.330  23.461  1.00  0.00     0.010 C 
ENDBRANCH  42  47
BRANCH  43  49
HETATM   49  C26 UNL     1       6.370  12.418  22.925  1.00  0.00     0.273 C 
HETATM   50  O4  UNL     1       7.408  11.881  23.296  1.00  0.00    -0.301 OA
ENDBRANCH  43  49
BRANCH  44  51
HETATM   51  C28 UNL     1       6.598  12.665  19.753  1.00  0.00     0.288 C 
HETATM   52  O5  UNL     1       6.727  13.888  19.750  1.00  0.00    -0.300 OA
ENDBRANCH  44  51
ENDBRANCH  40  41
ENDBRANCH  13  40
TORSDOF 14
ENDMDL
MODEL 3
REMARK minimizedAffinity -8.9953289
REMARK CNNscore 0.0931115225
REMARK CNNaffinity 6.92563486
REMARK  14 active torsions:
REMARK  status: ('A' for Active; 'I' for Inactive)
REMARK    1  A    between atoms: C2_2  and  C3_3 
REMARK    2  A    between atoms: C6_6  and  C7_7 
REMARK    3  A    between atoms: C7_7  and  C8_8 
REMARK    4  A    between atoms: C14_17  and  C15_18 
REMARK    5  A    between atoms: C15_18  and  O3_20 
REMARK    6  A    between atoms: C19_24  and  C20_25 
REMARK    7  A    between atoms: C20_25  and  C21_26 
REMARK    8  A    between atoms: C22_27  and  C23_28 
REMARK    9  A    between atoms: C25_30  and  C26_31 
REMARK   10  A    between atoms: C27_33  and  C28_34 
REMARK   11  A    between atoms: C29_38  and  C30_39 
REMARK   12  A    between atoms: C30_39  and  C31_40 
REMARK   13  A    between atoms: C31_40  and  C32_41 
REMARK   14  A    between atoms: C32_41  and  O7_43 
ROOT
HETATM    1  C8  UNL     1      -0.202   5.769  11.843  1.00  0.00     0.016 C 
HETATM    2  N1  UNL     1      -1.194   5.055  11.410  1.00  0.00    -0.362 N 
ATOM      3  H1  UNL     1      -1.196   4.480  10.568  1.00  0.00     0.165 HD
HETATM    4  C9  UNL     1      -2.243   5.208  12.289  1.00  0.00     0.024 C 
HETATM    5  C10 UNL     1      -3.346   4.454  12.169  1.00  0.00     0.014 C 
HETATM    6  C11 UNL     1      -4.540   4.577  12.906  1.00  0.00     0.056 A 
HETATM    7  C12 UNL     1      -5.590   3.919  12.336  1.00  0.00     0.046 A 
HETATM    8  C13 UNL     1      -5.136   3.274  11.117  1.00  0.00     0.180 C 
HETATM    9  O1  UNL     1      -5.857   2.715  10.298  1.00  0.00    -0.291 OA
HETATM   10  C14 UNL     1      -3.592   3.436  11.012  1.00  0.00     0.197 C 
HETATM   11  C17 UNL     1      -6.721   4.106  13.149  1.00  0.00    -0.023 A 
HETATM   12  C18 UNL     1      -8.082   3.551  12.919  1.00  0.00     0.051 C 
HETATM   13  C19 UNL     1      -6.277   4.872  14.237  1.00  0.00     0.022 A 
HETATM   14  N3  UNL     1      -4.927   5.152  14.062  1.00  0.00    -0.357 N 
HETATM   15  C29 UNL     1      -1.965   6.321  13.278  1.00  0.00     0.046 C 
HETATM   16  C34 UNL     1      -0.437   6.469  13.161  1.00  0.00     0.041 C 
HETATM   17  C35 UNL     1       0.304   5.728  14.272  1.00  0.00     0.017 C 
HETATM   18  H25 UNL     1      -4.353   5.664  14.716  1.00  0.00     0.166 HD
ENDROOT
BRANCH  10  19
HETATM   19  C15 UNL     1      -2.915   2.115  11.284  1.00  0.00     0.274 C 
HETATM   20  O2  UNL     1      -3.474   1.114  11.724  1.00  0.00    -0.264 OA
BRANCH  19  21
HETATM   21  O3  UNL     1      -1.584   2.181  10.983  1.00  0.00    -0.326 OA
HETATM   22  C16 UNL     1      -0.971   0.913  10.720  1.00  0.00     0.213 C 
ENDBRANCH  19  21
ENDBRANCH  10  19
BRANCH  15  23
HETATM   23  C30 UNL     1      -2.703   7.640  12.959  1.00  0.00     0.021 C 
BRANCH  23  24
HETATM   24  C31 UNL     1      -1.824   8.893  12.846  1.00  0.00     0.112 C 
BRANCH  24  25
HETATM   25  C32 UNL     1      -1.840   9.689  14.132  1.00  0.00     0.258 C 
HETATM   26  O6  UNL     1      -2.720  10.472  14.458  1.00  0.00    -0.265 OA
BRANCH  25  27
HETATM   27  O7  UNL     1      -0.749   9.372  14.886  1.00  0.00    -0.326 OA
HETATM   28  C33 UNL     1       0.497   9.746  14.300  1.00  0.00     0.213 C 
ENDBRANCH  25  27
ENDBRANCH  24  25
ENDBRANCH  23  24
ENDBRANCH  15  23
BRANCH   1  29
HETATM   29  C7  UNL     1       1.098   5.932  11.153  1.00  0.00     0.055 C 
BRANCH  29  30
HETATM   30  C6  UNL     1       2.070   6.709  11.639  1.00  0.00     0.043 A 
HETATM   31  C4  UNL     1       2.958   7.609  10.927  1.00  0.00    -0.019 A 
HETATM   32  C3  UNL     1       3.786   8.245  11.787  1.00  0.00     0.039 A 
HETATM   33  C5  UNL     1       2.887   7.751   9.443  1.00  0.00     0.052 C 
HETATM   34  C36 UNL     1       3.436   7.715  13.147  1.00  0.00     0.256 A 
HETATM   35  N4  UNL     1       2.415   6.815  12.949  1.00  0.00    -0.322 N 
HETATM   36  O8  UNL     1       3.937   8.013  14.215  1.00  0.00    -0.267 OA
HETATM   37  H38 UNL     1       1.995   6.272  13.700  1.00  0.00     0.169 HD
BRANCH  32  38
HETATM   38  C2  UNL     1       4.819   9.209  11.486  1.00  0.00     0.007 C 
HETATM   39  C1  UNL     1       5.418   9.391  10.303  1.00  0.00     0.012 C 
ENDBRANCH  32  38
ENDBRANCH  29  30
ENDBRANCH   1  29
BRANCH  13  40
HETATM   40  C20 UNL     1      -7.006   5.360  15.454  1.00  0.00     0.115 C 
BRANCH  40  41
HETATM   41  C21 UNL     1      -8.017   6.415  15.123  1.00  0.00     0.022 A 
HETATM   42  C22 UNL     1      -7.963   7.803  15.163  1.00  0.00    -0.020 A 
HETATM   43  C25 UNL     1      -9.260   8.286  14.759  1.00  0.00     0.040 A 
HETATM   44  C27 UNL     1     -10.041   7.174  14.474  1.00  0.00     0.084 A 
HETATM   45  N2  UNL     1      -9.268   6.061  14.692  1.00  0.00    -0.356 N 
HETATM   46  H24 UNL     1      -9.612   5.115  14.568  1.00  0.00     0.166 HD
BRANCH  42  47
HETATM   47  C23 UNL     1      -6.786   8.646  15.567  1.00  0.00     0.037 C 
HETATM   48  C24 UNL     1      -5.669   8.622  14.534  1.00  0.00     0.010 C 
ENDBRANCH  42  47
BRANCH  43  49
HETATM   49  C26 UNL     1      -9.693   9.674  14.665  1.00  0.00     0.273 C 
HETATM   50  O4  UNL     1     -10.423  10.222  15.485  1.00  0.00    -0.301 OA
ENDBRANCH  43  49
BRANCH  44  51
HETATM   51  C28 UNL     1     -11.410   7.063  14.028  1.00  0.00     0.288 C 
HETATM   52  O5  UNL     1     -12.232   6.332  14.578  1.00  0.00    -0.300 OA
ENDBRANCH  44  51
ENDBRANCH  40  41
ENDBRANCH  13  40
TORSDOF 14
ENDMDL
MODEL 4
REMARK minimizedAffinity -9.19948006
REMARK CNNscore 0.0917520076
REMARK CNNaffinity 7.21649981
REMARK  14 active torsions:
REMARK  status: ('A' for Active; 'I' for Inactive)
REMARK    1  A    between atoms: C2_2  and  C3_3 
REMARK    2  A    between atoms: C6_6  and  C7_7 
REMARK    3  A    between atoms: C7_7  and  C8_8 
REMARK    4  A    between atoms: C14_17  and  C15_18 
REMARK    5  A    between atoms: C15_18  and  O3_20 
REMARK    6  A    between atoms: C19_24  and  C20_25 
REMARK    7  A    between atoms: C20_25  and  C21_26 
REMARK    8  A    between atoms: C22_27  and  C23_28 
REMARK    9  A    between atoms: C25_30  and  C26_31 
REMARK   10  A    between atoms: C27_33  and  C28_34 
REMARK   11  A    between atoms: C29_38  and  C30_39 
REMARK   12  A    between atoms: C30_39  and  C31_40 
REMARK   13  A    between atoms: C31_40  and  C32_41 
REMARK   14  A    between atoms: C32_41  and  O7_43 
ROOT
HETATM    1  C8  UNL     1      -0.645   7.750  12.349  1.00  0.00     0.016 C 
HETATM    2  N1  UNL     1      -1.288   6.721  11.894  1.00  0.00    -0.362 N 
ATOM      3  H1  UNL     1      -1.014   6.148  11.096  1.00  0.00     0.165 HD
HETATM    4  C9  UNL     1      -2.406   6.537  12.677  1.00  0.00     0.024 C 
HETATM    5  C10 UNL     1      -3.170   5.445  12.526  1.00  0.00     0.014 C 
HETATM    6  C11 UNL     1      -4.399   5.178  13.160  1.00  0.00     0.056 A 
HETATM    7  C12 UNL     1      -5.104   4.177  12.560  1.00  0.00     0.046 A 
HETATM    8  C13 UNL     1      -4.344   3.680  11.426  1.00  0.00     0.180 C 
HETATM    9  O1  UNL     1      -4.749   2.875  10.596  1.00  0.00    -0.291 OA
HETATM   10  C14 UNL     1      -2.944   4.360  11.429  1.00  0.00     0.197 C 
HETATM   11  C17 UNL     1      -6.303   3.993  13.269  1.00  0.00    -0.023 A 
HETATM   12  C18 UNL     1      -7.366   2.995  12.975  1.00  0.00     0.051 C 
HETATM   13  C19 UNL     1      -6.252   4.908  14.331  1.00  0.00     0.022 A 
HETATM   14  N3  UNL     1      -5.067   5.630  14.241  1.00  0.00    -0.357 N 
HETATM   15  C29 UNL     1      -2.619   7.716  13.604  1.00  0.00     0.046 C 
HETATM   16  C34 UNL     1      -1.228   8.377  13.594  1.00  0.00     0.041 C 
HETATM   17  C35 UNL     1      -0.389   7.982  14.807  1.00  0.00     0.017 C 
HETATM   18  H25 UNL     1      -4.767   6.333  14.899  1.00  0.00     0.166 HD
ENDROOT
BRANCH  10  19
HETATM   19  C15 UNL     1      -1.887   3.365  11.842  1.00  0.00     0.274 C 
HETATM   20  O2  UNL     1      -0.831   3.650  12.401  1.00  0.00    -0.264 OA
BRANCH  19  21
HETATM   21  O3  UNL     1      -2.257   2.095  11.501  1.00  0.00    -0.326 OA
HETATM   22  C16 UNL     1      -1.280   1.378  10.736  1.00  0.00     0.213 C 
ENDBRANCH  19  21
ENDBRANCH  10  19
BRANCH  15  23
HETATM   23  C30 UNL     1      -3.727   8.686  13.139  1.00  0.00     0.021 C 
BRANCH  23  24
HETATM   24  C31 UNL     1      -4.776   9.065  14.192  1.00  0.00     0.112 C 
BRANCH  24  25
HETATM   25  C32 UNL     1      -4.135   9.735  15.387  1.00  0.00     0.258 C 
HETATM   26  O6  UNL     1      -3.886   9.181  16.448  1.00  0.00    -0.265 OA
BRANCH  25  27
HETATM   27  O7  UNL     1      -3.840  11.032  15.088  1.00  0.00    -0.326 OA
HETATM   28  C33 UNL     1      -2.492  11.405  15.370  1.00  0.00     0.213 C 
ENDBRANCH  25  27
ENDBRANCH  24  25
ENDBRANCH  23  24
ENDBRANCH  15  23
BRANCH   1  29
HETATM   29  C7  UNL     1       0.583   8.324  11.751  1.00  0.00     0.055 C 
BRANCH  29  30
HETATM   30  C6  UNL     1       1.303   7.670  10.837  1.00  0.00     0.043 A 
HETATM   31  C4  UNL     1       1.115   7.613   9.399  1.00  0.00    -0.019 A 
HETATM   32  C3  UNL     1       2.082   6.867   8.818  1.00  0.00     0.039 A 
HETATM   33  C5  UNL     1      -0.023   8.321   8.740  1.00  0.00     0.052 C 
HETATM   34  C36 UNL     1       2.949   6.385   9.945  1.00  0.00     0.256 A 
HETATM   35  N4  UNL     1       2.402   6.913  11.091  1.00  0.00    -0.322 N 
HETATM   36  O8  UNL     1       3.937   5.679   9.876  1.00  0.00    -0.267 OA
HETATM   37  H38 UNL     1       2.768   6.725  12.022  1.00  0.00     0.169 HD
BRANCH  32  38
HETATM   38  C2  UNL     1       2.250   6.555   7.417  1.00  0.00     0.007 C 
HETATM   39  C1  UNL     1       1.858   7.306   6.382  1.00  0.00     0.012 C 
ENDBRANCH  32  38
ENDBRANCH  29  30
ENDBRANCH   1  29
BRANCH  13  40
HETATM   40  C20 UNL     1      -7.216   5.162  15.452  1.00  0.00     0.115 C 
BRANCH  40  41
HETATM   41  C21 UNL     1      -8.247   6.187  15.091  1.00  0.00     0.022 A 
HETATM   42  C22 UNL     1      -9.127   6.287  14.020  1.00  0.00    -0.020 A 
HETATM   43  C25 UNL     1      -9.862   7.515  14.193  1.00  0.00     0.040 A 
HETATM   44  C27 UNL     1      -9.412   8.101  15.369  1.00  0.00     0.084 A 
HETATM   45  N2  UNL     1      -8.447   7.278  15.895  1.00  0.00    -0.356 N 
HETATM   46  H24 UNL     1      -7.947   7.488  16.752  1.00  0.00     0.166 HD
BRANCH  42  47
HETATM   47  C23 UNL     1      -9.276   5.314  12.885  1.00  0.00     0.037 C 
HETATM   48  C24 UNL     1      -8.963   5.939  11.533  1.00  0.00     0.010 C 
ENDBRANCH  42  47
BRANCH  43  49
HETATM   49  C26 UNL     1     -10.885   8.062  13.311  1.00  0.00     0.273 C 
HETATM   50  O4  UNL     1     -11.049   9.261  13.110  1.00  0.00    -0.301 OA
ENDBRANCH  43  49
BRANCH  44  51
HETATM   51  C28 UNL     1      -9.792   9.329  16.026  1.00  0.00     0.288 C 
HETATM   52  O5  UNL     1      -9.277  10.413  15.761  1.00  0.00    -0.300 OA
ENDBRANCH  44  51
ENDBRANCH  40  41
ENDBRANCH  13  40
TORSDOF 14
ENDMDL
MODEL 5
REMARK minimizedAffinity -6.78438282
REMARK CNNscore 0.0913894624
REMARK CNNaffinity 6.01254654
REMARK  14 active torsions:
REMARK  status: ('A' for Active; 'I' for Inactive)
REMARK    1  A    between atoms: C2_2  and  C3_3 
REMARK    2  A    between atoms: C6_6  and  C7_7 
REMARK    3  A    between atoms: C7_7  and  C8_8 
REMARK    4  A    between atoms: C14_17  and  C15_18 
REMARK    5  A    between atoms: C15_18  and  O3_20 
REMARK    6  A    between atoms: C19_24  and  C20_25 
REMARK    7  A    between atoms: C20_25  and  C21_26 
REMARK    8  A    between atoms: C22_27  and  C23_28 
REMARK    9  A    between atoms: C25_30  and  C26_31 
REMARK   10  A    between atoms: C27_33  and  C28_34 
REMARK   11  A    between atoms: C29_38  and  C30_39 
REMARK   12  A    between atoms: C30_39  and  C31_40 
REMARK   13  A    between atoms: C31_40  and  C32_41 
REMARK   14  A    between atoms: C32_41  and  O7_43 
ROOT
HETATM    1  C8  UNL     1      -0.694   7.053  13.329  1.00  0.00     0.016 C 
HETATM    2  N1  UNL     1       0.026   7.439  14.336  1.00  0.00    -0.362 N 
ATOM      3  H1  UNL     1       0.531   6.830  14.980  1.00  0.00     0.165 HD
HETATM    4  C9  UNL     1      -0.013   8.814  14.385  1.00  0.00     0.024 C 
HETATM    5  C10 UNL     1       0.775   9.487  15.237  1.00  0.00     0.014 C 
HETATM    6  C11 UNL     1       0.761  10.873  15.488  1.00  0.00     0.056 A 
HETATM    7  C12 UNL     1       1.415  11.215  16.635  1.00  0.00     0.046 A 
HETATM    8  C13 UNL     1       1.941  10.011  17.254  1.00  0.00     0.180 C 
HETATM    9  O1  UNL     1       2.464   9.952  18.361  1.00  0.00    -0.291 OA
HETATM   10  C14 UNL     1       1.707   8.812  16.290  1.00  0.00     0.197 C 
HETATM   11  C17 UNL     1       1.342  12.610  16.786  1.00  0.00    -0.023 A 
HETATM   12  C18 UNL     1       1.933  13.417  17.886  1.00  0.00     0.051 C 
HETATM   13  C19 UNL     1       0.646  13.071  15.658  1.00  0.00     0.022 A 
HETATM   14  N3  UNL     1       0.296  11.979  14.873  1.00  0.00    -0.357 N 
HETATM   15  C29 UNL     1      -1.055   9.362  13.432  1.00  0.00     0.046 C 
HETATM   16  C34 UNL     1      -1.276   8.166  12.488  1.00  0.00     0.041 C 
HETATM   17  C35 UNL     1      -0.481   8.295  11.191  1.00  0.00     0.017 C 
HETATM   18  H25 UNL     1      -0.185  12.034  13.988  1.00  0.00     0.166 HD
ENDROOT
BRANCH  10  19
HETATM   19  C15 UNL     1       3.016   8.380  15.675  1.00  0.00     0.274 C 
HETATM   20  O2  UNL     1       3.148   7.460  14.873  1.00  0.00    -0.264 OA
BRANCH  19  21
HETATM   21  O3  UNL     1       4.046   9.147  16.141  1.00  0.00    -0.326 OA
HETATM   22  C16 UNL     1       5.090   9.380  15.187  1.00  0.00     0.213 C 
ENDBRANCH  19  21
ENDBRANCH  10  19
BRANCH  15  23
HETATM   23  C30 UNL     1      -2.363   9.808  14.122  1.00  0.00     0.021 C 
BRANCH  23  24
HETATM   24  C31 UNL     1      -3.651   9.148  13.613  1.00  0.00     0.112 C 
BRANCH  24  25
HETATM   25  C32 UNL     1      -4.657   8.978  14.730  1.00  0.00     0.258 C 
HETATM   26  O6  UNL     1      -4.544   9.454  15.850  1.00  0.00    -0.265 OA
BRANCH  25  27
HETATM   27  O7  UNL     1      -5.723   8.253  14.286  1.00  0.00    -0.326 OA
HETATM   28  C33 UNL     1      -6.901   8.401  15.077  1.00  0.00     0.213 C 
ENDBRANCH  25  27
ENDBRANCH  24  25
ENDBRANCH  23  24
ENDBRANCH  15  23
BRANCH   1  29
HETATM   29  C7  UNL     1      -0.965   5.644  12.963  1.00  0.00     0.055 C 
BRANCH  29  30
HETATM   30  C6  UNL     1      -2.206   5.174  12.810  1.00  0.00     0.043 A 
HETATM   31  C4  UNL     1      -2.712   4.243  11.818  1.00  0.00    -0.019 A 
HETATM   32  C3  UNL     1      -4.025   3.990  12.023  1.00  0.00     0.039 A 
HETATM   33  C5  UNL     1      -1.823   3.689  10.754  1.00  0.00     0.052 C 
HETATM   34  C36 UNL     1      -4.412   4.822  13.211  1.00  0.00     0.256 A 
HETATM   35  N4  UNL     1      -3.270   5.482  13.597  1.00  0.00    -0.322 N 
HETATM   36  O8  UNL     1      -5.505   4.903  13.740  1.00  0.00    -0.267 OA
HETATM   37  H38 UNL     1      -3.242   6.149  14.366  1.00  0.00     0.169 HD
BRANCH  32  38
HETATM   38  C2  UNL     1      -4.900   3.134  11.258  1.00  0.00     0.007 C 
HETATM   39  C1  UNL     1      -5.093   1.823  11.443  1.00  0.00     0.012 C 
ENDBRANCH  32  38
ENDBRANCH  29  30
ENDBRANCH   1  29
BRANCH  13  40
HETATM   40  C20 UNL     1       0.288  14.464  15.230  1.00  0.00     0.115 C 
BRANCH  40  41
HETATM   41  C21 UNL     1       1.022  14.882  13.992  1.00  0.00     0.022 A 
HETATM   42  C22 UNL     1       0.611  15.552  12.846  1.00  0.00    -0.020 A 
HETATM   43  C25 UNL     1       1.759  15.645  11.979  1.00  0.00     0.040 A 
HETATM   44  C27 UNL     1       2.822  15.044  12.640  1.00  0.00     0.084 A 
HETATM   45  N2  UNL     1       2.355  14.601  13.852  1.00  0.00    -0.356 N 
HETATM   46  H24 UNL     1       2.936  14.111  14.524  1.00  0.00     0.166 HD
BRANCH  42  47
HETATM   47  C23 UNL     1      -0.769  16.068  12.553  1.00  0.00     0.037 C 
HETATM   48  C24 UNL     1      -0.811  17.584  12.422  1.00  0.00     0.010 C 
ENDBRANCH  42  47
BRANCH  43  49
HETATM   49  C26 UNL     1       1.815  16.246  10.652  1.00  0.00     0.273 C 
HETATM   50  O4  UNL     1       1.876  15.603   9.610  1.00  0.00    -0.301 OA
ENDBRANCH  43  49
BRANCH  44  51
HETATM   51  C28 UNL     1       4.198  14.851  12.248  1.00  0.00     0.288 C 
HETATM   52  O5  UNL     1       4.593  13.835  11.679  1.00  0.00    -0.300 OA
ENDBRANCH  44  51
ENDBRANCH  40  41
ENDBRANCH  13  40
TORSDOF 14
ENDMDL
MODEL 6
REMARK minimizedAffinity -6.70935631
REMARK CNNscore 0.0842233673
REMARK CNNaffinity 6.18954277
REMARK  14 active torsions:
REMARK  status: ('A' for Active; 'I' for Inactive)
REMARK    1  A    between atoms: C2_2  and  C3_3 
REMARK    2  A    between atoms: C6_6  and  C7_7 
REMARK    3  A    between atoms: C7_7  and  C8_8 
REMARK    4  A    between atoms: C14_17  and  C15_18 
REMARK    5  A    between atoms: C15_18  and  O3_20 
REMARK    6  A    between atoms: C19_24  and  C20_25 
REMARK    7  A    between atoms: C20_25  and  C21_26 
REMARK    8  A    between atoms: C22_27  and  C23_28 
REMARK    9  A    between atoms: C25_30  and  C26_31 
REMARK   10  A    between atoms: C27_33  and  C28_34 
REMARK   11  A    between atoms: C29_38  and  C30_39 
REMARK   12  A    between atoms: C30_39  and  C31_40 
REMARK   13  A    between atoms: C31_40  and  C32_41 
REMARK   14  A    between atoms: C32_41  and  O7_43 
ROOT
HETATM    1  C8  UNL     1      -0.298   6.876  13.442  1.00  0.00     0.016 C 
HETATM    2  N1  UNL     1      -0.102   7.533  14.542  1.00  0.00    -0.362 N 
ATOM      3  H1  UNL     1       0.254   7.146  15.416  1.00  0.00     0.165 HD
HETATM    4  C9  UNL     1      -0.462   8.844  14.324  1.00  0.00     0.024 C 
HETATM    5  C10 UNL     1      -0.212   9.781  15.251  1.00  0.00     0.014 C 
HETATM    6  C11 UNL     1      -0.625  11.127  15.227  1.00  0.00     0.056 A 
HETATM    7  C12 UNL     1      -0.530  11.738  16.443  1.00  0.00     0.046 A 
HETATM    8  C13 UNL     1      -0.013  10.784  17.409  1.00  0.00     0.180 C 
HETATM    9  O1  UNL     1       0.066  10.970  18.618  1.00  0.00    -0.291 OA
HETATM   10  C14 UNL     1       0.395   9.484  16.657  1.00  0.00     0.197 C 
HETATM   11  C17 UNL     1      -0.963  13.067  16.305  1.00  0.00    -0.023 A 
HETATM   12  C18 UNL     1      -1.012  14.101  17.372  1.00  0.00     0.051 C 
HETATM   13  C19 UNL     1      -1.281  13.217  14.947  1.00  0.00     0.022 A 
HETATM   14  N3  UNL     1      -1.066  12.004  14.303  1.00  0.00    -0.357 N 
HETATM   15  C29 UNL     1      -1.176   8.998  12.997  1.00  0.00     0.046 C 
HETATM   16  C34 UNL     1      -0.763   7.706  12.268  1.00  0.00     0.041 C 
HETATM   17  C35 UNL     1       0.401   7.929  11.306  1.00  0.00     0.017 C 
HETATM   18  H25 UNL     1      -1.189  11.845  13.314  1.00  0.00     0.166 HD
ENDROOT
BRANCH  10  19
HETATM   19  C15 UNL     1       1.899   9.372  16.600  1.00  0.00     0.274 C 
HETATM   20  O2  UNL     1       2.674  10.321  16.519  1.00  0.00    -0.264 OA
BRANCH  19  21
HETATM   21  O3  UNL     1       2.289   8.064  16.638  1.00  0.00    -0.326 OA
HETATM   22  C16 UNL     1       3.200   7.686  15.598  1.00  0.00     0.213 C 
ENDBRANCH  19  21
ENDBRANCH  10  19
BRANCH  15  23
HETATM   23  C30 UNL     1      -2.710   9.130  13.124  1.00  0.00     0.021 C 
BRANCH  23  24
HETATM   24  C31 UNL     1      -3.312   8.723  14.475  1.00  0.00     0.112 C 
BRANCH  24  25
HETATM   25  C32 UNL     1      -4.819   8.630  14.396  1.00  0.00     0.258 C 
HETATM   26  O6  UNL     1      -5.593   9.149  15.187  1.00  0.00    -0.265 OA
BRANCH  25  27
HETATM   27  O7  UNL     1      -5.183   7.919  13.291  1.00  0.00    -0.326 OA
HETATM   28  C33 UNL     1      -6.196   6.944  13.529  1.00  0.00     0.213 C 
ENDBRANCH  25  27
ENDBRANCH  24  25
ENDBRANCH  23  24
ENDBRANCH  15  23
BRANCH   1  29
HETATM   29  C7  UNL     1      -0.095   5.419  13.269  1.00  0.00     0.055 C 
BRANCH  29  30
HETATM   30  C6  UNL     1      -0.955   4.655  12.591  1.00  0.00     0.043 A 
HETATM   31  C4  UNL     1      -2.368   4.435  12.838  1.00  0.00    -0.019 A 
HETATM   32  C3  UNL     1      -2.897   3.616  11.901  1.00  0.00     0.039 A 
HETATM   33  C5  UNL     1      -3.059   5.077  13.996  1.00  0.00     0.052 C 
HETATM   34  C36 UNL     1      -1.757   3.257  10.992  1.00  0.00     0.256 A 
HETATM   35  N4  UNL     1      -0.659   3.920  11.488  1.00  0.00    -0.322 N 
HETATM   36  O8  UNL     1      -1.782   2.536  10.013  1.00  0.00    -0.267 OA
HETATM   37  H38 UNL     1       0.273   3.836  11.086  1.00  0.00     0.169 HD
BRANCH  32  38
HETATM   38  C2  UNL     1      -4.257   3.143  11.792  1.00  0.00     0.007 C 
HETATM   39  C1  UNL     1      -5.039   3.208  10.708  1.00  0.00     0.012 C 
ENDBRANCH  32  38
ENDBRANCH  29  30
ENDBRANCH   1  29
BRANCH  13  40
HETATM   40  C20 UNL     1      -1.758  14.414  14.179  1.00  0.00     0.115 C 
BRANCH  40  41
HETATM   41  C21 UNL     1      -0.622  15.222  13.627  1.00  0.00     0.022 A 
HETATM   42  C22 UNL     1      -0.014  16.394  14.062  1.00  0.00    -0.020 A 
HETATM   43  C25 UNL     1       1.013  16.715  13.103  1.00  0.00     0.040 A 
HETATM   44  C27 UNL     1       0.997  15.718  12.136  1.00  0.00     0.084 A 
HETATM   45  N2  UNL     1       0.011  14.828  12.479  1.00  0.00    -0.356 N 
HETATM   46  H24 UNL     1      -0.214  14.009  11.923  1.00  0.00     0.166 HD
BRANCH  42  47
HETATM   47  C23 UNL     1      -0.366  17.188  15.288  1.00  0.00     0.037 C 
HETATM   48  C24 UNL     1      -1.543  18.125  15.060  1.00  0.00     0.010 C 
ENDBRANCH  42  47
BRANCH  43  49
HETATM   49  C26 UNL     1       1.906  17.866  13.121  1.00  0.00     0.273 C 
HETATM   50  O4  UNL     1       1.575  18.997  12.778  1.00  0.00    -0.301 OA
ENDBRANCH  43  49
BRANCH  44  51
HETATM   51  C28 UNL     1       1.801  15.531  10.950  1.00  0.00     0.288 C 
HETATM   52  O5  UNL     1       1.535  16.065   9.875  1.00  0.00    -0.300 OA
ENDBRANCH  44  51
ENDBRANCH  40  41
ENDBRANCH  13  40
TORSDOF 14
ENDMDL
MODEL 7
REMARK minimizedAffinity -8.18606186
REMARK CNNscore 0.0832000151
REMARK CNNaffinity 6.36538458
REMARK  14 active torsions:
REMARK  status: ('A' for Active; 'I' for Inactive)
REMARK    1  A    between atoms: C2_2  and  C3_3 
REMARK    2  A    between atoms: C6_6  and  C7_7 
REMARK    3  A    between atoms: C7_7  and  C8_8 
REMARK    4  A    between atoms: C14_17  and  C15_18 
REMARK    5  A    between atoms: C15_18  and  O3_20 
REMARK    6  A    between atoms: C19_24  and  C20_25 
REMARK    7  A    between atoms: C20_25  and  C21_26 
REMARK    8  A    between atoms: C22_27  and  C23_28 
REMARK    9  A    between atoms: C25_30  and  C26_31 
REMARK   10  A    between atoms: C27_33  and  C28_34 
REMARK   11  A    between atoms: C29_38  and  C30_39 
REMARK   12  A    between atoms: C30_39  and  C31_40 
REMARK   13  A    between atoms: C31_40  and  C32_41 
REMARK   14  A    between atoms: C32_41  and  O7_43 
ROOT
HETATM    1  C8  UNL     1      -8.105   5.589  13.666  1.00  0.00     0.016 C 
HETATM    2  N1  UNL     1      -9.134   6.311  13.351  1.00  0.00    -0.362 N 
ATOM      3  H1  UNL     1      -9.733   6.179  12.536  1.00  0.00     0.165 HD
HETATM    4  C9  UNL     1      -9.276   7.289  14.310  1.00  0.00     0.024 C 
HETATM    5  C10 UNL     1     -10.358   8.082  14.317  1.00  0.00     0.014 C 
HETATM    6  C11 UNL     1     -10.586   9.195  15.150  1.00  0.00     0.056 A 
HETATM    7  C12 UNL     1     -11.590  10.002  14.701  1.00  0.00     0.046 A 
HETATM    8  C13 UNL     1     -12.130   9.443  13.474  1.00  0.00     0.180 C 
HETATM    9  O1  UNL     1     -12.950   9.989  12.744  1.00  0.00    -0.291 OA
HETATM   10  C14 UNL     1     -11.476   8.052  13.229  1.00  0.00     0.197 C 
HETATM   11  C17 UNL     1     -11.733  11.072  15.600  1.00  0.00    -0.023 A 
HETATM   12  C18 UNL     1     -12.719  12.181  15.512  1.00  0.00     0.051 C 
HETATM   13  C19 UNL     1     -10.791  10.836  16.613  1.00  0.00     0.022 A 
HETATM   14  N3  UNL     1     -10.094   9.672  16.310  1.00  0.00    -0.357 N 
HETATM   15  C29 UNL     1      -8.070   7.332  15.225  1.00  0.00     0.046 C 
HETATM   16  C34 UNL     1      -7.434   5.953  14.970  1.00  0.00     0.041 C 
HETATM   17  C35 UNL     1      -7.812   4.933  16.041  1.00  0.00     0.017 C 
HETATM   18  H25 UNL     1      -9.379   9.259  16.891  1.00  0.00     0.166 HD
ENDROOT
BRANCH  10  19
HETATM   19  C15 UNL     1     -12.478   6.956  13.495  1.00  0.00     0.274 C 
HETATM   20  O2  UNL     1     -12.417   6.155  14.423  1.00  0.00    -0.264 OA
BRANCH  19  21
HETATM   21  O3  UNL     1     -13.466   6.964  12.552  1.00  0.00    -0.326 OA
HETATM   22  C16 UNL     1     -14.796   6.920  13.085  1.00  0.00     0.213 C 
ENDBRANCH  19  21
ENDBRANCH  10  19
BRANCH  15  23
HETATM   23  C30 UNL     1      -7.092   8.488  14.918  1.00  0.00     0.021 C 
BRANCH  23  24
HETATM   24  C31 UNL     1      -5.668   8.329  15.465  1.00  0.00     0.112 C 
BRANCH  24  25
HETATM   25  C32 UNL     1      -4.851   9.582  15.237  1.00  0.00     0.258 C 
HETATM   26  O6  UNL     1      -4.825  10.545  15.989  1.00  0.00    -0.265 OA
BRANCH  25  27
HETATM   27  O7  UNL     1      -4.121   9.456  14.093  1.00  0.00    -0.326 OA
HETATM   28  C33 UNL     1      -3.198   8.368  14.104  1.00  0.00     0.213 C 
ENDBRANCH  25  27
ENDBRANCH  24  25
ENDBRANCH  23  24
ENDBRANCH  15  23
BRANCH   1  29
HETATM   29  C7  UNL     1      -7.569   4.467  12.860  1.00  0.00     0.055 C 
BRANCH  29  30
HETATM   30  C6  UNL     1      -6.259   4.262  12.706  1.00  0.00     0.043 A 
HETATM   31  C4  UNL     1      -5.576   3.109  12.150  1.00  0.00    -0.019 A 
HETATM   32  C3  UNL     1      -4.237   3.304  12.137  1.00  0.00     0.039 A 
HETATM   33  C5  UNL     1      -6.337   1.915  11.676  1.00  0.00     0.052 C 
HETATM   34  C36 UNL     1      -4.024   4.661  12.742  1.00  0.00     0.256 A 
HETATM   35  N4  UNL     1      -5.277   5.140  13.044  1.00  0.00    -0.322 N 
HETATM   36  O8  UNL     1      -2.969   5.237  12.928  1.00  0.00    -0.267 OA
HETATM   37  H38 UNL     1      -5.439   6.036  13.499  1.00  0.00     0.169 HD
BRANCH  32  38
HETATM   38  C2  UNL     1      -3.207   2.402  11.677  1.00  0.00     0.007 C 
HETATM   39  C1  UNL     1      -2.154   2.718  10.916  1.00  0.00     0.012 C 
ENDBRANCH  32  38
ENDBRANCH  29  30
ENDBRANCH   1  29
BRANCH  13  40
HETATM   40  C20 UNL     1     -10.491  11.601  17.868  1.00  0.00     0.115 C 
BRANCH  40  41
HETATM   41  C21 UNL     1     -11.009  10.907  19.092  1.00  0.00     0.022 A 
HETATM   42  C22 UNL     1     -10.731  11.070  20.444  1.00  0.00    -0.020 A 
HETATM   43  C25 UNL     1     -11.516  10.092  21.154  1.00  0.00     0.040 A 
HETATM   44  C27 UNL     1     -12.249   9.388  20.208  1.00  0.00     0.084 A 
HETATM   45  N2  UNL     1     -11.933   9.904  18.976  1.00  0.00    -0.356 N 
HETATM   46  H24 UNL     1     -12.328   9.552  18.110  1.00  0.00     0.166 HD
BRANCH  42  47
HETATM   47  C23 UNL     1      -9.781  12.062  21.053  1.00  0.00     0.037 C 
HETATM   48  C24 UNL     1     -10.130  12.394  22.497  1.00  0.00     0.010 C 
ENDBRANCH  42  47
BRANCH  43  49
HETATM   49  C26 UNL     1     -11.545   9.863  22.594  1.00  0.00     0.273 C 
HETATM   50  O4  UNL     1     -10.958   8.943  23.154  1.00  0.00    -0.301 OA
ENDBRANCH  43  49
BRANCH  44  51
HETATM   51  C28 UNL     1     -13.194   8.305  20.351  1.00  0.00     0.288 C 
HETATM   52  O5  UNL     1     -12.909   7.241  20.897  1.00  0.00    -0.300 OA
ENDBRANCH  44  51
ENDBRANCH  40  41
ENDBRANCH  13  40
TORSDOF 14
ENDMDL
MODEL 8
REMARK minimizedAffinity -7.3323288
REMARK CNNscore 0.0806394368
REMARK CNNaffinity 5.90708303
REMARK  14 active torsions:
REMARK  status: ('A' for Active; 'I' for Inactive)
REMARK    1  A    between atoms: C2_2  and  C3_3 
REMARK    2  A    between atoms: C6_6  and  C7_7 
REMARK    3  A    between atoms: C7_7  and  C8_8 
REMARK    4  A    between atoms: C14_17  and  C15_18 
REMARK    5  A    between atoms: C15_18  and  O3_20 
REMARK    6  A    between atoms: C19_24  and  C20_25 
REMARK    7  A    between atoms: C20_25  and  C21_26 
REMARK    8  A    between atoms: C22_27  and  C23_28 
REMARK    9  A    between atoms: C25_30  and  C26_31 
REMARK   10  A    between atoms: C27_33  and  C28_34 
REMARK   11  A    between atoms: C29_38  and  C30_39 
REMARK   12  A    between atoms: C30_39  and  C31_40 
REMARK   13  A    between atoms: C31_40  and  C32_41 
REMARK   14  A    between atoms: C32_41  and  O7_43 
ROOT
HETATM    1  C8  UNL     1       1.754   8.145  13.428  1.00  0.00     0.016 C 
HETATM    2  N1  UNL     1       0.515   8.304  13.775  1.00  0.00    -0.362 N 
ATOM      3  H1  UNL     1      -0.298   7.929  13.286  1.00  0.00     0.165 HD
HETATM    4  C9  UNL     1       0.489   9.068  14.920  1.00  0.00     0.024 C 
HETATM    5  C10 UNL     1      -0.660   9.254  15.588  1.00  0.00     0.014 C 
HETATM    6  C11 UNL     1      -0.868  10.100  16.694  1.00  0.00     0.056 A 
HETATM    7  C12 UNL     1      -2.188  10.349  16.936  1.00  0.00     0.046 A 
HETATM    8  C13 UNL     1      -2.988   9.639  15.954  1.00  0.00     0.180 C 
HETATM    9  O1  UNL     1      -4.200   9.754  15.806  1.00  0.00    -0.291 OA
HETATM   10  C14 UNL     1      -2.049   8.732  15.107  1.00  0.00     0.197 C 
HETATM   11  C17 UNL     1      -2.281  11.195  18.053  1.00  0.00    -0.023 A 
HETATM   12  C18 UNL     1      -3.529  11.708  18.678  1.00  0.00     0.051 C 
HETATM   13  C19 UNL     1      -0.959  11.403  18.475  1.00  0.00     0.022 A 
HETATM   14  N3  UNL     1      -0.105  10.717  17.618  1.00  0.00    -0.357 N 
HETATM   15  C29 UNL     1       1.856   9.649  15.217  1.00  0.00     0.046 C 
HETATM   16  C34 UNL     1       2.770   8.744  14.373  1.00  0.00     0.041 C 
HETATM   17  C35 UNL     1       3.414   7.634  15.201  1.00  0.00     0.017 C 
HETATM   18  H25 UNL     1       0.898  10.675  17.714  1.00  0.00     0.166 HD
ENDROOT
BRANCH  10  19
HETATM   19  C15 UNL     1      -2.256   7.284  15.479  1.00  0.00     0.274 C 
HETATM   20  O2  UNL     1      -1.453   6.380  15.267  1.00  0.00    -0.264 OA
BRANCH  19  21
HETATM   21  O3  UNL     1      -3.471   7.106  16.078  1.00  0.00    -0.326 OA
HETATM   22  C16 UNL     1      -4.355   6.223  15.376  1.00  0.00     0.213 C 
ENDBRANCH  19  21
ENDBRANCH  10  19
BRANCH  15  23
HETATM   23  C30 UNL     1       1.999  11.139  14.835  1.00  0.00     0.021 C 
BRANCH  23  24
HETATM   24  C31 UNL     1       3.205  11.496  13.957  1.00  0.00     0.112 C 
BRANCH  24  25
HETATM   25  C32 UNL     1       4.395  11.897  14.799  1.00  0.00     0.258 C 
HETATM   26  O6  UNL     1       5.529  12.061  14.373  1.00  0.00    -0.265 OA
BRANCH  25  27
HETATM   27  O7  UNL     1       4.005  12.086  16.092  1.00  0.00    -0.326 OA
HETATM   28  C33 UNL     1       4.855  11.467  17.056  1.00  0.00     0.213 C 
ENDBRANCH  25  27
ENDBRANCH  24  25
ENDBRANCH  23  24
ENDBRANCH  15  23
BRANCH   1  29
HETATM   29  C7  UNL     1       2.217   7.437  12.213  1.00  0.00     0.055 C 
BRANCH  29  30
HETATM   30  C6  UNL     1       1.793   7.767  10.990  1.00  0.00     0.043 A 
HETATM   31  C4  UNL     1       2.442   7.547   9.711  1.00  0.00    -0.019 A 
HETATM   32  C3  UNL     1       1.669   7.999   8.697  1.00  0.00     0.039 A 
HETATM   33  C5  UNL     1       3.783   6.896   9.627  1.00  0.00     0.052 C 
HETATM   34  C36 UNL     1       0.444   8.570   9.350  1.00  0.00     0.256 A 
HETATM   35  N4  UNL     1       0.618   8.384  10.702  1.00  0.00    -0.322 N 
HETATM   36  O8  UNL     1      -0.516   9.088   8.811  1.00  0.00    -0.267 OA
HETATM   37  H38 UNL     1      -0.049   8.707  11.400  1.00  0.00     0.169 HD
BRANCH  32  38
HETATM   38  C2  UNL     1       1.951   7.979   7.281  1.00  0.00     0.007 C 
HETATM   39  C1  UNL     1       1.778   6.946   6.448  1.00  0.00     0.012 C 
ENDBRANCH  32  38
ENDBRANCH  29  30
ENDBRANCH   1  29
BRANCH  13  40
HETATM   40  C20 UNL     1      -0.412  12.180  19.636  1.00  0.00     0.115 C 
BRANCH  40  41
HETATM   41  C21 UNL     1       0.901  11.636  20.113  1.00  0.00     0.022 A 
HETATM   42  C22 UNL     1       2.204  12.104  19.993  1.00  0.00    -0.020 A 
HETATM   43  C25 UNL     1       3.059  11.134  20.631  1.00  0.00     0.040 A 
HETATM   44  C27 UNL     1       2.240  10.128  21.126  1.00  0.00     0.084 A 
HETATM   45  N2  UNL     1       0.946  10.457  20.810  1.00  0.00    -0.356 N 
HETATM   46  H24 UNL     1       0.151   9.874  21.050  1.00  0.00     0.166 HD
BRANCH  42  47
HETATM   47  C23 UNL     1       2.645  13.369  19.313  1.00  0.00     0.037 C 
HETATM   48  C24 UNL     1       1.706  13.788  18.191  1.00  0.00     0.010 C 
ENDBRANCH  42  47
BRANCH  43  49
HETATM   49  C26 UNL     1       4.511  11.179  20.741  1.00  0.00     0.273 C 
HETATM   50  O4  UNL     1       5.113  11.468  21.770  1.00  0.00    -0.301 OA
ENDBRANCH  43  49
BRANCH  44  51
HETATM   51  C28 UNL     1       2.553   8.918  21.849  1.00  0.00     0.288 C 
HETATM   52  O5  UNL     1       1.702   8.081  22.147  1.00  0.00    -0.300 OA
ENDBRANCH  44  51
ENDBRANCH  40  41
ENDBRANCH  13  40
TORSDOF 14
ENDMDL
MODEL 9
REMARK minimizedAffinity -8.61447334
REMARK CNNscore 0.0729720592
REMARK CNNaffinity 7.27976084
REMARK  14 active torsions:
REMARK  status: ('A' for Active; 'I' for Inactive)
REMARK    1  A    between atoms: C2_2  and  C3_3 
REMARK    2  A    between atoms: C6_6  and  C7_7 
REMARK    3  A    between atoms: C7_7  and  C8_8 
REMARK    4  A    between atoms: C14_17  and  C15_18 
REMARK    5  A    between atoms: C15_18  and  O3_20 
REMARK    6  A    between atoms: C19_24  and  C20_25 
REMARK    7  A    between atoms: C20_25  and  C21_26 
REMARK    8  A    between atoms: C22_27  and  C23_28 
REMARK    9  A    between atoms: C25_30  and  C26_31 
REMARK   10  A    between atoms: C27_33  and  C28_34 
REMARK   11  A    between atoms: C29_38  and  C30_39 
REMARK   12  A    between atoms: C30_39  and  C31_40 
REMARK   13  A    between atoms: C31_40  and  C32_41 
REMARK   14  A    between atoms: C32_41  and  O7_43 
ROOT
HETATM    1  C8  UNL     1       1.685   7.959  10.962  1.00  0.00     0.016 C 
HETATM    2  N1  UNL     1       1.681   8.359  12.195  1.00  0.00    -0.362 N 
ATOM      3  H1  UNL     1       2.502   8.601  12.750  1.00  0.00     0.165 HD
HETATM    4  C9  UNL     1       0.373   8.399  12.624  1.00  0.00     0.024 C 
HETATM    5  C10 UNL     1       0.065   8.931  13.817  1.00  0.00     0.014 C 
HETATM    6  C11 UNL     1      -1.198   8.933  14.441  1.00  0.00     0.056 A 
HETATM    7  C12 UNL     1      -1.135   9.226  15.772  1.00  0.00     0.046 A 
HETATM    8  C13 UNL     1       0.251   9.455  16.139  1.00  0.00     0.180 C 
HETATM    9  O1  UNL     1       0.668   9.607  17.282  1.00  0.00    -0.291 OA
HETATM   10  C14 UNL     1       1.117   9.448  14.846  1.00  0.00     0.197 C 
HETATM   11  C17 UNL     1      -2.440   9.203  16.291  1.00  0.00    -0.023 A 
HETATM   12  C18 UNL     1      -2.843   9.480  17.696  1.00  0.00     0.051 C 
HETATM   13  C19 UNL     1      -3.272   8.919  15.198  1.00  0.00     0.022 A 
HETATM   14  N3  UNL     1      -2.480   8.755  14.067  1.00  0.00    -0.357 N 
HETATM   15  C29 UNL     1      -0.548   7.740  11.620  1.00  0.00     0.046 C 
HETATM   16  C34 UNL     1       0.321   7.739  10.350  1.00  0.00     0.041 C 
HETATM   17  C35 UNL     1      -0.013   8.900   9.416  1.00  0.00     0.017 C 
HETATM   18  H25 UNL     1      -2.830   8.573  13.138  1.00  0.00     0.166 HD
ENDROOT
BRANCH  10  19
HETATM   19  C15 UNL     1       1.569  10.850  14.520  1.00  0.00     0.274 C 
HETATM   20  O2  UNL     1       1.030  11.876  14.924  1.00  0.00    -0.264 OA
BRANCH  19  21
HETATM   21  O3  UNL     1       2.661  10.829  13.700  1.00  0.00    -0.326 OA
HETATM   22  C16 UNL     1       3.588  11.900  13.917  1.00  0.00     0.213 C 
ENDBRANCH  19  21
ENDBRANCH  10  19
BRANCH  15  23
HETATM   23  C30 UNL     1      -0.994   6.316  12.020  1.00  0.00     0.021 C 
BRANCH  23  24
HETATM   24  C31 UNL     1       0.126   5.349  12.427  1.00  0.00     0.112 C 
BRANCH  24  25
HETATM   25  C32 UNL     1       0.270   4.226  11.425  1.00  0.00     0.258 C 
HETATM   26  O6  UNL     1       1.335   3.751  11.057  1.00  0.00    -0.265 OA
BRANCH  25  27
HETATM   27  O7  UNL     1      -0.962   3.797  11.029  1.00  0.00    -0.326 OA
HETATM   28  C33 UNL     1      -1.180   2.399  11.208  1.00  0.00     0.213 C 
ENDBRANCH  25  27
ENDBRANCH  24  25
ENDBRANCH  23  24
ENDBRANCH  15  23
BRANCH   1  29
HETATM   29  C7  UNL     1       2.898   7.720  10.146  1.00  0.00     0.055 C 
BRANCH  29  30
HETATM   30  C6  UNL     1       3.110   6.567   9.507  1.00  0.00     0.043 A 
HETATM   31  C4  UNL     1       2.837   6.228   8.123  1.00  0.00    -0.019 A 
HETATM   32  C3  UNL     1       3.230   4.962   7.852  1.00  0.00     0.039 A 
HETATM   33  C5  UNL     1       2.207   7.215   7.196  1.00  0.00     0.052 C 
HETATM   34  C36 UNL     1       3.777   4.427   9.143  1.00  0.00     0.256 A 
HETATM   35  N4  UNL     1       3.659   5.450  10.054  1.00  0.00    -0.322 N 
HETATM   36  O8  UNL     1       4.240   3.322   9.356  1.00  0.00    -0.267 OA
HETATM   37  H38 UNL     1       3.925   5.360  11.033  1.00  0.00     0.169 HD
BRANCH  32  38
HETATM   38  C2  UNL     1       3.126   4.242   6.604  1.00  0.00     0.007 C 
HETATM   39  C1  UNL     1       3.942   3.273   6.173  1.00  0.00     0.012 C 
ENDBRANCH  32  38
ENDBRANCH  29  30
ENDBRANCH   1  29
BRANCH  13  40
HETATM   40  C20 UNL     1      -4.765   8.804  15.107  1.00  0.00     0.115 C 
BRANCH  40  41
HETATM   41  C21 UNL     1      -5.197   7.495  14.518  1.00  0.00     0.022 A 
HETATM   42  C22 UNL     1      -6.409   6.815  14.546  1.00  0.00    -0.020 A 
HETATM   43  C25 UNL     1      -6.214   5.581  13.825  1.00  0.00     0.040 A 
HETATM   44  C27 UNL     1      -4.901   5.571  13.376  1.00  0.00     0.084 A 
HETATM   45  N2  UNL     1      -4.312   6.737  13.798  1.00  0.00    -0.356 N 
HETATM   46  H24 UNL     1      -3.343   6.969  13.610  1.00  0.00     0.166 HD
BRANCH  42  47
HETATM   47  C23 UNL     1      -7.678   7.265  15.212  1.00  0.00     0.037 C 
HETATM   48  C24 UNL     1      -7.678   6.996  16.710  1.00  0.00     0.010 C 
ENDBRANCH  42  47
BRANCH  43  49
HETATM   49  C26 UNL     1      -7.196   4.527  13.603  1.00  0.00     0.273 C 
HETATM   50  O4  UNL     1      -7.137   3.718  12.682  1.00  0.00    -0.301 OA
ENDBRANCH  43  49
BRANCH  44  51
HETATM   51  C28 UNL     1      -4.166   4.593  12.608  1.00  0.00     0.288 C 
HETATM   52  O5  UNL     1      -3.763   3.536  13.089  1.00  0.00    -0.300 OA
ENDBRANCH  44  51
ENDBRANCH  40  41
ENDBRANCH  13  40
TORSDOF 14
ENDMDL
