MODEL 1
REMARK minimizedAffinity -7.75825214
REMARK CNNscore 0.553411365
REMARK CNNaffinity 7.04490137
REMARK  12 active torsions:
REMARK  status: ('A' for Active; 'I' for Inactive)
REMARK    1  A    between atoms: O1_2  and  C2_3 
REMARK    2  A    between atoms: C2_3  and  C5_6 
REMARK    3  A    between atoms: C6_7  and  C7_8 
REMARK    4  A    between atoms: C7_8  and  C8_9 
REMARK    5  A    between atoms: C8_9  and  C10_11 
REMARK    6  A    between atoms: C28_30  and  O3_31 
REMARK    7  A    between atoms: O3_31  and  C29_32 
REMARK    8  A    between atoms: C30_34  and  C31_35 
REMARK    9  A    between atoms: C31_35  and  O5_36 
REMARK   10  A    between atoms: C32_37  and  O6_38 
REMARK   11  A    between atoms: C33_39  and  O7_40 
REMARK   12  A    between atoms: C34_41  and  O8_42 
ROOT
HETATM    1  C10 UNL     1      -3.194  12.715  18.217  1.00  0.00    -0.002 C 
HETATM    2  C11 UNL     1      -3.592  11.633  19.270  1.00  0.00     0.006 C 
HETATM    3  C12 UNL     1      -3.511  10.259  18.585  1.00  0.00     0.011 C 
HETATM    4  C13 UNL     1      -2.710  10.511  17.295  1.00  0.00    -0.029 C 
HETATM    5  C14 UNL     1      -1.206  10.520  17.712  1.00  0.00     0.016 C 
HETATM    6  C15 UNL     1      -2.961   9.476  16.154  1.00  0.00     0.028 C 
HETATM    7  C16 UNL     1      -2.548   8.059  16.523  1.00  0.00    -0.021 C 
HETATM    8  C17 UNL     1      -1.829   7.288  15.687  1.00  0.00     0.008 C 
HETATM    9  C18 UNL     1      -1.399   7.806  14.318  1.00  0.00     0.092 C 
HETATM   10  O2  UNL     1      -2.641   7.876  13.571  1.00  0.00    -0.374 OA
HETATM   11  C19 UNL     1      -3.134   9.219  13.628  1.00  0.00     0.179 C 
HETATM   12  C20 UNL     1      -2.362   9.948  14.752  1.00  0.00    -0.004 C 
HETATM   13  C21 UNL     1      -2.465  11.479  14.497  1.00  0.00     0.014 C 
HETATM   14  C22 UNL     1      -2.391  12.424  15.710  1.00  0.00     0.011 C 
HETATM   15  C23 UNL     1      -3.266  11.924  16.870  1.00  0.00    -0.032 C 
HETATM   16  C24 UNL     1      -4.755  11.899  16.392  1.00  0.00     0.016 C 
HETATM   17  C25 UNL     1      -0.971   9.285  14.543  1.00  0.00     0.036 C 
HETATM   18  C26 UNL     1      -0.104   9.812  13.405  1.00  0.00     0.011 C 
HETATM   19  C27 UNL     1       1.171   8.984  13.226  1.00  0.00     0.033 C 
HETATM   20  C28 UNL     1       1.067   7.524  13.695  1.00  0.00     0.136 C 
HETATM   21  C35 UNL     1      -0.363   6.940  13.499  1.00  0.00     0.014 C 
HETATM   22  C36 UNL     1      -0.715   6.889  11.980  1.00  0.00     0.021 C 
HETATM   23  C37 UNL     1      -0.358   5.451  13.938  1.00  0.00     0.021 C 
ENDROOT
BRANCH  20  24
HETATM   24  O3  UNL     1       1.982   6.720  12.946  1.00  0.00    -0.352 OA
BRANCH  24  25
HETATM   25  C29 UNL     1       2.722   7.383  11.917  1.00  0.00     0.292 C 
HETATM   26  O4  UNL     1       2.293   6.928  10.644  1.00  0.00    -0.348 OA
HETATM   27  C30 UNL     1       2.993   7.546   9.542  1.00  0.00     0.179 C 
HETATM   28  C32 UNL     1       4.502   7.737   9.797  1.00  0.00     0.180 C 
HETATM   29  C33 UNL     1       4.997   6.776  10.881  1.00  0.00     0.183 C 
HETATM   30  C34 UNL     1       4.208   7.023  12.181  1.00  0.00     0.204 C 
BRANCH  27  31
HETATM   31  C31 UNL     1       2.740   6.635   8.335  1.00  0.00     0.198 C 
BRANCH  31  32
HETATM   32  O5  UNL     1       2.637   5.281   8.785  1.00  0.00    -0.398 OA
HETATM   33  H48 UNL     1       3.433   5.140   9.331  1.00  0.00     0.209 HD
ENDBRANCH  31  32
ENDBRANCH  27  31
BRANCH  28  34
HETATM   34  O6  UNL     1       4.746   9.079  10.260  1.00  0.00    -0.390 OA
HETATM   35  H50 UNL     1       4.831   9.644   9.473  1.00  0.00     0.210 HD
ENDBRANCH  28  34
BRANCH  29  36
HETATM   36  O7  UNL     1       4.893   5.432  10.415  1.00  0.00    -0.390 OA
HETATM   37  H52 UNL     1       5.110   4.839  11.157  1.00  0.00     0.210 HD
ENDBRANCH  29  36
BRANCH  30  38
HETATM   38  O8  UNL     1       4.825   8.094  12.930  1.00  0.00    -0.388 OA
HETATM   39  H54 UNL     1       5.056   8.797  12.268  1.00  0.00     0.210 HD
ENDBRANCH  30  38
ENDBRANCH  24  25
ENDBRANCH  20  24
BRANCH   1  40
HETATM   40  C8  UNL     1      -4.047  14.012  18.395  1.00  0.00    -0.010 C 
HETATM   41  C9  UNL     1      -3.303  15.266  17.916  1.00  0.00     0.010 C 
BRANCH  40  42
HETATM   42  C7  UNL     1      -4.472  14.221  19.877  1.00  0.00     0.031 C 
BRANCH  42  43
HETATM   43  C6  UNL     1      -5.948  14.151  20.202  1.00  0.00    -0.027 C 
HETATM   44  C5  UNL     1      -6.506  13.718  21.346  1.00  0.00     0.006 C 
BRANCH  44  45
HETATM   45  C2  UNL     1      -7.981  13.680  21.711  1.00  0.00     0.070 C 
HETATM   46  C3  UNL     1      -8.672  15.043  21.854  1.00  0.00     0.050 C 
HETATM   47  C4  UNL     1      -8.105  12.943  23.056  1.00  0.00     0.050 C 
BRANCH  45  48
HETATM   48  O1  UNL     1      -8.660  12.839  20.760  1.00  0.00    -0.382 OA
HETATM   49  C1  UNL     1      -9.330  13.506  19.701  1.00  0.00     0.202 C 
ENDBRANCH  45  48
ENDBRANCH  44  45
ENDBRANCH  42  43
ENDBRANCH  40  42
ENDBRANCH   1  40
TORSDOF 12
ENDMDL
MODEL 2
REMARK minimizedAffinity -9.09449005
REMARK CNNscore 0.491077363
REMARK CNNaffinity 7.34989166
REMARK  12 active torsions:
REMARK  status: ('A' for Active; 'I' for Inactive)
REMARK    1  A    between atoms: O1_2  and  C2_3 
REMARK    2  A    between atoms: C2_3  and  C5_6 
REMARK    3  A    between atoms: C6_7  and  C7_8 
REMARK    4  A    between atoms: C7_8  and  C8_9 
REMARK    5  A    between atoms: C8_9  and  C10_11 
REMARK    6  A    between atoms: C28_30  and  O3_31 
REMARK    7  A    between atoms: O3_31  and  C29_32 
REMARK    8  A    between atoms: C30_34  and  C31_35 
REMARK    9  A    between atoms: C31_35  and  O5_36 
REMARK   10  A    between atoms: C32_37  and  O6_38 
REMARK   11  A    between atoms: C33_39  and  O7_40 
REMARK   12  A    between atoms: C34_41  and  O8_42 
ROOT
HETATM    1  C10 UNL     1      -1.967   6.570  13.235  1.00  0.00    -0.002 C 
HETATM    2  C11 UNL     1      -1.992   5.181  12.523  1.00  0.00     0.006 C 
HETATM    3  C12 UNL     1      -0.705   5.056  11.692  1.00  0.00     0.011 C 
HETATM    4  C13 UNL     1       0.215   6.170  12.224  1.00  0.00    -0.029 C 
HETATM    5  C14 UNL     1       0.865   5.612  13.528  1.00  0.00     0.016 C 
HETATM    6  C15 UNL     1       1.310   6.651  11.221  1.00  0.00     0.028 C 
HETATM    7  C16 UNL     1       2.304   5.561  10.844  1.00  0.00    -0.021 C 
HETATM    8  C17 UNL     1       3.630   5.782  10.834  1.00  0.00     0.008 C 
HETATM    9  C18 UNL     1       4.201   7.150  11.197  1.00  0.00     0.092 C 
HETATM   10  O2  UNL     1       3.807   7.993  10.083  1.00  0.00    -0.374 OA
HETATM   11  C19 UNL     1       2.611   8.693  10.438  1.00  0.00     0.179 C 
HETATM   12  C20 UNL     1       2.024   7.999  11.690  1.00  0.00    -0.004 C 
HETATM   13  C21 UNL     1       1.077   9.008  12.403  1.00  0.00     0.014 C 
HETATM   14  C22 UNL     1      -0.096   8.444  13.226  1.00  0.00     0.011 C 
HETATM   15  C23 UNL     1      -0.830   7.325  12.471  1.00  0.00    -0.032 C 
HETATM   16  C24 UNL     1      -1.431   7.925  11.159  1.00  0.00     0.016 C 
HETATM   17  C25 UNL     1       3.358   7.649  12.406  1.00  0.00     0.036 C 
HETATM   18  C26 UNL     1       4.059   8.765  13.173  1.00  0.00     0.011 C 
HETATM   19  C27 UNL     1       5.421   8.320  13.711  1.00  0.00     0.033 C 
HETATM   20  C28 UNL     1       6.098   7.196  12.912  1.00  0.00     0.136 C 
HETATM   21  C35 UNL     1       5.763   7.264  11.393  1.00  0.00     0.014 C 
HETATM   22  C36 UNL     1       6.336   8.579  10.779  1.00  0.00     0.021 C 
HETATM   23  C37 UNL     1       6.536   6.135  10.661  1.00  0.00     0.021 C 
ENDROOT
BRANCH  20  24
HETATM   24  O3  UNL     1       7.518   7.299  13.059  1.00  0.00    -0.352 OA
BRANCH  24  25
HETATM   25  C29 UNL     1       8.005   8.426  13.792  1.00  0.00     0.292 C 
HETATM   26  O4  UNL     1       8.805   9.240  12.950  1.00  0.00    -0.348 OA
HETATM   27  C30 UNL     1       9.343  10.405  13.613  1.00  0.00     0.179 C 
HETATM   28  C32 UNL     1       9.815  10.133  15.055  1.00  0.00     0.180 C 
HETATM   29  C33 UNL     1      10.104   8.644  15.263  1.00  0.00     0.183 C 
HETATM   30  C34 UNL     1       8.830   7.831  14.963  1.00  0.00     0.204 C 
BRANCH  27  31
HETATM   31  C31 UNL     1      10.500  10.882  12.726  1.00  0.00     0.198 C 
BRANCH  31  32
HETATM   32  O5  UNL     1      10.032  11.017  11.380  1.00  0.00    -0.398 OA
HETATM   33  H48 UNL     1       9.598  10.166  11.183  1.00  0.00     0.209 HD
ENDBRANCH  31  32
ENDBRANCH  27  31
BRANCH  28  34
HETATM   34  O6  UNL     1       8.776  10.509  15.980  1.00  0.00    -0.390 OA
HETATM   35  H50 UNL     1       8.873  11.460  16.152  1.00  0.00     0.210 HD
ENDBRANCH  28  34
BRANCH  29  36
HETATM   36  O7  UNL     1      11.214   8.254  14.457  1.00  0.00    -0.390 OA
HETATM   37  H52 UNL     1      11.309   7.287  14.524  1.00  0.00     0.210 HD
ENDBRANCH  29  36
BRANCH  30  38
HETATM   38  O8  UNL     1       7.998   7.774  16.143  1.00  0.00    -0.388 OA
HETATM   39  H54 UNL     1       8.005   8.689  16.531  1.00  0.00     0.210 HD
ENDBRANCH  30  38
ENDBRANCH  24  25
ENDBRANCH  20  24
BRANCH   1  40
HETATM   40  C8  UNL     1      -3.398   7.195  13.297  1.00  0.00    -0.010 C 
HETATM   41  C9  UNL     1      -3.513   8.275  14.382  1.00  0.00     0.010 C 
BRANCH  40  42
HETATM   42  C7  UNL     1      -4.486   6.113  13.556  1.00  0.00     0.031 C 
BRANCH  42  43
HETATM   43  C6  UNL     1      -4.438   4.853  12.719  1.00  0.00    -0.027 C 
HETATM   44  C5  UNL     1      -5.430   3.964  12.536  1.00  0.00     0.006 C 
BRANCH  44  45
HETATM   45  C2  UNL     1      -5.419   2.717  11.668  1.00  0.00     0.070 C 
HETATM   46  C3  UNL     1      -4.162   1.842  11.768  1.00  0.00     0.050 C 
HETATM   47  C4  UNL     1      -5.562   3.172  10.204  1.00  0.00     0.050 C 
BRANCH  45  48
HETATM   48  O1  UNL     1      -6.614   1.963  11.943  1.00  0.00    -0.382 OA
HETATM   49  C1  UNL     1      -7.556   2.579  12.808  1.00  0.00     0.202 C 
ENDBRANCH  45  48
ENDBRANCH  44  45
ENDBRANCH  42  43
ENDBRANCH  40  42
ENDBRANCH   1  40
TORSDOF 12
ENDMDL
MODEL 3
REMARK minimizedAffinity -7.36476564
REMARK CNNscore 0.429424047
REMARK CNNaffinity 7.34881258
REMARK  12 active torsions:
REMARK  status: ('A' for Active; 'I' for Inactive)
REMARK    1  A    between atoms: O1_2  and  C2_3 
REMARK    2  A    between atoms: C2_3  and  C5_6 
REMARK    3  A    between atoms: C6_7  and  C7_8 
REMARK    4  A    between atoms: C7_8  and  C8_9 
REMARK    5  A    between atoms: C8_9  and  C10_11 
REMARK    6  A    between atoms: C28_30  and  O3_31 
REMARK    7  A    between atoms: O3_31  and  C29_32 
REMARK    8  A    between atoms: C30_34  and  C31_35 
REMARK    9  A    between atoms: C31_35  and  O5_36 
REMARK   10  A    between atoms: C32_37  and  O6_38 
REMARK   11  A    between atoms: C33_39  and  O7_40 
REMARK   12  A    between atoms: C34_41  and  O8_42 
ROOT
HETATM    1  C10 UNL     1      -9.739  -7.300  -3.771  1.00  0.00    -0.002 C 
HETATM    2  C11 UNL     1     -11.059  -7.557  -2.979  1.00  0.00     0.006 C 
HETATM    3  C12 UNL     1     -10.861  -8.824  -2.132  1.00  0.00     0.011 C 
HETATM    4  C13 UNL     1      -9.340  -9.062  -2.134  1.00  0.00    -0.029 C 
HETATM    5  C14 UNL     1      -8.749  -8.106  -1.052  1.00  0.00     0.016 C 
HETATM    6  C15 UNL     1      -8.907 -10.538  -1.866  1.00  0.00     0.028 C 
HETATM    7  C16 UNL     1      -9.314 -11.045  -0.490  1.00  0.00    -0.021 C 
HETATM    8  C17 UNL     1      -8.458 -11.714   0.303  1.00  0.00     0.008 C 
HETATM    9  C18 UNL     1      -7.029 -11.999  -0.151  1.00  0.00     0.092 C 
HETATM   10  O2  UNL     1      -7.194 -12.980  -1.208  1.00  0.00    -0.374 OA
HETATM   11  C19 UNL     1      -7.175 -12.303  -2.468  1.00  0.00     0.179 C 
HETATM   12  C20 UNL     1      -7.365 -10.794  -2.185  1.00  0.00    -0.004 C 
HETATM   13  C21 UNL     1      -6.826  -9.999  -3.410  1.00  0.00     0.014 C 
HETATM   14  C22 UNL     1      -7.445  -8.622  -3.710  1.00  0.00     0.011 C 
HETATM   15  C23 UNL     1      -8.978  -8.658  -3.614  1.00  0.00    -0.032 C 
HETATM   16  C24 UNL     1      -9.518  -9.654  -4.692  1.00  0.00     0.016 C 
HETATM   17  C25 UNL     1      -6.549 -10.703  -0.865  1.00  0.00     0.036 C 
HETATM   18  C26 UNL     1      -5.029 -10.641  -0.980  1.00  0.00     0.011 C 
HETATM   19  C27 UNL     1      -4.349 -10.694   0.390  1.00  0.00     0.033 C 
HETATM   20  C28 UNL     1      -5.154 -11.409   1.487  1.00  0.00     0.136 C 
HETATM   21  C35 UNL     1      -6.021 -12.573   0.920  1.00  0.00     0.014 C 
HETATM   22  C36 UNL     1      -5.100 -13.682   0.323  1.00  0.00     0.021 C 
HETATM   23  C37 UNL     1      -6.745 -13.274   2.100  1.00  0.00     0.021 C 
ENDROOT
BRANCH  20  24
HETATM   24  O3  UNL     1      -4.253 -11.957   2.454  1.00  0.00    -0.352 OA
BRANCH  24  25
HETATM   25  C29 UNL     1      -3.935 -11.125   3.574  1.00  0.00     0.292 C 
HETATM   26  O4  UNL     1      -3.227 -11.877   4.546  1.00  0.00    -0.348 OA
HETATM   27  C30 UNL     1      -2.866 -11.112   5.718  1.00  0.00     0.179 C 
HETATM   28  C32 UNL     1      -3.967 -10.137   6.183  1.00  0.00     0.180 C 
HETATM   29  C33 UNL     1      -5.337 -10.572   5.657  1.00  0.00     0.183 C 
HETATM   30  C34 UNL     1      -5.300 -10.627   4.118  1.00  0.00     0.204 C 
BRANCH  27  31
HETATM   31  C31 UNL     1      -2.544 -12.150   6.800  1.00  0.00     0.198 C 
BRANCH  31  32
HETATM   32  O5  UNL     1      -1.132 -12.381   6.819  1.00  0.00    -0.398 OA
HETATM   33  H48 UNL     1      -0.899 -12.571   5.891  1.00  0.00     0.209 HD
ENDBRANCH  31  32
ENDBRANCH  27  31
BRANCH  28  34
HETATM   34  O6  UNL     1      -3.696  -8.822   5.661  1.00  0.00    -0.390 OA
HETATM   35  H50 UNL     1      -3.083  -8.388   6.277  1.00  0.00     0.210 HD
ENDBRANCH  28  34
BRANCH  29  36
HETATM   36  O7  UNL     1      -5.706 -11.816   6.250  1.00  0.00    -0.390 OA
HETATM   37  H52 UNL     1      -6.525 -12.122   5.820  1.00  0.00     0.210 HD
ENDBRANCH  29  36
BRANCH  30  38
HETATM   38  O8  UNL     1      -5.572  -9.316   3.576  1.00  0.00    -0.388 OA
HETATM   39  H54 UNL     1      -5.054  -8.675   4.130  1.00  0.00     0.210 HD
ENDBRANCH  30  38
ENDBRANCH  24  25
ENDBRANCH  20  24
BRANCH   1  40
HETATM   40  C8  UNL     1     -10.040  -6.748  -5.201  1.00  0.00    -0.010 C 
HETATM   41  C9  UNL     1      -8.758  -6.411  -5.975  1.00  0.00     0.010 C 
BRANCH  40  42
HETATM   42  C7  UNL     1     -10.937  -5.477  -5.149  1.00  0.00     0.031 C 
BRANCH  42  43
HETATM   43  C6  UNL     1     -10.260  -4.149  -4.890  1.00  0.00    -0.027 C 
HETATM   44  C5  UNL     1      -9.918  -3.223  -5.803  1.00  0.00     0.006 C 
BRANCH  44  45
HETATM   45  C2  UNL     1      -9.278  -1.866  -5.562  1.00  0.00     0.070 C 
HETATM   46  C3  UNL     1      -7.873  -1.887  -4.943  1.00  0.00     0.050 C 
HETATM   47  C4  UNL     1     -10.200  -1.082  -4.612  1.00  0.00     0.050 C 
BRANCH  45  48
HETATM   48  O1  UNL     1      -9.301  -1.129  -6.798  1.00  0.00    -0.382 OA
HETATM   49  C1  UNL     1      -9.824  -1.816  -7.925  1.00  0.00     0.202 C 
ENDBRANCH  45  48
ENDBRANCH  44  45
ENDBRANCH  42  43
ENDBRANCH  40  42
ENDBRANCH   1  40
TORSDOF 12
ENDMDL
MODEL 4
REMARK minimizedAffinity -7.4102416
REMARK CNNscore 0.413069546
REMARK CNNaffinity 6.82288694
REMARK  12 active torsions:
REMARK  status: ('A' for Active; 'I' for Inactive)
REMARK    1  A    between atoms: O1_2  and  C2_3 
REMARK    2  A    between atoms: C2_3  and  C5_6 
REMARK    3  A    between atoms: C6_7  and  C7_8 
REMARK    4  A    between atoms: C7_8  and  C8_9 
REMARK    5  A    between atoms: C8_9  and  C10_11 
REMARK    6  A    between atoms: C28_30  and  O3_31 
REMARK    7  A    between atoms: O3_31  and  C29_32 
REMARK    8  A    between atoms: C30_34  and  C31_35 
REMARK    9  A    between atoms: C31_35  and  O5_36 
REMARK   10  A    between atoms: C32_37  and  O6_38 
REMARK   11  A    between atoms: C33_39  and  O7_40 
REMARK   12  A    between atoms: C34_41  and  O8_42 
ROOT
HETATM    1  C10 UNL     1      -1.870   7.709  13.673  1.00  0.00    -0.002 C 
HETATM    2  C11 UNL     1      -2.197   6.682  14.803  1.00  0.00     0.006 C 
HETATM    3  C12 UNL     1      -2.409   7.468  16.106  1.00  0.00     0.011 C 
HETATM    4  C13 UNL     1      -2.590   8.930  15.657  1.00  0.00    -0.029 C 
HETATM    5  C14 UNL     1      -4.076   9.064  15.199  1.00  0.00     0.016 C 
HETATM    6  C15 UNL     1      -2.248   9.998  16.743  1.00  0.00     0.028 C 
HETATM    7  C16 UNL     1      -3.146   9.920  17.969  1.00  0.00    -0.021 C 
HETATM    8  C17 UNL     1      -3.704  11.017  18.512  1.00  0.00     0.008 C 
HETATM    9  C18 UNL     1      -3.451  12.400  17.919  1.00  0.00     0.092 C 
HETATM   10  O2  UNL     1      -2.057  12.658  18.232  1.00  0.00    -0.374 OA
HETATM   11  C19 UNL     1      -1.262  12.317  17.092  1.00  0.00     0.179 C 
HETATM   12  C20 UNL     1      -2.148  11.473  16.146  1.00  0.00    -0.004 C 
HETATM   13  C21 UNL     1      -1.534  11.543  14.717  1.00  0.00     0.014 C 
HETATM   14  C22 UNL     1      -1.769  10.354  13.768  1.00  0.00     0.011 C 
HETATM   15  C23 UNL     1      -1.546   9.010  14.479  1.00  0.00    -0.032 C 
HETATM   16  C24 UNL     1      -0.056   8.941  14.949  1.00  0.00     0.016 C 
HETATM   17  C25 UNL     1      -3.497  12.210  16.376  1.00  0.00     0.036 C 
HETATM   18  C26 UNL     1      -3.713  13.529  15.641  1.00  0.00     0.011 C 
HETATM   19  C27 UNL     1      -5.017  14.211  16.062  1.00  0.00     0.033 C 
HETATM   20  C28 UNL     1      -5.502  13.864  17.478  1.00  0.00     0.136 C 
HETATM   21  C35 UNL     1      -4.322  13.600  18.460  1.00  0.00     0.014 C 
HETATM   22  C36 UNL     1      -3.480  14.900  18.643  1.00  0.00     0.021 C 
HETATM   23  C37 UNL     1      -4.903  13.322  19.872  1.00  0.00     0.021 C 
ENDROOT
BRANCH  20  24
HETATM   24  O3  UNL     1      -6.275  14.952  17.994  1.00  0.00    -0.352 OA
BRANCH  24  25
HETATM   25  C29 UNL     1      -7.675  14.939  17.700  1.00  0.00     0.292 C 
HETATM   26  O4  UNL     1      -8.287  13.819  18.319  1.00  0.00    -0.348 OA
HETATM   27  C30 UNL     1      -9.707  13.726  18.071  1.00  0.00     0.179 C 
HETATM   28  C32 UNL     1     -10.107  14.092  16.628  1.00  0.00     0.180 C 
HETATM   29  C33 UNL     1      -8.916  13.946  15.678  1.00  0.00     0.183 C 
HETATM   30  C34 UNL     1      -7.770  14.858  16.153  1.00  0.00     0.204 C 
BRANCH  27  31
HETATM   31  C31 UNL     1     -10.086  12.278  18.407  1.00  0.00     0.198 C 
BRANCH  31  32
HETATM   32  O5  UNL     1     -11.338  12.272  19.099  1.00  0.00    -0.398 OA
HETATM   33  H48 UNL     1     -11.224  12.916  19.823  1.00  0.00     0.209 HD
ENDBRANCH  31  32
ENDBRANCH  27  31
BRANCH  28  34
HETATM   34  O6  UNL     1     -10.536  15.466  16.582  1.00  0.00    -0.390 OA
HETATM   35  H50 UNL     1     -11.477  15.483  16.823  1.00  0.00     0.210 HD
ENDBRANCH  28  34
BRANCH  29  36
HETATM   36  O7  UNL     1      -8.536  12.574  15.593  1.00  0.00    -0.390 OA
HETATM   37  H52 UNL     1      -7.714  12.521  15.071  1.00  0.00     0.210 HD
ENDBRANCH  29  36
BRANCH  30  38
HETATM   38  O8  UNL     1      -7.954  16.190  15.624  1.00  0.00    -0.388 OA
HETATM   39  H54 UNL     1      -8.920  16.397  15.727  1.00  0.00     0.210 HD
ENDBRANCH  30  38
ENDBRANCH  24  25
ENDBRANCH  20  24
BRANCH   1  40
HETATM   40  C8  UNL     1      -0.810   7.134  12.681  1.00  0.00    -0.010 C 
HETATM   41  C9  UNL     1       0.394   6.521  13.409  1.00  0.00     0.010 C 
BRANCH  40  42
HETATM   42  C7  UNL     1      -0.294   8.224  11.696  1.00  0.00     0.031 C 
BRANCH  42  43
HETATM   43  C6  UNL     1       0.941   7.907  10.882  1.00  0.00    -0.027 C 
HETATM   44  C5  UNL     1       0.982   7.359   9.655  1.00  0.00     0.006 C 
BRANCH  44  45
HETATM   45  C2  UNL     1       2.206   7.072   8.801  1.00  0.00     0.070 C 
HETATM   46  C3  UNL     1       3.491   7.812   9.200  1.00  0.00     0.050 C 
HETATM   47  C4  UNL     1       1.863   7.468   7.354  1.00  0.00     0.050 C 
BRANCH  45  48
HETATM   48  O1  UNL     1       2.406   5.647   8.761  1.00  0.00    -0.382 OA
HETATM   49  C1  UNL     1       3.420   5.134   9.612  1.00  0.00     0.202 C 
ENDBRANCH  45  48
ENDBRANCH  44  45
ENDBRANCH  42  43
ENDBRANCH  40  42
ENDBRANCH   1  40
TORSDOF 12
ENDMDL
MODEL 5
REMARK minimizedAffinity -8.37487221
REMARK CNNscore 0.371959686
REMARK CNNaffinity 6.74547338
REMARK  12 active torsions:
REMARK  status: ('A' for Active; 'I' for Inactive)
REMARK    1  A    between atoms: O1_2  and  C2_3 
REMARK    2  A    between atoms: C2_3  and  C5_6 
REMARK    3  A    between atoms: C6_7  and  C7_8 
REMARK    4  A    between atoms: C7_8  and  C8_9 
REMARK    5  A    between atoms: C8_9  and  C10_11 
REMARK    6  A    between atoms: C28_30  and  O3_31 
REMARK    7  A    between atoms: O3_31  and  C29_32 
REMARK    8  A    between atoms: C30_34  and  C31_35 
REMARK    9  A    between atoms: C31_35  and  O5_36 
REMARK   10  A    between atoms: C32_37  and  O6_38 
REMARK   11  A    between atoms: C33_39  and  O7_40 
REMARK   12  A    between atoms: C34_41  and  O8_42 
ROOT
HETATM    1  C10 UNL     1      -2.470  12.668  17.830  1.00  0.00    -0.002 C 
HETATM    2  C11 UNL     1      -1.473  12.120  18.898  1.00  0.00     0.006 C 
HETATM    3  C12 UNL     1      -1.102  10.682  18.501  1.00  0.00     0.011 C 
HETATM    4  C13 UNL     1      -1.561  10.549  17.037  1.00  0.00    -0.029 C 
HETATM    5  C14 UNL     1      -0.441  11.202  16.169  1.00  0.00     0.016 C 
HETATM    6  C15 UNL     1      -1.845   9.088  16.568  1.00  0.00     0.028 C 
HETATM    7  C16 UNL     1      -0.614   8.193  16.604  1.00  0.00    -0.021 C 
HETATM    8  C17 UNL     1      -0.291   7.386  15.578  1.00  0.00     0.008 C 
HETATM    9  C18 UNL     1      -1.158   7.328  14.324  1.00  0.00     0.092 C 
HETATM   10  O2  UNL     1      -2.372   6.671  14.775  1.00  0.00    -0.374 OA
HETATM   11  C19 UNL     1      -3.348   7.672  15.080  1.00  0.00     0.179 C 
HETATM   12  C20 UNL     1      -2.608   9.028  15.168  1.00  0.00    -0.004 C 
HETATM   13  C21 UNL     1      -3.651  10.164  14.961  1.00  0.00     0.014 C 
HETATM   14  C22 UNL     1      -3.378  11.529  15.619  1.00  0.00     0.011 C 
HETATM   15  C23 UNL     1      -2.907  11.371  17.073  1.00  0.00    -0.032 C 
HETATM   16  C24 UNL     1      -4.047  10.682  17.891  1.00  0.00     0.016 C 
HETATM   17  C25 UNL     1      -1.572   8.799  14.031  1.00  0.00     0.036 C 
HETATM   18  C26 UNL     1      -2.051   8.986  12.595  1.00  0.00     0.011 C 
HETATM   19  C27 UNL     1      -0.974   8.598  11.579  1.00  0.00     0.033 C 
HETATM   20  C28 UNL     1       0.041   7.557  12.075  1.00  0.00     0.136 C 
HETATM   21  C35 UNL     1      -0.591   6.544  13.076  1.00  0.00     0.014 C 
HETATM   22  C36 UNL     1      -1.694   5.705  12.360  1.00  0.00     0.021 C 
HETATM   23  C37 UNL     1       0.485   5.499  13.473  1.00  0.00     0.021 C 
ENDROOT
BRANCH  20  24
HETATM   24  O3  UNL     1       0.548   6.820  10.959  1.00  0.00    -0.352 OA
BRANCH  24  25
HETATM   25  C29 UNL     1       1.961   6.600  10.926  1.00  0.00     0.292 C 
HETATM   26  O4  UNL     1       2.626   7.628  11.642  1.00  0.00    -0.348 OA
HETATM   27  C30 UNL     1       4.063   7.485  11.658  1.00  0.00     0.179 C 
HETATM   28  C32 UNL     1       4.652   7.010  10.314  1.00  0.00     0.180 C 
HETATM   29  C33 UNL     1       3.691   7.312   9.161  1.00  0.00     0.183 C 
HETATM   30  C34 UNL     1       2.345   6.611   9.423  1.00  0.00     0.204 C 
BRANCH  27  31
HETATM   31  C31 UNL     1       4.607   8.864  12.051  1.00  0.00     0.198 C 
BRANCH  31  32
HETATM   32  O5  UNL     1       5.377   8.737  13.251  1.00  0.00    -0.398 OA
HETATM   33  H48 UNL     1       4.794   8.259  13.870  1.00  0.00     0.209 HD
ENDBRANCH  31  32
ENDBRANCH  27  31
BRANCH  28  34
HETATM   34  O6  UNL     1       4.852   5.584  10.353  1.00  0.00    -0.390 OA
HETATM   35  H50 UNL     1       5.719   5.426  10.763  1.00  0.00     0.210 HD
ENDBRANCH  28  34
BRANCH  29  36
HETATM   36  O7  UNL     1       3.562   8.723   9.002  1.00  0.00    -0.390 OA
HETATM   37  H52 UNL     1       2.867   8.888   8.339  1.00  0.00     0.210 HD
ENDBRANCH  29  36
BRANCH  30  38
HETATM   38  O8  UNL     1       2.402   5.250   8.942  1.00  0.00    -0.388 OA
HETATM   39  H54 UNL     1       3.286   4.894   9.222  1.00  0.00     0.210 HD
ENDBRANCH  30  38
ENDBRANCH  24  25
ENDBRANCH  20  24
BRANCH   1  40
HETATM   40  C8  UNL     1      -3.556  13.576  18.490  1.00  0.00    -0.010 C 
HETATM   41  C9  UNL     1      -2.940  14.768  19.238  1.00  0.00     0.010 C 
BRANCH  40  42
HETATM   42  C7  UNL     1      -4.449  12.776  19.482  1.00  0.00     0.031 C 
BRANCH  42  43
HETATM   43  C6  UNL     1      -5.469  13.548  20.291  1.00  0.00    -0.027 C 
HETATM   44  C5  UNL     1      -5.660  13.488  21.620  1.00  0.00     0.006 C 
BRANCH  44  45
HETATM   45  C2  UNL     1      -6.646  14.285  22.459  1.00  0.00     0.070 C 
HETATM   46  C3  UNL     1      -7.587  13.461  23.349  1.00  0.00     0.050 C 
HETATM   47  C4  UNL     1      -7.513  15.110  21.492  1.00  0.00     0.050 C 
BRANCH  45  48
HETATM   48  O1  UNL     1      -5.909  15.256  23.223  1.00  0.00    -0.382 OA
HETATM   49  C1  UNL     1      -4.494  15.151  23.170  1.00  0.00     0.202 C 
ENDBRANCH  45  48
ENDBRANCH  44  45
ENDBRANCH  42  43
ENDBRANCH  40  42
ENDBRANCH   1  40
TORSDOF 12
ENDMDL
MODEL 6
REMARK minimizedAffinity -7.60689116
REMARK CNNscore 0.367232382
REMARK CNNaffinity 6.98194504
REMARK  12 active torsions:
REMARK  status: ('A' for Active; 'I' for Inactive)
REMARK    1  A    between atoms: O1_2  and  C2_3 
REMARK    2  A    between atoms: C2_3  and  C5_6 
REMARK    3  A    between atoms: C6_7  and  C7_8 
REMARK    4  A    between atoms: C7_8  and  C8_9 
REMARK    5  A    between atoms: C8_9  and  C10_11 
REMARK    6  A    between atoms: C28_30  and  O3_31 
REMARK    7  A    between atoms: O3_31  and  C29_32 
REMARK    8  A    between atoms: C30_34  and  C31_35 
REMARK    9  A    between atoms: C31_35  and  O5_36 
REMARK   10  A    between atoms: C32_37  and  O6_38 
REMARK   11  A    between atoms: C33_39  and  O7_40 
REMARK   12  A    between atoms: C34_41  and  O8_42 
ROOT
HETATM    1  C10 UNL     1      -2.931   5.739  12.274  1.00  0.00    -0.002 C 
HETATM    2  C11 UNL     1      -4.290   5.328  12.923  1.00  0.00     0.006 C 
HETATM    3  C12 UNL     1      -4.507   6.214  14.160  1.00  0.00     0.011 C 
HETATM    4  C13 UNL     1      -3.497   7.365  14.000  1.00  0.00    -0.029 C 
HETATM    5  C14 UNL     1      -4.151   8.382  13.013  1.00  0.00     0.016 C 
HETATM    6  C15 UNL     1      -3.088   8.070  15.331  1.00  0.00     0.028 C 
HETATM    7  C16 UNL     1      -4.251   8.753  16.034  1.00  0.00    -0.021 C 
HETATM    8  C17 UNL     1      -4.152  10.003  16.522  1.00  0.00     0.008 C 
HETATM    9  C18 UNL     1      -2.853  10.793  16.394  1.00  0.00     0.092 C 
HETATM   10  O2  UNL     1      -1.945  10.110  17.297  1.00  0.00    -0.374 OA
HETATM   11  C19 UNL     1      -1.150   9.193  16.538  1.00  0.00     0.179 C 
HETATM   12  C20 UNL     1      -1.825   9.029  15.156  1.00  0.00    -0.004 C 
HETATM   13  C21 UNL     1      -0.756   8.502  14.155  1.00  0.00     0.014 C 
HETATM   14  C22 UNL     1      -1.236   7.653  12.963  1.00  0.00     0.011 C 
HETATM   15  C23 UNL     1      -2.260   6.594  13.398  1.00  0.00    -0.032 C 
HETATM   16  C24 UNL     1      -1.568   5.623  14.410  1.00  0.00     0.016 C 
HETATM   17  C25 UNL     1      -2.317  10.491  14.965  1.00  0.00     0.036 C 
HETATM   18  C26 UNL     1      -1.293  11.524  14.506  1.00  0.00     0.011 C 
HETATM   19  C27 UNL     1      -1.875  12.939  14.492  1.00  0.00     0.033 C 
HETATM   20  C28 UNL     1      -3.032  13.174  15.476  1.00  0.00     0.136 C 
HETATM   21  C35 UNL     1      -2.887  12.325  16.774  1.00  0.00     0.014 C 
HETATM   22  C36 UNL     1      -1.612  12.763  17.558  1.00  0.00     0.021 C 
HETATM   23  C37 UNL     1      -4.060  12.673  17.729  1.00  0.00     0.021 C 
ENDROOT
BRANCH  20  24
HETATM   24  O3  UNL     1      -3.063  14.555  15.849  1.00  0.00    -0.352 OA
BRANCH  24  25
HETATM   25  C29 UNL     1      -4.034  15.374  15.192  1.00  0.00     0.292 C 
HETATM   26  O4  UNL     1      -3.391  16.235  14.266  1.00  0.00    -0.348 OA
HETATM   27  C30 UNL     1      -4.301  17.104  13.556  1.00  0.00     0.179 C 
HETATM   28  C32 UNL     1      -5.433  17.668  14.439  1.00  0.00     0.180 C 
HETATM   29  C33 UNL     1      -5.042  17.626  15.918  1.00  0.00     0.183 C 
HETATM   30  C34 UNL     1      -4.734  16.172  16.324  1.00  0.00     0.204 C 
BRANCH  27  31
HETATM   31  C31 UNL     1      -3.429  18.226  12.980  1.00  0.00     0.198 C 
BRANCH  31  32
HETATM   32  O5  UNL     1      -2.238  18.341  13.764  1.00  0.00    -0.398 OA
HETATM   33  H48 UNL     1      -2.553  18.407  14.685  1.00  0.00     0.209 HD
ENDBRANCH  31  32
ENDBRANCH  27  31
BRANCH  28  34
HETATM   34  O6  UNL     1      -6.616  16.862  14.277  1.00  0.00    -0.390 OA
HETATM   35  H50 UNL     1      -7.089  17.197  13.497  1.00  0.00     0.210 HD
ENDBRANCH  28  34
BRANCH  29  36
HETATM   36  O7  UNL     1      -3.949  18.512  16.151  1.00  0.00    -0.390 OA
HETATM   37  H52 UNL     1      -3.652  18.387  17.070  1.00  0.00     0.210 HD
ENDBRANCH  29  36
BRANCH  30  38
HETATM   38  O8  UNL     1      -5.958  15.496  16.687  1.00  0.00    -0.388 OA
HETATM   39  H54 UNL     1      -6.632  15.761  16.008  1.00  0.00     0.210 HD
ENDBRANCH  30  38
ENDBRANCH  24  25
ENDBRANCH  20  24
BRANCH   1  40
HETATM   40  C8  UNL     1      -2.181   4.492  11.704  1.00  0.00    -0.010 C 
HETATM   41  C9  UNL     1      -2.772   3.173  12.221  1.00  0.00     0.010 C 
BRANCH  40  42
HETATM   42  C7  UNL     1      -0.664   4.527  12.050  1.00  0.00     0.031 C 
BRANCH  42  43
HETATM   43  C6  UNL     1       0.259   5.248  11.093  1.00  0.00    -0.027 C 
HETATM   44  C5  UNL     1       1.568   5.503  11.268  1.00  0.00     0.006 C 
BRANCH  44  45
HETATM   45  C2  UNL     1       2.523   6.187  10.304  1.00  0.00     0.070 C 
HETATM   46  C3  UNL     1       3.988   6.266  10.756  1.00  0.00     0.050 C 
HETATM   47  C4  UNL     1       2.016   7.624  10.092  1.00  0.00     0.050 C 
BRANCH  45  48
HETATM   48  O1  UNL     1       2.399   5.553   9.018  1.00  0.00    -0.382 OA
HETATM   49  C1  UNL     1       2.410   6.416   7.891  1.00  0.00     0.202 C 
ENDBRANCH  45  48
ENDBRANCH  44  45
ENDBRANCH  42  43
ENDBRANCH  40  42
ENDBRANCH   1  40
TORSDOF 12
ENDMDL
MODEL 7
REMARK minimizedAffinity -7.71087742
REMARK CNNscore 0.324345857
REMARK CNNaffinity 7.26396704
REMARK  12 active torsions:
REMARK  status: ('A' for Active; 'I' for Inactive)
REMARK    1  A    between atoms: O1_2  and  C2_3 
REMARK    2  A    between atoms: C2_3  and  C5_6 
REMARK    3  A    between atoms: C6_7  and  C7_8 
REMARK    4  A    between atoms: C7_8  and  C8_9 
REMARK    5  A    between atoms: C8_9  and  C10_11 
REMARK    6  A    between atoms: C28_30  and  O3_31 
REMARK    7  A    between atoms: O3_31  and  C29_32 
REMARK    8  A    between atoms: C30_34  and  C31_35 
REMARK    9  A    between atoms: C31_35  and  O5_36 
REMARK   10  A    between atoms: C32_37  and  O6_38 
REMARK   11  A    between atoms: C33_39  and  O7_40 
REMARK   12  A    between atoms: C34_41  and  O8_42 
ROOT
HETATM    1  C10 UNL     1      -4.948 -11.118   0.593  1.00  0.00    -0.002 C 
HETATM    2  C11 UNL     1      -4.374 -12.136  -0.443  1.00  0.00     0.006 C 
HETATM    3  C12 UNL     1      -5.310 -12.143  -1.663  1.00  0.00     0.011 C 
HETATM    4  C13 UNL     1      -6.173 -10.878  -1.502  1.00  0.00    -0.029 C 
HETATM    5  C14 UNL     1      -5.308  -9.691  -2.026  1.00  0.00     0.016 C 
HETATM    6  C15 UNL     1      -7.550 -10.926  -2.235  1.00  0.00     0.028 C 
HETATM    7  C16 UNL     1      -7.424 -11.044  -3.747  1.00  0.00    -0.021 C 
HETATM    8  C17 UNL     1      -8.146 -10.275  -4.582  1.00  0.00     0.008 C 
HETATM    9  C18 UNL     1      -9.137  -9.247  -4.043  1.00  0.00     0.092 C 
HETATM   10  O2  UNL     1     -10.201 -10.058  -3.480  1.00  0.00    -0.374 OA
HETATM   11  C19 UNL     1      -9.981 -10.191  -2.072  1.00  0.00     0.179 C 
HETATM   12  C20 UNL     1      -8.527  -9.746  -1.788  1.00  0.00    -0.004 C 
HETATM   13  C21 UNL     1      -8.421  -9.366  -0.283  1.00  0.00     0.014 C 
HETATM   14  C22 UNL     1      -7.057  -9.527   0.412  1.00  0.00     0.011 C 
HETATM   15  C23 UNL     1      -6.397 -10.868   0.059  1.00  0.00    -0.032 C 
HETATM   16  C24 UNL     1      -7.318 -12.023   0.573  1.00  0.00     0.016 C 
HETATM   17  C25 UNL     1      -8.434  -8.588  -2.821  1.00  0.00     0.036 C 
HETATM   18  C26 UNL     1      -9.071  -7.255  -2.443  1.00  0.00     0.011 C 
HETATM   19  C27 UNL     1      -9.027  -6.252  -3.598  1.00  0.00     0.033 C 
HETATM   20  C28 UNL     1      -8.986  -6.880  -5.001  1.00  0.00     0.136 C 
HETATM   21  C35 UNL     1      -9.766  -8.226  -5.070  1.00  0.00     0.014 C 
HETATM   22  C36 UNL     1     -11.282  -7.979  -4.796  1.00  0.00     0.021 C 
HETATM   23  C37 UNL     1      -9.723  -8.752  -6.529  1.00  0.00     0.021 C 
ENDROOT
BRANCH  20  24
HETATM   24  O3  UNL     1      -9.574  -5.977  -5.941  1.00  0.00    -0.352 OA
BRANCH  24  25
HETATM   25  C29 UNL     1     -10.251  -4.839  -5.398  1.00  0.00     0.292 C 
HETATM   26  O4  UNL     1     -11.550  -4.739  -5.958  1.00  0.00    -0.348 OA
HETATM   27  C30 UNL     1     -12.306  -3.611  -5.466  1.00  0.00     0.179 C 
HETATM   28  C32 UNL     1     -11.465  -2.329  -5.296  1.00  0.00     0.180 C 
HETATM   29  C33 UNL     1     -10.207  -2.385  -6.166  1.00  0.00     0.183 C 
HETATM   30  C34 UNL     1      -9.371  -3.618  -5.775  1.00  0.00     0.204 C 
BRANCH  27  31
HETATM   31  C31 UNL     1     -13.441  -3.406  -6.478  1.00  0.00     0.198 C 
BRANCH  31  32
HETATM   32  O5  UNL     1     -14.367  -2.450  -5.953  1.00  0.00    -0.398 OA
HETATM   33  H48 UNL     1     -14.578  -2.775  -5.058  1.00  0.00     0.209 HD
ENDBRANCH  31  32
ENDBRANCH  27  31
BRANCH  28  34
HETATM   34  O6  UNL     1     -11.043  -2.209  -3.924  1.00  0.00    -0.390 OA
HETATM   35  H50 UNL     1     -11.763  -1.774  -3.438  1.00  0.00     0.210 HD
ENDBRANCH  28  34
BRANCH  29  36
HETATM   36  O7  UNL     1     -10.575  -2.376  -7.544  1.00  0.00    -0.390 OA
HETATM   37  H52 UNL     1      -9.768  -2.521  -8.071  1.00  0.00     0.210 HD
ENDBRANCH  29  36
BRANCH  30  38
HETATM   38  O8  UNL     1      -8.514  -3.294  -4.658  1.00  0.00    -0.388 OA
HETATM   39  H54 UNL     1      -9.071  -2.767  -4.026  1.00  0.00     0.210 HD
ENDBRANCH  30  38
ENDBRANCH  24  25
ENDBRANCH  20  24
BRANCH   1  40
HETATM   40  C8  UNL     1      -4.744 -11.629   2.055  1.00  0.00    -0.010 C 
HETATM   41  C9  UNL     1      -5.605 -12.861   2.365  1.00  0.00     0.010 C 
BRANCH  40  42
HETATM   42  C7  UNL     1      -5.065 -10.522   3.100  1.00  0.00     0.031 C 
BRANCH  42  43
HETATM   43  C6  UNL     1      -4.431 -10.643   4.469  1.00  0.00    -0.027 C 
HETATM   44  C5  UNL     1      -5.058 -10.600   5.658  1.00  0.00     0.006 C 
BRANCH  44  45
HETATM   45  C2  UNL     1      -4.450 -10.762   7.041  1.00  0.00     0.070 C 
HETATM   46  C3  UNL     1      -3.742  -9.525   7.611  1.00  0.00     0.050 C 
HETATM   47  C4  UNL     1      -3.418 -11.902   6.962  1.00  0.00     0.050 C 
BRANCH  45  48
HETATM   48  O1  UNL     1      -5.472 -11.244   7.931  1.00  0.00    -0.382 OA
HETATM   49  C1  UNL     1      -5.602 -10.556   9.166  1.00  0.00     0.202 C 
ENDBRANCH  45  48
ENDBRANCH  44  45
ENDBRANCH  42  43
ENDBRANCH  40  42
ENDBRANCH   1  40
TORSDOF 12
ENDMDL
MODEL 8
REMARK minimizedAffinity -8.88013077
REMARK CNNscore 0.316958606
REMARK CNNaffinity 6.90006876
REMARK  12 active torsions:
REMARK  status: ('A' for Active; 'I' for Inactive)
REMARK    1  A    between atoms: O1_2  and  C2_3 
REMARK    2  A    between atoms: C2_3  and  C5_6 
REMARK    3  A    between atoms: C6_7  and  C7_8 
REMARK    4  A    between atoms: C7_8  and  C8_9 
REMARK    5  A    between atoms: C8_9  and  C10_11 
REMARK    6  A    between atoms: C28_30  and  O3_31 
REMARK    7  A    between atoms: O3_31  and  C29_32 
REMARK    8  A    between atoms: C30_34  and  C31_35 
REMARK    9  A    between atoms: C31_35  and  O5_36 
REMARK   10  A    between atoms: C32_37  and  O6_38 
REMARK   11  A    between atoms: C33_39  and  O7_40 
REMARK   12  A    between atoms: C34_41  and  O8_42 
ROOT
HETATM    1  C10 UNL     1      -2.007   6.174  13.084  1.00  0.00    -0.002 C 
HETATM    2  C11 UNL     1      -1.801   4.999  12.078  1.00  0.00     0.006 C 
HETATM    3  C12 UNL     1      -0.424   5.179  11.420  1.00  0.00     0.011 C 
HETATM    4  C13 UNL     1       0.305   6.204  12.309  1.00  0.00    -0.029 C 
HETATM    5  C14 UNL     1       0.862   5.403  13.527  1.00  0.00     0.016 C 
HETATM    6  C15 UNL     1       1.446   6.996  11.598  1.00  0.00     0.028 C 
HETATM    7  C16 UNL     1       2.588   6.111  11.120  1.00  0.00    -0.021 C 
HETATM    8  C17 UNL     1       3.875   6.433  11.337  1.00  0.00     0.008 C 
HETATM    9  C18 UNL     1       4.249   7.715  12.075  1.00  0.00     0.092 C 
HETATM   10  O2  UNL     1       3.893   8.766  11.139  1.00  0.00    -0.374 OA
HETATM   11  C19 UNL     1       2.595   9.264  11.481  1.00  0.00     0.179 C 
HETATM   12  C20 UNL     1       1.951   8.246  12.452  1.00  0.00    -0.004 C 
HETATM   13  C21 UNL     1       0.827   8.975  13.243  1.00  0.00     0.014 C 
HETATM   14  C22 UNL     1      -0.362   8.139  13.752  1.00  0.00     0.011 C 
HETATM   15  C23 UNL     1      -0.881   7.178  12.671  1.00  0.00    -0.032 C 
HETATM   16  C24 UNL     1      -1.394   8.025  11.461  1.00  0.00     0.016 C 
HETATM   17  C25 UNL     1       3.228   7.841  13.242  1.00  0.00     0.036 C 
HETATM   18  C26 UNL     1       3.713   8.794  14.329  1.00  0.00     0.011 C 
HETATM   19  C27 UNL     1       5.047   8.344  14.929  1.00  0.00     0.033 C 
HETATM   20  C28 UNL     1       5.928   7.500  13.993  1.00  0.00     0.136 C 
HETATM   21  C35 UNL     1       5.758   7.904  12.498  1.00  0.00     0.014 C 
HETATM   22  C36 UNL     1       6.249   9.369  12.283  1.00  0.00     0.021 C 
HETATM   23  C37 UNL     1       6.726   7.048  11.639  1.00  0.00     0.021 C 
ENDROOT
BRANCH  20  24
HETATM   24  O3  UNL     1       7.302   7.678  14.348  1.00  0.00    -0.352 OA
BRANCH  24  25
HETATM   25  C29 UNL     1       7.573   8.581  15.424  1.00  0.00     0.292 C 
HETATM   26  O4  UNL     1       7.570   9.917  14.945  1.00  0.00    -0.348 OA
HETATM   27  C30 UNL     1       7.840  10.899  15.969  1.00  0.00     0.179 C 
HETATM   28  C32 UNL     1       8.932  10.467  16.968  1.00  0.00     0.180 C 
HETATM   29  C33 UNL     1       9.830   9.386  16.360  1.00  0.00     0.183 C 
HETATM   30  C34 UNL     1       8.969   8.172  15.964  1.00  0.00     0.204 C 
BRANCH  27  31
HETATM   31  C31 UNL     1       8.242  12.174  15.217  1.00  0.00     0.198 C 
BRANCH  31  32
HETATM   32  O5  UNL     1       9.416  12.723  15.823  1.00  0.00    -0.398 OA
HETATM   33  H48 UNL     1       9.202  12.776  16.774  1.00  0.00     0.209 HD
ENDBRANCH  31  32
ENDBRANCH  27  31
BRANCH  28  34
HETATM   34  O6  UNL     1       8.314   9.910  18.145  1.00  0.00    -0.390 OA
HETATM   35  H50 UNL     1       8.099  10.651  18.736  1.00  0.00     0.210 HD
ENDBRANCH  28  34
BRANCH  29  36
HETATM   36  O7  UNL     1      10.561   9.931  15.264  1.00  0.00    -0.390 OA
HETATM   37  H52 UNL     1      11.039   9.202  14.830  1.00  0.00     0.210 HD
ENDBRANCH  29  36
BRANCH  30  38
HETATM   38  O8  UNL     1       8.795   7.303  17.105  1.00  0.00    -0.388 OA
HETATM   39  H54 UNL     1       8.609   7.897  17.879  1.00  0.00     0.210 HD
ENDBRANCH  30  38
ENDBRANCH  24  25
ENDBRANCH  20  24
BRANCH   1  40
HETATM   40  C8  UNL     1      -3.495   6.649  13.095  1.00  0.00    -0.010 C 
HETATM   41  C9  UNL     1      -3.616   8.180  13.080  1.00  0.00     0.010 C 
BRANCH  40  42
HETATM   42  C7  UNL     1      -4.264   6.101  14.332  1.00  0.00     0.031 C 
BRANCH  42  43
HETATM   43  C6  UNL     1      -5.652   5.544  14.107  1.00  0.00    -0.027 C 
HETATM   44  C5  UNL     1      -6.598   6.034  13.287  1.00  0.00     0.006 C 
BRANCH  44  45
HETATM   45  C2  UNL     1      -7.982   5.467  13.012  1.00  0.00     0.070 C 
HETATM   46  C3  UNL     1      -9.144   6.151  13.747  1.00  0.00     0.050 C 
HETATM   47  C4  UNL     1      -7.965   3.986  13.429  1.00  0.00     0.050 C 
BRANCH  45  48
HETATM   48  O1  UNL     1      -8.190   5.453  11.588  1.00  0.00    -0.382 OA
HETATM   49  C1  UNL     1      -9.300   6.199  11.111  1.00  0.00     0.202 C 
ENDBRANCH  45  48
ENDBRANCH  44  45
ENDBRANCH  42  43
ENDBRANCH  40  42
ENDBRANCH   1  40
TORSDOF 12
ENDMDL
MODEL 9
REMARK minimizedAffinity -7.81571484
REMARK CNNscore 0.287245005
REMARK CNNaffinity 6.94340372
REMARK  12 active torsions:
REMARK  status: ('A' for Active; 'I' for Inactive)
REMARK    1  A    between atoms: O1_2  and  C2_3 
REMARK    2  A    between atoms: C2_3  and  C5_6 
REMARK    3  A    between atoms: C6_7  and  C7_8 
REMARK    4  A    between atoms: C7_8  and  C8_9 
REMARK    5  A    between atoms: C8_9  and  C10_11 
REMARK    6  A    between atoms: C28_30  and  O3_31 
REMARK    7  A    between atoms: O3_31  and  C29_32 
REMARK    8  A    between atoms: C30_34  and  C31_35 
REMARK    9  A    between atoms: C31_35  and  O5_36 
REMARK   10  A    between atoms: C32_37  and  O6_38 
REMARK   11  A    between atoms: C33_39  and  O7_40 
REMARK   12  A    between atoms: C34_41  and  O8_42 
ROOT
HETATM    1  C10 UNL     1      -9.894  -8.285  -2.216  1.00  0.00    -0.002 C 
HETATM    2  C11 UNL     1     -11.109  -9.080  -1.642  1.00  0.00     0.006 C 
HETATM    3  C12 UNL     1     -10.563 -10.343  -0.957  1.00  0.00     0.011 C 
HETATM    4  C13 UNL     1      -9.054 -10.081  -0.797  1.00  0.00    -0.029 C 
HETATM    5  C14 UNL     1      -8.901  -9.186   0.472  1.00  0.00     0.016 C 
HETATM    6  C15 UNL     1      -8.174 -11.364  -0.679  1.00  0.00     0.028 C 
HETATM    7  C16 UNL     1      -8.491 -12.202   0.551  1.00  0.00    -0.021 C 
HETATM    8  C17 UNL     1      -7.523 -12.688   1.349  1.00  0.00     0.008 C 
HETATM    9  C18 UNL     1      -6.051 -12.422   1.047  1.00  0.00     0.092 C 
HETATM   10  O2  UNL     1      -5.797 -13.208  -0.146  1.00  0.00    -0.374 OA
HETATM   11  C19 UNL     1      -5.911 -12.355  -1.289  1.00  0.00     0.179 C 
HETATM   12  C20 UNL     1      -6.615 -11.057  -0.829  1.00  0.00    -0.004 C 
HETATM   13  C21 UNL     1      -6.282  -9.935  -1.856  1.00  0.00     0.014 C 
HETATM   14  C22 UNL     1      -7.302  -8.797  -2.043  1.00  0.00     0.011 C 
HETATM   15  C23 UNL     1      -8.737  -9.335  -2.150  1.00  0.00    -0.032 C 
HETATM   16  C24 UNL     1      -8.829 -10.252  -3.413  1.00  0.00     0.016 C 
HETATM   17  C25 UNL     1      -5.979 -10.938   0.584  1.00  0.00     0.036 C 
HETATM   18  C26 UNL     1      -4.564 -10.377   0.674  1.00  0.00     0.011 C 
HETATM   19  C27 UNL     1      -4.013 -10.443   2.100  1.00  0.00     0.033 C 
HETATM   20  C28 UNL     1      -4.612 -11.554   2.976  1.00  0.00     0.136 C 
HETATM   21  C35 UNL     1      -4.993 -12.818   2.150  1.00  0.00     0.014 C 
HETATM   22  C36 UNL     1      -3.712 -13.457   1.531  1.00  0.00     0.021 C 
HETATM   23  C37 UNL     1      -5.529 -13.904   3.121  1.00  0.00     0.021 C 
ENDROOT
BRANCH  20  24
HETATM   24  O3  UNL     1      -3.657 -11.942   3.968  1.00  0.00    -0.352 OA
BRANCH  24  25
HETATM   25  C29 UNL     1      -3.945 -11.565   5.317  1.00  0.00     0.292 C 
HETATM   26  O4  UNL     1      -5.127 -10.781   5.356  1.00  0.00    -0.348 OA
HETATM   27  C30 UNL     1      -5.492 -10.352   6.686  1.00  0.00     0.179 C 
HETATM   28  C32 UNL     1      -4.288  -9.932   7.553  1.00  0.00     0.180 C 
HETATM   29  C33 UNL     1      -3.091  -9.556   6.677  1.00  0.00     0.183 C 
HETATM   30  C34 UNL     1      -2.708 -10.758   5.792  1.00  0.00     0.204 C 
BRANCH  27  31
HETATM   31  C31 UNL     1      -6.471  -9.189   6.486  1.00  0.00     0.198 C 
BRANCH  31  32
HETATM   32  O5  UNL     1      -5.974  -8.037   7.175  1.00  0.00    -0.398 OA
HETATM   33  H48 UNL     1      -5.785  -8.352   8.079  1.00  0.00     0.209 HD
ENDBRANCH  31  32
ENDBRANCH  27  31
BRANCH  28  34
HETATM   34  O6  UNL     1      -3.888 -11.036   8.388  1.00  0.00    -0.390 OA
HETATM   35  H50 UNL     1      -4.442 -11.009   9.186  1.00  0.00     0.210 HD
ENDBRANCH  28  34
BRANCH  29  36
HETATM   36  O7  UNL     1      -3.397  -8.386   5.922  1.00  0.00    -0.390 OA
HETATM   37  H52 UNL     1      -2.666  -8.231   5.296  1.00  0.00     0.210 HD
ENDBRANCH  29  36
BRANCH  30  38
HETATM   38  O8  UNL     1      -1.825 -11.639   6.521  1.00  0.00    -0.388 OA
HETATM   39  H54 UNL     1      -2.199 -11.710   7.438  1.00  0.00     0.210 HD
ENDBRANCH  30  38
ENDBRANCH  24  25
ENDBRANCH  20  24
BRANCH   1  40
HETATM   40  C8  UNL     1     -10.253  -7.621  -3.584  1.00  0.00    -0.010 C 
HETATM   41  C9  UNL     1     -10.320  -8.645  -4.726  1.00  0.00     0.010 C 
BRANCH  40  42
HETATM   42  C7  UNL     1      -9.232  -6.512  -3.970  1.00  0.00     0.031 C 
BRANCH  42  43
HETATM   43  C6  UNL     1      -9.703  -5.416  -4.900  1.00  0.00    -0.027 C 
HETATM   44  C5  UNL     1      -9.515  -4.093  -4.752  1.00  0.00     0.006 C 
BRANCH  44  45
HETATM   45  C2  UNL     1      -9.941  -2.978  -5.694  1.00  0.00     0.070 C 
HETATM   46  C3  UNL     1     -11.114  -2.110  -5.218  1.00  0.00     0.050 C 
HETATM   47  C4  UNL     1     -10.346  -3.630  -7.028  1.00  0.00     0.050 C 
BRANCH  45  48
HETATM   48  O1  UNL     1      -8.783  -2.181  -6.003  1.00  0.00    -0.382 OA
HETATM   49  C1  UNL     1      -7.881  -1.947  -4.933  1.00  0.00     0.202 C 
ENDBRANCH  45  48
ENDBRANCH  44  45
ENDBRANCH  42  43
ENDBRANCH  40  42
ENDBRANCH   1  40
TORSDOF 12
ENDMDL
