MODEL 1
REMARK minimizedAffinity -9.21370411
REMARK CNNscore 0.857699275
REMARK CNNaffinity 7.51750183
REMARK  10 active torsions:
REMARK  status: ('A' for Active; 'I' for Inactive)
REMARK    1  A    between atoms: O1_2  and  C2_3 
REMARK    2  A    between atoms: C2_3  and  C3_4 
REMARK    3  A    between atoms: C2_3  and  C26_35 
REMARK    4  A    between atoms: C3_4  and  C4_5 
REMARK    5  A    between atoms: C4_5  and  C5_6 
REMARK    6  A    between atoms: C5_6  and  C7_8 
REMARK    7  A    between atoms: C13_17  and  C14_18 
REMARK    8  A    between atoms: C14_18  and  O5_19 
REMARK    9  A    between atoms: C17_24  and  O8_25 
REMARK   10  A    between atoms: C30_39  and  O10_40 
ROOT
HETATM    1  C7  UNL     1       0.891  51.851 -14.334  1.00  0.00     0.135 C 
HETATM    2  O2  UNL     1      -0.434  51.550 -13.888  1.00  0.00    -0.348 OA
HETATM    3  C8  UNL     1      -0.633  51.510 -12.458  1.00  0.00     0.177 C 
HETATM    4  C9  UNL     1       0.332  50.471 -11.854  1.00  0.00     0.102 C 
HETATM    5  C10 UNL     1       1.779  50.639 -12.335  1.00  0.00     0.143 C 
HETATM    6  O3  UNL     1       2.341  51.852 -11.793  1.00  0.00    -0.315 OA
HETATM    7  C11 UNL     1       3.209  51.753 -10.755  1.00  0.00     0.261 C 
HETATM    8  O4  UNL     1       3.575  50.717 -10.217  1.00  0.00    -0.265 OA
HETATM    9  C12 UNL     1       3.655  53.124 -10.324  1.00  0.00     0.145 C 
HETATM   10  C13 UNL     1       2.786  53.661  -9.191  1.00  0.00     0.164 C 
HETATM   11  O6  UNL     1       1.398  53.740  -9.596  1.00  0.00    -0.313 OA
HETATM   12  C15 UNL     1       1.031  54.793 -10.377  1.00  0.00     0.264 C 
HETATM   13  O7  UNL     1       1.788  55.694 -10.726  1.00  0.00    -0.265 OA
HETATM   14  C16 UNL     1      -0.455  54.790 -10.658  1.00  0.00     0.179 C 
HETATM   15  C17 UNL     1      -1.042  53.392 -10.939  1.00  0.00     0.177 C 
HETATM   16  O9  UNL     1      -0.284  52.813 -11.979  1.00  0.00    -0.318 OA
HETATM   17  C18 UNL     1      -2.522  53.543 -11.386  1.00  0.00     0.045 C 
HETATM   18  C19 UNL     1      -3.496  53.715 -10.214  1.00  0.00     0.015 C 
HETATM   19  C20 UNL     1      -2.991  52.424 -12.337  1.00  0.00     0.024 C 
HETATM   20  C21 UNL     1      -2.162  51.128 -12.270  1.00  0.00     0.010 C 
HETATM   21  C22 UNL     1      -2.654  50.202 -13.422  1.00  0.00     0.020 C 
HETATM   22  C23 UNL     1      -2.500  50.340 -10.984  1.00  0.00     0.020 C 
HETATM   23  C24 UNL     1       1.831  50.724 -13.871  1.00  0.00     0.041 C 
HETATM   24  C25 UNL     1       3.268  50.910 -14.358  1.00  0.00     0.015 C 
ENDROOT
BRANCH   1  25
HETATM   25  C5  UNL     1       0.826  52.080 -15.872  1.00  0.00     0.011 C 
HETATM   26  C6  UNL     1       2.222  52.191 -16.503  1.00  0.00     0.012 C 
BRANCH  25  27
HETATM   27  C4  UNL     1       0.015  50.931 -16.528  1.00  0.00     0.009 C 
BRANCH  27  28
HETATM   28  C3  UNL     1      -0.054  50.939 -18.065  1.00  0.00     0.037 C 
BRANCH  28  29
HETATM   29  C2  UNL     1      -0.701  52.208 -18.654  1.00  0.00     0.153 C 
BRANCH  29  30
HETATM   30  O1  UNL     1      -2.118  51.995 -18.729  1.00  0.00    -0.386 OA
HETATM   31  C1  UNL     1      -2.577  51.014 -17.809  1.00  0.00     0.202 C 
ENDBRANCH  29  30
BRANCH  29  32
HETATM   32  C26 UNL     1      -0.199  52.543 -20.049  1.00  0.00    -0.027 A 
HETATM   33  C27 UNL     1      -0.652  51.860 -21.191  1.00  0.00     0.010 A 
HETATM   34  C28 UNL     1      -0.165  52.186 -22.461  1.00  0.00     0.003 A 
HETATM   35  C29 UNL     1       0.769  53.209 -22.610  1.00  0.00     0.036 A 
HETATM   36  C30 UNL     1       1.200  53.908 -21.491  1.00  0.00     0.066 A 
HETATM   37  C31 UNL     1       0.729  53.587 -20.217  1.00  0.00     0.046 A 
BRANCH  36  38
HETATM   38  O10 UNL     1       2.101  54.916 -21.679  1.00  0.00    -0.361 OA
HETATM   39  H45 UNL     1       2.228  55.376 -20.834  1.00  0.00     0.217 HD
ENDBRANCH  36  38
ENDBRANCH  29  32
ENDBRANCH  28  29
ENDBRANCH  27  28
ENDBRANCH  25  27
ENDBRANCH   1  25
BRANCH  15  40
HETATM   40  O8  UNL     1      -0.976  52.608  -9.760  1.00  0.00    -0.364 OA
HETATM   41  H25 UNL     1      -0.114  52.782  -9.330  1.00  0.00     0.213 HD
ENDBRANCH  15  40
BRANCH  10  42
HETATM   42  C14 UNL     1       2.843  52.779  -7.934  1.00  0.00     0.197 C 
BRANCH  42  43
HETATM   43  O5  UNL     1       1.671  51.962  -7.851  1.00  0.00    -0.398 OA
HETATM   44  H22 UNL     1       0.918  52.542  -7.639  1.00  0.00     0.209 HD
ENDBRANCH  42  43
ENDBRANCH  10  42
TORSDOF 10
ENDMDL
MODEL 2
REMARK minimizedAffinity -7.54472589
REMARK CNNscore 0.777063727
REMARK CNNaffinity 7.52112579
REMARK  10 active torsions:
REMARK  status: ('A' for Active; 'I' for Inactive)
REMARK    1  A    between atoms: O1_2  and  C2_3 
REMARK    2  A    between atoms: C2_3  and  C3_4 
REMARK    3  A    between atoms: C2_3  and  C26_35 
REMARK    4  A    between atoms: C3_4  and  C4_5 
REMARK    5  A    between atoms: C4_5  and  C5_6 
REMARK    6  A    between atoms: C5_6  and  C7_8 
REMARK    7  A    between atoms: C13_17  and  C14_18 
REMARK    8  A    between atoms: C14_18  and  O5_19 
REMARK    9  A    between atoms: C17_24  and  O8_25 
REMARK   10  A    between atoms: C30_39  and  O10_40 
ROOT
HETATM    1  C7  UNL     1       1.062  53.370  -9.749  1.00  0.00     0.135 C 
HETATM    2  O2  UNL     1       2.104  54.315 -10.008  1.00  0.00    -0.348 OA
HETATM    3  C8  UNL     1       2.557  55.093  -8.878  1.00  0.00     0.177 C 
HETATM    4  C9  UNL     1       1.351  55.848  -8.285  1.00  0.00     0.102 C 
HETATM    5  C10 UNL     1       0.133  54.948  -8.046  1.00  0.00     0.143 C 
HETATM    6  O3  UNL     1       0.405  54.022  -6.973  1.00  0.00    -0.315 OA
HETATM    7  C11 UNL     1      -0.143  54.266  -5.756  1.00  0.00     0.261 C 
HETATM    8  O4  UNL     1      -0.863  55.210  -5.465  1.00  0.00    -0.265 OA
HETATM    9  C12 UNL     1       0.285  53.204  -4.778  1.00  0.00     0.145 C 
HETATM   10  C13 UNL     1       1.526  53.632  -4.001  1.00  0.00     0.164 C 
HETATM   11  O6  UNL     1       2.632  53.896  -4.898  1.00  0.00    -0.313 OA
HETATM   12  C15 UNL     1       3.310  52.824  -5.392  1.00  0.00     0.264 C 
HETATM   13  O7  UNL     1       3.069  51.657  -5.098  1.00  0.00    -0.265 OA
HETATM   14  C16 UNL     1       4.482  53.249  -6.247  1.00  0.00     0.179 C 
HETATM   15  C17 UNL     1       4.191  54.454  -7.164  1.00  0.00     0.177 C 
HETATM   16  O9  UNL     1       3.039  54.146  -7.920  1.00  0.00    -0.318 OA
HETATM   17  C18 UNL     1       5.400  54.675  -8.113  1.00  0.00     0.045 C 
HETATM   18  C19 UNL     1       6.550  55.452  -7.459  1.00  0.00     0.015 C 
HETATM   19  C20 UNL     1       5.011  55.298  -9.468  1.00  0.00     0.024 C 
HETATM   20  C21 UNL     1       3.670  56.057  -9.469  1.00  0.00     0.010 C 
HETATM   21  C22 UNL     1       3.355  56.440 -10.946  1.00  0.00     0.020 C 
HETATM   22  C23 UNL     1       3.823  57.418  -8.752  1.00  0.00     0.020 C 
HETATM   23  C24 UNL     1      -0.197  54.138  -9.312  1.00  0.00     0.041 C 
HETATM   24  C25 UNL     1      -1.400  53.224  -9.078  1.00  0.00     0.015 C 
ENDROOT
BRANCH   1  25
HETATM   25  C5  UNL     1       0.902  52.488 -11.021  1.00  0.00     0.011 C 
HETATM   26  C6  UNL     1       0.065  53.179 -12.106  1.00  0.00     0.012 C 
BRANCH  25  27
HETATM   27  C4  UNL     1       2.306  52.112 -11.565  1.00  0.00     0.009 C 
BRANCH  27  28
HETATM   28  C3  UNL     1       2.482  50.663 -12.049  1.00  0.00     0.037 C 
BRANCH  28  29
HETATM   29  C2  UNL     1       1.799  50.370 -13.399  1.00  0.00     0.153 C 
BRANCH  29  30
HETATM   30  O1  UNL     1       2.004  48.985 -13.714  1.00  0.00    -0.386 OA
HETATM   31  C1  UNL     1       2.858  48.330 -12.786  1.00  0.00     0.202 C 
ENDBRANCH  29  30
BRANCH  29  32
HETATM   32  C26 UNL     1       2.355  51.201 -14.544  1.00  0.00    -0.027 A 
HETATM   33  C27 UNL     1       3.736  51.394 -14.728  1.00  0.00     0.010 A 
HETATM   34  C28 UNL     1       4.216  52.172 -15.786  1.00  0.00     0.003 A 
HETATM   35  C29 UNL     1       3.326  52.755 -16.685  1.00  0.00     0.036 A 
HETATM   36  C30 UNL     1       1.962  52.547 -16.528  1.00  0.00     0.066 A 
HETATM   37  C31 UNL     1       1.470  51.780 -15.472  1.00  0.00     0.046 A 
BRANCH  36  38
HETATM   38  O10 UNL     1       1.123  53.118 -17.440  1.00  0.00    -0.361 OA
HETATM   39  H45 UNL     1       0.221  52.804 -17.267  1.00  0.00     0.217 HD
ENDBRANCH  36  38
ENDBRANCH  29  32
ENDBRANCH  28  29
ENDBRANCH  27  28
ENDBRANCH  25  27
ENDBRANCH   1  25
BRANCH  15  40
HETATM   40  O8  UNL     1       3.987  55.610  -6.371  1.00  0.00    -0.364 OA
HETATM   41  H25 UNL     1       3.453  55.352  -5.593  1.00  0.00     0.213 HD
ENDBRANCH  15  40
BRANCH  10  42
HETATM   42  C14 UNL     1       1.296  54.907  -3.175  1.00  0.00     0.197 C 
BRANCH  42  43
HETATM   43  O5  UNL     1       0.057  54.820  -2.466  1.00  0.00    -0.398 OA
HETATM   44  H22 UNL     1      -0.664  54.885  -3.117  1.00  0.00     0.209 HD
ENDBRANCH  42  43
ENDBRANCH  10  42
TORSDOF 10
ENDMDL
MODEL 3
REMARK minimizedAffinity -8.51759529
REMARK CNNscore 0.775649548
REMARK CNNaffinity 7.34999323
REMARK  10 active torsions:
REMARK  status: ('A' for Active; 'I' for Inactive)
REMARK    1  A    between atoms: O1_2  and  C2_3 
REMARK    2  A    between atoms: C2_3  and  C3_4 
REMARK    3  A    between atoms: C2_3  and  C26_35 
REMARK    4  A    between atoms: C3_4  and  C4_5 
REMARK    5  A    between atoms: C4_5  and  C5_6 
REMARK    6  A    between atoms: C5_6  and  C7_8 
REMARK    7  A    between atoms: C13_17  and  C14_18 
REMARK    8  A    between atoms: C14_18  and  O5_19 
REMARK    9  A    between atoms: C17_24  and  O8_25 
REMARK   10  A    between atoms: C30_39  and  O10_40 
ROOT
HETATM    1  C7  UNL     1       2.909  51.945 -13.641  1.00  0.00     0.135 C 
HETATM    2  O2  UNL     1       1.684  52.349 -13.022  1.00  0.00    -0.348 OA
HETATM    3  C8  UNL     1       1.597  52.159 -11.593  1.00  0.00     0.177 C 
HETATM    4  C9  UNL     1       1.834  50.668 -11.279  1.00  0.00     0.102 C 
HETATM    5  C10 UNL     1       3.079  50.096 -11.966  1.00  0.00     0.143 C 
HETATM    6  O3  UNL     1       4.270  50.670 -11.387  1.00  0.00    -0.315 OA
HETATM    7  C11 UNL     1       4.995  49.916 -10.522  1.00  0.00     0.261 C 
HETATM    8  O4  UNL     1       4.739  48.772 -10.173  1.00  0.00    -0.265 OA
HETATM    9  C12 UNL     1       6.173  50.704 -10.014  1.00  0.00     0.145 C 
HETATM   10  C13 UNL     1       5.846  51.408  -8.701  1.00  0.00     0.164 C 
HETATM   11  O6  UNL     1       4.729  52.314  -8.863  1.00  0.00    -0.313 OA
HETATM   12  C15 UNL     1       4.976  53.519  -9.448  1.00  0.00     0.264 C 
HETATM   13  O7  UNL     1       6.086  53.898  -9.809  1.00  0.00    -0.265 OA
HETATM   14  C16 UNL     1       3.741  54.389  -9.481  1.00  0.00     0.179 C 
HETATM   15  C17 UNL     1       2.442  53.630  -9.822  1.00  0.00     0.177 C 
HETATM   16  O9  UNL     1       2.660  52.935 -11.031  1.00  0.00    -0.318 OA
HETATM   17  C18 UNL     1       1.288  54.653 -10.002  1.00  0.00     0.045 C 
HETATM   18  C19 UNL     1       0.670  55.112  -8.675  1.00  0.00     0.015 C 
HETATM   19  C20 UNL     1       0.199  54.181 -10.986  1.00  0.00     0.024 C 
HETATM   20  C21 UNL     1       0.141  52.657 -11.204  1.00  0.00     0.010 C 
HETATM   21  C22 UNL     1      -0.870  52.393 -12.360  1.00  0.00     0.020 C 
HETATM   22  C23 UNL     1      -0.497  51.963  -9.980  1.00  0.00     0.020 C 
HETATM   23  C24 UNL     1       3.065  50.424 -13.469  1.00  0.00     0.041 C 
HETATM   24  C25 UNL     1       4.313  49.873 -14.160  1.00  0.00     0.015 C 
ENDROOT
BRANCH   1  25
HETATM   25  C5  UNL     1       2.881  52.455 -15.111  1.00  0.00     0.011 C 
HETATM   26  C6  UNL     1       4.100  51.979 -15.915  1.00  0.00     0.012 C 
BRANCH  25  27
HETATM   27  C4  UNL     1       1.563  51.996 -15.789  1.00  0.00     0.009 C 
BRANCH  27  28
HETATM   28  C3  UNL     1       1.591  51.879 -17.322  1.00  0.00     0.037 C 
BRANCH  28  29
HETATM   29  C2  UNL     1       0.270  52.288 -18.002  1.00  0.00     0.153 C 
BRANCH  29  30
HETATM   30  O1  UNL     1      -0.675  51.223 -17.823  1.00  0.00    -0.386 OA
HETATM   31  C1  UNL     1      -0.052  49.968 -17.589  1.00  0.00     0.202 C 
ENDBRANCH  29  30
BRANCH  29  32
HETATM   32  C26 UNL     1       0.418  52.541 -19.494  1.00  0.00    -0.027 A 
HETATM   33  C27 UNL     1      -0.221  51.739 -20.457  1.00  0.00     0.010 A 
HETATM   34  C28 UNL     1      -0.059  51.992 -21.822  1.00  0.00     0.003 A 
HETATM   35  C29 UNL     1       0.733  53.057 -22.246  1.00  0.00     0.036 A 
HETATM   36  C30 UNL     1       1.346  53.871 -21.303  1.00  0.00     0.066 A 
HETATM   37  C31 UNL     1       1.198  53.624 -19.937  1.00  0.00     0.046 A 
BRANCH  36  38
HETATM   38  O10 UNL     1       2.097  54.916 -21.757  1.00  0.00    -0.361 OA
HETATM   39  H45 UNL     1       2.372  55.450 -20.994  1.00  0.00     0.217 HD
ENDBRANCH  36  38
ENDBRANCH  29  32
ENDBRANCH  28  29
ENDBRANCH  27  28
ENDBRANCH  25  27
ENDBRANCH   1  25
BRANCH  15  40
HETATM   40  O8  UNL     1       2.129  52.736  -8.768  1.00  0.00    -0.364 OA
HETATM   41  H25 UNL     1       2.962  52.321  -8.467  1.00  0.00     0.213 HD
ENDBRANCH  15  40
BRANCH  10  42
HETATM   42  C14 UNL     1       5.475  50.425  -7.580  1.00  0.00     0.197 C 
BRANCH  42  43
HETATM   43  O5  UNL     1       4.869  51.125  -6.490  1.00  0.00    -0.398 OA
HETATM   44  H22 UNL     1       5.561  51.654  -6.054  1.00  0.00     0.209 HD
ENDBRANCH  42  43
ENDBRANCH  10  42
TORSDOF 10
ENDMDL
MODEL 4
REMARK minimizedAffinity -7.58670855
REMARK CNNscore 0.558626294
REMARK CNNaffinity 6.96275139
REMARK  10 active torsions:
REMARK  status: ('A' for Active; 'I' for Inactive)
REMARK    1  A    between atoms: O1_2  and  C2_3 
REMARK    2  A    between atoms: C2_3  and  C3_4 
REMARK    3  A    between atoms: C2_3  and  C26_35 
REMARK    4  A    between atoms: C3_4  and  C4_5 
REMARK    5  A    between atoms: C4_5  and  C5_6 
REMARK    6  A    between atoms: C5_6  and  C7_8 
REMARK    7  A    between atoms: C13_17  and  C14_18 
REMARK    8  A    between atoms: C14_18  and  O5_19 
REMARK    9  A    between atoms: C17_24  and  O8_25 
REMARK   10  A    between atoms: C30_39  and  O10_40 
ROOT
HETATM    1  C7  UNL     1       0.870  51.561 -11.572  1.00  0.00     0.135 C 
HETATM    2  O2  UNL     1      -0.339  52.157 -11.093  1.00  0.00    -0.348 OA
HETATM    3  C8  UNL     1      -1.547  51.807 -11.802  1.00  0.00     0.177 C 
HETATM    4  C9  UNL     1      -1.374  52.183 -13.287  1.00  0.00     0.102 C 
HETATM    5  C10 UNL     1      -0.061  51.671 -13.890  1.00  0.00     0.143 C 
HETATM    6  O3  UNL     1      -0.092  50.232 -13.994  1.00  0.00    -0.315 OA
HETATM    7  C11 UNL     1      -0.306  49.678 -15.215  1.00  0.00     0.261 C 
HETATM    8  O4  UNL     1      -0.477  50.285 -16.263  1.00  0.00    -0.265 OA
HETATM    9  C12 UNL     1      -0.330  48.177 -15.101  1.00  0.00     0.145 C 
HETATM   10  C13 UNL     1      -1.752  47.656 -14.918  1.00  0.00     0.164 C 
HETATM   11  O6  UNL     1      -2.357  48.212 -13.727  1.00  0.00    -0.313 OA
HETATM   12  C15 UNL     1      -2.004  47.668 -12.530  1.00  0.00     0.264 C 
HETATM   13  O7  UNL     1      -1.239  46.717 -12.400  1.00  0.00    -0.265 OA
HETATM   14  C16 UNL     1      -2.769  48.291 -11.384  1.00  0.00     0.179 C 
HETATM   15  C17 UNL     1      -2.951  49.818 -11.502  1.00  0.00     0.177 C 
HETATM   16  O9  UNL     1      -1.672  50.386 -11.685  1.00  0.00    -0.318 OA
HETATM   17  C18 UNL     1      -3.585  50.357 -10.191  1.00  0.00     0.045 C 
HETATM   18  C19 UNL     1      -5.107  50.182 -10.135  1.00  0.00     0.015 C 
HETATM   19  C20 UNL     1      -3.183  51.810  -9.868  1.00  0.00     0.024 C 
HETATM   20  C21 UNL     1      -2.696  52.630 -11.078  1.00  0.00     0.010 C 
HETATM   21  C22 UNL     1      -2.155  53.986 -10.533  1.00  0.00     0.020 C 
HETATM   22  C23 UNL     1      -3.891  53.033 -11.970  1.00  0.00     0.020 C 
HETATM   23  C24 UNL     1       1.132  52.066 -13.002  1.00  0.00     0.041 C 
HETATM   24  C25 UNL     1       2.444  51.544 -13.586  1.00  0.00     0.015 C 
ENDROOT
BRANCH   1  25
HETATM   25  C5  UNL     1       1.989  51.873 -10.535  1.00  0.00     0.011 C 
HETATM   26  C6  UNL     1       2.908  50.668 -10.292  1.00  0.00     0.012 C 
BRANCH  25  27
HETATM   27  C4  UNL     1       2.806  53.100 -11.016  1.00  0.00     0.009 C 
BRANCH  27  28
HETATM   28  C3  UNL     1       2.306  54.477 -10.546  1.00  0.00     0.037 C 
BRANCH  28  29
HETATM   29  C2  UNL     1       3.391  55.338  -9.872  1.00  0.00     0.153 C 
BRANCH  29  30
HETATM   30  O1  UNL     1       4.393  54.460  -9.339  1.00  0.00    -0.386 OA
HETATM   31  C1  UNL     1       5.709  54.820  -9.738  1.00  0.00     0.202 C 
ENDBRANCH  29  30
BRANCH  29  32
HETATM   32  C26 UNL     1       2.857  56.191  -8.733  1.00  0.00    -0.027 A 
HETATM   33  C27 UNL     1       3.626  57.204  -8.132  1.00  0.00     0.010 A 
HETATM   34  C28 UNL     1       3.110  57.966  -7.080  1.00  0.00     0.003 A 
HETATM   35  C29 UNL     1       1.814  57.739  -6.622  1.00  0.00     0.036 A 
HETATM   36  C30 UNL     1       1.038  56.760  -7.228  1.00  0.00     0.066 A 
HETATM   37  C31 UNL     1       1.544  55.987  -8.273  1.00  0.00     0.046 A 
BRANCH  36  38
HETATM   38  O10 UNL     1      -0.234  56.581  -6.765  1.00  0.00    -0.361 OA
HETATM   39  H45 UNL     1      -0.685  55.945  -7.344  1.00  0.00     0.217 HD
ENDBRANCH  36  38
ENDBRANCH  29  32
ENDBRANCH  28  29
ENDBRANCH  27  28
ENDBRANCH  25  27
ENDBRANCH   1  25
BRANCH  15  40
HETATM   40  O8  UNL     1      -3.800  50.107 -12.599  1.00  0.00    -0.364 OA
HETATM   41  H25 UNL     1      -3.558  49.510 -13.335  1.00  0.00     0.213 HD
ENDBRANCH  15  40
BRANCH  10  42
HETATM   42  C14 UNL     1      -2.667  48.010 -16.101  1.00  0.00     0.197 C 
BRANCH  42  43
HETATM   43  O5  UNL     1      -3.487  49.135 -15.770  1.00  0.00    -0.398 OA
HETATM   44  H22 UNL     1      -4.139  48.845 -15.109  1.00  0.00     0.209 HD
ENDBRANCH  42  43
ENDBRANCH  10  42
TORSDOF 10
ENDMDL
MODEL 5
REMARK minimizedAffinity -7.76877499
REMARK CNNscore 0.542862713
REMARK CNNaffinity 6.62853098
REMARK  10 active torsions:
REMARK  status: ('A' for Active; 'I' for Inactive)
REMARK    1  A    between atoms: O1_2  and  C2_3 
REMARK    2  A    between atoms: C2_3  and  C3_4 
REMARK    3  A    between atoms: C2_3  and  C26_35 
REMARK    4  A    between atoms: C3_4  and  C4_5 
REMARK    5  A    between atoms: C4_5  and  C5_6 
REMARK    6  A    between atoms: C5_6  and  C7_8 
REMARK    7  A    between atoms: C13_17  and  C14_18 
REMARK    8  A    between atoms: C14_18  and  O5_19 
REMARK    9  A    between atoms: C17_24  and  O8_25 
REMARK   10  A    between atoms: C30_39  and  O10_40 
ROOT
HETATM    1  C7  UNL     1       2.924  51.677 -12.205  1.00  0.00     0.135 C 
HETATM    2  O2  UNL     1       2.247  52.860 -11.770  1.00  0.00    -0.348 OA
HETATM    3  C8  UNL     1       2.350  53.174 -10.364  1.00  0.00     0.177 C 
HETATM    4  C9  UNL     1       1.812  51.979  -9.551  1.00  0.00     0.102 C 
HETATM    5  C10 UNL     1       2.403  50.635  -9.992  1.00  0.00     0.143 C 
HETATM    6  O3  UNL     1       3.802  50.572  -9.642  1.00  0.00    -0.315 OA
HETATM    7  C11 UNL     1       4.165  49.829  -8.565  1.00  0.00     0.261 C 
HETATM    8  O4  UNL     1       3.413  49.190  -7.843  1.00  0.00    -0.265 OA
HETATM    9  C12 UNL     1       5.653  49.918  -8.357  1.00  0.00     0.145 C 
HETATM   10  C13 UNL     1       6.011  51.025  -7.370  1.00  0.00     0.164 C 
HETATM   11  O6  UNL     1       5.539  52.310  -7.842  1.00  0.00    -0.313 OA
HETATM   12  C15 UNL     1       6.272  52.933  -8.807  1.00  0.00     0.264 C 
HETATM   13  O7  UNL     1       7.320  52.494  -9.272  1.00  0.00    -0.265 OA
HETATM   14  C16 UNL     1       5.709  54.294  -9.145  1.00  0.00     0.179 C 
HETATM   15  C17 UNL     1       4.169  54.344  -9.208  1.00  0.00     0.177 C 
HETATM   16  O9  UNL     1       3.747  53.335 -10.101  1.00  0.00    -0.318 OA
HETATM   17  C18 UNL     1       3.726  55.735  -9.737  1.00  0.00     0.045 C 
HETATM   18  C19 UNL     1       3.716  56.821  -8.655  1.00  0.00     0.015 C 
HETATM   19  C20 UNL     1       2.388  55.702 -10.502  1.00  0.00     0.024 C 
HETATM   20  C21 UNL     1       1.488  54.495 -10.179  1.00  0.00     0.010 C 
HETATM   21  C22 UNL     1       0.292  54.528 -11.176  1.00  0.00     0.020 C 
HETATM   22  C23 UNL     1       0.828  54.672  -8.793  1.00  0.00     0.020 C 
HETATM   23  C24 UNL     1       2.277  50.462 -11.515  1.00  0.00     0.041 C 
HETATM   24  C25 UNL     1       2.881  49.132 -11.966  1.00  0.00     0.015 C 
ENDROOT
BRANCH   1  25
HETATM   25  C5  UNL     1       2.889  51.662 -13.761  1.00  0.00     0.011 C 
HETATM   26  C6  UNL     1       3.931  50.705 -14.356  1.00  0.00     0.012 C 
BRANCH  25  27
HETATM   27  C4  UNL     1       1.461  51.288 -14.238  1.00  0.00     0.009 C 
BRANCH  27  28
HETATM   28  C3  UNL     1       1.344  50.750 -15.674  1.00  0.00     0.037 C 
BRANCH  28  29
HETATM   29  C2  UNL     1      -0.013  51.045 -16.342  1.00  0.00     0.153 C 
BRANCH  29  30
HETATM   30  O1  UNL     1      -0.824  49.865 -16.249  1.00  0.00    -0.386 OA
HETATM   31  C1  UNL     1      -1.884  49.998 -15.313  1.00  0.00     0.202 C 
ENDBRANCH  29  30
BRANCH  29  32
HETATM   32  C26 UNL     1       0.111  51.419 -17.810  1.00  0.00    -0.027 A 
HETATM   33  C27 UNL     1      -0.394  50.600 -18.836  1.00  0.00     0.010 A 
HETATM   34  C28 UNL     1      -0.258  50.966 -20.178  1.00  0.00     0.003 A 
HETATM   35  C29 UNL     1       0.371  52.163 -20.515  1.00  0.00     0.036 A 
HETATM   36  C30 UNL     1       0.848  52.991 -19.508  1.00  0.00     0.066 A 
HETATM   37  C31 UNL     1       0.725  52.633 -18.165  1.00  0.00     0.046 A 
BRANCH  36  38
HETATM   38  O10 UNL     1       1.441  54.164 -19.877  1.00  0.00    -0.361 OA
HETATM   39  H45 UNL     1       1.627  54.680 -19.076  1.00  0.00     0.217 HD
ENDBRANCH  36  38
ENDBRANCH  29  32
ENDBRANCH  28  29
ENDBRANCH  27  28
ENDBRANCH  25  27
ENDBRANCH   1  25
BRANCH  15  40
HETATM   40  O8  UNL     1       3.638  54.134  -7.911  1.00  0.00    -0.364 OA
HETATM   41  H25 UNL     1       4.163  53.429  -7.481  1.00  0.00     0.213 HD
ENDBRANCH  15  40
BRANCH  10  42
HETATM   42  C14 UNL     1       5.397  50.799  -5.980  1.00  0.00     0.197 C 
BRANCH  42  43
HETATM   43  O5  UNL     1       4.243  51.627  -5.809  1.00  0.00    -0.398 OA
HETATM   44  H22 UNL     1       4.547  52.549  -5.732  1.00  0.00     0.209 HD
ENDBRANCH  42  43
ENDBRANCH  10  42
TORSDOF 10
ENDMDL
MODEL 6
REMARK minimizedAffinity -7.52311611
REMARK CNNscore 0.481511354
REMARK CNNaffinity 5.61065102
REMARK  10 active torsions:
REMARK  status: ('A' for Active; 'I' for Inactive)
REMARK    1  A    between atoms: O1_2  and  C2_3 
REMARK    2  A    between atoms: C2_3  and  C3_4 
REMARK    3  A    between atoms: C2_3  and  C26_35 
REMARK    4  A    between atoms: C3_4  and  C4_5 
REMARK    5  A    between atoms: C4_5  and  C5_6 
REMARK    6  A    between atoms: C5_6  and  C7_8 
REMARK    7  A    between atoms: C13_17  and  C14_18 
REMARK    8  A    between atoms: C14_18  and  O5_19 
REMARK    9  A    between atoms: C17_24  and  O8_25 
REMARK   10  A    between atoms: C30_39  and  O10_40 
ROOT
HETATM    1  C7  UNL     1       5.036  67.919 -36.591  1.00  0.00     0.135 C 
HETATM    2  O2  UNL     1       3.678  67.505 -36.763  1.00  0.00    -0.348 OA
HETATM    3  C8  UNL     1       2.843  68.369 -37.564  1.00  0.00     0.177 C 
HETATM    4  C9  UNL     1       2.847  69.777 -36.937  1.00  0.00     0.102 C 
HETATM    5  C10 UNL     1       4.256  70.295 -36.622  1.00  0.00     0.143 C 
HETATM    6  O3  UNL     1       4.970  70.560 -37.848  1.00  0.00    -0.315 OA
HETATM    7  C11 UNL     1       5.110  71.850 -38.246  1.00  0.00     0.261 C 
HETATM    8  O4  UNL     1       4.685  72.836 -37.661  1.00  0.00    -0.265 OA
HETATM    9  C12 UNL     1       5.856  71.907 -39.553  1.00  0.00     0.145 C 
HETATM   10  C13 UNL     1       4.897  71.931 -40.739  1.00  0.00     0.164 C 
HETATM   11  O6  UNL     1       4.054  70.754 -40.747  1.00  0.00    -0.313 OA
HETATM   12  C15 UNL     1       4.598  69.594 -41.210  1.00  0.00     0.264 C 
HETATM   13  O7  UNL     1       5.738  69.493 -41.653  1.00  0.00    -0.265 OA
HETATM   14  C16 UNL     1       3.586  68.472 -41.234  1.00  0.00     0.179 C 
HETATM   15  C17 UNL     1       2.650  68.438 -40.008  1.00  0.00     0.177 C 
HETATM   16  O9  UNL     1       3.462  68.424 -38.853  1.00  0.00    -0.318 OA
HETATM   17  C18 UNL     1       1.788  67.148 -40.063  1.00  0.00     0.045 C 
HETATM   18  C19 UNL     1       0.570  67.269 -40.987  1.00  0.00     0.015 C 
HETATM   19  C20 UNL     1       1.377  66.626 -38.671  1.00  0.00     0.024 C 
HETATM   20  C21 UNL     1       1.413  67.681 -37.549  1.00  0.00     0.010 C 
HETATM   21  C22 UNL     1       1.164  66.935 -36.204  1.00  0.00     0.020 C 
HETATM   22  C23 UNL     1       0.209  68.641 -37.676  1.00  0.00     0.020 C 
HETATM   23  C24 UNL     1       5.047  69.249 -35.817  1.00  0.00     0.041 C 
HETATM   24  C25 UNL     1       6.460  69.749 -35.515  1.00  0.00     0.015 C 
ENDROOT
BRANCH   1  25
HETATM   25  C5  UNL     1       5.803  66.745 -35.916  1.00  0.00     0.011 C 
HETATM   26  C6  UNL     1       7.150  67.190 -35.330  1.00  0.00     0.012 C 
BRANCH  25  27
HETATM   27  C4  UNL     1       4.907  66.111 -34.819  1.00  0.00     0.009 C 
BRANCH  27  28
HETATM   28  C3  UNL     1       4.437  64.669 -35.074  1.00  0.00     0.037 C 
BRANCH  28  29
HETATM   29  C2  UNL     1       4.683  63.714 -33.891  1.00  0.00     0.153 C 
BRANCH  29  30
HETATM   30  O1  UNL     1       5.153  64.489 -32.779  1.00  0.00    -0.386 OA
HETATM   31  C1  UNL     1       4.182  64.621 -31.750  1.00  0.00     0.202 C 
ENDBRANCH  29  30
BRANCH  29  32
HETATM   32  C26 UNL     1       5.720  62.643 -34.191  1.00  0.00    -0.027 A 
HETATM   33  C27 UNL     1       5.360  61.335 -34.559  1.00  0.00     0.010 A 
HETATM   34  C28 UNL     1       6.337  60.369 -34.821  1.00  0.00     0.003 A 
HETATM   35  C29 UNL     1       7.687  60.700 -34.733  1.00  0.00     0.036 A 
HETATM   36  C30 UNL     1       8.052  61.997 -34.397  1.00  0.00     0.066 A 
HETATM   37  C31 UNL     1       7.087  62.968 -34.126  1.00  0.00     0.046 A 
BRANCH  36  38
HETATM   38  O10 UNL     1       9.385  62.288 -34.341  1.00  0.00    -0.361 OA
HETATM   39  H45 UNL     1       9.485  63.244 -34.200  1.00  0.00     0.217 HD
ENDBRANCH  36  38
ENDBRANCH  29  32
ENDBRANCH  28  29
ENDBRANCH  27  28
ENDBRANCH  25  27
ENDBRANCH   1  25
BRANCH  15  40
HETATM   40  O8  UNL     1       1.808  69.578 -40.027  1.00  0.00    -0.364 OA
HETATM   41  H25 UNL     1       2.346  70.346 -40.305  1.00  0.00     0.213 HD
ENDBRANCH  15  40
BRANCH  10  42
HETATM   42  C14 UNL     1       3.968  73.155 -40.723  1.00  0.00     0.197 C 
BRANCH  42  43
HETATM   43  O5  UNL     1       2.621  72.756 -40.995  1.00  0.00    -0.398 OA
HETATM   44  H22 UNL     1       2.571  72.494 -41.932  1.00  0.00     0.209 HD
ENDBRANCH  42  43
ENDBRANCH  10  42
TORSDOF 10
ENDMDL
MODEL 7
REMARK minimizedAffinity -6.61445236
REMARK CNNscore 0.437937647
REMARK CNNaffinity 6.48895454
REMARK  10 active torsions:
REMARK  status: ('A' for Active; 'I' for Inactive)
REMARK    1  A    between atoms: O1_2  and  C2_3 
REMARK    2  A    between atoms: C2_3  and  C3_4 
REMARK    3  A    between atoms: C2_3  and  C26_35 
REMARK    4  A    between atoms: C3_4  and  C4_5 
REMARK    5  A    between atoms: C4_5  and  C5_6 
REMARK    6  A    between atoms: C5_6  and  C7_8 
REMARK    7  A    between atoms: C13_17  and  C14_18 
REMARK    8  A    between atoms: C14_18  and  O5_19 
REMARK    9  A    between atoms: C17_24  and  O8_25 
REMARK   10  A    between atoms: C30_39  and  O10_40 
ROOT
HETATM    1  C7  UNL     1       0.880  51.574 -11.670  1.00  0.00     0.135 C 
HETATM    2  O2  UNL     1      -0.316  52.174 -11.163  1.00  0.00    -0.348 OA
HETATM    3  C8  UNL     1      -1.550  51.771 -11.797  1.00  0.00     0.177 C 
HETATM    4  C9  UNL     1      -1.453  52.078 -13.304  1.00  0.00     0.102 C 
HETATM    5  C10 UNL     1      -0.160  51.559 -13.944  1.00  0.00     0.143 C 
HETATM    6  O3  UNL     1      -0.171  50.117 -13.979  1.00  0.00    -0.315 OA
HETATM    7  C11 UNL     1      -0.431  49.502 -15.161  1.00  0.00     0.261 C 
HETATM    8  O4  UNL     1      -0.662  50.055 -16.227  1.00  0.00    -0.265 OA
HETATM    9  C12 UNL     1      -0.423  48.008 -14.976  1.00  0.00     0.145 C 
HETATM   10  C13 UNL     1      -1.825  47.474 -14.702  1.00  0.00     0.164 C 
HETATM   11  O6  UNL     1      -2.384  48.077 -13.510  1.00  0.00    -0.313 OA
HETATM   12  C15 UNL     1      -1.966  47.595 -12.307  1.00  0.00     0.264 C 
HETATM   13  O7  UNL     1      -1.178  46.664 -12.170  1.00  0.00    -0.265 OA
HETATM   14  C16 UNL     1      -2.687  48.260 -11.157  1.00  0.00     0.179 C 
HETATM   15  C17 UNL     1      -2.902  49.777 -11.338  1.00  0.00     0.177 C 
HETATM   16  O9  UNL     1      -1.643  50.356 -11.608  1.00  0.00    -0.318 OA
HETATM   17  C18 UNL     1      -3.484  50.368 -10.025  1.00  0.00     0.045 C 
HETATM   18  C19 UNL     1      -4.999  50.171  -9.889  1.00  0.00     0.015 C 
HETATM   19  C20 UNL     1      -3.093  51.841  -9.790  1.00  0.00     0.024 C 
HETATM   20  C21 UNL     1      -2.678  52.610 -11.059  1.00  0.00     0.010 C 
HETATM   21  C22 UNL     1      -2.137  53.998 -10.603  1.00  0.00     0.020 C 
HETATM   22  C23 UNL     1      -3.921  52.951 -11.911  1.00  0.00     0.020 C 
HETATM   23  C24 UNL     1       1.065  52.015 -13.133  1.00  0.00     0.041 C 
HETATM   24  C25 UNL     1       2.358  51.486 -13.753  1.00  0.00     0.015 C 
ENDROOT
BRANCH   1  25
HETATM   25  C5  UNL     1       2.040  51.953 -10.704  1.00  0.00     0.011 C 
HETATM   26  C6  UNL     1       3.077  52.867 -11.370  1.00  0.00     0.012 C 
BRANCH  25  27
HETATM   27  C4  UNL     1       1.451  52.621  -9.433  1.00  0.00     0.009 C 
BRANCH  27  28
HETATM   28  C3  UNL     1       1.952  54.040  -9.118  1.00  0.00     0.037 C 
BRANCH  28  29
HETATM   29  C2  UNL     1       2.747  54.143  -7.802  1.00  0.00     0.153 C 
BRANCH  29  30
HETATM   30  O1  UNL     1       2.178  55.200  -7.015  1.00  0.00    -0.386 OA
HETATM   31  C1  UNL     1       1.478  56.155  -7.801  1.00  0.00     0.202 C 
ENDBRANCH  29  30
BRANCH  29  32
HETATM   32  C26 UNL     1       4.219  54.454  -8.015  1.00  0.00    -0.027 A 
HETATM   33  C27 UNL     1       4.720  54.897  -9.253  1.00  0.00     0.010 A 
HETATM   34  C28 UNL     1       6.081  55.167  -9.421  1.00  0.00     0.003 A 
HETATM   35  C29 UNL     1       6.961  55.013  -8.351  1.00  0.00     0.036 A 
HETATM   36  C30 UNL     1       6.472  54.603  -7.118  1.00  0.00     0.066 A 
HETATM   37  C31 UNL     1       5.117  54.323  -6.940  1.00  0.00     0.046 A 
BRANCH  36  38
HETATM   38  O10 UNL     1       7.361  54.483  -6.090  1.00  0.00    -0.361 OA
HETATM   39  H45 UNL     1       6.867  54.294  -5.276  1.00  0.00     0.217 HD
ENDBRANCH  36  38
ENDBRANCH  29  32
ENDBRANCH  28  29
ENDBRANCH  27  28
ENDBRANCH  25  27
ENDBRANCH   1  25
BRANCH  15  40
HETATM   40  O8  UNL     1      -3.807  50.000 -12.405  1.00  0.00    -0.364 OA
HETATM   41  H25 UNL     1      -3.588  49.372 -13.123  1.00  0.00     0.213 HD
ENDBRANCH  15  40
BRANCH  10  42
HETATM   42  C14 UNL     1      -2.801  47.757 -15.855  1.00  0.00     0.197 C 
BRANCH  42  43
HETATM   43  O5  UNL     1      -2.199  47.414 -17.106  1.00  0.00    -0.398 OA
HETATM   44  H22 UNL     1      -1.498  48.066 -17.289  1.00  0.00     0.209 HD
ENDBRANCH  42  43
ENDBRANCH  10  42
TORSDOF 10
ENDMDL
MODEL 8
REMARK minimizedAffinity -8.99638939
REMARK CNNscore 0.426436901
REMARK CNNaffinity 6.70032883
REMARK  10 active torsions:
REMARK  status: ('A' for Active; 'I' for Inactive)
REMARK    1  A    between atoms: O1_2  and  C2_3 
REMARK    2  A    between atoms: C2_3  and  C3_4 
REMARK    3  A    between atoms: C2_3  and  C26_35 
REMARK    4  A    between atoms: C3_4  and  C4_5 
REMARK    5  A    between atoms: C4_5  and  C5_6 
REMARK    6  A    between atoms: C5_6  and  C7_8 
REMARK    7  A    between atoms: C13_17  and  C14_18 
REMARK    8  A    between atoms: C14_18  and  O5_19 
REMARK    9  A    between atoms: C17_24  and  O8_25 
REMARK   10  A    between atoms: C30_39  and  O10_40 
ROOT
HETATM    1  C7  UNL     1      -3.944  48.675 -24.959  1.00  0.00     0.135 C 
HETATM    2  O2  UNL     1      -3.509  49.796 -24.184  1.00  0.00    -0.348 OA
HETATM    3  C8  UNL     1      -4.027  49.881 -22.838  1.00  0.00     0.177 C 
HETATM    4  C9  UNL     1      -5.567  49.903 -22.903  1.00  0.00     0.102 C 
HETATM    5  C10 UNL     1      -6.150  48.793 -23.786  1.00  0.00     0.143 C 
HETATM    6  O3  UNL     1      -5.940  47.507 -23.166  1.00  0.00    -0.315 OA
HETATM    7  C11 UNL     1      -6.992  46.907 -22.553  1.00  0.00     0.261 C 
HETATM    8  O4  UNL     1      -8.128  47.351 -22.471  1.00  0.00    -0.265 OA
HETATM    9  C12 UNL     1      -6.558  45.598 -21.951  1.00  0.00     0.145 C 
HETATM   10  C13 UNL     1      -6.153  45.765 -20.489  1.00  0.00     0.164 C 
HETATM   11  O6  UNL     1      -5.065  46.710 -20.359  1.00  0.00    -0.313 OA
HETATM   12  C15 UNL     1      -3.811  46.268 -20.655  1.00  0.00     0.264 C 
HETATM   13  O7  UNL     1      -3.542  45.117 -20.987  1.00  0.00    -0.265 OA
HETATM   14  C16 UNL     1      -2.768  47.332 -20.400  1.00  0.00     0.179 C 
HETATM   15  C17 UNL     1      -3.196  48.751 -20.826  1.00  0.00     0.177 C 
HETATM   16  O9  UNL     1      -3.598  48.687 -22.178  1.00  0.00    -0.318 OA
HETATM   17  C18 UNL     1      -1.984  49.712 -20.683  1.00  0.00     0.045 C 
HETATM   18  C19 UNL     1      -1.770  50.209 -19.248  1.00  0.00     0.015 C 
HETATM   19  C20 UNL     1      -2.014  50.889 -21.678  1.00  0.00     0.024 C 
HETATM   20  C21 UNL     1      -3.406  51.218 -22.248  1.00  0.00     0.010 C 
HETATM   21  C22 UNL     1      -3.209  52.286 -23.366  1.00  0.00     0.020 C 
HETATM   22  C23 UNL     1      -4.265  51.940 -21.186  1.00  0.00     0.020 C 
HETATM   23  C24 UNL     1      -5.465  48.784 -25.164  1.00  0.00     0.041 C 
HETATM   24  C25 UNL     1      -6.027  47.668 -26.045  1.00  0.00     0.015 C 
ENDROOT
BRANCH   1  25
HETATM   25  C5  UNL     1      -3.092  48.646 -26.261  1.00  0.00     0.011 C 
HETATM   26  C6  UNL     1      -3.939  48.898 -27.516  1.00  0.00     0.012 C 
BRANCH  25  27
HETATM   27  C4  UNL     1      -1.949  49.690 -26.149  1.00  0.00     0.009 C 
BRANCH  27  28
HETATM   28  C3  UNL     1      -2.243  51.084 -26.729  1.00  0.00     0.037 C 
BRANCH  28  29
HETATM   29  C2  UNL     1      -0.978  51.900 -27.059  1.00  0.00     0.153 C 
BRANCH  29  30
HETATM   30  O1  UNL     1      -0.028  51.023 -27.681  1.00  0.00    -0.386 OA
HETATM   31  C1  UNL     1       1.200  51.670 -27.985  1.00  0.00     0.202 C 
ENDBRANCH  29  30
BRANCH  29  32
HETATM   32  C26 UNL     1      -0.323  52.512 -25.832  1.00  0.00    -0.027 A 
HETATM   33  C27 UNL     1      -0.003  51.749 -24.695  1.00  0.00     0.010 A 
HETATM   34  C28 UNL     1       0.592  52.342 -23.577  1.00  0.00     0.003 A 
HETATM   35  C29 UNL     1       0.889  53.703 -23.584  1.00  0.00     0.036 A 
HETATM   36  C30 UNL     1       0.601  54.460 -24.713  1.00  0.00     0.066 A 
HETATM   37  C31 UNL     1       0.001  53.881 -25.831  1.00  0.00     0.046 A 
BRANCH  36  38
HETATM   38  O10 UNL     1       0.925  55.785 -24.689  1.00  0.00    -0.361 OA
HETATM   39  H45 UNL     1       0.765  56.157 -25.571  1.00  0.00     0.217 HD
ENDBRANCH  36  38
ENDBRANCH  29  32
ENDBRANCH  28  29
ENDBRANCH  27  28
ENDBRANCH  25  27
ENDBRANCH   1  25
BRANCH  15  40
HETATM   40  O8  UNL     1      -4.257  49.192 -19.997  1.00  0.00    -0.364 OA
HETATM   41  H25 UNL     1      -4.864  48.438 -19.858  1.00  0.00     0.213 HD
ENDBRANCH  15  40
BRANCH  10  42
HETATM   42  C14 UNL     1      -7.307  46.278 -19.613  1.00  0.00     0.197 C 
BRANCH  42  43
HETATM   43  O5  UNL     1      -8.514  45.577 -19.926  1.00  0.00    -0.398 OA
HETATM   44  H22 UNL     1      -8.806  45.865 -20.808  1.00  0.00     0.209 HD
ENDBRANCH  42  43
ENDBRANCH  10  42
TORSDOF 10
ENDMDL
MODEL 9
REMARK minimizedAffinity -8.6065979
REMARK CNNscore 0.399739027
REMARK CNNaffinity 6.28327703
REMARK  10 active torsions:
REMARK  status: ('A' for Active; 'I' for Inactive)
REMARK    1  A    between atoms: O1_2  and  C2_3 
REMARK    2  A    between atoms: C2_3  and  C3_4 
REMARK    3  A    between atoms: C2_3  and  C26_35 
REMARK    4  A    between atoms: C3_4  and  C4_5 
REMARK    5  A    between atoms: C4_5  and  C5_6 
REMARK    6  A    between atoms: C5_6  and  C7_8 
REMARK    7  A    between atoms: C13_17  and  C14_18 
REMARK    8  A    between atoms: C14_18  and  O5_19 
REMARK    9  A    between atoms: C17_24  and  O8_25 
REMARK   10  A    between atoms: C30_39  and  O10_40 
ROOT
HETATM    1  C7  UNL     1      -4.467  48.370 -24.014  1.00  0.00     0.135 C 
HETATM    2  O2  UNL     1      -4.566  49.046 -22.757  1.00  0.00    -0.348 OA
HETATM    3  C8  UNL     1      -5.723  48.732 -21.953  1.00  0.00     0.177 C 
HETATM    4  C9  UNL     1      -6.992  49.041 -22.772  1.00  0.00     0.102 C 
HETATM    5  C10 UNL     1      -6.961  48.440 -24.182  1.00  0.00     0.143 C 
HETATM    6  O3  UNL     1      -7.051  47.001 -24.108  1.00  0.00    -0.315 OA
HETATM    7  C11 UNL     1      -8.237  46.413 -24.407  1.00  0.00     0.261 C 
HETATM    8  O4  UNL     1      -9.263  46.987 -24.743  1.00  0.00    -0.265 OA
HETATM    9  C12 UNL     1      -8.127  44.921 -24.242  1.00  0.00     0.145 C 
HETATM   10  C13 UNL     1      -8.570  44.481 -22.850  1.00  0.00     0.164 C 
HETATM   11  O6  UNL     1      -7.765  45.113 -21.827  1.00  0.00    -0.313 OA
HETATM   12  C15 UNL     1      -6.526  44.597 -21.594  1.00  0.00     0.264 C 
HETATM   13  O7  UNL     1      -6.067  43.614 -22.168  1.00  0.00    -0.265 OA
HETATM   14  C16 UNL     1      -5.832  45.302 -20.452  1.00  0.00     0.179 C 
HETATM   15  C17 UNL     1      -6.035  46.831 -20.435  1.00  0.00     0.177 C 
HETATM   16  O9  UNL     1      -5.654  47.325 -21.701  1.00  0.00    -0.318 OA
HETATM   17  C18 UNL     1      -5.134  47.452 -19.333  1.00  0.00     0.045 C 
HETATM   18  C19 UNL     1      -5.740  47.357 -17.928  1.00  0.00     0.015 C 
HETATM   19  C20 UNL     1      -4.687  48.893 -19.648  1.00  0.00     0.024 C 
HETATM   20  C21 UNL     1      -5.577  49.640 -20.659  1.00  0.00     0.010 C 
HETATM   21  C22 UNL     1      -4.868  50.986 -20.995  1.00  0.00     0.020 C 
HETATM   22  C23 UNL     1      -6.903  50.070 -19.992  1.00  0.00     0.020 C 
HETATM   23  C24 UNL     1      -5.649  48.807 -24.898  1.00  0.00     0.041 C 
HETATM   24  C25 UNL     1      -5.601  48.195 -26.298  1.00  0.00     0.015 C 
ENDROOT
BRANCH   1  25
HETATM   25  C5  UNL     1      -3.053  48.664 -24.594  1.00  0.00     0.011 C 
HETATM   26  C6  UNL     1      -2.982  48.416 -26.108  1.00  0.00     0.012 C 
BRANCH  25  27
HETATM   27  C4  UNL     1      -2.652  50.124 -24.256  1.00  0.00     0.009 C 
BRANCH  27  28
HETATM   28  C3  UNL     1      -1.173  50.489 -24.466  1.00  0.00     0.037 C 
BRANCH  28  29
HETATM   29  C2  UNL     1      -0.889  52.002 -24.403  1.00  0.00     0.153 C 
BRANCH  29  30
HETATM   30  O1  UNL     1       0.039  52.328 -25.447  1.00  0.00    -0.386 OA
HETATM   31  C1  UNL     1       0.488  51.185 -26.162  1.00  0.00     0.202 C 
ENDBRANCH  29  30
BRANCH  29  32
HETATM   32  C26 UNL     1      -0.285  52.444 -23.080  1.00  0.00    -0.027 A 
HETATM   33  C27 UNL     1      -0.622  51.829 -21.861  1.00  0.00     0.010 A 
HETATM   34  C28 UNL     1      -0.056  52.264 -20.658  1.00  0.00     0.003 A 
HETATM   35  C29 UNL     1       0.867  53.307 -20.657  1.00  0.00     0.036 A 
HETATM   36  C30 UNL     1       1.227  53.901 -21.860  1.00  0.00     0.066 A 
HETATM   37  C31 UNL     1       0.663  53.482 -23.065  1.00  0.00     0.046 A 
BRANCH  36  38
HETATM   38  O10 UNL     1       2.149  54.907 -21.820  1.00  0.00    -0.361 OA
HETATM   39  H45 UNL     1       2.377  55.151 -22.732  1.00  0.00     0.217 HD
ENDBRANCH  36  38
ENDBRANCH  29  32
ENDBRANCH  28  29
ENDBRANCH  27  28
ENDBRANCH  25  27
ENDBRANCH   1  25
BRANCH  15  40
HETATM   40  O8  UNL     1      -7.395  47.121 -20.161  1.00  0.00    -0.364 OA
HETATM   41  H25 UNL     1      -7.946  46.484 -20.659  1.00  0.00     0.213 HD
ENDBRANCH  15  40
BRANCH  10  42
HETATM   42  C14 UNL     1     -10.037  44.836 -22.558  1.00  0.00     0.197 C 
BRANCH  42  43
HETATM   43  O5  UNL     1     -10.862  44.479 -23.671  1.00  0.00    -0.398 OA
HETATM   44  H22 UNL     1     -10.662  45.093 -24.400  1.00  0.00     0.209 HD
ENDBRANCH  42  43
ENDBRANCH  10  42
TORSDOF 10
ENDMDL
