MODEL 1
REMARK minimizedAffinity -7.6841116
REMARK  8 active torsions:
REMARK  status: ('A' for Active; 'I' for Inactive)
REMARK    1  A    between atoms: C4_4  and  C5_5 
REMARK    2  A    between atoms: C5_5  and  C6_6 
REMARK    3  A    between atoms: C6_6  and  C7_7 
REMARK    4  A    between atoms: C9_9  and  C10_10 
REMARK    5  A    between atoms: C11_11  and  C12_12 
REMARK    6  A    between atoms: C14_14  and  C15_15 
REMARK    7  A    between atoms: C24_25  and  C26_27 
REMARK    8  A    between atoms: C29_31  and  O3_33 
ROOT
HETATM    1  C15 UNL     1      15.513  -5.052   8.844  1.00  0.00     0.149 C 
HETATM    2  C16 UNL     1      15.434  -5.128   7.324  1.00  0.00     0.054 C 
HETATM    3  C17 UNL     1      14.217  -6.065   7.023  1.00  0.00     0.050 C 
HETATM    4  C18 UNL     1      13.694  -6.349   8.466  1.00  0.00     0.272 C 
HETATM    5  O1  UNL     1      12.312  -6.603   8.659  1.00  0.00    -0.360 OA
HETATM    6  C19 UNL     1      11.448  -5.502   8.469  1.00  0.00     0.171 C 
HETATM    7  C20 UNL     1      10.840  -5.533   7.076  1.00  0.00     0.027 C 
HETATM    8  C21 UNL     1      11.819  -5.887   5.957  1.00  0.00     0.012 C 
HETATM    9  C22 UNL     1      13.210  -5.242   6.133  1.00  0.00     0.032 C 
HETATM   10  C23 UNL     1      13.821  -4.897   4.758  1.00  0.00    -0.066 C 
HETATM   11  C24 UNL     1      13.555  -3.757   4.068  1.00  0.00    -0.021 C 
HETATM   12  C25 UNL     1      14.219  -3.339   2.781  1.00  0.00     0.052 C 
HETATM   13  C27 UNL     1      14.814  -5.916   4.229  1.00  0.00     0.038 C 
HETATM   14  C28 UNL     1      14.550  -7.317   4.760  1.00  0.00     0.042 C 
HETATM   15  C29 UNL     1      14.619  -7.415   6.299  1.00  0.00     0.067 C 
HETATM   16  C30 UNL     1      15.993  -7.973   6.719  1.00  0.00     0.047 C 
HETATM   17  O4  UNL     1      14.180  -5.279   9.295  1.00  0.00    -0.351 OA
ENDROOT
BRANCH   1  18
HETATM   18  C14 UNL     1      16.103  -3.777   9.377  1.00  0.00     0.011 C 
HETATM   19  C12 UNL     1      17.320  -3.227   9.176  1.00  0.00    -0.063 C 
HETATM   20  C13 UNL     1      18.413  -3.883   8.373  1.00  0.00     0.048 C 
BRANCH  19  21
HETATM   21  C11 UNL     1      17.608  -1.927   9.787  1.00  0.00     0.006 C 
HETATM   22  C10 UNL     1      16.997  -0.761   9.514  1.00  0.00     0.001 C 
BRANCH  22  23
HETATM   23  C9  UNL     1      17.344   0.478  10.182  1.00  0.00     0.002 C 
HETATM   24  C7  UNL     1      16.547   1.237  10.963  1.00  0.00    -0.084 C 
HETATM   25  C8  UNL     1      15.100   0.929  11.275  1.00  0.00     0.043 C 
BRANCH  24  26
HETATM   26  C6  UNL     1      17.013   2.524  11.639  1.00  0.00     0.037 C 
BRANCH  26  27
HETATM   27  C5  UNL     1      16.915   2.613  13.169  1.00  0.00     0.031 C 
BRANCH  27  28
HETATM   28  C4  UNL     1      18.171   2.107  13.830  1.00  0.00    -0.024 C 
HETATM   29  C2  UNL     1      18.905   2.718  14.780  1.00  0.00    -0.091 C 
HETATM   30  C1  UNL     1      20.122   2.047  15.360  1.00  0.00     0.042 C 
HETATM   31  C3  UNL     1      18.625   4.085  15.343  1.00  0.00     0.042 C 
ENDBRANCH  27  28
ENDBRANCH  26  27
ENDBRANCH  24  26
ENDBRANCH  22  23
ENDBRANCH  19  21
ENDBRANCH   1  18
BRANCH  15  32
HETATM   32  O3  UNL     1      13.681  -8.439   6.670  1.00  0.00    -0.389 OA
HETATM   33  H44 UNL     1      13.882  -9.252   6.174  1.00  0.00     0.210 HD
ENDBRANCH  15  32
BRANCH  11  34
HETATM   34  C26 UNL     1      12.541  -2.759   4.538  1.00  0.00     0.265 C 
HETATM   35  O2  UNL     1      12.020  -1.940   3.787  1.00  0.00    -0.302 OA
ENDBRANCH  11  34
TORSDOF 8
ENDMDL
MODEL 2
REMARK minimizedAffinity -7.51236153
REMARK  8 active torsions:
REMARK  status: ('A' for Active; 'I' for Inactive)
REMARK    1  A    between atoms: C4_4  and  C5_5 
REMARK    2  A    between atoms: C5_5  and  C6_6 
REMARK    3  A    between atoms: C6_6  and  C7_7 
REMARK    4  A    between atoms: C9_9  and  C10_10 
REMARK    5  A    between atoms: C11_11  and  C12_12 
REMARK    6  A    between atoms: C14_14  and  C15_15 
REMARK    7  A    between atoms: C24_25  and  C26_27 
REMARK    8  A    between atoms: C29_31  and  O3_33 
ROOT
HETATM    1  C15 UNL     1     -11.722   7.656  13.018  1.00  0.00     0.149 C 
HETATM    2  C16 UNL     1     -11.628   8.980  13.765  1.00  0.00     0.054 C 
HETATM    3  C17 UNL     1     -13.075   9.254  14.298  1.00  0.00     0.050 C 
HETATM    4  C18 UNL     1     -13.814   7.960  13.834  1.00  0.00     0.272 C 
HETATM    5  O1  UNL     1     -14.910   7.483  14.597  1.00  0.00    -0.360 OA
HETATM    6  C19 UNL     1     -14.595   6.951  15.867  1.00  0.00     0.171 C 
HETATM    7  C20 UNL     1     -14.819   7.991  16.953  1.00  0.00     0.027 C 
HETATM    8  C21 UNL     1     -14.319   9.394  16.610  1.00  0.00     0.012 C 
HETATM    9  C22 UNL     1     -12.969   9.397  15.864  1.00  0.00     0.032 C 
HETATM   10  C23 UNL     1     -12.136  10.634  16.264  1.00  0.00    -0.066 C 
HETATM   11  C24 UNL     1     -11.346  10.699  17.367  1.00  0.00    -0.021 C 
HETATM   12  C25 UNL     1     -10.436  11.846  17.725  1.00  0.00     0.052 C 
HETATM   13  C27 UNL     1     -12.212  11.795  15.289  1.00  0.00     0.038 C 
HETATM   14  C28 UNL     1     -13.516  11.816  14.506  1.00  0.00     0.042 C 
HETATM   15  C29 UNL     1     -13.751  10.540  13.669  1.00  0.00     0.067 C 
HETATM   16  C30 UNL     1     -13.359  10.807  12.202  1.00  0.00     0.047 C 
HETATM   17  O4  UNL     1     -12.801   6.959  13.636  1.00  0.00    -0.351 OA
ENDROOT
BRANCH   1  18
HETATM   18  C14 UNL     1     -10.447   6.861  12.992  1.00  0.00     0.011 C 
HETATM   19  C12 UNL     1      -9.565   6.592  13.979  1.00  0.00    -0.063 C 
HETATM   20  C13 UNL     1      -9.676   7.148  15.374  1.00  0.00     0.048 C 
BRANCH  19  21
HETATM   21  C11 UNL     1      -8.421   5.729  13.676  1.00  0.00     0.006 C 
HETATM   22  C10 UNL     1      -8.262   4.964  12.582  1.00  0.00     0.001 C 
BRANCH  22  23
HETATM   23  C9  UNL     1      -7.084   4.148  12.363  1.00  0.00     0.002 C 
HETATM   24  C7  UNL     1      -5.820   4.413  12.757  1.00  0.00    -0.084 C 
HETATM   25  C8  UNL     1      -5.394   5.656  13.503  1.00  0.00     0.043 C 
BRANCH  24  26
HETATM   26  C6  UNL     1      -4.644   3.477  12.491  1.00  0.00     0.037 C 
BRANCH  26  27
HETATM   27  C5  UNL     1      -3.821   3.697  11.214  1.00  0.00     0.031 C 
BRANCH  27  28
HETATM   28  C4  UNL     1      -2.378   3.990  11.534  1.00  0.00    -0.024 C 
HETATM   29  C2  UNL     1      -1.326   3.155  11.433  1.00  0.00    -0.091 C 
HETATM   30  C1  UNL     1       0.065   3.628  11.763  1.00  0.00     0.042 C 
HETATM   31  C3  UNL     1      -1.405   1.713  11.012  1.00  0.00     0.042 C 
ENDBRANCH  27  28
ENDBRANCH  26  27
ENDBRANCH  24  26
ENDBRANCH  22  23
ENDBRANCH  19  21
ENDBRANCH   1  18
BRANCH  15  32
HETATM   32  O3  UNL     1     -15.175  10.348  13.637  1.00  0.00    -0.389 OA
HETATM   33  H44 UNL     1     -15.601  11.162  13.315  1.00  0.00     0.210 HD
ENDBRANCH  15  32
BRANCH  11  34
HETATM   34  C26 UNL     1     -11.292   9.591  18.375  1.00  0.00     0.265 C 
HETATM   35  O2  UNL     1     -11.221   9.797  19.583  1.00  0.00    -0.302 OA
ENDBRANCH  11  34
TORSDOF 8
ENDMDL
MODEL 3
REMARK minimizedAffinity -7.29897356
REMARK  8 active torsions:
REMARK  status: ('A' for Active; 'I' for Inactive)
REMARK    1  A    between atoms: C4_4  and  C5_5 
REMARK    2  A    between atoms: C5_5  and  C6_6 
REMARK    3  A    between atoms: C6_6  and  C7_7 
REMARK    4  A    between atoms: C9_9  and  C10_10 
REMARK    5  A    between atoms: C11_11  and  C12_12 
REMARK    6  A    between atoms: C14_14  and  C15_15 
REMARK    7  A    between atoms: C24_25  and  C26_27 
REMARK    8  A    between atoms: C29_31  and  O3_33 
ROOT
HETATM    1  C15 UNL     1     -11.311 -12.644  27.137  1.00  0.00     0.149 C 
HETATM    2  C16 UNL     1     -10.126 -12.474  26.195  1.00  0.00     0.054 C 
HETATM    3  C17 UNL     1     -10.042 -13.818  25.396  1.00  0.00     0.050 C 
HETATM    4  C18 UNL     1     -11.287 -14.576  25.954  1.00  0.00     0.272 C 
HETATM    5  O1  UNL     1     -11.955 -15.507  25.120  1.00  0.00    -0.360 OA
HETATM    6  C19 UNL     1     -12.670 -14.961  24.030  1.00  0.00     0.171 C 
HETATM    7  C20 UNL     1     -11.842 -15.036  22.757  1.00  0.00     0.027 C 
HETATM    8  C21 UNL     1     -10.371 -14.655  22.925  1.00  0.00     0.012 C 
HETATM    9  C22 UNL     1     -10.154 -13.453  23.867  1.00  0.00     0.032 C 
HETATM   10  C23 UNL     1      -8.949 -12.611  23.396  1.00  0.00    -0.066 C 
HETATM   11  C24 UNL     1      -9.016 -11.647  22.441  1.00  0.00    -0.021 C 
HETATM   12  C25 UNL     1      -7.886 -10.733  22.039  1.00  0.00     0.052 C 
HETATM   13  C27 UNL     1      -7.649 -12.896  24.127  1.00  0.00     0.038 C 
HETATM   14  C28 UNL     1      -7.586 -14.314  24.673  1.00  0.00     0.042 C 
HETATM   15  C29 UNL     1      -8.717 -14.640  25.672  1.00  0.00     0.067 C 
HETATM   16  C30 UNL     1      -8.184 -14.514  27.113  1.00  0.00     0.047 C 
HETATM   17  O4  UNL     1     -12.171 -13.574  26.485  1.00  0.00    -0.351 OA
ENDROOT
BRANCH   1  18
HETATM   18  C14 UNL     1     -12.004 -11.363  27.507  1.00  0.00     0.011 C 
HETATM   19  C12 UNL     1     -12.717 -11.042  28.608  1.00  0.00    -0.063 C 
HETATM   20  C13 UNL     1     -13.027 -12.014  29.717  1.00  0.00     0.048 C 
BRANCH  19  21
HETATM   21  C11 UNL     1     -13.239  -9.679  28.729  1.00  0.00     0.006 C 
HETATM   22  C10 UNL     1     -12.548  -8.586  29.095  1.00  0.00     0.001 C 
BRANCH  22  23
HETATM   23  C9  UNL     1     -13.151  -7.270  29.175  1.00  0.00     0.002 C 
HETATM   24  C7  UNL     1     -12.870  -6.294  30.064  1.00  0.00    -0.084 C 
HETATM   25  C8  UNL     1     -11.859  -6.412  31.182  1.00  0.00     0.043 C 
BRANCH  24  26
HETATM   26  C6  UNL     1     -13.553  -4.929  30.056  1.00  0.00     0.037 C 
BRANCH  26  27
HETATM   27  C5  UNL     1     -15.088  -4.889  30.062  1.00  0.00     0.031 C 
BRANCH  27  28
HETATM   28  C4  UNL     1     -15.619  -4.025  28.948  1.00  0.00    -0.024 C 
HETATM   29  C2  UNL     1     -15.891  -4.391  27.680  1.00  0.00    -0.091 C 
HETATM   30  C1  UNL     1     -16.456  -3.399  26.698  1.00  0.00     0.042 C 
HETATM   31  C3  UNL     1     -15.660  -5.764  27.109  1.00  0.00     0.042 C 
ENDBRANCH  27  28
ENDBRANCH  26  27
ENDBRANCH  24  26
ENDBRANCH  22  23
ENDBRANCH  19  21
ENDBRANCH   1  18
BRANCH  15  32
HETATM   32  O3  UNL     1      -8.995 -16.040  25.507  1.00  0.00    -0.389 OA
HETATM   33  H44 UNL     1      -8.169 -16.545  25.608  1.00  0.00     0.210 HD
ENDBRANCH  15  32
BRANCH  11  34
HETATM   34  C26 UNL     1     -10.270 -11.380  21.665  1.00  0.00     0.265 C 
HETATM   35  O2  UNL     1     -11.158 -10.640  22.075  1.00  0.00    -0.302 OA
ENDBRANCH  11  34
TORSDOF 8
ENDMDL
MODEL 4
REMARK minimizedAffinity -7.28364944
REMARK  8 active torsions:
REMARK  status: ('A' for Active; 'I' for Inactive)
REMARK    1  A    between atoms: C4_4  and  C5_5 
REMARK    2  A    between atoms: C5_5  and  C6_6 
REMARK    3  A    between atoms: C6_6  and  C7_7 
REMARK    4  A    between atoms: C9_9  and  C10_10 
REMARK    5  A    between atoms: C11_11  and  C12_12 
REMARK    6  A    between atoms: C14_14  and  C15_15 
REMARK    7  A    between atoms: C24_25  and  C26_27 
REMARK    8  A    between atoms: C29_31  and  O3_33 
ROOT
HETATM    1  C15 UNL     1     -11.349 -12.693  27.201  1.00  0.00     0.149 C 
HETATM    2  C16 UNL     1     -10.163 -12.511  26.263  1.00  0.00     0.054 C 
HETATM    3  C17 UNL     1     -10.077 -13.844  25.447  1.00  0.00     0.050 C 
HETATM    4  C18 UNL     1     -11.323 -14.609  25.993  1.00  0.00     0.272 C 
HETATM    5  O1  UNL     1     -11.990 -15.530  25.145  1.00  0.00    -0.360 OA
HETATM    6  C19 UNL     1     -12.702 -14.969  24.061  1.00  0.00     0.171 C 
HETATM    7  C20 UNL     1     -11.873 -15.027  22.789  1.00  0.00     0.027 C 
HETATM    8  C21 UNL     1     -10.402 -14.648  22.964  1.00  0.00     0.012 C 
HETATM    9  C22 UNL     1     -10.187 -13.459  23.922  1.00  0.00     0.032 C 
HETATM   10  C23 UNL     1      -8.981 -12.610  23.465  1.00  0.00    -0.066 C 
HETATM   11  C24 UNL     1      -9.046 -11.634  22.522  1.00  0.00    -0.021 C 
HETATM   12  C25 UNL     1      -7.916 -10.715  22.134  1.00  0.00     0.052 C 
HETATM   13  C27 UNL     1      -7.682 -12.904  24.195  1.00  0.00     0.038 C 
HETATM   14  C28 UNL     1      -7.620 -14.329  24.722  1.00  0.00     0.042 C 
HETATM   15  C29 UNL     1      -8.753 -14.668  25.714  1.00  0.00     0.067 C 
HETATM   16  C30 UNL     1      -8.222 -14.562  27.158  1.00  0.00     0.047 C 
HETATM   17  O4  UNL     1     -12.209 -13.615  26.535  1.00  0.00    -0.351 OA
ENDROOT
BRANCH   1  18
HETATM   18  C14 UNL     1     -12.044 -11.417  27.586  1.00  0.00     0.011 C 
HETATM   19  C12 UNL     1     -12.735 -11.101  28.702  1.00  0.00    -0.063 C 
HETATM   20  C13 UNL     1     -13.014 -12.075  29.817  1.00  0.00     0.048 C 
BRANCH  19  21
HETATM   21  C11 UNL     1     -13.265  -9.742  28.835  1.00  0.00     0.006 C 
HETATM   22  C10 UNL     1     -12.548  -8.614  28.982  1.00  0.00     0.001 C 
BRANCH  22  23
HETATM   23  C9  UNL     1     -13.163  -7.306  29.094  1.00  0.00     0.002 C 
HETATM   24  C7  UNL     1     -12.890  -6.349  30.007  1.00  0.00    -0.084 C 
HETATM   25  C8  UNL     1     -11.877  -6.484  31.120  1.00  0.00     0.043 C 
BRANCH  24  26
HETATM   26  C6  UNL     1     -13.585  -4.990  30.031  1.00  0.00     0.037 C 
BRANCH  26  27
HETATM   27  C5  UNL     1     -14.988  -4.908  30.650  1.00  0.00     0.031 C 
BRANCH  27  28
HETATM   28  C4  UNL     1     -14.960  -4.204  31.982  1.00  0.00    -0.024 C 
HETATM   29  C2  UNL     1     -14.874  -4.761  33.206  1.00  0.00    -0.091 C 
HETATM   30  C1  UNL     1     -14.821  -3.900  34.440  1.00  0.00     0.042 C 
HETATM   31  C3  UNL     1     -14.837  -6.240  33.481  1.00  0.00     0.042 C 
ENDBRANCH  27  28
ENDBRANCH  26  27
ENDBRANCH  24  26
ENDBRANCH  22  23
ENDBRANCH  19  21
ENDBRANCH   1  18
BRANCH  15  32
HETATM   32  O3  UNL     1      -9.030 -16.067  25.531  1.00  0.00    -0.389 OA
HETATM   33  H44 UNL     1      -8.204 -16.573  25.627  1.00  0.00     0.210 HD
ENDBRANCH  15  32
BRANCH  11  34
HETATM   34  C26 UNL     1     -10.299 -11.358  21.747  1.00  0.00     0.265 C 
HETATM   35  O2  UNL     1     -11.223 -10.687  22.198  1.00  0.00    -0.302 OA
ENDBRANCH  11  34
TORSDOF 8
ENDMDL
MODEL 5
REMARK minimizedAffinity -7.24884653
REMARK  8 active torsions:
REMARK  status: ('A' for Active; 'I' for Inactive)
REMARK    1  A    between atoms: C4_4  and  C5_5 
REMARK    2  A    between atoms: C5_5  and  C6_6 
REMARK    3  A    between atoms: C6_6  and  C7_7 
REMARK    4  A    between atoms: C9_9  and  C10_10 
REMARK    5  A    between atoms: C11_11  and  C12_12 
REMARK    6  A    between atoms: C14_14  and  C15_15 
REMARK    7  A    between atoms: C24_25  and  C26_27 
REMARK    8  A    between atoms: C29_31  and  O3_33 
ROOT
HETATM    1  C15 UNL     1      17.693  -0.378  10.028  1.00  0.00     0.149 C 
HETATM    2  C16 UNL     1      16.769   0.596  10.747  1.00  0.00     0.054 C 
HETATM    3  C17 UNL     1      17.547   1.954  10.777  1.00  0.00     0.050 C 
HETATM    4  C18 UNL     1      18.830   1.581   9.970  1.00  0.00     0.272 C 
HETATM    5  O1  UNL     1      19.490   2.590   9.224  1.00  0.00    -0.360 OA
HETATM    6  C19 UNL     1      18.805   3.064   8.082  1.00  0.00     0.171 C 
HETATM    7  C20 UNL     1      18.067   4.354   8.399  1.00  0.00     0.027 C 
HETATM    8  C21 UNL     1      17.333   4.361   9.740  1.00  0.00     0.012 C 
HETATM    9  C22 UNL     1      16.636   3.023  10.062  1.00  0.00     0.032 C 
HETATM   10  C23 UNL     1      15.332   3.272  10.850  1.00  0.00    -0.066 C 
HETATM   11  C24 UNL     1      14.138   3.574  10.276  1.00  0.00    -0.021 C 
HETATM   12  C25 UNL     1      12.826   3.712  11.006  1.00  0.00     0.052 C 
HETATM   13  C27 UNL     1      15.454   3.101  12.354  1.00  0.00     0.038 C 
HETATM   14  C28 UNL     1      16.863   3.368  12.859  1.00  0.00     0.042 C 
HETATM   15  C29 UNL     1      17.926   2.437  12.236  1.00  0.00     0.067 C 
HETATM   16  C30 UNL     1      18.246   1.293  13.218  1.00  0.00     0.047 C 
HETATM   17  O4  UNL     1      18.491   0.434   9.171  1.00  0.00    -0.351 OA
ENDROOT
BRANCH   1  18
HETATM   18  C14 UNL     1      16.988  -1.486   9.297  1.00  0.00     0.011 C 
HETATM   19  C12 UNL     1      17.100  -2.825   9.423  1.00  0.00    -0.063 C 
HETATM   20  C13 UNL     1      18.084  -3.500  10.342  1.00  0.00     0.048 C 
BRANCH  19  21
HETATM   21  C11 UNL     1      16.234  -3.679   8.605  1.00  0.00     0.006 C 
HETATM   22  C10 UNL     1      15.791  -4.908   8.923  1.00  0.00     0.001 C 
BRANCH  22  23
HETATM   23  C9  UNL     1      14.923  -5.675   8.051  1.00  0.00     0.002 C 
HETATM   24  C7  UNL     1      13.574  -5.657   8.019  1.00  0.00    -0.084 C 
HETATM   25  C8  UNL     1      12.701  -4.822   8.927  1.00  0.00     0.043 C 
BRANCH  24  26
HETATM   26  C6  UNL     1      12.746  -6.495   7.047  1.00  0.00     0.037 C 
BRANCH  26  27
HETATM   27  C5  UNL     1      11.923  -5.759   5.980  1.00  0.00     0.031 C 
BRANCH  27  28
HETATM   28  C4  UNL     1      12.613  -5.781   4.641  1.00  0.00    -0.024 C 
HETATM   29  C2  UNL     1      12.654  -4.799   3.720  1.00  0.00    -0.091 C 
HETATM   30  C1  UNL     1      13.427  -4.978   2.440  1.00  0.00     0.042 C 
HETATM   31  C3  UNL     1      11.955  -3.472   3.840  1.00  0.00     0.042 C 
ENDBRANCH  27  28
ENDBRANCH  26  27
ENDBRANCH  24  26
ENDBRANCH  22  23
ENDBRANCH  19  21
ENDBRANCH   1  18
BRANCH  15  32
HETATM   32  O3  UNL     1      19.136   3.210  12.171  1.00  0.00    -0.389 OA
HETATM   33  H44 UNL     1      19.336   3.568  13.054  1.00  0.00     0.210 HD
ENDBRANCH  15  32
BRANCH  11  34
HETATM   34  C26 UNL     1      13.998   3.802   8.801  1.00  0.00     0.265 C 
HETATM   35  O2  UNL     1      13.187   3.192   8.111  1.00  0.00    -0.302 OA
ENDBRANCH  11  34
TORSDOF 8
ENDMDL
MODEL 6
REMARK minimizedAffinity -7.2130537
REMARK  8 active torsions:
REMARK  status: ('A' for Active; 'I' for Inactive)
REMARK    1  A    between atoms: C4_4  and  C5_5 
REMARK    2  A    between atoms: C5_5  and  C6_6 
REMARK    3  A    between atoms: C6_6  and  C7_7 
REMARK    4  A    between atoms: C9_9  and  C10_10 
REMARK    5  A    between atoms: C11_11  and  C12_12 
REMARK    6  A    between atoms: C14_14  and  C15_15 
REMARK    7  A    between atoms: C24_25  and  C26_27 
REMARK    8  A    between atoms: C29_31  and  O3_33 
ROOT
HETATM    1  C15 UNL     1      15.481  -5.026   8.817  1.00  0.00     0.149 C 
HETATM    2  C16 UNL     1      15.422  -5.146   7.299  1.00  0.00     0.054 C 
HETATM    3  C17 UNL     1      14.209  -6.093   7.010  1.00  0.00     0.050 C 
HETATM    4  C18 UNL     1      13.667  -6.335   8.454  1.00  0.00     0.272 C 
HETATM    5  O1  UNL     1      12.283  -6.584   8.636  1.00  0.00    -0.360 OA
HETATM    6  C19 UNL     1      11.421  -5.489   8.402  1.00  0.00     0.171 C 
HETATM    7  C20 UNL     1      10.832  -5.562   7.003  1.00  0.00     0.027 C 
HETATM    8  C21 UNL     1      11.826  -5.948   5.908  1.00  0.00     0.012 C 
HETATM    9  C22 UNL     1      13.213  -5.297   6.084  1.00  0.00     0.032 C 
HETATM   10  C23 UNL     1      13.842  -4.992   4.707  1.00  0.00    -0.066 C 
HETATM   11  C24 UNL     1      13.585  -3.873   3.980  1.00  0.00    -0.021 C 
HETATM   12  C25 UNL     1      14.265  -3.493   2.690  1.00  0.00     0.052 C 
HETATM   13  C27 UNL     1      14.842  -6.025   4.221  1.00  0.00     0.038 C 
HETATM   14  C28 UNL     1      14.572  -7.410   4.789  1.00  0.00     0.042 C 
HETATM   15  C29 UNL     1      14.621  -7.463   6.331  1.00  0.00     0.067 C 
HETATM   16  C30 UNL     1      15.989  -8.007   6.785  1.00  0.00     0.047 C 
HETATM   17  O4  UNL     1      14.142  -5.241   9.257  1.00  0.00    -0.351 OA
ENDROOT
BRANCH   1  18
HETATM   18  C14 UNL     1      16.064  -3.736   9.320  1.00  0.00     0.011 C 
HETATM   19  C12 UNL     1      17.352  -3.352   9.452  1.00  0.00    -0.063 C 
HETATM   20  C13 UNL     1      18.526  -4.248   9.160  1.00  0.00     0.048 C 
BRANCH  19  21
HETATM   21  C11 UNL     1      17.630  -1.993   9.924  1.00  0.00     0.006 C 
HETATM   22  C10 UNL     1      16.988  -0.870   9.558  1.00  0.00     0.001 C 
BRANCH  22  23
HETATM   23  C9  UNL     1      17.328   0.434  10.091  1.00  0.00     0.002 C 
HETATM   24  C7  UNL     1      16.543   1.246  10.829  1.00  0.00    -0.084 C 
HETATM   25  C8  UNL     1      15.118   0.938  11.227  1.00  0.00     0.043 C 
BRANCH  24  26
HETATM   26  C6  UNL     1      17.002   2.602  11.361  1.00  0.00     0.037 C 
BRANCH  26  27
HETATM   27  C5  UNL     1      17.269   3.722  10.345  1.00  0.00     0.031 C 
BRANCH  27  28
HETATM   28  C4  UNL     1      16.213   3.754   9.271  1.00  0.00    -0.024 C 
HETATM   29  C2  UNL     1      15.004   4.346   9.324  1.00  0.00    -0.091 C 
HETATM   30  C1  UNL     1      14.080   4.311   8.135  1.00  0.00     0.042 C 
HETATM   31  C3  UNL     1      14.445   5.067  10.520  1.00  0.00     0.042 C 
ENDBRANCH  27  28
ENDBRANCH  26  27
ENDBRANCH  24  26
ENDBRANCH  22  23
ENDBRANCH  19  21
ENDBRANCH   1  18
BRANCH  15  32
HETATM   32  O3  UNL     1      13.678  -8.476   6.719  1.00  0.00    -0.389 OA
HETATM   33  H44 UNL     1      13.886  -9.304   6.251  1.00  0.00     0.210 HD
ENDBRANCH  15  32
BRANCH  11  34
HETATM   34  C26 UNL     1      12.564  -2.862   4.408  1.00  0.00     0.265 C 
HETATM   35  O2  UNL     1      12.862  -1.717   4.733  1.00  0.00    -0.302 OA
ENDBRANCH  11  34
TORSDOF 8
ENDMDL
MODEL 7
REMARK minimizedAffinity -7.17892408
REMARK  8 active torsions:
REMARK  status: ('A' for Active; 'I' for Inactive)
REMARK    1  A    between atoms: C4_4  and  C5_5 
REMARK    2  A    between atoms: C5_5  and  C6_6 
REMARK    3  A    between atoms: C6_6  and  C7_7 
REMARK    4  A    between atoms: C9_9  and  C10_10 
REMARK    5  A    between atoms: C11_11  and  C12_12 
REMARK    6  A    between atoms: C14_14  and  C15_15 
REMARK    7  A    between atoms: C24_25  and  C26_27 
REMARK    8  A    between atoms: C29_31  and  O3_33 
ROOT
HETATM    1  C15 UNL     1      -1.862  10.762  14.834  1.00  0.00     0.149 C 
HETATM    2  C16 UNL     1      -2.247  11.337  16.191  1.00  0.00     0.054 C 
HETATM    3  C17 UNL     1      -1.709  12.807  16.180  1.00  0.00     0.050 C 
HETATM    4  C18 UNL     1      -1.136  12.906  14.732  1.00  0.00     0.272 C 
HETATM    5  O1  UNL     1      -1.129  14.164  14.079  1.00  0.00    -0.360 OA
HETATM    6  C19 UNL     1      -2.393  14.676  13.707  1.00  0.00     0.171 C 
HETATM    7  C20 UNL     1      -2.892  15.673  14.739  1.00  0.00     0.027 C 
HETATM    8  C21 UNL     1      -2.681  15.251  16.193  1.00  0.00     0.012 C 
HETATM    9  C22 UNL     1      -2.944  13.751  16.439  1.00  0.00     0.032 C 
HETATM   10  C23 UNL     1      -3.537  13.534  17.848  1.00  0.00    -0.066 C 
HETATM   11  C24 UNL     1      -4.857  13.653  18.149  1.00  0.00    -0.021 C 
HETATM   12  C25 UNL     1      -5.481  13.339  19.485  1.00  0.00     0.052 C 
HETATM   13  C27 UNL     1      -2.531  13.111  18.904  1.00  0.00     0.038 C 
HETATM   14  C28 UNL     1      -1.123  13.597  18.596  1.00  0.00     0.042 C 
HETATM   15  C29 UNL     1      -0.574  13.077  17.250  1.00  0.00     0.067 C 
HETATM   16  C30 UNL     1       0.354  11.872  17.504  1.00  0.00     0.047 C 
HETATM   17  O4  UNL     1      -1.796  11.887  13.961  1.00  0.00    -0.351 OA
ENDROOT
BRANCH   1  18
HETATM   18  C14 UNL     1      -2.778   9.682  14.330  1.00  0.00     0.011 C 
HETATM   19  C12 UNL     1      -2.668   8.877  13.251  1.00  0.00    -0.063 C 
HETATM   20  C13 UNL     1      -1.555   8.978  12.242  1.00  0.00     0.048 C 
BRANCH  19  21
HETATM   21  C11 UNL     1      -3.699   7.860  13.032  1.00  0.00     0.006 C 
HETATM   22  C10 UNL     1      -3.678   6.590  13.474  1.00  0.00     0.001 C 
BRANCH  22  23
HETATM   23  C9  UNL     1      -4.755   5.654  13.216  1.00  0.00     0.002 C 
HETATM   24  C7  UNL     1      -4.677   4.480  12.555  1.00  0.00    -0.084 C 
HETATM   25  C8  UNL     1      -3.418   3.925  11.931  1.00  0.00     0.043 C 
BRANCH  24  26
HETATM   26  C6  UNL     1      -5.872   3.552  12.349  1.00  0.00     0.037 C 
BRANCH  26  27
HETATM   27  C5  UNL     1      -6.995   3.579  13.395  1.00  0.00     0.031 C 
BRANCH  27  28
HETATM   28  C4  UNL     1      -8.143   4.446  12.947  1.00  0.00    -0.024 C 
HETATM   29  C2  UNL     1      -8.556   5.609  13.488  1.00  0.00    -0.091 C 
HETATM   30  C1  UNL     1      -9.708   6.370  12.886  1.00  0.00     0.042 C 
HETATM   31  C3  UNL     1      -7.959   6.255  14.709  1.00  0.00     0.042 C 
ENDBRANCH  27  28
ENDBRANCH  26  27
ENDBRANCH  24  26
ENDBRANCH  22  23
ENDBRANCH  19  21
ENDBRANCH   1  18
BRANCH  15  32
HETATM   32  O3  UNL     1       0.296  14.108  16.756  1.00  0.00    -0.389 OA
HETATM   33  H44 UNL     1       0.955  14.326  17.438  1.00  0.00     0.210 HD
ENDBRANCH  15  32
BRANCH  11  34
HETATM   34  C26 UNL     1      -5.865  14.120  17.143  1.00  0.00     0.265 C 
HETATM   35  O2  UNL     1      -6.884  13.488  16.883  1.00  0.00    -0.302 OA
ENDBRANCH  11  34
TORSDOF 8
ENDMDL
MODEL 8
REMARK minimizedAffinity -7.14613104
REMARK  8 active torsions:
REMARK  status: ('A' for Active; 'I' for Inactive)
REMARK    1  A    between atoms: C4_4  and  C5_5 
REMARK    2  A    between atoms: C5_5  and  C6_6 
REMARK    3  A    between atoms: C6_6  and  C7_7 
REMARK    4  A    between atoms: C9_9  and  C10_10 
REMARK    5  A    between atoms: C11_11  and  C12_12 
REMARK    6  A    between atoms: C14_14  and  C15_15 
REMARK    7  A    between atoms: C24_25  and  C26_27 
REMARK    8  A    between atoms: C29_31  and  O3_33 
ROOT
HETATM    1  C15 UNL     1     -13.965   4.988  23.969  1.00  0.00     0.149 C 
HETATM    2  C16 UNL     1     -14.703   4.831  25.292  1.00  0.00     0.054 C 
HETATM    3  C17 UNL     1     -14.630   3.302  25.623  1.00  0.00     0.050 C 
HETATM    4  C18 UNL     1     -13.757   2.781  24.438  1.00  0.00     0.272 C 
HETATM    5  O1  UNL     1     -12.931   1.647  24.640  1.00  0.00    -0.360 OA
HETATM    6  C19 UNL     1     -11.818   1.834  25.491  1.00  0.00     0.171 C 
HETATM    7  C20 UNL     1     -12.131   1.347  26.896  1.00  0.00     0.027 C 
HETATM    8  C21 UNL     1     -13.515   1.735  27.417  1.00  0.00     0.012 C 
HETATM    9  C22 UNL     1     -13.934   3.169  27.031  1.00  0.00     0.032 C 
HETATM   10  C23 UNL     1     -14.793   3.798  28.149  1.00  0.00    -0.066 C 
HETATM   11  C24 UNL     1     -14.285   4.412  29.249  1.00  0.00    -0.021 C 
HETATM   12  C25 UNL     1     -15.092   5.132  30.299  1.00  0.00     0.052 C 
HETATM   13  C27 UNL     1     -16.291   3.735  27.912  1.00  0.00     0.038 C 
HETATM   14  C28 UNL     1     -16.694   2.560  27.033  1.00  0.00     0.042 C 
HETATM   15  C29 UNL     1     -16.041   2.586  25.634  1.00  0.00     0.067 C 
HETATM   16  C30 UNL     1     -17.045   3.150  24.609  1.00  0.00     0.047 C 
HETATM   17  O4  UNL     1     -13.027   3.915  23.939  1.00  0.00    -0.351 OA
ENDROOT
BRANCH   1  18
HETATM   18  C14 UNL     1     -13.324   6.333  23.766  1.00  0.00     0.011 C 
HETATM   19  C12 UNL     1     -13.249   7.106  22.662  1.00  0.00    -0.063 C 
HETATM   20  C13 UNL     1     -13.774   6.692  21.312  1.00  0.00     0.048 C 
BRANCH  19  21
HETATM   21  C11 UNL     1     -12.602   8.416  22.770  1.00  0.00     0.006 C 
HETATM   22  C10 UNL     1     -11.438   8.686  23.387  1.00  0.00     0.001 C 
BRANCH  22  23
HETATM   23  C9  UNL     1     -10.868  10.018  23.433  1.00  0.00     0.002 C 
HETATM   24  C7  UNL     1     -10.700  10.871  22.401  1.00  0.00    -0.084 C 
HETATM   25  C8  UNL     1     -11.071  10.572  20.967  1.00  0.00     0.043 C 
BRANCH  24  26
HETATM   26  C6  UNL     1     -10.101  12.267  22.555  1.00  0.00     0.037 C 
BRANCH  26  27
HETATM   27  C5  UNL     1      -9.569  12.967  21.296  1.00  0.00     0.031 C 
BRANCH  27  28
HETATM   28  C4  UNL     1      -8.063  13.021  21.292  1.00  0.00    -0.024 C 
HETATM   29  C2  UNL     1      -7.250  13.388  22.302  1.00  0.00    -0.091 C 
HETATM   30  C1  UNL     1      -5.754  13.348  22.137  1.00  0.00     0.042 C 
HETATM   31  C3  UNL     1      -7.711  13.874  23.649  1.00  0.00     0.042 C 
ENDBRANCH  27  28
ENDBRANCH  26  27
ENDBRANCH  24  26
ENDBRANCH  22  23
ENDBRANCH  19  21
ENDBRANCH   1  18
BRANCH  15  32
HETATM   32  O3  UNL     1     -15.869   1.211  25.256  1.00  0.00    -0.389 OA
HETATM   33  H44 UNL     1     -16.722   0.748  25.328  1.00  0.00     0.210 HD
ENDBRANCH  15  32
BRANCH  11  34
HETATM   34  C26 UNL     1     -12.815   4.443  29.537  1.00  0.00     0.265 C 
HETATM   35  O2  UNL     1     -12.301   3.777  30.431  1.00  0.00    -0.302 OA
ENDBRANCH  11  34
TORSDOF 8
ENDMDL
MODEL 9
REMARK minimizedAffinity -7.10493279
REMARK  8 active torsions:
REMARK  status: ('A' for Active; 'I' for Inactive)
REMARK    1  A    between atoms: C4_4  and  C5_5 
REMARK    2  A    between atoms: C5_5  and  C6_6 
REMARK    3  A    between atoms: C6_6  and  C7_7 
REMARK    4  A    between atoms: C9_9  and  C10_10 
REMARK    5  A    between atoms: C11_11  and  C12_12 
REMARK    6  A    between atoms: C14_14  and  C15_15 
REMARK    7  A    between atoms: C24_25  and  C26_27 
REMARK    8  A    between atoms: C29_31  and  O3_33 
ROOT
HETATM    1  C15 UNL     1     -12.756   7.834  14.432  1.00  0.00     0.149 C 
HETATM    2  C16 UNL     1     -13.805   7.140  15.290  1.00  0.00     0.054 C 
HETATM    3  C17 UNL     1     -15.168   7.792  14.879  1.00  0.00     0.050 C 
HETATM    4  C18 UNL     1     -14.708   8.753  13.739  1.00  0.00     0.272 C 
HETATM    5  O1  UNL     1     -15.611   9.058  12.690  1.00  0.00    -0.360 OA
HETATM    6  C19 UNL     1     -15.903   8.001  11.798  1.00  0.00     0.171 C 
HETATM    7  C20 UNL     1     -17.211   7.327  12.177  1.00  0.00     0.027 C 
HETATM    8  C21 UNL     1     -17.397   7.084  13.675  1.00  0.00     0.012 C 
HETATM    9  C22 UNL     1     -16.106   6.625  14.385  1.00  0.00     0.032 C 
HETATM   10  C23 UNL     1     -16.441   5.644  15.530  1.00  0.00    -0.066 C 
HETATM   11  C24 UNL     1     -16.634   4.310  15.361  1.00  0.00    -0.021 C 
HETATM   12  C25 UNL     1     -16.850   3.311  16.469  1.00  0.00     0.052 C 
HETATM   13  C27 UNL     1     -16.490   6.272  16.911  1.00  0.00     0.038 C 
HETATM   14  C28 UNL     1     -16.854   7.749  16.868  1.00  0.00     0.042 C 
HETATM   15  C29 UNL     1     -15.863   8.602  16.047  1.00  0.00     0.067 C 
HETATM   16  C30 UNL     1     -14.878   9.308  17.001  1.00  0.00     0.047 C 
HETATM   17  O4  UNL     1     -13.452   8.244  13.257  1.00  0.00    -0.351 OA
ENDROOT
BRANCH   1  18
HETATM   18  C14 UNL     1     -11.541   7.001  14.133  1.00  0.00     0.011 C 
HETATM   19  C12 UNL     1     -10.239   7.223  14.413  1.00  0.00    -0.063 C 
HETATM   20  C13 UNL     1      -9.726   8.480  15.065  1.00  0.00     0.048 C 
BRANCH  19  21
HETATM   21  C11 UNL     1      -9.261   6.196  14.047  1.00  0.00     0.006 C 
HETATM   22  C10 UNL     1      -8.869   5.871  12.802  1.00  0.00     0.001 C 
BRANCH  22  23
HETATM   23  C9  UNL     1      -7.882   4.843  12.537  1.00  0.00     0.002 C 
HETATM   24  C7  UNL     1      -6.570   4.867  12.856  1.00  0.00    -0.084 C 
HETATM   25  C8  UNL     1      -5.874   6.014  13.550  1.00  0.00     0.043 C 
BRANCH  24  26
HETATM   26  C6  UNL     1      -5.610   3.721  12.547  1.00  0.00     0.037 C 
BRANCH  26  27
HETATM   27  C5  UNL     1      -4.106   4.029  12.513  1.00  0.00     0.031 C 
BRANCH  27  28
HETATM   28  C4  UNL     1      -3.317   2.858  11.988  1.00  0.00    -0.024 C 
HETATM   29  C2  UNL     1      -2.107   2.879  11.397  1.00  0.00    -0.091 C 
HETATM   30  C1  UNL     1      -1.442   1.600  10.962  1.00  0.00     0.042 C 
HETATM   31  C3  UNL     1      -1.313   4.122  11.099  1.00  0.00     0.042 C 
ENDBRANCH  27  28
ENDBRANCH  26  27
ENDBRANCH  24  26
ENDBRANCH  22  23
ENDBRANCH  19  21
ENDBRANCH   1  18
BRANCH  15  32
HETATM   32  O3  UNL     1     -16.642   9.666  15.476  1.00  0.00    -0.389 OA
HETATM   33  H44 UNL     1     -17.126  10.126  16.185  1.00  0.00     0.210 HD
ENDBRANCH  15  32
BRANCH  11  34
HETATM   34  C26 UNL     1     -16.644   3.671  14.005  1.00  0.00     0.265 C 
HETATM   35  O2  UNL     1     -16.717   2.457  13.846  1.00  0.00    -0.302 OA
ENDBRANCH  11  34
TORSDOF 8
ENDMDL
