MODEL 1
REMARK minimizedAffinity -9.65452576
REMARK  4 active torsions:
REMARK  status: ('A' for Active; 'I' for Inactive)
REMARK    1  A    between atoms: C4_4  and  C5_5 
REMARK    2  A    between atoms: C5_5  and  C6_6 
REMARK    3  A    between atoms: C6_6  and  C7_7 
REMARK    4  A    between atoms: C7_7  and  C9_9 
ROOT
HETATM    1  C9  UNL     1      -0.671  52.466 -21.721  1.00  0.00    -0.002 C 
HETATM    2  C10 UNL     1       0.089  52.127 -23.032  1.00  0.00     0.006 C 
HETATM    3  C11 UNL     1      -0.763  51.115 -23.813  1.00  0.00     0.011 C 
HETATM    4  C12 UNL     1      -2.124  51.081 -23.091  1.00  0.00    -0.032 C 
HETATM    5  C13 UNL     1      -2.980  52.248 -23.679  1.00  0.00     0.016 C 
HETATM    6  C14 UNL     1      -2.886  49.736 -23.227  1.00  0.00     0.004 C 
HETATM    7  C15 UNL     1      -3.291  49.405 -24.677  1.00  0.00     0.007 C 
HETATM    8  C16 UNL     1      -4.791  49.302 -24.928  1.00  0.00     0.007 C 
HETATM    9  C17 UNL     1      -5.395  48.240 -23.991  1.00  0.00     0.010 C 
HETATM   10  C18 UNL     1      -6.825  47.754 -24.395  1.00  0.00     0.018 C 
HETATM   11  C19 UNL     1      -7.150  46.416 -23.694  1.00  0.00     0.023 C 
HETATM   12  C20 UNL     1      -6.939  47.494 -25.913  1.00  0.00     0.023 C 
HETATM   13  C21 UNL     1      -7.898  48.776 -24.006  1.00  0.00     0.135 C 
HETATM   14  O1  UNL     1      -8.996  48.814 -24.568  1.00  0.00    -0.297 OA
HETATM   15  C22 UNL     1      -7.582  49.763 -22.910  1.00  0.00     0.080 C 
HETATM   16  C23 UNL     1      -6.635  49.139 -21.908  1.00  0.00     0.018 C 
HETATM   17  C24 UNL     1      -5.302  48.788 -22.553  1.00  0.00    -0.026 A 
HETATM   18  C25 UNL     1      -4.255  48.188 -21.649  1.00  0.00     0.021 A 
HETATM   19  C26 UNL     1      -4.021  49.594 -22.175  1.00  0.00    -0.027 A 
HETATM   20  C27 UNL     1      -4.173  50.731 -21.149  1.00  0.00     0.011 C 
HETATM   21  C28 UNL     1      -2.940  51.566 -20.767  1.00  0.00     0.011 C 
HETATM   22  C29 UNL     1      -1.687  51.284 -21.596  1.00  0.00    -0.032 C 
HETATM   23  C30 UNL     1      -0.972  50.049 -20.970  1.00  0.00     0.016 C 
ENDROOT
BRANCH   1  24
HETATM   24  C7  UNL     1       0.296  52.786 -20.546  1.00  0.00    -0.014 C 
HETATM   25  C8  UNL     1       1.719  53.097 -21.024  1.00  0.00     0.010 C 
BRANCH  24  26
HETATM   26  C6  UNL     1       0.338  51.665 -19.472  1.00  0.00     0.008 C 
BRANCH  26  27
HETATM   27  C5  UNL     1       0.338  52.151 -18.018  1.00  0.00     0.028 C 
BRANCH  27  28
HETATM   28  C4  UNL     1       1.727  52.528 -17.579  1.00  0.00    -0.025 C 
HETATM   29  C2  UNL     1       2.341  52.205 -16.424  1.00  0.00    -0.091 C 
HETATM   30  C1  UNL     1       3.734  52.699 -16.131  1.00  0.00     0.042 C 
HETATM   31  C3  UNL     1       1.750  51.343 -15.342  1.00  0.00     0.042 C 
ENDBRANCH  27  28
ENDBRANCH  26  27
ENDBRANCH  24  26
ENDBRANCH   1  24
TORSDOF 4
ENDMDL
MODEL 2
REMARK minimizedAffinity -9.11676884
REMARK  4 active torsions:
REMARK  status: ('A' for Active; 'I' for Inactive)
REMARK    1  A    between atoms: C4_4  and  C5_5 
REMARK    2  A    between atoms: C5_5  and  C6_6 
REMARK    3  A    between atoms: C6_6  and  C7_7 
REMARK    4  A    between atoms: C7_7  and  C9_9 
ROOT
HETATM    1  C9  UNL     1      -1.122  49.063 -18.103  1.00  0.00    -0.002 C 
HETATM    2  C10 UNL     1      -2.199  47.955 -18.245  1.00  0.00     0.006 C 
HETATM    3  C11 UNL     1      -2.782  48.052 -19.663  1.00  0.00     0.011 C 
HETATM    4  C12 UNL     1      -1.859  49.028 -20.419  1.00  0.00    -0.032 C 
HETATM    5  C13 UNL     1      -0.665  48.187 -20.974  1.00  0.00     0.016 C 
HETATM    6  C14 UNL     1      -2.553  49.800 -21.573  1.00  0.00     0.004 C 
HETATM    7  C15 UNL     1      -3.045  48.885 -22.713  1.00  0.00     0.007 C 
HETATM    8  C16 UNL     1      -2.402  49.135 -24.072  1.00  0.00     0.007 C 
HETATM    9  C17 UNL     1      -2.626  50.601 -24.483  1.00  0.00     0.010 C 
HETATM   10  C18 UNL     1      -2.371  50.899 -25.996  1.00  0.00     0.018 C 
HETATM   11  C19 UNL     1      -3.034  52.236 -26.396  1.00  0.00     0.023 C 
HETATM   12  C20 UNL     1      -2.983  49.815 -26.910  1.00  0.00     0.023 C 
HETATM   13  C21 UNL     1      -0.873  50.991 -26.306  1.00  0.00     0.135 C 
HETATM   14  O1  UNL     1      -0.430  50.806 -27.443  1.00  0.00    -0.297 OA
HETATM   15  C22 UNL     1       0.073  51.308 -25.176  1.00  0.00     0.080 C 
HETATM   16  C23 UNL     1      -0.614  52.190 -24.156  1.00  0.00     0.018 C 
HETATM   17  C24 UNL     1      -1.801  51.480 -23.523  1.00  0.00    -0.026 A 
HETATM   18  C25 UNL     1      -2.553  52.243 -22.462  1.00  0.00     0.021 A 
HETATM   19  C26 UNL     1      -1.734  51.040 -22.027  1.00  0.00    -0.027 A 
HETATM   20  C27 UNL     1      -0.440  51.348 -21.252  1.00  0.00     0.011 C 
HETATM   21  C28 UNL     1      -0.324  50.910 -19.784  1.00  0.00     0.011 C 
HETATM   22  C29 UNL     1      -1.471  50.036 -19.277  1.00  0.00    -0.032 C 
HETATM   23  C30 UNL     1      -2.632  50.980 -18.843  1.00  0.00     0.016 C 
ENDROOT
BRANCH   1  24
HETATM   24  C7  UNL     1      -1.024  49.607 -16.650  1.00  0.00    -0.014 C 
HETATM   25  C8  UNL     1      -2.365  49.546 -15.908  1.00  0.00     0.010 C 
BRANCH  24  26
HETATM   26  C6  UNL     1      -0.449  51.048 -16.578  1.00  0.00     0.008 C 
BRANCH  26  27
HETATM   27  C5  UNL     1       0.562  51.295 -15.452  1.00  0.00     0.028 C 
BRANCH  27  28
HETATM   28  C4  UNL     1       1.826  51.907 -15.993  1.00  0.00    -0.025 C 
HETATM   29  C2  UNL     1       3.067  51.824 -15.475  1.00  0.00    -0.091 C 
HETATM   30  C1  UNL     1       4.223  52.531 -16.134  1.00  0.00     0.042 C 
HETATM   31  C3  UNL     1       3.441  51.042 -14.245  1.00  0.00     0.042 C 
ENDBRANCH  27  28
ENDBRANCH  26  27
ENDBRANCH  24  26
ENDBRANCH   1  24
TORSDOF 4
ENDMDL
MODEL 3
REMARK minimizedAffinity -9.04202271
REMARK  4 active torsions:
REMARK  status: ('A' for Active; 'I' for Inactive)
REMARK    1  A    between atoms: C4_4  and  C5_5 
REMARK    2  A    between atoms: C5_5  and  C6_6 
REMARK    3  A    between atoms: C6_6  and  C7_7 
REMARK    4  A    between atoms: C7_7  and  C9_9 
ROOT
HETATM    1  C9  UNL     1      -1.552  50.699 -23.117  1.00  0.00    -0.002 C 
HETATM    2  C10 UNL     1      -0.914  52.106 -23.261  1.00  0.00     0.006 C 
HETATM    3  C11 UNL     1      -0.524  52.586 -21.855  1.00  0.00     0.011 C 
HETATM    4  C12 UNL     1      -0.686  51.355 -20.943  1.00  0.00    -0.032 C 
HETATM    5  C13 UNL     1       0.647  50.546 -21.029  1.00  0.00     0.016 C 
HETATM    6  C14 UNL     1      -1.012  51.694 -19.464  1.00  0.00     0.004 C 
HETATM    7  C15 UNL     1       0.114  52.468 -18.750  1.00  0.00     0.007 C 
HETATM    8  C16 UNL     1       0.742  51.755 -17.559  1.00  0.00     0.007 C 
HETATM    9  C17 UNL     1      -0.351  51.414 -16.531  1.00  0.00     0.010 C 
HETATM   10  C18 UNL     1       0.183  51.039 -15.110  1.00  0.00     0.018 C 
HETATM   11  C19 UNL     1      -0.949  51.154 -14.066  1.00  0.00     0.023 C 
HETATM   12  C20 UNL     1       1.307  51.992 -14.647  1.00  0.00     0.023 C 
HETATM   13  C21 UNL     1       0.730  49.608 -15.075  1.00  0.00     0.135 C 
HETATM   14  O1  UNL     1       1.550  49.244 -14.228  1.00  0.00    -0.297 OA
HETATM   15  C22 UNL     1       0.246  48.632 -16.118  1.00  0.00     0.080 C 
HETATM   16  C23 UNL     1      -1.174  48.963 -16.520  1.00  0.00     0.018 C 
HETATM   17  C24 UNL     1      -1.259  50.340 -17.162  1.00  0.00    -0.026 A 
HETATM   18  C25 UNL     1      -2.621  50.776 -17.639  1.00  0.00     0.021 A 
HETATM   19  C26 UNL     1      -1.566  50.468 -18.687  1.00  0.00    -0.027 A 
HETATM   20  C27 UNL     1      -1.766  49.165 -19.483  1.00  0.00     0.011 C 
HETATM   21  C28 UNL     1      -2.046  49.245 -20.992  1.00  0.00     0.011 C 
HETATM   22  C29 UNL     1      -1.924  50.643 -21.599  1.00  0.00    -0.032 C 
HETATM   23  C30 UNL     1      -3.277  51.381 -21.368  1.00  0.00     0.016 C 
ENDROOT
BRANCH   1  24
HETATM   24  C7  UNL     1      -2.642  50.433 -24.193  1.00  0.00    -0.014 C 
HETATM   25  C8  UNL     1      -2.843  48.938 -24.470  1.00  0.00     0.010 C 
BRANCH  24  26
HETATM   26  C6  UNL     1      -2.374  51.181 -25.527  1.00  0.00     0.008 C 
BRANCH  26  27
HETATM   27  C5  UNL     1      -1.491  50.433 -26.532  1.00  0.00     0.028 C 
BRANCH  27  28
HETATM   28  C4  UNL     1      -0.033  50.660 -26.237  1.00  0.00    -0.025 C 
HETATM   29  C2  UNL     1       0.867  51.318 -26.993  1.00  0.00    -0.091 C 
HETATM   30  C1  UNL     1       2.306  51.423 -26.558  1.00  0.00     0.042 C 
HETATM   31  C3  UNL     1       0.563  52.011 -28.293  1.00  0.00     0.042 C 
ENDBRANCH  27  28
ENDBRANCH  26  27
ENDBRANCH  24  26
ENDBRANCH   1  24
TORSDOF 4
ENDMDL
MODEL 4
REMARK minimizedAffinity -9.01971626
REMARK  4 active torsions:
REMARK  status: ('A' for Active; 'I' for Inactive)
REMARK    1  A    between atoms: C4_4  and  C5_5 
REMARK    2  A    between atoms: C5_5  and  C6_6 
REMARK    3  A    between atoms: C6_6  and  C7_7 
REMARK    4  A    between atoms: C7_7  and  C9_9 
ROOT
HETATM    1  C9  UNL     1      -0.682  50.723 -21.586  1.00  0.00    -0.002 C 
HETATM    2  C10 UNL     1      -0.145  49.391 -20.998  1.00  0.00     0.006 C 
HETATM    3  C11 UNL     1      -1.347  48.458 -20.790  1.00  0.00     0.011 C 
HETATM    4  C12 UNL     1      -2.527  49.143 -21.505  1.00  0.00    -0.032 C 
HETATM    5  C13 UNL     1      -2.461  48.714 -23.006  1.00  0.00     0.016 C 
HETATM    6  C14 UNL     1      -3.919  48.802 -20.911  1.00  0.00     0.004 C 
HETATM    7  C15 UNL     1      -4.294  47.312 -21.044  1.00  0.00     0.007 C 
HETATM    8  C16 UNL     1      -5.528  47.023 -21.889  1.00  0.00     0.007 C 
HETATM    9  C17 UNL     1      -6.735  47.786 -21.313  1.00  0.00     0.010 C 
HETATM   10  C18 UNL     1      -8.125  47.292 -21.828  1.00  0.00     0.018 C 
HETATM   11  C19 UNL     1      -9.248  47.787 -20.891  1.00  0.00     0.023 C 
HETATM   12  C20 UNL     1      -8.217  45.750 -21.850  1.00  0.00     0.023 C 
HETATM   13  C21 UNL     1      -8.415  47.805 -23.243  1.00  0.00     0.135 C 
HETATM   14  O1  UNL     1      -9.214  47.235 -23.992  1.00  0.00    -0.297 OA
HETATM   15  C22 UNL     1      -7.688  49.037 -23.721  1.00  0.00     0.080 C 
HETATM   16  C23 UNL     1      -7.402  49.955 -22.553  1.00  0.00     0.018 C 
HETATM   17  C24 UNL     1      -6.480  49.290 -21.541  1.00  0.00    -0.026 A 
HETATM   18  C25 UNL     1      -6.089  50.116 -20.342  1.00  0.00     0.021 A 
HETATM   19  C26 UNL     1      -5.016  49.802 -21.370  1.00  0.00    -0.027 A 
HETATM   20  C27 UNL     1      -4.567  50.978 -22.257  1.00  0.00     0.011 C 
HETATM   21  C28 UNL     1      -3.125  51.498 -22.137  1.00  0.00     0.011 C 
HETATM   22  C29 UNL     1      -2.207  50.660 -21.247  1.00  0.00    -0.032 C 
HETATM   23  C30 UNL     1      -2.431  51.114 -19.773  1.00  0.00     0.016 C 
ENDROOT
BRANCH   1  24
HETATM   24  C7  UNL     1       0.162  51.949 -21.136  1.00  0.00    -0.014 C 
HETATM   25  C8  UNL     1      -0.460  52.685 -19.943  1.00  0.00     0.010 C 
BRANCH  24  26
HETATM   26  C6  UNL     1       0.435  52.954 -22.288  1.00  0.00     0.008 C 
BRANCH  26  27
HETATM   27  C5  UNL     1      -0.132  52.554 -23.655  1.00  0.00     0.028 C 
BRANCH  27  28
HETATM   28  C4  UNL     1       0.971  52.398 -24.667  1.00  0.00    -0.025 C 
HETATM   29  C2  UNL     1       0.974  51.622 -25.768  1.00  0.00    -0.091 C 
HETATM   30  C1  UNL     1       2.185  51.560 -26.662  1.00  0.00     0.042 C 
HETATM   31  C3  UNL     1      -0.180  50.774 -26.231  1.00  0.00     0.042 C 
ENDBRANCH  27  28
ENDBRANCH  26  27
ENDBRANCH  24  26
ENDBRANCH   1  24
TORSDOF 4
ENDMDL
MODEL 5
REMARK minimizedAffinity -8.94262981
REMARK  4 active torsions:
REMARK  status: ('A' for Active; 'I' for Inactive)
REMARK    1  A    between atoms: C4_4  and  C5_5 
REMARK    2  A    between atoms: C5_5  and  C6_6 
REMARK    3  A    between atoms: C6_6  and  C7_7 
REMARK    4  A    between atoms: C7_7  and  C9_9 
ROOT
HETATM    1  C9  UNL     1      -0.083  51.298 -21.411  1.00  0.00    -0.002 C 
HETATM    2  C10 UNL     1      -0.204  51.914 -19.991  1.00  0.00     0.006 C 
HETATM    3  C11 UNL     1      -1.543  51.449 -19.397  1.00  0.00     0.011 C 
HETATM    4  C12 UNL     1      -2.060  50.359 -20.355  1.00  0.00    -0.032 C 
HETATM    5  C13 UNL     1      -1.403  49.013 -19.910  1.00  0.00     0.016 C 
HETATM    6  C14 UNL     1      -3.605  50.216 -20.386  1.00  0.00     0.004 C 
HETATM    7  C15 UNL     1      -4.206  49.763 -19.040  1.00  0.00     0.007 C 
HETATM    8  C16 UNL     1      -4.933  48.424 -19.069  1.00  0.00     0.007 C 
HETATM    9  C17 UNL     1      -6.056  48.473 -20.119  1.00  0.00     0.010 C 
HETATM   10  C18 UNL     1      -7.117  47.332 -19.992  1.00  0.00     0.018 C 
HETATM   11  C19 UNL     1      -8.400  47.709 -20.766  1.00  0.00     0.023 C 
HETATM   12  C20 UNL     1      -7.541  47.100 -18.525  1.00  0.00     0.023 C 
HETATM   13  C21 UNL     1      -6.588  46.007 -20.550  1.00  0.00     0.135 C 
HETATM   14  O1  UNL     1      -7.053  44.919 -20.196  1.00  0.00    -0.297 OA
HETATM   15  C22 UNL     1      -5.461  46.051 -21.551  1.00  0.00     0.080 C 
HETATM   16  C23 UNL     1      -5.550  47.316 -22.376  1.00  0.00     0.018 C 
HETATM   17  C24 UNL     1      -5.387  48.555 -21.506  1.00  0.00    -0.026 A 
HETATM   18  C25 UNL     1      -5.422  49.884 -22.216  1.00  0.00     0.021 A 
HETATM   19  C26 UNL     1      -4.098  49.425 -21.629  1.00  0.00    -0.027 A 
HETATM   20  C27 UNL     1      -3.030  48.976 -22.643  1.00  0.00     0.011 C 
HETATM   21  C28 UNL     1      -1.735  49.792 -22.778  1.00  0.00     0.011 C 
HETATM   22  C29 UNL     1      -1.559  50.901 -21.742  1.00  0.00    -0.032 C 
HETATM   23  C30 UNL     1      -2.332  52.154 -22.251  1.00  0.00     0.016 C 
ENDROOT
BRANCH   1  24
HETATM   24  C7  UNL     1       0.710  52.216 -22.384  1.00  0.00    -0.014 C 
HETATM   25  C8  UNL     1       1.028  53.585 -21.773  1.00  0.00     0.010 C 
BRANCH  24  26
HETATM   26  C6  UNL     1       0.003  52.404 -23.753  1.00  0.00     0.008 C 
BRANCH  26  27
HETATM   27  C5  UNL     1       0.751  53.282 -24.763  1.00  0.00     0.028 C 
BRANCH  27  28
HETATM   28  C4  UNL     1       0.462  52.842 -26.173  1.00  0.00    -0.025 C 
HETATM   29  C2  UNL     1       1.223  52.059 -26.963  1.00  0.00    -0.091 C 
HETATM   30  C1  UNL     1       0.795  51.743 -28.372  1.00  0.00     0.042 C 
HETATM   31  C3  UNL     1       2.524  51.423 -26.555  1.00  0.00     0.042 C 
ENDBRANCH  27  28
ENDBRANCH  26  27
ENDBRANCH  24  26
ENDBRANCH   1  24
TORSDOF 4
ENDMDL
MODEL 6
REMARK minimizedAffinity -8.93221951
REMARK  4 active torsions:
REMARK  status: ('A' for Active; 'I' for Inactive)
REMARK    1  A    between atoms: C4_4  and  C5_5 
REMARK    2  A    between atoms: C5_5  and  C6_6 
REMARK    3  A    between atoms: C6_6  and  C7_7 
REMARK    4  A    between atoms: C7_7  and  C9_9 
ROOT
HETATM    1  C9  UNL     1       0.311  51.865 -23.177  1.00  0.00    -0.002 C 
HETATM    2  C10 UNL     1       0.482  52.715 -21.889  1.00  0.00     0.006 C 
HETATM    3  C11 UNL     1      -0.696  52.391 -20.959  1.00  0.00     0.011 C 
HETATM    4  C12 UNL     1      -1.389  51.166 -21.587  1.00  0.00    -0.032 C 
HETATM    5  C13 UNL     1      -0.637  49.901 -21.065  1.00  0.00     0.016 C 
HETATM    6  C14 UNL     1      -2.905  51.058 -21.270  1.00  0.00     0.004 C 
HETATM    7  C15 UNL     1      -3.205  50.854 -19.772  1.00  0.00     0.007 C 
HETATM    8  C16 UNL     1      -3.905  49.547 -19.418  1.00  0.00     0.007 C 
HETATM    9  C17 UNL     1      -5.224  49.444 -20.204  1.00  0.00     0.010 C 
HETATM   10  C18 UNL     1      -6.221  48.368 -19.665  1.00  0.00     0.018 C 
HETATM   11  C19 UNL     1      -7.642  48.638 -20.207  1.00  0.00     0.023 C 
HETATM   12  C20 UNL     1      -6.325  48.398 -18.124  1.00  0.00     0.023 C 
HETATM   13  C21 UNL     1      -5.804  46.954 -20.085  1.00  0.00     0.135 C 
HETATM   14  O1  UNL     1      -6.171  45.954 -19.462  1.00  0.00    -0.297 OA
HETATM   15  C22 UNL     1      -4.912  46.800 -21.292  1.00  0.00     0.080 C 
HETATM   16  C23 UNL     1      -5.187  47.909 -22.285  1.00  0.00     0.018 C 
HETATM   17  C24 UNL     1      -4.861  49.273 -21.693  1.00  0.00    -0.026 A 
HETATM   18  C25 UNL     1      -5.060  50.463 -22.597  1.00  0.00     0.021 A 
HETATM   19  C26 UNL     1      -3.637  50.079 -22.229  1.00  0.00    -0.027 A 
HETATM   20  C27 UNL     1      -2.800  49.438 -23.351  1.00  0.00     0.011 C 
HETATM   21  C28 UNL     1      -1.573  50.188 -23.891  1.00  0.00     0.011 C 
HETATM   22  C29 UNL     1      -1.196  51.453 -23.120  1.00  0.00    -0.032 C 
HETATM   23  C30 UNL     1      -2.075  52.619 -23.663  1.00  0.00     0.016 C 
ENDROOT
BRANCH   1  24
HETATM   24  C7  UNL     1       0.871  52.584 -24.436  1.00  0.00    -0.014 C 
HETATM   25  C8  UNL     1       0.131  53.891 -24.745  1.00  0.00     0.010 C 
BRANCH  24  26
HETATM   26  C6  UNL     1       0.883  51.679 -25.697  1.00  0.00     0.008 C 
BRANCH  26  27
HETATM   27  C5  UNL     1       0.053  52.191 -26.880  1.00  0.00     0.028 C 
BRANCH  27  28
HETATM   28  C4  UNL     1      -0.920  51.142 -27.347  1.00  0.00    -0.025 C 
HETATM   29  C2  UNL     1      -2.259  51.139 -27.202  1.00  0.00    -0.091 C 
HETATM   30  C1  UNL     1      -3.084  49.983 -27.704  1.00  0.00     0.042 C 
HETATM   31  C3  UNL     1      -3.062  52.242 -26.566  1.00  0.00     0.042 C 
ENDBRANCH  27  28
ENDBRANCH  26  27
ENDBRANCH  24  26
ENDBRANCH   1  24
TORSDOF 4
ENDMDL
MODEL 7
REMARK minimizedAffinity -8.92970848
REMARK  4 active torsions:
REMARK  status: ('A' for Active; 'I' for Inactive)
REMARK    1  A    between atoms: C4_4  and  C5_5 
REMARK    2  A    between atoms: C5_5  and  C6_6 
REMARK    3  A    between atoms: C6_6  and  C7_7 
REMARK    4  A    between atoms: C7_7  and  C9_9 
ROOT
HETATM    1  C9  UNL     1      -5.174  48.611 -21.851  1.00  0.00    -0.002 C 
HETATM    2  C10 UNL     1      -5.654  47.742 -23.044  1.00  0.00     0.006 C 
HETATM    3  C11 UNL     1      -4.930  48.242 -24.303  1.00  0.00     0.011 C 
HETATM    4  C12 UNL     1      -3.842  49.207 -23.794  1.00  0.00    -0.032 C 
HETATM    5  C13 UNL     1      -2.596  48.337 -23.431  1.00  0.00     0.016 C 
HETATM    6  C14 UNL     1      -3.445  50.314 -24.807  1.00  0.00     0.004 C 
HETATM    7  C15 UNL     1      -2.800  49.764 -26.095  1.00  0.00     0.007 C 
HETATM    8  C16 UNL     1      -1.364  50.209 -26.345  1.00  0.00     0.007 C 
HETATM    9  C17 UNL     1      -1.301  51.746 -26.379  1.00  0.00     0.010 C 
HETATM   10  C18 UNL     1       0.007  52.331 -27.003  1.00  0.00     0.018 C 
HETATM   11  C19 UNL     1      -0.205  53.809 -27.398  1.00  0.00     0.023 C 
HETATM   12  C20 UNL     1       0.415  51.585 -28.293  1.00  0.00     0.023 C 
HETATM   13  C21 UNL     1       1.181  52.257 -26.021  1.00  0.00     0.135 C 
HETATM   14  O1  UNL     1       2.354  52.264 -26.405  1.00  0.00    -0.297 OA
HETATM   15  C22 UNL     1       0.876  52.164 -24.547  1.00  0.00     0.080 C 
HETATM   16  C23 UNL     1      -0.414  52.892 -24.238  1.00  0.00     0.018 C 
HETATM   17  C24 UNL     1      -1.595  52.250 -24.952  1.00  0.00    -0.026 A 
HETATM   18  C25 UNL     1      -2.948  52.864 -24.699  1.00  0.00     0.021 A 
HETATM   19  C26 UNL     1      -2.676  51.483 -24.130  1.00  0.00    -0.027 A 
HETATM   20  C27 UNL     1      -2.487  51.407 -22.604  1.00  0.00     0.011 C 
HETATM   21  C28 UNL     1      -3.516  50.640 -21.759  1.00  0.00     0.011 C 
HETATM   22  C29 UNL     1      -4.561  49.862 -22.560  1.00  0.00    -0.032 C 
HETATM   23  C30 UNL     1      -5.700  50.854 -22.942  1.00  0.00     0.016 C 
ENDROOT
BRANCH   1  24
HETATM   24  C7  UNL     1      -6.280  48.795 -20.773  1.00  0.00    -0.014 C 
HETATM   25  C8  UNL     1      -5.703  48.961 -19.362  1.00  0.00     0.010 C 
BRANCH  24  26
HETATM   26  C6  UNL     1      -7.329  47.651 -20.780  1.00  0.00     0.008 C 
BRANCH  26  27
HETATM   27  C5  UNL     1      -8.793  48.103 -20.840  1.00  0.00     0.028 C 
BRANCH  27  28
HETATM   28  C4  UNL     1      -9.559  47.601 -19.646  1.00  0.00    -0.025 C 
HETATM   29  C2  UNL     1      -9.649  48.170 -18.428  1.00  0.00    -0.091 C 
HETATM   30  C1  UNL     1     -10.439  47.509 -17.329  1.00  0.00     0.042 C 
HETATM   31  C3  UNL     1      -9.017  49.477 -18.035  1.00  0.00     0.042 C 
ENDBRANCH  27  28
ENDBRANCH  26  27
ENDBRANCH  24  26
ENDBRANCH   1  24
TORSDOF 4
ENDMDL
MODEL 8
REMARK minimizedAffinity -8.90407181
REMARK  4 active torsions:
REMARK  status: ('A' for Active; 'I' for Inactive)
REMARK    1  A    between atoms: C4_4  and  C5_5 
REMARK    2  A    between atoms: C5_5  and  C6_6 
REMARK    3  A    between atoms: C6_6  and  C7_7 
REMARK    4  A    between atoms: C7_7  and  C9_9 
ROOT
HETATM    1  C9  UNL     1      -0.905  51.325 -21.245  1.00  0.00    -0.002 C 
HETATM    2  C10 UNL     1      -0.255  50.031 -20.684  1.00  0.00     0.006 C 
HETATM    3  C11 UNL     1      -1.349  48.955 -20.616  1.00  0.00     0.011 C 
HETATM    4  C12 UNL     1      -2.549  49.541 -21.384  1.00  0.00    -0.032 C 
HETATM    5  C13 UNL     1      -2.328  49.210 -22.895  1.00  0.00     0.016 C 
HETATM    6  C14 UNL     1      -3.930  49.008 -20.916  1.00  0.00     0.004 C 
HETATM    7  C15 UNL     1      -4.115  47.496 -21.150  1.00  0.00     0.007 C 
HETATM    8  C16 UNL     1      -5.244  47.117 -22.101  1.00  0.00     0.007 C 
HETATM    9  C17 UNL     1      -6.569  47.701 -21.582  1.00  0.00     0.010 C 
HETATM   10  C18 UNL     1      -7.851  47.081 -22.226  1.00  0.00     0.018 C 
HETATM   11  C19 UNL     1      -9.089  47.389 -21.354  1.00  0.00     0.023 C 
HETATM   12  C20 UNL     1      -7.759  45.543 -22.331  1.00  0.00     0.023 C 
HETATM   13  C21 UNL     1      -8.101  47.639 -23.632  1.00  0.00     0.135 C 
HETATM   14  O1  UNL     1      -8.771  47.026 -24.467  1.00  0.00    -0.297 OA
HETATM   15  C22 UNL     1      -7.493  48.972 -23.991  1.00  0.00     0.080 C 
HETATM   16  C23 UNL     1      -7.401  49.848 -22.760  1.00  0.00     0.018 C 
HETATM   17  C24 UNL     1      -6.480  49.235 -21.715  1.00  0.00    -0.026 A 
HETATM   18  C25 UNL     1      -6.275  50.030 -20.451  1.00  0.00     0.021 A 
HETATM   19  C26 UNL     1      -5.103  49.901 -21.408  1.00  0.00    -0.027 A 
HETATM   20  C27 UNL     1      -4.735  51.170 -22.198  1.00  0.00     0.011 C 
HETATM   21  C28 UNL     1      -3.377  51.844 -21.942  1.00  0.00     0.011 C 
HETATM   22  C29 UNL     1      -2.431  51.067 -21.027  1.00  0.00    -0.032 C 
HETATM   23  C30 UNL     1      -2.811  51.406 -19.555  1.00  0.00     0.016 C 
ENDROOT
BRANCH   1  24
HETATM   24  C7  UNL     1      -0.246  52.611 -20.672  1.00  0.00    -0.014 C 
HETATM   25  C8  UNL     1       1.170  52.838 -21.215  1.00  0.00     0.010 C 
BRANCH  24  26
HETATM   26  C6  UNL     1      -0.222  52.641 -19.120  1.00  0.00     0.008 C 
BRANCH  26  27
HETATM   27  C5  UNL     1       1.171  52.724 -18.486  1.00  0.00     0.028 C 
BRANCH  27  28
HETATM   28  C4  UNL     1       1.176  52.101 -17.117  1.00  0.00    -0.025 C 
HETATM   29  C2  UNL     1       2.174  52.109 -16.211  1.00  0.00    -0.091 C 
HETATM   30  C1  UNL     1       2.019  51.402 -14.891  1.00  0.00     0.042 C 
HETATM   31  C3  UNL     1       3.496  52.804 -16.389  1.00  0.00     0.042 C 
ENDBRANCH  27  28
ENDBRANCH  26  27
ENDBRANCH  24  26
ENDBRANCH   1  24
TORSDOF 4
ENDMDL
MODEL 9
REMARK minimizedAffinity -8.86912727
REMARK  4 active torsions:
REMARK  status: ('A' for Active; 'I' for Inactive)
REMARK    1  A    between atoms: C4_4  and  C5_5 
REMARK    2  A    between atoms: C5_5  and  C6_6 
REMARK    3  A    between atoms: C6_6  and  C7_7 
REMARK    4  A    between atoms: C7_7  and  C9_9 
ROOT
HETATM    1  C9  UNL     1      -0.174  51.851 -16.673  1.00  0.00    -0.002 C 
HETATM    2  C10 UNL     1       1.311  52.211 -16.947  1.00  0.00     0.006 C 
HETATM    3  C11 UNL     1       1.527  52.158 -18.467  1.00  0.00     0.011 C 
HETATM    4  C12 UNL     1       0.118  52.036 -19.078  1.00  0.00    -0.032 C 
HETATM    5  C13 UNL     1      -0.445  53.487 -19.215  1.00  0.00     0.016 C 
HETATM    6  C14 UNL     1       0.076  51.313 -20.451  1.00  0.00     0.004 C 
HETATM    7  C15 UNL     1       0.837  52.064 -21.562  1.00  0.00     0.007 C 
HETATM    8  C16 UNL     1      -0.016  52.526 -22.738  1.00  0.00     0.007 C 
HETATM    9  C17 UNL     1      -0.730  51.314 -23.361  1.00  0.00     0.010 C 
HETATM   10  C18 UNL     1      -1.319  51.566 -24.786  1.00  0.00     0.018 C 
HETATM   11  C19 UNL     1      -1.604  50.222 -25.492  1.00  0.00     0.023 C 
HETATM   12  C20 UNL     1      -0.332  52.337 -25.690  1.00  0.00     0.023 C 
HETATM   13  C21 UNL     1      -2.626  52.363 -24.721  1.00  0.00     0.135 C 
HETATM   14  O1  UNL     1      -3.038  53.019 -25.682  1.00  0.00    -0.297 OA
HETATM   15  C22 UNL     1      -3.414  52.342 -23.436  1.00  0.00     0.080 C 
HETATM   16  C23 UNL     1      -3.220  51.017 -22.731  1.00  0.00     0.018 C 
HETATM   17  C24 UNL     1      -1.765  50.811 -22.334  1.00  0.00    -0.026 A 
HETATM   18  C25 UNL     1      -1.445  49.540 -21.591  1.00  0.00     0.021 A 
HETATM   19  C26 UNL     1      -1.358  50.850 -20.829  1.00  0.00    -0.027 A 
HETATM   20  C27 UNL     1      -2.472  51.105 -19.797  1.00  0.00     0.011 C 
HETATM   21  C28 UNL     1      -2.110  51.175 -18.305  1.00  0.00     0.011 C 
HETATM   22  C29 UNL     1      -0.612  51.154 -18.002  1.00  0.00    -0.032 C 
HETATM   23  C30 UNL     1      -0.152  49.665 -17.984  1.00  0.00     0.016 C 
ENDROOT
BRANCH   1  24
HETATM   24  C7  UNL     1      -0.361  51.117 -15.314  1.00  0.00    -0.014 C 
HETATM   25  C8  UNL     1       0.514  49.863 -15.199  1.00  0.00     0.010 C 
BRANCH  24  26
HETATM   26  C6  UNL     1      -1.841  50.753 -15.019  1.00  0.00     0.008 C 
BRANCH  26  27
HETATM   27  C5  UNL     1      -2.196  50.605 -13.535  1.00  0.00     0.028 C 
BRANCH  27  28
HETATM   28  C4  UNL     1      -2.657  51.917 -12.960  1.00  0.00    -0.025 C 
HETATM   29  C2  UNL     1      -3.483  52.112 -11.913  1.00  0.00    -0.091 C 
HETATM   30  C1  UNL     1      -3.870  53.504 -11.489  1.00  0.00     0.042 C 
HETATM   31  C3  UNL     1      -4.081  51.020 -11.069  1.00  0.00     0.042 C 
ENDBRANCH  27  28
ENDBRANCH  26  27
ENDBRANCH  24  26
ENDBRANCH   1  24
TORSDOF 4
ENDMDL
