MODEL 1
REMARK minimizedAffinity -8.12241936
REMARK CNNscore 0.643205702
REMARK CNNaffinity 7.57131815
REMARK  13 active torsions:
REMARK  status: ('A' for Active; 'I' for Inactive)
REMARK    1  A    between atoms: C3_3  and  O1_4 
REMARK    2  A    between atoms: N1_14  and  O2_16 
REMARK    3  A    between atoms: O2_16  and  C13_17 
REMARK    4  A    between atoms: C13_17  and  C14_18 
REMARK       I    between atoms: C14_18  and  N2_20 
REMARK    5  A    between atoms: N2_20  and  C15_21 
REMARK    6  A    between atoms: C15_21  and  C16_22 
REMARK    7  A    between atoms: C15_21  and  C21_32 
REMARK       I    between atoms: C16_22  and  N3_24 
REMARK    8  A    between atoms: N3_24  and  C17_25 
REMARK    9  A    between atoms: C17_25  and  C18_26 
REMARK   10  A    between atoms: C17_25  and  C19_28 
REMARK   11  A    between atoms: C18_26  and  S1_27 
REMARK   12  A    between atoms: C19_28  and  C20_29 
REMARK   13  A    between atoms: C20_29  and  O6_31 
ROOT
HETATM    1  C1  UNL     1      -2.706  51.476  -9.020  1.00  0.00     0.015 C 
HETATM    2  C2  UNL     1      -1.884  51.151  -9.835  1.00  0.00    -0.078 C 
HETATM    3  C3  UNL     1      -0.868  50.763 -10.829  1.00  0.00     0.128 C 
HETATM    4  C4  UNL     1      -0.053  49.557 -10.366  1.00  0.00     0.052 C 
HETATM    5  C5  UNL     1       0.671  49.125 -11.638  1.00  0.00     0.010 C 
HETATM    6  C6  UNL     1      -0.289  49.443 -12.805  1.00  0.00     0.002 C 
HETATM    7  C7  UNL     1       0.364  49.902 -14.125  1.00  0.00    -0.004 C 
HETATM    8  C8  UNL     1       1.532  50.894 -14.024  1.00  0.00     0.010 C 
HETATM    9  C9  UNL     1       2.163  51.159 -15.393  1.00  0.00     0.035 C 
HETATM   10  C10 UNL     1       1.188  51.486 -16.499  1.00  0.00    -0.069 C 
HETATM   11  C11 UNL     1       1.537  52.376 -17.449  1.00  0.00     0.030 C 
HETATM   12  C12 UNL     1       0.710  52.610 -18.666  1.00  0.00     0.032 C 
HETATM   13  N1  UNL     1       1.207  53.359 -19.611  1.00  0.00    -0.271 N 
ATOM     14  H1  UNL     1       2.119  53.813 -19.564  1.00  0.00     0.194 HD
HETATM   15  C24 UNL     1      -0.620  51.890 -18.784  1.00  0.00     0.060 C 
HETATM   16  C25 UNL     1      -1.149  51.478 -17.418  1.00  0.00     0.020 C 
HETATM   17  C26 UNL     1      -0.122  50.701 -16.544  1.00  0.00    -0.016 C 
HETATM   18  C27 UNL     1       0.162  49.329 -17.215  1.00  0.00     0.020 C 
HETATM   19  C28 UNL     1      -0.713  50.446 -15.098  1.00  0.00     0.002 C 
HETATM   20  C29 UNL     1      -1.371  51.685 -14.473  1.00  0.00     0.007 C 
HETATM   21  C30 UNL     1      -1.922  51.512 -13.058  1.00  0.00     0.014 C 
HETATM   22  C31 UNL     1      -1.442  50.313 -12.210  1.00  0.00     0.003 C 
HETATM   23  C32 UNL     1      -2.671  49.364 -12.030  1.00  0.00     0.020 C 
ENDROOT
BRANCH   3  24
HETATM   24  O1  UNL     1       0.054  51.849 -11.013  1.00  0.00    -0.377 OA
HETATM   25  H2  UNL     1      -0.078  52.469 -10.277  1.00  0.00     0.211 HD
ENDBRANCH   3  24
BRANCH  13  26
HETATM   26  O2  UNL     1       0.329  53.463 -20.701  1.00  0.00    -0.271 OA
BRANCH  26  27
HETATM   27  C13 UNL     1       1.056  53.775 -21.884  1.00  0.00     0.303 C 
BRANCH  27  28
HETATM   28  C14 UNL     1       0.543  53.006 -23.095  1.00  0.00     0.244 C 
HETATM   29  O3  UNL     1       0.346  51.795 -23.056  1.00  0.00    -0.271 OA
HETATM   30  N2  UNL     1       0.432  53.771 -24.236  1.00  0.00    -0.346 N 
HETATM   31  H16 UNL     1       0.399  54.776 -24.067  1.00  0.00     0.163 HD
BRANCH  30  32
HETATM   32  C15 UNL     1      -0.123  53.287 -25.505  1.00  0.00     0.180 C 
BRANCH  32  33
HETATM   33  C16 UNL     1      -1.384  52.416 -25.252  1.00  0.00     0.241 C 
HETATM   34  O4  UNL     1      -2.513  52.885 -25.115  1.00  0.00    -0.271 OA
HETATM   35  N3  UNL     1      -1.165  51.047 -25.279  1.00  0.00    -0.353 N 
HETATM   36  H18 UNL     1      -0.209  50.715 -25.253  1.00  0.00     0.163 HD
BRANCH  35  37
HETATM   37  C17 UNL     1      -2.241  50.074 -25.021  1.00  0.00     0.103 C 
BRANCH  37  38
HETATM   38  C18 UNL     1      -2.588  50.048 -23.521  1.00  0.00     0.096 C 
BRANCH  38  39
HETATM   39  S1  UNL     1      -3.422  48.508 -23.017  1.00  0.00    -0.180 SA
HETATM   40  H22 UNL     1      -3.032  47.771 -24.068  1.00  0.00     0.101 HD
ENDBRANCH  38  39
ENDBRANCH  37  38
BRANCH  37  41
HETATM   41  C19 UNL     1      -3.505  50.421 -25.820  1.00  0.00     0.136 C 
BRANCH  41  42
HETATM   42  C20 UNL     1      -3.434  49.957 -27.244  1.00  0.00     0.141 C 
HETATM   43  O5  UNL     1      -2.634  50.349 -28.077  1.00  0.00    -0.650 OA
BRANCH  42  44
HETATM   44  O6  UNL     1      -4.393  49.073 -27.555  1.00  0.00    -0.776 OA
HETATM   45  H25 UNL     1      -4.124  48.743 -28.442  1.00  0.00     0.167 HD
ENDBRANCH  42  44
ENDBRANCH  41  42
ENDBRANCH  37  41
ENDBRANCH  35  37
ENDBRANCH  32  33
BRANCH  32  46
HETATM   46  C21 UNL     1       0.954  52.716 -26.472  1.00  0.00     0.009 C 
HETATM   47  C22 UNL     1       0.435  52.644 -27.913  1.00  0.00     0.012 C 
HETATM   48  C23 UNL     1       1.532  51.352 -26.070  1.00  0.00     0.012 C 
ENDBRANCH  32  46
ENDBRANCH  30  32
ENDBRANCH  27  28
ENDBRANCH  26  27
ENDBRANCH  13  26
TORSDOF 13
ENDMDL
MODEL 2
REMARK minimizedAffinity -9.23027706
REMARK CNNscore 0.4440929
REMARK CNNaffinity 6.79832888
REMARK  13 active torsions:
REMARK  status: ('A' for Active; 'I' for Inactive)
REMARK    1  A    between atoms: C3_3  and  O1_4 
REMARK    2  A    between atoms: N1_14  and  O2_16 
REMARK    3  A    between atoms: O2_16  and  C13_17 
REMARK    4  A    between atoms: C13_17  and  C14_18 
REMARK       I    between atoms: C14_18  and  N2_20 
REMARK    5  A    between atoms: N2_20  and  C15_21 
REMARK    6  A    between atoms: C15_21  and  C16_22 
REMARK    7  A    between atoms: C15_21  and  C21_32 
REMARK       I    between atoms: C16_22  and  N3_24 
REMARK    8  A    between atoms: N3_24  and  C17_25 
REMARK    9  A    between atoms: C17_25  and  C18_26 
REMARK   10  A    between atoms: C17_25  and  C19_28 
REMARK   11  A    between atoms: C18_26  and  S1_27 
REMARK   12  A    between atoms: C19_28  and  C20_29 
REMARK   13  A    between atoms: C20_29  and  O6_31 
ROOT
HETATM    1  C1  UNL     1      -0.054  55.576 -27.023  1.00  0.00     0.015 C 
HETATM    2  C2  UNL     1      -0.244  54.391 -26.959  1.00  0.00    -0.078 C 
HETATM    3  C3  UNL     1      -0.480  52.937 -26.896  1.00  0.00     0.128 C 
HETATM    4  C4  UNL     1       0.827  52.148 -26.932  1.00  0.00     0.052 C 
HETATM    5  C5  UNL     1       0.391  50.745 -26.519  1.00  0.00     0.010 C 
HETATM    6  C6  UNL     1      -0.772  50.936 -25.519  1.00  0.00     0.002 C 
HETATM    7  C7  UNL     1      -1.895  49.879 -25.564  1.00  0.00    -0.004 C 
HETATM    8  C8  UNL     1      -2.367  49.412 -26.949  1.00  0.00     0.010 C 
HETATM    9  C9  UNL     1      -3.386  48.276 -26.840  1.00  0.00     0.035 C 
HETATM   10  C10 UNL     1      -4.516  48.515 -25.866  1.00  0.00    -0.069 C 
HETATM   11  C11 UNL     1      -5.747  48.047 -26.151  1.00  0.00     0.030 C 
HETATM   12  C12 UNL     1      -6.861  48.080 -25.163  1.00  0.00     0.032 C 
HETATM   13  N1  UNL     1      -7.965  47.452 -25.462  1.00  0.00    -0.271 N 
ATOM     14  H1  UNL     1      -8.123  46.955 -26.338  1.00  0.00     0.194 HD
HETATM   15  C24 UNL     1      -6.622  48.757 -23.827  1.00  0.00     0.060 C 
HETATM   16  C25 UNL     1      -5.483  49.762 -23.913  1.00  0.00     0.020 C 
HETATM   17  C26 UNL     1      -4.176  49.195 -24.540  1.00  0.00    -0.016 C 
HETATM   18  C27 UNL     1      -3.595  48.118 -23.584  1.00  0.00     0.020 C 
HETATM   19  C28 UNL     1      -3.106  50.347 -24.718  1.00  0.00     0.002 C 
HETATM   20  C29 UNL     1      -3.681  51.632 -25.334  1.00  0.00     0.007 C 
HETATM   21  C30 UNL     1      -2.683  52.766 -25.571  1.00  0.00     0.014 C 
HETATM   22  C31 UNL     1      -1.174  52.444 -25.586  1.00  0.00     0.003 C 
HETATM   23  C32 UNL     1      -0.552  53.128 -24.325  1.00  0.00     0.020 C 
ENDROOT
BRANCH   3  24
HETATM   24  O1  UNL     1      -1.250  52.531 -28.038  1.00  0.00    -0.377 OA
HETATM   25  H2  UNL     1      -1.221  53.260 -28.680  1.00  0.00     0.211 HD
ENDBRANCH   3  24
BRANCH  13  26
HETATM   26  O2  UNL     1      -8.908  47.547 -24.427  1.00  0.00    -0.271 OA
BRANCH  26  27
HETATM   27  C13 UNL     1     -10.004  46.675 -24.684  1.00  0.00     0.303 C 
BRANCH  27  28
HETATM   28  C14 UNL     1     -11.112  47.361 -25.474  1.00  0.00     0.244 C 
HETATM   29  O3  UNL     1     -10.997  48.513 -25.882  1.00  0.00    -0.271 OA
HETATM   30  N2  UNL     1     -12.264  46.613 -25.583  1.00  0.00    -0.346 N 
HETATM   31  H16 UNL     1     -12.137  45.616 -25.411  1.00  0.00     0.163 HD
BRANCH  30  32
HETATM   32  C15 UNL     1     -13.438  47.011 -26.369  1.00  0.00     0.180 C 
BRANCH  32  33
HETATM   33  C16 UNL     1     -14.737  46.836 -25.535  1.00  0.00     0.241 C 
HETATM   34  O4  UNL     1     -14.937  47.413 -24.467  1.00  0.00    -0.271 OA
HETATM   35  N3  UNL     1     -15.709  46.043 -26.126  1.00  0.00    -0.353 N 
HETATM   36  H18 UNL     1     -15.447  45.482 -26.926  1.00  0.00     0.163 HD
BRANCH  35  37
HETATM   37  C17 UNL     1     -16.987  45.739 -25.459  1.00  0.00     0.103 C 
BRANCH  37  38
HETATM   38  C18 UNL     1     -16.803  44.588 -24.452  1.00  0.00     0.096 C 
BRANCH  38  39
HETATM   39  S1  UNL     1     -15.281  43.630 -24.748  1.00  0.00    -0.180 SA
HETATM   40  H22 UNL     1     -14.652  44.563 -25.479  1.00  0.00     0.101 HD
ENDBRANCH  38  39
ENDBRANCH  37  38
BRANCH  37  41
HETATM   41  C19 UNL     1     -17.531  46.968 -24.717  1.00  0.00     0.136 C 
BRANCH  41  42
HETATM   42  C20 UNL     1     -18.972  46.819 -24.331  1.00  0.00     0.141 C 
HETATM   43  O5  UNL     1     -19.913  46.775 -25.107  1.00  0.00    -0.650 OA
BRANCH  42  44
HETATM   44  O6  UNL     1     -19.158  46.782 -23.003  1.00  0.00    -0.776 OA
HETATM   45  H25 UNL     1     -20.101  46.519 -22.909  1.00  0.00     0.167 HD
ENDBRANCH  42  44
ENDBRANCH  41  42
ENDBRANCH  37  41
ENDBRANCH  35  37
ENDBRANCH  32  33
BRANCH  32  46
HETATM   46  C21 UNL     1     -13.437  46.436 -27.815  1.00  0.00     0.009 C 
HETATM   47  C22 UNL     1     -14.591  45.449 -28.027  1.00  0.00     0.012 C 
HETATM   48  C23 UNL     1     -12.120  45.784 -28.255  1.00  0.00     0.012 C 
ENDBRANCH  32  46
ENDBRANCH  30  32
ENDBRANCH  27  28
ENDBRANCH  26  27
ENDBRANCH  13  26
TORSDOF 13
ENDMDL
MODEL 3
REMARK minimizedAffinity -8.10490799
REMARK CNNscore 0.394065857
REMARK CNNaffinity 6.32751417
REMARK  13 active torsions:
REMARK  status: ('A' for Active; 'I' for Inactive)
REMARK    1  A    between atoms: C3_3  and  O1_4 
REMARK    2  A    between atoms: N1_14  and  O2_16 
REMARK    3  A    between atoms: O2_16  and  C13_17 
REMARK    4  A    between atoms: C13_17  and  C14_18 
REMARK       I    between atoms: C14_18  and  N2_20 
REMARK    5  A    between atoms: N2_20  and  C15_21 
REMARK    6  A    between atoms: C15_21  and  C16_22 
REMARK    7  A    between atoms: C15_21  and  C21_32 
REMARK       I    between atoms: C16_22  and  N3_24 
REMARK    8  A    between atoms: N3_24  and  C17_25 
REMARK    9  A    between atoms: C17_25  and  C18_26 
REMARK   10  A    between atoms: C17_25  and  C19_28 
REMARK   11  A    between atoms: C18_26  and  S1_27 
REMARK   12  A    between atoms: C19_28  and  C20_29 
REMARK   13  A    between atoms: C20_29  and  O6_31 
ROOT
HETATM    1  C1  UNL     1      -0.043  50.335 -17.191  1.00  0.00     0.015 C 
HETATM    2  C2  UNL     1      -0.548  50.693 -18.222  1.00  0.00    -0.078 C 
HETATM    3  C3  UNL     1      -1.175  51.140 -19.478  1.00  0.00     0.128 C 
HETATM    4  C4  UNL     1      -0.313  52.167 -20.208  1.00  0.00     0.052 C 
HETATM    5  C5  UNL     1      -0.954  52.230 -21.592  1.00  0.00     0.010 C 
HETATM    6  C6  UNL     1      -1.485  50.808 -21.881  1.00  0.00     0.002 C 
HETATM    7  C7  UNL     1      -2.795  50.718 -22.691  1.00  0.00    -0.004 C 
HETATM    8  C8  UNL     1      -3.910  51.713 -22.338  1.00  0.00     0.010 C 
HETATM    9  C9  UNL     1      -5.094  51.594 -23.301  1.00  0.00     0.035 C 
HETATM   10  C10 UNL     1      -5.592  50.188 -23.538  1.00  0.00    -0.069 C 
HETATM   11  C11 UNL     1      -6.911  49.973 -23.715  1.00  0.00     0.030 C 
HETATM   12  C12 UNL     1      -7.454  48.652 -24.136  1.00  0.00     0.032 C 
HETATM   13  N1  UNL     1      -8.719  48.581 -24.449  1.00  0.00    -0.271 N 
ATOM     14  H1  UNL     1      -9.366  49.367 -24.405  1.00  0.00     0.194 HD
HETATM   15  C24 UNL     1      -6.494  47.486 -24.271  1.00  0.00     0.060 C 
HETATM   16  C25 UNL     1      -5.239  47.704 -23.438  1.00  0.00     0.020 C 
HETATM   17  C26 UNL     1      -4.549  49.079 -23.672  1.00  0.00    -0.016 C 
HETATM   18  C27 UNL     1      -3.993  49.115 -25.122  1.00  0.00     0.020 C 
HETATM   19  C28 UNL     1      -3.345  49.270 -22.662  1.00  0.00     0.002 C 
HETATM   20  C29 UNL     1      -3.691  48.894 -21.213  1.00  0.00     0.007 C 
HETATM   21  C30 UNL     1      -2.580  49.099 -20.183  1.00  0.00     0.014 C 
HETATM   22  C31 UNL     1      -1.389  50.015 -20.540  1.00  0.00     0.003 C 
HETATM   23  C32 UNL     1      -0.129  49.097 -20.652  1.00  0.00     0.020 C 
ENDROOT
BRANCH   3  24
HETATM   24  O1  UNL     1      -2.429  51.776 -19.181  1.00  0.00    -0.377 OA
HETATM   25  H2  UNL     1      -2.440  51.964 -18.228  1.00  0.00     0.211 HD
ENDBRANCH   3  24
BRANCH  13  26
HETATM   26  O2  UNL     1      -9.077  47.285 -24.852  1.00  0.00    -0.271 OA
BRANCH  26  27
HETATM   27  C13 UNL     1     -10.315  46.913 -24.255  1.00  0.00     0.303 C 
BRANCH  27  28
HETATM   28  C14 UNL     1     -11.510  47.335 -25.100  1.00  0.00     0.244 C 
HETATM   29  O3  UNL     1     -11.444  48.269 -25.894  1.00  0.00    -0.271 OA
HETATM   30  N2  UNL     1     -12.669  46.649 -24.808  1.00  0.00    -0.346 N 
HETATM   31  H16 UNL     1     -12.525  45.768 -24.317  1.00  0.00     0.163 HD
BRANCH  30  32
HETATM   32  C15 UNL     1     -13.931  46.806 -25.542  1.00  0.00     0.180 C 
BRANCH  32  33
HETATM   33  C16 UNL     1     -15.120  46.967 -24.555  1.00  0.00     0.241 C 
HETATM   34  O4  UNL     1     -15.594  48.058 -24.242  1.00  0.00    -0.271 OA
HETATM   35  N3  UNL     1     -15.677  45.778 -24.112  1.00  0.00    -0.353 N 
HETATM   36  H18 UNL     1     -15.170  44.919 -24.282  1.00  0.00     0.163 HD
BRANCH  35  37
HETATM   37  C17 UNL     1     -16.788  45.743 -23.143  1.00  0.00     0.103 C 
BRANCH  37  38
HETATM   38  C18 UNL     1     -16.310  46.244 -21.767  1.00  0.00     0.096 C 
BRANCH  38  39
HETATM   39  S1  UNL     1     -17.676  46.447 -20.578  1.00  0.00    -0.180 SA
HETATM   40  H22 UNL     1     -18.554  45.660 -21.218  1.00  0.00     0.101 HD
ENDBRANCH  38  39
ENDBRANCH  37  38
BRANCH  37  41
HETATM   41  C19 UNL     1     -17.959  46.618 -23.612  1.00  0.00     0.136 C 
BRANCH  41  42
HETATM   42  C20 UNL     1     -18.719  46.004 -24.750  1.00  0.00     0.141 C 
HETATM   43  O5  UNL     1     -18.511  44.900 -25.226  1.00  0.00    -0.650 OA
BRANCH  42  44
HETATM   44  O6  UNL     1     -19.656  46.819 -25.254  1.00  0.00    -0.776 OA
HETATM   45  H25 UNL     1     -20.169  46.236 -25.859  1.00  0.00     0.167 HD
ENDBRANCH  42  44
ENDBRANCH  41  42
ENDBRANCH  37  41
ENDBRANCH  35  37
ENDBRANCH  32  33
BRANCH  32  46
HETATM   46  C21 UNL     1     -14.102  45.782 -26.701  1.00  0.00     0.009 C 
HETATM   47  C22 UNL     1     -13.351  46.228 -27.961  1.00  0.00     0.012 C 
HETATM   48  C23 UNL     1     -15.555  45.448 -27.065  1.00  0.00     0.012 C 
ENDBRANCH  32  46
ENDBRANCH  30  32
ENDBRANCH  27  28
ENDBRANCH  26  27
ENDBRANCH  13  26
TORSDOF 13
ENDMDL
MODEL 4
REMARK minimizedAffinity -9.40532303
REMARK CNNscore 0.340594977
REMARK CNNaffinity 6.9025054
REMARK  13 active torsions:
REMARK  status: ('A' for Active; 'I' for Inactive)
REMARK    1  A    between atoms: C3_3  and  O1_4 
REMARK    2  A    between atoms: N1_14  and  O2_16 
REMARK    3  A    between atoms: O2_16  and  C13_17 
REMARK    4  A    between atoms: C13_17  and  C14_18 
REMARK       I    between atoms: C14_18  and  N2_20 
REMARK    5  A    between atoms: N2_20  and  C15_21 
REMARK    6  A    between atoms: C15_21  and  C16_22 
REMARK    7  A    between atoms: C15_21  and  C21_32 
REMARK       I    between atoms: C16_22  and  N3_24 
REMARK    8  A    between atoms: N3_24  and  C17_25 
REMARK    9  A    between atoms: C17_25  and  C18_26 
REMARK   10  A    between atoms: C17_25  and  C19_28 
REMARK   11  A    between atoms: C18_26  and  S1_27 
REMARK   12  A    between atoms: C19_28  and  C20_29 
REMARK   13  A    between atoms: C20_29  and  O6_31 
ROOT
HETATM    1  C1  UNL     1      -0.456  53.896 -28.147  1.00  0.00     0.015 C 
HETATM    2  C2  UNL     1      -1.088  53.146 -27.452  1.00  0.00    -0.078 C 
HETATM    3  C3  UNL     1      -1.872  52.237 -26.598  1.00  0.00     0.128 C 
HETATM    4  C4  UNL     1      -2.600  51.174 -27.419  1.00  0.00     0.052 C 
HETATM    5  C5  UNL     1      -3.048  50.171 -26.360  1.00  0.00     0.010 C 
HETATM    6  C6  UNL     1      -1.954  50.185 -25.269  1.00  0.00     0.002 C 
HETATM    7  C7  UNL     1      -2.433  49.984 -23.816  1.00  0.00    -0.004 C 
HETATM    8  C8  UNL     1      -3.714  50.717 -23.390  1.00  0.00     0.010 C 
HETATM    9  C9  UNL     1      -4.139  50.326 -21.973  1.00  0.00     0.035 C 
HETATM   10  C10 UNL     1      -3.042  50.375 -20.935  1.00  0.00    -0.069 C 
HETATM   11  C11 UNL     1      -3.336  50.760 -19.677  1.00  0.00     0.030 C 
HETATM   12  C12 UNL     1      -2.355  50.655 -18.562  1.00  0.00     0.032 C 
HETATM   13  N1  UNL     1      -2.778  50.888 -17.350  1.00  0.00    -0.271 N 
ATOM     14  H1  UNL     1      -3.733  51.157 -17.117  1.00  0.00     0.194 HD
HETATM   15  C24 UNL     1      -0.947  50.191 -18.879  1.00  0.00     0.060 C 
HETATM   16  C25 UNL     1      -0.603  50.430 -20.343  1.00  0.00     0.020 C 
HETATM   17  C26 UNL     1      -1.657  49.875 -21.344  1.00  0.00    -0.016 C 
HETATM   18  C27 UNL     1      -1.658  48.325 -21.255  1.00  0.00     0.020 C 
HETATM   19  C28 UNL     1      -1.285  50.298 -22.824  1.00  0.00     0.002 C 
HETATM   20  C29 UNL     1      -0.893  51.777 -22.962  1.00  0.00     0.007 C 
HETATM   21  C30 UNL     1      -0.566  52.254 -24.377  1.00  0.00     0.014 C 
HETATM   22  C31 UNL     1      -1.029  51.404 -25.580  1.00  0.00     0.003 C 
HETATM   23  C32 UNL     1       0.259  50.828 -26.251  1.00  0.00     0.020 C 
ENDROOT
BRANCH   3  24
HETATM   24  O1  UNL     1      -2.876  52.990 -25.899  1.00  0.00    -0.377 OA
HETATM   25  H2  UNL     1      -2.944  53.856 -26.335  1.00  0.00     0.211 HD
ENDBRANCH   3  24
BRANCH  13  26
HETATM   26  O2  UNL     1      -1.752  50.723 -16.406  1.00  0.00    -0.271 OA
BRANCH  26  27
HETATM   27  C13 UNL     1      -2.295  50.273 -15.169  1.00  0.00     0.303 C 
BRANCH  27  28
HETATM   28  C14 UNL     1      -2.751  51.429 -14.287  1.00  0.00     0.244 C 
HETATM   29  O3  UNL     1      -3.630  52.207 -14.643  1.00  0.00    -0.271 OA
HETATM   30  N2  UNL     1      -2.016  51.568 -13.129  1.00  0.00    -0.346 N 
HETATM   31  H16 UNL     1      -1.495  50.735 -12.857  1.00  0.00     0.163 HD
BRANCH  30  32
HETATM   32  C15 UNL     1      -2.314  52.544 -12.074  1.00  0.00     0.180 C 
BRANCH  32  33
HETATM   33  C16 UNL     1      -1.182  52.558 -11.009  1.00  0.00     0.241 C 
HETATM   34  O4  UNL     1      -0.751  51.540 -10.469  1.00  0.00    -0.271 OA
HETATM   35  N3  UNL     1      -0.620  53.802 -10.769  1.00  0.00    -0.353 N 
HETATM   36  H18 UNL     1      -1.097  54.620 -11.126  1.00  0.00     0.163 HD
BRANCH  35  37
HETATM   37  C17 UNL     1       0.439  54.005  -9.764  1.00  0.00     0.103 C 
BRANCH  37  38
HETATM   38  C18 UNL     1       1.827  53.850 -10.415  1.00  0.00     0.096 C 
BRANCH  38  39
HETATM   39  S1  UNL     1       2.740  55.425 -10.509  1.00  0.00    -0.180 SA
HETATM   40  H22 UNL     1       2.032  56.070  -9.570  1.00  0.00     0.101 HD
ENDBRANCH  38  39
ENDBRANCH  37  38
BRANCH  37  41
HETATM   41  C19 UNL     1       0.340  55.398  -9.128  1.00  0.00     0.136 C 
BRANCH  41  42
HETATM   42  C20 UNL     1       0.393  55.354  -7.630  1.00  0.00     0.141 C 
HETATM   43  O5  UNL     1       1.064  54.580  -6.968  1.00  0.00    -0.650 OA
BRANCH  42  44
HETATM   44  O6  UNL     1      -0.427  56.243  -7.050  1.00  0.00    -0.776 OA
HETATM   45  H25 UNL     1      -0.165  56.215  -6.102  1.00  0.00     0.167 HD
ENDBRANCH  42  44
ENDBRANCH  41  42
ENDBRANCH  37  41
ENDBRANCH  35  37
ENDBRANCH  32  33
BRANCH  32  46
HETATM   46  C21 UNL     1      -3.779  52.465 -11.554  1.00  0.00     0.009 C 
HETATM   47  C22 UNL     1      -4.141  53.690 -10.705  1.00  0.00     0.012 C 
HETATM   48  C23 UNL     1      -4.126  51.187 -10.780  1.00  0.00     0.012 C 
ENDBRANCH  32  46
ENDBRANCH  30  32
ENDBRANCH  27  28
ENDBRANCH  26  27
ENDBRANCH  13  26
TORSDOF 13
ENDMDL
MODEL 5
REMARK minimizedAffinity -7.81846189
REMARK CNNscore 0.323677003
REMARK CNNaffinity 7.16255713
REMARK  13 active torsions:
REMARK  status: ('A' for Active; 'I' for Inactive)
REMARK    1  A    between atoms: C3_3  and  O1_4 
REMARK    2  A    between atoms: N1_14  and  O2_16 
REMARK    3  A    between atoms: O2_16  and  C13_17 
REMARK    4  A    between atoms: C13_17  and  C14_18 
REMARK       I    between atoms: C14_18  and  N2_20 
REMARK    5  A    between atoms: N2_20  and  C15_21 
REMARK    6  A    between atoms: C15_21  and  C16_22 
REMARK    7  A    between atoms: C15_21  and  C21_32 
REMARK       I    between atoms: C16_22  and  N3_24 
REMARK    8  A    between atoms: N3_24  and  C17_25 
REMARK    9  A    between atoms: C17_25  and  C18_26 
REMARK   10  A    between atoms: C17_25  and  C19_28 
REMARK   11  A    between atoms: C18_26  and  S1_27 
REMARK   12  A    between atoms: C19_28  and  C20_29 
REMARK   13  A    between atoms: C20_29  and  O6_31 
ROOT
HETATM    1  C1  UNL     1      -1.879  52.674  -8.294  1.00  0.00     0.015 C 
HETATM    2  C2  UNL     1      -1.085  52.287  -9.109  1.00  0.00    -0.078 C 
HETATM    3  C3  UNL     1      -0.104  51.824 -10.107  1.00  0.00     0.128 C 
HETATM    4  C4  UNL     1       0.911  50.858  -9.500  1.00  0.00     0.052 C 
HETATM    5  C5  UNL     1       1.588  50.256 -10.727  1.00  0.00     0.010 C 
HETATM    6  C6  UNL     1       0.502  50.191 -11.825  1.00  0.00     0.002 C 
HETATM    7  C7  UNL     1       0.976  50.433 -13.273  1.00  0.00    -0.004 C 
HETATM    8  C8  UNL     1       1.993  51.561 -13.502  1.00  0.00     0.010 C 
HETATM    9  C9  UNL     1       2.469  51.602 -14.956  1.00  0.00     0.035 C 
HETATM   10  C10 UNL     1       1.372  51.557 -15.993  1.00  0.00    -0.069 C 
HETATM   11  C11 UNL     1       1.512  52.258 -17.136  1.00  0.00     0.030 C 
HETATM   12  C12 UNL     1       0.567  52.118 -18.279  1.00  0.00     0.032 C 
HETATM   13  N1  UNL     1       0.875  52.702 -19.404  1.00  0.00    -0.271 N 
ATOM     14  H1  UNL     1       1.712  53.266 -19.548  1.00  0.00     0.194 HD
HETATM   15  C24 UNL     1      -0.649  51.229 -18.105  1.00  0.00     0.060 C 
HETATM   16  C25 UNL     1      -1.004  51.059 -16.635  1.00  0.00     0.020 C 
HETATM   17  C26 UNL     1       0.190  50.623 -15.737  1.00  0.00    -0.016 C 
HETATM   18  C27 UNL     1       0.617  49.186 -16.142  1.00  0.00     0.020 C 
HETATM   19  C28 UNL     1      -0.241  50.614 -14.214  1.00  0.00     0.002 C 
HETATM   20  C29 UNL     1      -1.021  51.867 -13.787  1.00  0.00     0.007 C 
HETATM   21  C30 UNL     1      -1.427  51.936 -12.315  1.00  0.00     0.014 C 
HETATM   22  C31 UNL     1      -0.714  51.018 -11.299  1.00  0.00     0.003 C 
HETATM   23  C32 UNL     1      -1.774  49.984 -10.798  1.00  0.00     0.020 C 
ENDROOT
BRANCH   3  24
HETATM   24  O1  UNL     1       0.633  52.951 -10.606  1.00  0.00    -0.377 OA
HETATM   25  H2  UNL     1       0.471  53.694 -10.001  1.00  0.00     0.211 HD
ENDBRANCH   3  24
BRANCH  13  26
HETATM   26  O2  UNL     1      -0.092  52.457 -20.392  1.00  0.00    -0.271 OA
BRANCH  26  27
HETATM   27  C13 UNL     1       0.523  51.903 -21.550  1.00  0.00     0.303 C 
BRANCH  27  28
HETATM   28  C14 UNL     1      -0.476  51.664 -22.674  1.00  0.00     0.244 C 
HETATM   29  O3  UNL     1      -1.061  50.593 -22.802  1.00  0.00    -0.271 OA
HETATM   30  N2  UNL     1      -0.568  52.708 -23.570  1.00  0.00    -0.346 N 
HETATM   31  H16 UNL     1      -0.218  53.598 -23.217  1.00  0.00     0.163 HD
BRANCH  30  32
HETATM   32  C15 UNL     1      -1.522  52.759 -24.684  1.00  0.00     0.180 C 
BRANCH  32  33
HETATM   33  C16 UNL     1      -2.868  52.095 -24.282  1.00  0.00     0.241 C 
HETATM   34  O4  UNL     1      -3.622  52.561 -23.429  1.00  0.00    -0.271 OA
HETATM   35  N3  UNL     1      -3.211  50.974 -25.021  1.00  0.00    -0.353 N 
HETATM   36  H18 UNL     1      -2.502  50.551 -25.607  1.00  0.00     0.163 HD
BRANCH  35  37
HETATM   37  C17 UNL     1      -4.434  50.198 -24.750  1.00  0.00     0.103 C 
BRANCH  37  38
HETATM   38  C18 UNL     1      -4.218  48.717 -25.114  1.00  0.00     0.096 C 
BRANCH  38  39
HETATM   39  S1  UNL     1      -4.071  48.448 -26.910  1.00  0.00    -0.180 SA
HETATM   40  H22 UNL     1      -3.768  49.715 -27.232  1.00  0.00     0.101 HD
ENDBRANCH  38  39
ENDBRANCH  37  38
BRANCH  37  41
HETATM   41  C19 UNL     1      -4.835  50.294 -23.271  1.00  0.00     0.136 C 
BRANCH  41  42
HETATM   42  C20 UNL     1      -6.234  49.815 -23.019  1.00  0.00     0.141 C 
HETATM   43  O5  UNL     1      -6.601  48.652 -23.060  1.00  0.00    -0.650 OA
BRANCH  42  44
HETATM   44  O6  UNL     1      -7.095  50.814 -22.781  1.00  0.00    -0.776 OA
HETATM   45  H25 UNL     1      -7.908  50.351 -22.476  1.00  0.00     0.167 HD
ENDBRANCH  42  44
ENDBRANCH  41  42
ENDBRANCH  37  41
ENDBRANCH  35  37
ENDBRANCH  32  33
BRANCH  32  46
HETATM   46  C21 UNL     1      -0.900  52.338 -26.048  1.00  0.00     0.009 C 
HETATM   47  C22 UNL     1      -0.473  50.865 -26.039  1.00  0.00     0.012 C 
HETATM   48  C23 UNL     1       0.271  53.206 -26.525  1.00  0.00     0.012 C 
ENDBRANCH  32  46
ENDBRANCH  30  32
ENDBRANCH  27  28
ENDBRANCH  26  27
ENDBRANCH  13  26
TORSDOF 13
ENDMDL
MODEL 6
REMARK minimizedAffinity -7.32238817
REMARK CNNscore 0.274051368
REMARK CNNaffinity 6.65020752
REMARK  13 active torsions:
REMARK  status: ('A' for Active; 'I' for Inactive)
REMARK    1  A    between atoms: C3_3  and  O1_4 
REMARK    2  A    between atoms: N1_14  and  O2_16 
REMARK    3  A    between atoms: O2_16  and  C13_17 
REMARK    4  A    between atoms: C13_17  and  C14_18 
REMARK       I    between atoms: C14_18  and  N2_20 
REMARK    5  A    between atoms: N2_20  and  C15_21 
REMARK    6  A    between atoms: C15_21  and  C16_22 
REMARK    7  A    between atoms: C15_21  and  C21_32 
REMARK       I    between atoms: C16_22  and  N3_24 
REMARK    8  A    between atoms: N3_24  and  C17_25 
REMARK    9  A    between atoms: C17_25  and  C18_26 
REMARK   10  A    between atoms: C17_25  and  C19_28 
REMARK   11  A    between atoms: C18_26  and  S1_27 
REMARK   12  A    between atoms: C19_28  and  C20_29 
REMARK   13  A    between atoms: C20_29  and  O6_31 
ROOT
HETATM    1  C1  UNL     1      -2.235  52.229 -23.474  1.00  0.00     0.015 C 
HETATM    2  C2  UNL     1      -2.274  51.588 -22.458  1.00  0.00    -0.078 C 
HETATM    3  C3  UNL     1      -2.335  50.807 -21.209  1.00  0.00     0.128 C 
HETATM    4  C4  UNL     1      -2.670  49.341 -21.473  1.00  0.00     0.052 C 
HETATM    5  C5  UNL     1      -2.351  48.672 -20.139  1.00  0.00     0.010 C 
HETATM    6  C6  UNL     1      -1.161  49.457 -19.542  1.00  0.00     0.002 C 
HETATM    7  C7  UNL     1      -1.141  49.607 -18.007  1.00  0.00    -0.004 C 
HETATM    8  C8  UNL     1      -2.474  49.921 -17.313  1.00  0.00     0.010 C 
HETATM    9  C9  UNL     1      -2.329  49.914 -15.789  1.00  0.00     0.035 C 
HETATM   10  C10 UNL     1      -1.165  50.711 -15.249  1.00  0.00    -0.069 C 
HETATM   11  C11 UNL     1      -1.297  51.369 -14.080  1.00  0.00     0.030 C 
HETATM   12  C12 UNL     1      -0.145  52.018 -13.396  1.00  0.00     0.032 C 
HETATM   13  N1  UNL     1      -0.330  52.482 -12.190  1.00  0.00    -0.271 N 
ATOM     14  H1  UNL     1      -1.219  52.447 -11.692  1.00  0.00     0.194 HD
HETATM   15  C24 UNL     1       1.201  52.020 -14.093  1.00  0.00     0.060 C 
HETATM   16  C25 UNL     1       1.045  51.850 -15.597  1.00  0.00     0.020 C 
HETATM   17  C26 UNL     1       0.156  50.643 -16.014  1.00  0.00    -0.016 C 
HETATM   18  C27 UNL     1       0.880  49.331 -15.608  1.00  0.00     0.020 C 
HETATM   19  C28 UNL     1      -0.064  50.637 -17.582  1.00  0.00     0.002 C 
HETATM   20  C29 UNL     1      -0.432  52.012 -18.158  1.00  0.00     0.007 C 
HETATM   21  C30 UNL     1      -0.699  52.060 -19.662  1.00  0.00     0.014 C 
HETATM   22  C31 UNL     1      -0.993  50.743 -20.412  1.00  0.00     0.003 C 
HETATM   23  C32 UNL     1       0.219  50.483 -21.364  1.00  0.00     0.020 C 
ENDROOT
BRANCH   3  24
HETATM   24  O1  UNL     1      -3.376  51.334 -20.371  1.00  0.00    -0.377 OA
HETATM   25  H2  UNL     1      -3.930  51.910 -20.924  1.00  0.00     0.211 HD
ENDBRANCH   3  24
BRANCH  13  26
HETATM   26  O2  UNL     1       0.848  53.036 -11.666  1.00  0.00    -0.271 OA
BRANCH  26  27
HETATM   27  C13 UNL     1       0.691  53.287 -10.273  1.00  0.00     0.303 C 
BRANCH  27  28
HETATM   28  C14 UNL     1       2.017  53.235  -9.525  1.00  0.00     0.244 C 
HETATM   29  O3  UNL     1       2.498  52.177  -9.133  1.00  0.00    -0.271 OA
HETATM   30  N2  UNL     1       2.549  54.476  -9.248  1.00  0.00    -0.346 N 
HETATM   31  H16 UNL     1       2.179  55.231  -9.824  1.00  0.00     0.163 HD
BRANCH  30  32
HETATM   32  C15 UNL     1       3.857  54.693  -8.620  1.00  0.00     0.180 C 
BRANCH  32  33
HETATM   33  C16 UNL     1       3.685  55.179  -7.154  1.00  0.00     0.241 C 
HETATM   34  O4  UNL     1       4.450  54.863  -6.244  1.00  0.00    -0.271 OA
HETATM   35  N3  UNL     1       2.648  56.077  -6.954  1.00  0.00    -0.353 N 
HETATM   36  H18 UNL     1       1.967  56.195  -7.693  1.00  0.00     0.163 HD
BRANCH  35  37
HETATM   37  C17 UNL     1       2.317  56.611  -5.620  1.00  0.00     0.103 C 
BRANCH  37  38
HETATM   38  C18 UNL     1       2.543  58.135  -5.587  1.00  0.00     0.096 C 
BRANCH  38  39
HETATM   39  S1  UNL     1       3.574  58.663  -4.180  1.00  0.00    -0.180 SA
HETATM   40  H22 UNL     1       4.124  57.465  -3.934  1.00  0.00     0.101 HD
ENDBRANCH  38  39
ENDBRANCH  37  38
BRANCH  37  41
HETATM   41  C19 UNL     1       0.857  56.315  -5.251  1.00  0.00     0.136 C 
BRANCH  41  42
HETATM   42  C20 UNL     1      -0.004  56.068  -6.453  1.00  0.00     0.141 C 
HETATM   43  O5  UNL     1      -0.570  55.020  -6.715  1.00  0.00    -0.650 OA
BRANCH  42  44
HETATM   44  O6  UNL     1      -0.068  57.124  -7.277  1.00  0.00    -0.776 OA
HETATM   45  H25 UNL     1      -0.781  56.880  -7.911  1.00  0.00     0.167 HD
ENDBRANCH  42  44
ENDBRANCH  41  42
ENDBRANCH  37  41
ENDBRANCH  35  37
ENDBRANCH  32  33
BRANCH  32  46
HETATM   46  C21 UNL     1       4.850  55.485  -9.520  1.00  0.00     0.009 C 
HETATM   47  C22 UNL     1       4.338  55.594 -10.961  1.00  0.00     0.012 C 
HETATM   48  C23 UNL     1       6.288  54.952  -9.528  1.00  0.00     0.012 C 
ENDBRANCH  32  46
ENDBRANCH  30  32
ENDBRANCH  27  28
ENDBRANCH  26  27
ENDBRANCH  13  26
TORSDOF 13
ENDMDL
MODEL 7
REMARK minimizedAffinity -7.59985781
REMARK CNNscore 0.246793851
REMARK CNNaffinity 6.28646803
REMARK  13 active torsions:
REMARK  status: ('A' for Active; 'I' for Inactive)
REMARK    1  A    between atoms: C3_3  and  O1_4 
REMARK    2  A    between atoms: N1_14  and  O2_16 
REMARK    3  A    between atoms: O2_16  and  C13_17 
REMARK    4  A    between atoms: C13_17  and  C14_18 
REMARK       I    between atoms: C14_18  and  N2_20 
REMARK    5  A    between atoms: N2_20  and  C15_21 
REMARK    6  A    between atoms: C15_21  and  C16_22 
REMARK    7  A    between atoms: C15_21  and  C21_32 
REMARK       I    between atoms: C16_22  and  N3_24 
REMARK    8  A    between atoms: N3_24  and  C17_25 
REMARK    9  A    between atoms: C17_25  and  C18_26 
REMARK   10  A    between atoms: C17_25  and  C19_28 
REMARK   11  A    between atoms: C18_26  and  S1_27 
REMARK   12  A    between atoms: C19_28  and  C20_29 
REMARK   13  A    between atoms: C20_29  and  O6_31 
ROOT
HETATM    1  C1  UNL     1      -0.338  53.705 -19.171  1.00  0.00     0.015 C 
HETATM    2  C2  UNL     1      -0.597  52.707 -19.790  1.00  0.00    -0.078 C 
HETATM    3  C3  UNL     1      -0.910  51.491 -20.562  1.00  0.00     0.128 C 
HETATM    4  C4  UNL     1       0.199  50.447 -20.449  1.00  0.00     0.052 C 
HETATM    5  C5  UNL     1      -0.458  49.189 -21.009  1.00  0.00     0.010 C 
HETATM    6  C6  UNL     1      -1.952  49.279 -20.623  1.00  0.00     0.002 C 
HETATM    7  C7  UNL     1      -2.959  48.705 -21.642  1.00  0.00    -0.004 C 
HETATM    8  C8  UNL     1      -2.705  49.004 -23.127  1.00  0.00     0.010 C 
HETATM    9  C9  UNL     1      -3.702  48.269 -24.026  1.00  0.00     0.035 C 
HETATM   10  C10 UNL     1      -5.151  48.402 -23.622  1.00  0.00    -0.069 C 
HETATM   11  C11 UNL     1      -6.102  48.467 -24.575  1.00  0.00     0.030 C 
HETATM   12  C12 UNL     1      -7.556  48.411 -24.257  1.00  0.00     0.032 C 
HETATM   13  N1  UNL     1      -8.397  48.308 -25.250  1.00  0.00    -0.271 N 
ATOM     14  H1  UNL     1      -8.126  48.282 -26.232  1.00  0.00     0.194 HD
HETATM   15  C24 UNL     1      -7.976  48.381 -22.801  1.00  0.00     0.060 C 
HETATM   16  C25 UNL     1      -6.893  48.959 -21.901  1.00  0.00     0.020 C 
HETATM   17  C26 UNL     1      -5.480  48.349 -22.130  1.00  0.00    -0.016 C 
HETATM   18  C27 UNL     1      -5.508  46.858 -21.697  1.00  0.00     0.020 C 
HETATM   19  C28 UNL     1      -4.403  49.112 -21.256  1.00  0.00     0.002 C 
HETATM   20  C29 UNL     1      -4.528  50.641 -21.322  1.00  0.00     0.007 C 
HETATM   21  C30 UNL     1      -3.486  51.434 -20.532  1.00  0.00     0.014 C 
HETATM   22  C31 UNL     1      -2.187  50.727 -20.088  1.00  0.00     0.003 C 
HETATM   23  C32 UNL     1      -2.239  50.623 -18.529  1.00  0.00     0.020 C 
ENDROOT
BRANCH   3  24
HETATM   24  O1  UNL     1      -1.032  51.829 -21.952  1.00  0.00    -0.377 OA
HETATM   25  H2  UNL     1      -0.649  52.715 -22.069  1.00  0.00     0.211 HD
ENDBRANCH   3  24
BRANCH  13  26
HETATM   26  O2  UNL     1      -9.723  48.237 -24.795  1.00  0.00    -0.271 OA
BRANCH  26  27
HETATM   27  C13 UNL     1     -10.351  47.065 -25.303  1.00  0.00     0.303 C 
BRANCH  27  28
HETATM   28  C14 UNL     1     -11.673  47.373 -25.994  1.00  0.00     0.244 C 
HETATM   29  O3  UNL     1     -11.884  48.455 -26.534  1.00  0.00    -0.271 OA
HETATM   30  N2  UNL     1     -12.619  46.380 -25.856  1.00  0.00    -0.346 N 
HETATM   31  H16 UNL     1     -12.239  45.469 -25.599  1.00  0.00     0.163 HD
BRANCH  30  32
HETATM   32  C15 UNL     1     -13.936  46.397 -26.502  1.00  0.00     0.180 C 
BRANCH  32  33
HETATM   33  C16 UNL     1     -15.049  46.033 -25.481  1.00  0.00     0.241 C 
HETATM   34  O4  UNL     1     -15.301  44.878 -25.139  1.00  0.00    -0.271 OA
HETATM   35  N3  UNL     1     -15.691  47.117 -24.903  1.00  0.00    -0.353 N 
HETATM   36  H18 UNL     1     -15.551  48.031 -25.315  1.00  0.00     0.163 HD
BRANCH  35  37
HETATM   37  C17 UNL     1     -16.796  46.956 -23.942  1.00  0.00     0.103 C 
BRANCH  37  38
HETATM   38  C18 UNL     1     -18.003  46.285 -24.626  1.00  0.00     0.096 C 
BRANCH  38  39
HETATM   39  S1  UNL     1     -19.162  45.537 -23.434  1.00  0.00    -0.180 SA
HETATM   40  H22 UNL     1     -18.752  46.233 -22.363  1.00  0.00     0.101 HD
ENDBRANCH  38  39
ENDBRANCH  37  38
BRANCH  37  41
HETATM   41  C19 UNL     1     -16.366  46.102 -22.741  1.00  0.00     0.136 C 
BRANCH  41  42
HETATM   42  C20 UNL     1     -15.663  46.902 -21.686  1.00  0.00     0.141 C 
HETATM   43  O5  UNL     1     -15.941  46.907 -20.498  1.00  0.00    -0.650 OA
BRANCH  42  44
HETATM   44  O6  UNL     1     -14.691  47.682 -22.181  1.00  0.00    -0.776 OA
HETATM   45  H25 UNL     1     -14.223  48.006 -21.378  1.00  0.00     0.167 HD
ENDBRANCH  42  44
ENDBRANCH  41  42
ENDBRANCH  37  41
ENDBRANCH  35  37
ENDBRANCH  32  33
BRANCH  32  46
HETATM   46  C21 UNL     1     -13.961  45.662 -27.873  1.00  0.00     0.009 C 
HETATM   47  C22 UNL     1     -13.134  44.371 -27.834  1.00  0.00     0.012 C 
HETATM   48  C23 UNL     1     -13.524  46.511 -29.075  1.00  0.00     0.012 C 
ENDBRANCH  32  46
ENDBRANCH  30  32
ENDBRANCH  27  28
ENDBRANCH  26  27
ENDBRANCH  13  26
TORSDOF 13
ENDMDL
MODEL 8
REMARK minimizedAffinity -7.53943729
REMARK CNNscore 0.233028024
REMARK CNNaffinity 6.65644073
REMARK  13 active torsions:
REMARK  status: ('A' for Active; 'I' for Inactive)
REMARK    1  A    between atoms: C3_3  and  O1_4 
REMARK    2  A    between atoms: N1_14  and  O2_16 
REMARK    3  A    between atoms: O2_16  and  C13_17 
REMARK    4  A    between atoms: C13_17  and  C14_18 
REMARK       I    between atoms: C14_18  and  N2_20 
REMARK    5  A    between atoms: N2_20  and  C15_21 
REMARK    6  A    between atoms: C15_21  and  C16_22 
REMARK    7  A    between atoms: C15_21  and  C21_32 
REMARK       I    between atoms: C16_22  and  N3_24 
REMARK    8  A    between atoms: N3_24  and  C17_25 
REMARK    9  A    between atoms: C17_25  and  C18_26 
REMARK   10  A    between atoms: C17_25  and  C19_28 
REMARK   11  A    between atoms: C18_26  and  S1_27 
REMARK   12  A    between atoms: C19_28  and  C20_29 
REMARK   13  A    between atoms: C20_29  and  O6_31 
ROOT
HETATM    1  C1  UNL     1       0.061  50.188 -16.963  1.00  0.00     0.015 C 
HETATM    2  C2  UNL     1      -0.307  50.537 -18.053  1.00  0.00    -0.078 C 
HETATM    3  C3  UNL     1      -0.764  50.975 -19.383  1.00  0.00     0.128 C 
HETATM    4  C4  UNL     1       0.307  51.781 -20.115  1.00  0.00     0.052 C 
HETATM    5  C5  UNL     1      -0.221  51.832 -21.546  1.00  0.00     0.010 C 
HETATM    6  C6  UNL     1      -0.967  50.498 -21.774  1.00  0.00     0.002 C 
HETATM    7  C7  UNL     1      -2.217  50.558 -22.676  1.00  0.00    -0.004 C 
HETATM    8  C8  UNL     1      -3.167  51.749 -22.485  1.00  0.00     0.010 C 
HETATM    9  C9  UNL     1      -4.287  51.747 -23.527  1.00  0.00     0.035 C 
HETATM   10  C10 UNL     1      -5.002  50.428 -23.702  1.00  0.00    -0.069 C 
HETATM   11  C11 UNL     1      -6.323  50.419 -23.967  1.00  0.00     0.030 C 
HETATM   12  C12 UNL     1      -7.055  49.175 -24.334  1.00  0.00     0.032 C 
HETATM   13  N1  UNL     1      -8.290  49.287 -24.739  1.00  0.00    -0.271 N 
ATOM     14  H1  UNL     1      -8.795  50.171 -24.804  1.00  0.00     0.194 HD
HETATM   15  C24 UNL     1      -6.302  47.860 -24.308  1.00  0.00     0.060 C 
HETATM   16  C25 UNL     1      -5.085  47.937 -23.397  1.00  0.00     0.020 C 
HETATM   17  C26 UNL     1      -4.157  49.155 -23.673  1.00  0.00    -0.016 C 
HETATM   18  C27 UNL     1      -3.508  48.976 -25.073  1.00  0.00     0.020 C 
HETATM   19  C28 UNL     1      -3.007  49.228 -22.587  1.00  0.00     0.002 C 
HETATM   20  C29 UNL     1      -3.507  49.037 -21.147  1.00  0.00     0.007 C 
HETATM   21  C30 UNL     1      -2.448  49.142 -20.050  1.00  0.00     0.014 C 
HETATM   22  C31 UNL     1      -1.097  49.815 -20.376  1.00  0.00     0.003 C 
HETATM   23  C32 UNL     1      -0.008  48.696 -20.322  1.00  0.00     0.020 C 
ENDROOT
BRANCH   3  24
HETATM   24  O1  UNL     1      -1.907  51.832 -19.234  1.00  0.00    -0.377 OA
HETATM   25  H2  UNL     1      -1.949  52.098 -18.300  1.00  0.00     0.211 HD
ENDBRANCH   3  24
BRANCH  13  26
HETATM   26  O2  UNL     1      -8.837  48.039 -25.075  1.00  0.00    -0.271 OA
BRANCH  26  27
HETATM   27  C13 UNL     1      -8.353  47.622 -26.347  1.00  0.00     0.303 C 
BRANCH  27  28
HETATM   28  C14 UNL     1      -9.055  46.366 -26.847  1.00  0.00     0.244 C 
HETATM   29  O3  UNL     1      -9.281  45.413 -26.107  1.00  0.00    -0.271 OA
HETATM   30  N2  UNL     1      -9.303  46.368 -28.203  1.00  0.00    -0.346 N 
HETATM   31  H16 UNL     1      -9.282  47.291 -28.634  1.00  0.00     0.163 HD
BRANCH  30  32
HETATM   32  C15 UNL     1     -10.047  45.318 -28.909  1.00  0.00     0.180 C 
BRANCH  32  33
HETATM   33  C16 UNL     1     -11.525  45.281 -28.431  1.00  0.00     0.241 C 
HETATM   34  O4  UNL     1     -11.986  44.383 -27.728  1.00  0.00    -0.271 OA
HETATM   35  N3  UNL     1     -12.280  46.391 -28.780  1.00  0.00    -0.353 N 
HETATM   36  H18 UNL     1     -11.904  47.028 -29.469  1.00  0.00     0.163 HD
BRANCH  35  37
HETATM   37  C17 UNL     1     -13.710  46.506 -28.441  1.00  0.00     0.103 C 
BRANCH  37  38
HETATM   38  C18 UNL     1     -14.423  45.162 -28.677  1.00  0.00     0.096 C 
BRANCH  38  39
HETATM   39  S1  UNL     1     -15.809  44.888 -27.525  1.00  0.00    -0.180 SA
HETATM   40  H22 UNL     1     -15.972  46.172 -27.172  1.00  0.00     0.101 HD
ENDBRANCH  38  39
ENDBRANCH  37  38
BRANCH  37  41
HETATM   41  C19 UNL     1     -13.900  46.921 -26.975  1.00  0.00     0.136 C 
BRANCH  41  42
HETATM   42  C20 UNL     1     -12.628  47.396 -26.339  1.00  0.00     0.141 C 
HETATM   43  O5  UNL     1     -12.093  48.473 -26.544  1.00  0.00    -0.650 OA
BRANCH  42  44
HETATM   44  O6  UNL     1     -12.075  46.483 -25.527  1.00  0.00    -0.776 OA
HETATM   45  H25 UNL     1     -11.364  46.983 -25.067  1.00  0.00     0.167 HD
ENDBRANCH  42  44
ENDBRANCH  41  42
ENDBRANCH  37  41
ENDBRANCH  35  37
ENDBRANCH  32  33
BRANCH  32  46
HETATM   46  C21 UNL     1      -9.287  43.961 -28.974  1.00  0.00     0.009 C 
HETATM   47  C22 UNL     1      -7.830  44.154 -29.411  1.00  0.00     0.012 C 
HETATM   48  C23 UNL     1      -9.945  42.889 -29.852  1.00  0.00     0.012 C 
ENDBRANCH  32  46
ENDBRANCH  30  32
ENDBRANCH  27  28
ENDBRANCH  26  27
ENDBRANCH  13  26
TORSDOF 13
ENDMDL
MODEL 9
REMARK minimizedAffinity -7.85798454
REMARK CNNscore 0.220374346
REMARK CNNaffinity 6.55242395
REMARK  13 active torsions:
REMARK  status: ('A' for Active; 'I' for Inactive)
REMARK    1  A    between atoms: C3_3  and  O1_4 
REMARK    2  A    between atoms: N1_14  and  O2_16 
REMARK    3  A    between atoms: O2_16  and  C13_17 
REMARK    4  A    between atoms: C13_17  and  C14_18 
REMARK       I    between atoms: C14_18  and  N2_20 
REMARK    5  A    between atoms: N2_20  and  C15_21 
REMARK    6  A    between atoms: C15_21  and  C16_22 
REMARK    7  A    between atoms: C15_21  and  C21_32 
REMARK       I    between atoms: C16_22  and  N3_24 
REMARK    8  A    between atoms: N3_24  and  C17_25 
REMARK    9  A    between atoms: C17_25  and  C18_26 
REMARK   10  A    between atoms: C17_25  and  C19_28 
REMARK   11  A    between atoms: C18_26  and  S1_27 
REMARK   12  A    between atoms: C19_28  and  C20_29 
REMARK   13  A    between atoms: C20_29  and  O6_31 
ROOT
HETATM    1  C1  UNL     1      -0.043  55.165 -27.508  1.00  0.00     0.015 C 
HETATM    2  C2  UNL     1      -0.324  54.020 -27.273  1.00  0.00    -0.078 C 
HETATM    3  C3  UNL     1      -0.675  52.616 -26.997  1.00  0.00     0.128 C 
HETATM    4  C4  UNL     1       0.470  51.666 -27.344  1.00  0.00     0.052 C 
HETATM    5  C5  UNL     1       0.043  50.359 -26.682  1.00  0.00     0.010 C 
HETATM    6  C6  UNL     1      -0.729  50.760 -25.405  1.00  0.00     0.002 C 
HETATM    7  C7  UNL     1      -1.912  49.854 -25.006  1.00  0.00    -0.004 C 
HETATM    8  C8  UNL     1      -2.833  49.363 -26.133  1.00  0.00     0.010 C 
HETATM    9  C9  UNL     1      -3.879  48.374 -25.612  1.00  0.00     0.035 C 
HETATM   10  C10 UNL     1      -4.623  48.816 -24.375  1.00  0.00    -0.069 C 
HETATM   11  C11 UNL     1      -5.923  48.491 -24.230  1.00  0.00     0.030 C 
HETATM   12  C12 UNL     1      -6.668  48.728 -22.963  1.00  0.00     0.032 C 
HETATM   13  N1  UNL     1      -7.868  48.227 -22.855  1.00  0.00    -0.271 N 
ATOM     14  H1  UNL     1      -8.338  47.699 -23.590  1.00  0.00     0.194 HD
HETATM   15  C24 UNL     1      -5.962  49.453 -21.835  1.00  0.00     0.060 C 
HETATM   16  C25 UNL     1      -4.809  50.298 -22.356  1.00  0.00     0.020 C 
HETATM   17  C26 UNL     1      -3.824  49.530 -23.285  1.00  0.00    -0.016 C 
HETATM   18  C27 UNL     1      -3.088  48.452 -22.444  1.00  0.00     0.020 C 
HETATM   19  C28 UNL     1      -2.750  50.524 -23.888  1.00  0.00     0.002 C 
HETATM   20  C29 UNL     1      -3.353  51.829 -24.429  1.00  0.00     0.007 C 
HETATM   21  C30 UNL     1      -2.368  52.810 -25.065  1.00  0.00     0.014 C 
HETATM   22  C31 UNL     1      -0.977  52.299 -25.498  1.00  0.00     0.003 C 
HETATM   23  C32 UNL     1       0.069  52.978 -24.555  1.00  0.00     0.020 C 
ENDROOT
BRANCH   3  24
HETATM   24  O1  UNL     1      -1.796  52.239 -27.811  1.00  0.00    -0.377 OA
HETATM   25  H2  UNL     1      -1.893  52.915 -28.502  1.00  0.00     0.211 HD
ENDBRANCH   3  24
BRANCH  13  26
HETATM   26  O2  UNL     1      -8.432  48.507 -21.600  1.00  0.00    -0.271 OA
BRANCH  26  27
HETATM   27  C13 UNL     1      -8.969  47.318 -21.032  1.00  0.00     0.303 C 
BRANCH  27  28
HETATM   28  C14 UNL     1      -9.854  47.606 -19.825  1.00  0.00     0.244 C 
HETATM   29  O3  UNL     1      -9.399  47.654 -18.686  1.00  0.00    -0.271 OA
HETATM   30  N2  UNL     1     -11.196  47.695 -20.127  1.00  0.00    -0.346 N 
HETATM   31  H16 UNL     1     -11.396  47.869 -21.111  1.00  0.00     0.163 HD
BRANCH  30  32
HETATM   32  C15 UNL     1     -12.239  48.053 -19.159  1.00  0.00     0.180 C 
BRANCH  32  33
HETATM   33  C16 UNL     1     -12.292  47.014 -18.004  1.00  0.00     0.241 C 
HETATM   34  O4  UNL     1     -12.167  47.316 -16.818  1.00  0.00    -0.271 OA
HETATM   35  N3  UNL     1     -12.583  45.717 -18.398  1.00  0.00    -0.353 N 
HETATM   36  H18 UNL     1     -12.538  45.495 -19.384  1.00  0.00     0.163 HD
BRANCH  35  37
HETATM   37  C17 UNL     1     -12.637  44.599 -17.440  1.00  0.00     0.103 C 
BRANCH  37  38
HETATM   38  C18 UNL     1     -11.508  43.592 -17.733  1.00  0.00     0.096 C 
BRANCH  38  39
HETATM   39  S1  UNL     1     -11.574  42.125 -16.654  1.00  0.00    -0.180 SA
HETATM   40  H22 UNL     1     -12.858  42.262 -16.288  1.00  0.00     0.101 HD
ENDBRANCH  38  39
ENDBRANCH  37  38
BRANCH  37  41
HETATM   41  C19 UNL     1     -12.496  45.099 -15.996  1.00  0.00     0.136 C 
BRANCH  41  42
HETATM   42  C20 UNL     1     -13.795  45.075 -15.247  1.00  0.00     0.141 C 
HETATM   43  O5  UNL     1     -14.672  44.238 -15.378  1.00  0.00    -0.650 OA
BRANCH  42  44
HETATM   44  O6  UNL     1     -13.941  46.120 -14.419  1.00  0.00    -0.776 OA
HETATM   45  H25 UNL     1     -14.737  45.885 -13.889  1.00  0.00     0.167 HD
ENDBRANCH  42  44
ENDBRANCH  41  42
ENDBRANCH  37  41
ENDBRANCH  35  37
ENDBRANCH  32  33
BRANCH  32  46
HETATM   46  C21 UNL     1     -13.590  48.447 -19.824  1.00  0.00     0.009 C 
HETATM   47  C22 UNL     1     -14.718  48.543 -18.790  1.00  0.00     0.012 C 
HETATM   48  C23 UNL     1     -14.033  47.543 -20.981  1.00  0.00     0.012 C 
ENDBRANCH  32  46
ENDBRANCH  30  32
ENDBRANCH  27  28
ENDBRANCH  26  27
ENDBRANCH  13  26
TORSDOF 13
ENDMDL
