MODEL 1
REMARK minimizedAffinity -8.65717316
REMARK CNNscore 0.371574938
REMARK CNNaffinity 6.7695179
REMARK  6 active torsions:
REMARK  status: ('A' for Active; 'I' for Inactive)
REMARK       I    between atoms: N1_1  and  C1_2 
REMARK       I    between atoms: C1_2  and  N2_3 
REMARK    1  A    between atoms: N3_4  and  C2_6 
REMARK    2  A    between atoms: C11_16  and  S1_17 
REMARK    3  A    between atoms: S1_17  and  O4_20 
REMARK    4  A    between atoms: C23_33  and  O6_34 
REMARK    5  A    between atoms: C29_40  and  C30_41 
REMARK    6  A    between atoms: C30_41  and  O7_42 
ROOT
HETATM    1  C2  UNL     1     -11.737  46.901 -36.864  1.00  0.00     0.263 C 
HETATM    2  O1  UNL     1     -11.215  46.634 -38.209  1.00  0.00    -0.322 OA
HETATM    3  C3  UNL     1     -11.364  45.339 -38.637  1.00  0.00     0.071 C 
HETATM    4  C4  UNL     1     -10.198  44.668 -39.005  1.00  0.00     0.037 C 
HETATM    5  C5  UNL     1     -10.223  43.284 -39.174  1.00  0.00     0.010 C 
HETATM    6  C6  UNL     1     -11.420  42.575 -39.013  1.00  0.00    -0.058 C 
HETATM    7  C7  UNL     1     -12.611  43.291 -38.831  1.00  0.00     0.010 C 
HETATM    8  C8  UNL     1     -12.585  44.672 -38.634  1.00  0.00     0.037 C 
HETATM    9  C9  UNL     1     -11.406  41.067 -38.898  1.00  0.00     0.040 C 
HETATM   10  C10 UNL     1     -10.652  40.575 -37.635  1.00  0.00     0.027 C 
HETATM   11  C11 UNL     1     -11.132  41.178 -36.282  1.00  0.00     0.130 C 
HETATM   12  C12 UNL     1     -10.123  41.032 -35.080  1.00  0.00     0.037 C 
HETATM   13  C13 UNL     1      -8.637  41.115 -35.402  1.00  0.00    -0.014 C 
HETATM   14  C14 UNL     1      -7.776  41.070 -34.360  1.00  0.00    -0.050 C 
HETATM   15  C15 UNL     1      -8.334  40.754 -33.006  1.00  0.00     0.042 C 
HETATM   16  C16 UNL     1      -9.268  41.921 -32.708  1.00  0.00     0.001 C 
HETATM   17  C17 UNL     1      -8.459  43.175 -32.267  1.00  0.00     0.038 C 
HETATM   18  C18 UNL     1      -6.912  43.229 -32.503  1.00  0.00     0.130 C 
HETATM   19  O5  UNL     1      -6.525  43.012 -33.875  1.00  0.00    -0.371 OA
HETATM   20  C19 UNL     1      -6.393  41.668 -34.395  1.00  0.00     0.185 C 
HETATM   21  C20 UNL     1      -5.258  40.728 -33.940  1.00  0.00    -0.006 A 
HETATM   22  C21 UNL     1      -5.347  39.356 -34.284  1.00  0.00     0.014 A 
HETATM   23  C22 UNL     1      -4.331  38.451 -33.971  1.00  0.00     0.037 A 
HETATM   24  C23 UNL     1      -3.187  38.899 -33.329  1.00  0.00     0.067 A 
HETATM   25  C24 UNL     1      -3.045  40.240 -32.996  1.00  0.00     0.057 A 
HETATM   26  C25 UNL     1      -4.067  41.147 -33.308  1.00  0.00     0.029 A 
HETATM   27  C26 UNL     1      -3.894  42.505 -32.916  1.00  0.00    -0.066 C 
HETATM   28  C27 UNL     1      -4.109  43.636 -32.589  1.00  0.00    -0.101 C 
HETATM   29  C28 UNL     1      -4.822  44.872 -32.289  1.00  0.00     0.103 C 
HETATM   30  C29 UNL     1      -6.362  44.657 -32.107  1.00  0.00     0.049 C 
HETATM   31  C31 UNL     1     -10.357  42.075 -33.869  1.00  0.00     0.032 C 
HETATM   32  C32 UNL     1     -10.633  43.486 -34.391  1.00  0.00    -0.053 C 
HETATM   33  C33 UNL     1     -11.937  44.004 -34.330  1.00  0.00     0.008 C 
HETATM   34  C34 UNL     1     -12.286  45.144 -35.061  1.00  0.00     0.012 C 
HETATM   35  C35 UNL     1     -11.337  45.816 -35.845  1.00  0.00    -0.010 C 
HETATM   36  C36 UNL     1     -10.001  45.394 -35.766  1.00  0.00     0.012 C 
HETATM   37  C37 UNL     1      -9.662  44.229 -35.079  1.00  0.00     0.008 C 
ENDROOT
BRANCH   1  38
HETATM   38  N3  UNL     1     -13.168  47.260 -36.778  1.00  0.00    -0.341 N 
HETATM   39  C1  UNL     1     -13.606  48.145 -37.591  1.00  0.00     0.124 C 
HETATM   40  N1  UNL     1     -12.969  48.820 -38.575  1.00  0.00    -0.279 NA
HETATM   41  N2  UNL     1     -14.903  48.522 -37.546  1.00  0.00    -0.279 NA
HETATM   42  H1  UNL     1     -13.553  48.911 -39.398  1.00  0.00     0.126 HD
HETATM   43  H2  UNL     1     -12.088  48.385 -38.840  1.00  0.00     0.126 HD
HETATM   44  H3  UNL     1     -15.026  49.528 -37.605  1.00  0.00     0.126 HD
HETATM   45  H4  UNL     1     -15.365  48.142 -36.723  1.00  0.00     0.126 HD
ATOM     46  H3  UNL     1     -13.783  46.819 -36.095  1.00  0.00     0.164 HD
ENDBRANCH   1  38
BRANCH  11  47
HETATM   47  S1  UNL     1     -12.716  40.387 -35.778  1.00  0.00     0.099 S 
HETATM   48  O2  UNL     1     -13.040  39.268 -36.634  1.00  0.00    -0.601 OA
HETATM   49  O3  UNL     1     -13.697  41.395 -35.452  1.00  0.00    -0.601 OA
BRANCH  47  50
HETATM   50  O4  UNL     1     -12.239  39.699 -34.398  1.00  0.00    -0.295 OA
HETATM   51  H15 UNL     1     -12.122  38.741 -34.570  1.00  0.00     0.232 HD
ENDBRANCH  47  50
ENDBRANCH  11  47
BRANCH  30  52
HETATM   52  C30 UNL     1      -6.763  45.094 -30.688  1.00  0.00     0.172 C 
BRANCH  52  53
HETATM   53  O7  UNL     1      -6.764  43.984 -29.800  1.00  0.00    -0.400 OA
HETATM   54  H34 UNL     1      -7.011  44.317 -28.919  1.00  0.00     0.209 HD
ENDBRANCH  52  53
ENDBRANCH  30  52
BRANCH  24  55
HETATM   55  O6  UNL     1      -2.213  37.988 -33.050  1.00  0.00    -0.361 OA
HETATM   56  H27 UNL     1      -1.428  38.463 -32.730  1.00  0.00     0.217 HD
ENDBRANCH  24  55
TORSDOF 6
ENDMDL
MODEL 2
REMARK minimizedAffinity -9.13830757
REMARK CNNscore 0.24361828
REMARK CNNaffinity 6.56027555
REMARK  6 active torsions:
REMARK  status: ('A' for Active; 'I' for Inactive)
REMARK       I    between atoms: N1_1  and  C1_2 
REMARK       I    between atoms: C1_2  and  N2_3 
REMARK    1  A    between atoms: N3_4  and  C2_6 
REMARK    2  A    between atoms: C11_16  and  S1_17 
REMARK    3  A    between atoms: S1_17  and  O4_20 
REMARK    4  A    between atoms: C23_33  and  O6_34 
REMARK    5  A    between atoms: C29_40  and  C30_41 
REMARK    6  A    between atoms: C30_41  and  O7_42 
ROOT
HETATM    1  C2  UNL     1      -5.260  39.880 -34.360  1.00  0.00     0.263 C 
HETATM    2  O1  UNL     1      -5.472  38.980 -33.221  1.00  0.00    -0.322 OA
HETATM    3  C3  UNL     1      -6.787  38.751 -32.906  1.00  0.00     0.071 C 
HETATM    4  C4  UNL     1      -7.178  39.064 -31.604  1.00  0.00     0.037 C 
HETATM    5  C5  UNL     1      -8.533  39.134 -31.288  1.00  0.00     0.010 C 
HETATM    6  C6  UNL     1      -9.500  38.853 -32.262  1.00  0.00    -0.058 C 
HETATM    7  C7  UNL     1      -9.083  38.358 -33.505  1.00  0.00     0.010 C 
HETATM    8  C8  UNL     1      -7.728  38.314 -33.833  1.00  0.00     0.037 C 
HETATM    9  C9  UNL     1     -10.951  39.209 -32.025  1.00  0.00     0.040 C 
HETATM   10  C10 UNL     1     -11.172  40.738 -31.888  1.00  0.00     0.027 C 
HETATM   11  C11 UNL     1     -10.624  41.610 -33.056  1.00  0.00     0.130 C 
HETATM   12  C12 UNL     1     -10.452  43.142 -32.735  1.00  0.00     0.037 C 
HETATM   13  C13 UNL     1     -10.032  43.516 -31.319  1.00  0.00    -0.014 C 
HETATM   14  C14 UNL     1      -9.807  44.825 -31.067  1.00  0.00    -0.050 C 
HETATM   15  C15 UNL     1     -10.168  45.814 -32.133  1.00  0.00     0.042 C 
HETATM   16  C16 UNL     1      -9.245  45.462 -33.293  1.00  0.00     0.001 C 
HETATM   17  C17 UNL     1      -7.809  46.006 -33.041  1.00  0.00     0.038 C 
HETATM   18  C18 UNL     1      -7.398  46.487 -31.609  1.00  0.00     0.130 C 
HETATM   19  O5  UNL     1      -7.595  45.494 -30.583  1.00  0.00    -0.371 OA
HETATM   20  C19 UNL     1      -8.895  45.318 -29.973  1.00  0.00     0.185 C 
HETATM   21  C20 UNL     1      -9.505  46.384 -29.039  1.00  0.00    -0.006 A 
HETATM   22  C21 UNL     1     -10.876  46.269 -28.698  1.00  0.00     0.014 A 
HETATM   23  C22 UNL     1     -11.489  47.151 -27.806  1.00  0.00     0.037 A 
HETATM   24  C23 UNL     1     -10.741  48.156 -27.210  1.00  0.00     0.067 A 
HETATM   25  C24 UNL     1      -9.389  48.290 -27.496  1.00  0.00     0.057 A 
HETATM   26  C25 UNL     1      -8.775  47.406 -28.394  1.00  0.00     0.029 A 
HETATM   27  C26 UNL     1      -7.395  47.604 -28.684  1.00  0.00    -0.066 C 
HETATM   28  C27 UNL     1      -6.332  47.607 -29.234  1.00  0.00    -0.101 C 
HETATM   29  C28 UNL     1      -5.290  47.345 -30.219  1.00  0.00     0.103 C 
HETATM   30  C29 UNL     1      -5.859  46.846 -31.590  1.00  0.00     0.049 C 
HETATM   31  C31 UNL     1      -9.427  43.927 -33.706  1.00  0.00     0.032 C 
HETATM   32  C32 UNL     1      -8.157  43.112 -33.956  1.00  0.00    -0.053 C 
HETATM   33  C33 UNL     1      -7.967  42.492 -35.201  1.00  0.00     0.008 C 
HETATM   34  C34 UNL     1      -6.989  41.505 -35.365  1.00  0.00     0.012 C 
HETATM   35  C35 UNL     1      -6.156  41.135 -34.301  1.00  0.00    -0.010 C 
HETATM   36  C36 UNL     1      -6.237  41.875 -33.112  1.00  0.00     0.012 C 
HETATM   37  C37 UNL     1      -7.244  42.823 -32.932  1.00  0.00     0.008 C 
ENDROOT
BRANCH   1  38
HETATM   38  N3  UNL     1      -5.253  39.253 -35.698  1.00  0.00    -0.341 N 
HETATM   39  C1  UNL     1      -4.115  38.999 -36.226  1.00  0.00     0.124 C 
HETATM   40  N1  UNL     1      -2.865  39.189 -35.745  1.00  0.00    -0.279 NA
HETATM   41  N2  UNL     1      -4.049  38.439 -37.454  1.00  0.00    -0.279 NA
HETATM   42  H1  UNL     1      -2.260  38.409 -35.971  1.00  0.00     0.126 HD
HETATM   43  H2  UNL     1      -2.853  39.338 -34.738  1.00  0.00     0.126 HD
HETATM   44  H3  UNL     1      -3.358  38.878 -38.054  1.00  0.00     0.126 HD
HETATM   45  H4  UNL     1      -4.965  38.423 -37.898  1.00  0.00     0.126 HD
ATOM     46  H3  UNL     1      -6.122  39.029 -36.182  1.00  0.00     0.164 HD
ENDBRANCH   1  38
BRANCH  11  47
HETATM   47  S1  UNL     1     -11.743  41.469 -34.511  1.00  0.00     0.099 S 
HETATM   48  O2  UNL     1     -12.371  42.735 -34.817  1.00  0.00    -0.601 OA
HETATM   49  O3  UNL     1     -12.509  40.247 -34.437  1.00  0.00    -0.601 OA
BRANCH  47  50
HETATM   50  O4  UNL     1     -10.640  41.289 -35.675  1.00  0.00    -0.295 OA
HETATM   51  H15 UNL     1     -10.566  42.144 -36.149  1.00  0.00     0.232 HD
ENDBRANCH  47  50
ENDBRANCH  11  47
BRANCH  30  52
HETATM   52  C30 UNL     1      -5.450  47.838 -32.691  1.00  0.00     0.172 C 
BRANCH  52  53
HETATM   53  O7  UNL     1      -4.116  48.288 -32.496  1.00  0.00    -0.400 OA
HETATM   54  H34 UNL     1      -3.905  48.899 -33.224  1.00  0.00     0.209 HD
ENDBRANCH  52  53
ENDBRANCH  30  52
BRANCH  24  55
HETATM   55  O6  UNL     1     -11.372  48.989 -26.337  1.00  0.00    -0.361 OA
HETATM   56  H27 UNL     1     -10.704  49.546 -25.904  1.00  0.00     0.217 HD
ENDBRANCH  24  55
TORSDOF 6
ENDMDL
MODEL 3
REMARK minimizedAffinity -7.51052809
REMARK CNNscore 0.243528113
REMARK CNNaffinity 6.21065092
REMARK  6 active torsions:
REMARK  status: ('A' for Active; 'I' for Inactive)
REMARK       I    between atoms: N1_1  and  C1_2 
REMARK       I    between atoms: C1_2  and  N2_3 
REMARK    1  A    between atoms: N3_4  and  C2_6 
REMARK    2  A    between atoms: C11_16  and  S1_17 
REMARK    3  A    between atoms: S1_17  and  O4_20 
REMARK    4  A    between atoms: C23_33  and  O6_34 
REMARK    5  A    between atoms: C29_40  and  C30_41 
REMARK    6  A    between atoms: C30_41  and  O7_42 
ROOT
HETATM    1  C2  UNL     1     -16.659  41.473 -20.981  1.00  0.00     0.263 C 
HETATM    2  O1  UNL     1     -16.476  42.672 -20.155  1.00  0.00    -0.322 OA
HETATM    3  C3  UNL     1     -17.092  43.800 -20.634  1.00  0.00     0.071 C 
HETATM    4  C4  UNL     1     -16.273  44.905 -20.866  1.00  0.00     0.037 C 
HETATM    5  C5  UNL     1     -16.757  45.979 -21.610  1.00  0.00     0.010 C 
HETATM    6  C6  UNL     1     -18.072  45.968 -22.092  1.00  0.00    -0.058 C 
HETATM    7  C7  UNL     1     -18.931  44.938 -21.687  1.00  0.00     0.010 C 
HETATM    8  C8  UNL     1     -18.442  43.848 -20.966  1.00  0.00     0.037 C 
HETATM    9  C9  UNL     1     -18.513  46.969 -23.137  1.00  0.00     0.040 C 
HETATM   10  C10 UNL     1     -17.754  46.799 -24.478  1.00  0.00     0.027 C 
HETATM   11  C11 UNL     1     -17.791  45.371 -25.102  1.00  0.00     0.130 C 
HETATM   12  C12 UNL     1     -16.696  45.083 -26.197  1.00  0.00     0.037 C 
HETATM   13  C13 UNL     1     -15.333  45.737 -26.011  1.00  0.00    -0.014 C 
HETATM   14  C14 UNL     1     -14.370  45.423 -26.907  1.00  0.00    -0.050 C 
HETATM   15  C15 UNL     1     -14.768  44.619 -28.107  1.00  0.00     0.042 C 
HETATM   16  C16 UNL     1     -15.226  43.287 -27.525  1.00  0.00     0.001 C 
HETATM   17  C17 UNL     1     -14.004  42.407 -27.133  1.00  0.00     0.038 C 
HETATM   18  C18 UNL     1     -12.580  43.049 -27.035  1.00  0.00     0.130 C 
HETATM   19  O5  UNL     1     -12.511  44.182 -26.147  1.00  0.00    -0.371 OA
HETATM   20  C19 UNL     1     -12.895  45.500 -26.608  1.00  0.00     0.185 C 
HETATM   21  C20 UNL     1     -12.053  46.277 -27.641  1.00  0.00    -0.006 A 
HETATM   22  C21 UNL     1     -12.624  47.428 -28.238  1.00  0.00     0.014 A 
HETATM   23  C22 UNL     1     -11.905  48.226 -29.130  1.00  0.00     0.037 A 
HETATM   24  C23 UNL     1     -10.589  47.909 -29.429  1.00  0.00     0.067 A 
HETATM   25  C24 UNL     1      -9.982  46.804 -28.847  1.00  0.00     0.057 A 
HETATM   26  C25 UNL     1     -10.704  46.002 -27.953  1.00  0.00     0.029 A 
HETATM   27  C26 UNL     1     -10.052  44.860 -27.408  1.00  0.00    -0.066 C 
HETATM   28  C27 UNL     1      -9.844  43.783 -26.927  1.00  0.00    -0.101 C 
HETATM   29  C28 UNL     1     -10.075  42.478 -26.320  1.00  0.00     0.103 C 
HETATM   30  C29 UNL     1     -11.552  41.985 -26.478  1.00  0.00     0.049 C 
HETATM   31  C31 UNL     1     -16.388  43.517 -26.450  1.00  0.00     0.032 C 
HETATM   32  C32 UNL     1     -16.290  42.745 -25.133  1.00  0.00    -0.053 C 
HETATM   33  C33 UNL     1     -17.337  41.892 -24.752  1.00  0.00     0.008 C 
HETATM   34  C34 UNL     1     -17.426  41.415 -23.440  1.00  0.00     0.012 C 
HETATM   35  C35 UNL     1     -16.457  41.751 -22.484  1.00  0.00    -0.010 C 
HETATM   36  C36 UNL     1     -15.327  42.462 -22.914  1.00  0.00     0.012 C 
HETATM   37  C37 UNL     1     -15.262  42.980 -24.208  1.00  0.00     0.008 C 
ENDROOT
BRANCH   1  38
HETATM   38  N3  UNL     1     -17.870  40.671 -20.710  1.00  0.00    -0.341 N 
HETATM   39  C1  UNL     1     -18.074  40.295 -19.504  1.00  0.00     0.124 C 
HETATM   40  N1  UNL     1     -17.358  40.534 -18.381  1.00  0.00    -0.279 NA
HETATM   41  N2  UNL     1     -19.158  39.547 -19.203  1.00  0.00    -0.279 NA
HETATM   42  H1  UNL     1     -17.964  40.722 -17.591  1.00  0.00     0.126 HD
HETATM   43  H2  UNL     1     -16.706  41.308 -18.491  1.00  0.00     0.126 HD
HETATM   44  H3  UNL     1     -18.944  38.770 -18.587  1.00  0.00     0.126 HD
HETATM   45  H4  UNL     1     -19.629  39.230 -20.047  1.00  0.00     0.126 HD
ATOM     46  H3  UNL     1     -18.520  40.426 -21.457  1.00  0.00     0.164 HD
ENDBRANCH   1  38
BRANCH  11  47
HETATM   47  S1  UNL     1     -19.437  45.073 -25.869  1.00  0.00     0.099 S 
HETATM   48  O2  UNL     1     -20.364  46.139 -25.557  1.00  0.00    -0.601 OA
HETATM   49  O3  UNL     1     -19.811  43.685 -25.728  1.00  0.00    -0.601 OA
BRANCH  47  50
HETATM   50  O4  UNL     1     -19.056  45.326 -27.416  1.00  0.00    -0.295 OA
HETATM   51  H15 UNL     1     -19.396  46.212 -27.664  1.00  0.00     0.232 HD
ENDBRANCH  47  50
ENDBRANCH  11  47
BRANCH  30  52
HETATM   52  C30 UNL     1     -11.557  40.663 -27.263  1.00  0.00     0.172 C 
BRANCH  52  53
HETATM   53  O7  UNL     1     -10.995  40.841 -28.556  1.00  0.00    -0.400 OA
HETATM   54  H34 UNL     1     -11.011  39.976 -29.002  1.00  0.00     0.209 HD
ENDBRANCH  52  53
ENDBRANCH  30  52
BRANCH  24  55
HETATM   55  O6  UNL     1      -9.918  48.718 -30.295  1.00  0.00    -0.361 OA
HETATM   56  H27 UNL     1      -8.982  48.456 -30.301  1.00  0.00     0.217 HD
ENDBRANCH  24  55
TORSDOF 6
ENDMDL
MODEL 4
REMARK minimizedAffinity -7.82015038
REMARK CNNscore 0.240785852
REMARK CNNaffinity 6.33177423
REMARK  6 active torsions:
REMARK  status: ('A' for Active; 'I' for Inactive)
REMARK       I    between atoms: N1_1  and  C1_2 
REMARK       I    between atoms: C1_2  and  N2_3 
REMARK    1  A    between atoms: N3_4  and  C2_6 
REMARK    2  A    between atoms: C11_16  and  S1_17 
REMARK    3  A    between atoms: S1_17  and  O4_20 
REMARK    4  A    between atoms: C23_33  and  O6_34 
REMARK    5  A    between atoms: C29_40  and  C30_41 
REMARK    6  A    between atoms: C30_41  and  O7_42 
ROOT
HETATM    1  C2  UNL     1     -14.682  46.420 -24.058  1.00  0.00     0.263 C 
HETATM    2  O1  UNL     1     -14.555  47.338 -25.195  1.00  0.00    -0.322 OA
HETATM    3  C3  UNL     1     -13.652  46.947 -26.151  1.00  0.00     0.071 C 
HETATM    4  C4  UNL     1     -12.624  47.844 -26.440  1.00  0.00     0.037 C 
HETATM    5  C5  UNL     1     -11.520  47.416 -27.175  1.00  0.00     0.010 C 
HETATM    6  C6  UNL     1     -11.459  46.102 -27.655  1.00  0.00    -0.058 C 
HETATM    7  C7  UNL     1     -12.585  45.278 -27.516  1.00  0.00     0.010 C 
HETATM    8  C8  UNL     1     -13.678  45.694 -26.757  1.00  0.00     0.037 C 
HETATM    9  C9  UNL     1     -10.159  45.541 -28.187  1.00  0.00     0.040 C 
HETATM   10  C10 UNL     1      -9.058  45.460 -27.098  1.00  0.00     0.027 C 
HETATM   11  C11 UNL     1      -9.445  44.690 -25.800  1.00  0.00     0.130 C 
HETATM   12  C12 UNL     1      -8.527  44.968 -24.550  1.00  0.00     0.037 C 
HETATM   13  C13 UNL     1      -7.965  46.375 -24.395  1.00  0.00    -0.014 C 
HETATM   14  C14 UNL     1      -7.244  46.633 -23.280  1.00  0.00    -0.050 C 
HETATM   15  C15 UNL     1      -6.898  45.479 -22.389  1.00  0.00     0.042 C 
HETATM   16  C16 UNL     1      -8.248  44.978 -21.891  1.00  0.00     0.001 C 
HETATM   17  C17 UNL     1      -8.796  45.899 -20.763  1.00  0.00     0.038 C 
HETATM   18  C18 UNL     1      -8.159  47.311 -20.530  1.00  0.00     0.130 C 
HETATM   19  O5  UNL     1      -8.146  48.144 -21.706  1.00  0.00    -0.371 OA
HETATM   20  C19 UNL     1      -7.090  48.010 -22.687  1.00  0.00     0.185 C 
HETATM   21  C20 UNL     1      -5.639  48.438 -22.384  1.00  0.00    -0.006 A 
HETATM   22  C21 UNL     1      -4.622  48.034 -23.284  1.00  0.00     0.014 A 
HETATM   23  C22 UNL     1      -3.294  48.434 -23.121  1.00  0.00     0.037 A 
HETATM   24  C23 UNL     1      -2.954  49.271 -22.069  1.00  0.00     0.067 A 
HETATM   25  C24 UNL     1      -3.923  49.712 -21.178  1.00  0.00     0.057 A 
HETATM   26  C25 UNL     1      -5.255  49.307 -21.340  1.00  0.00     0.029 A 
HETATM   27  C26 UNL     1      -6.208  49.755 -20.382  1.00  0.00    -0.066 C 
HETATM   28  C27 UNL     1      -7.175  49.829 -19.681  1.00  0.00    -0.101 C 
HETATM   29  C28 UNL     1      -8.476  49.534 -19.092  1.00  0.00     0.103 C 
HETATM   30  C29 UNL     1      -8.989  48.096 -19.438  1.00  0.00     0.049 C 
HETATM   31  C31 UNL     1      -9.201  44.618 -23.124  1.00  0.00     0.032 C 
HETATM   32  C32 UNL     1     -10.651  45.100 -23.056  1.00  0.00    -0.053 C 
HETATM   33  C33 UNL     1     -11.695  44.165 -23.136  1.00  0.00     0.008 C 
HETATM   34  C34 UNL     1     -13.007  44.582 -23.382  1.00  0.00     0.012 C 
HETATM   35  C35 UNL     1     -13.317  45.942 -23.524  1.00  0.00    -0.010 C 
HETATM   36  C36 UNL     1     -12.301  46.877 -23.275  1.00  0.00     0.012 C 
HETATM   37  C37 UNL     1     -10.984  46.462 -23.079  1.00  0.00     0.008 C 
ENDROOT
BRANCH   1  38
HETATM   38  N3  UNL     1     -15.648  45.313 -24.215  1.00  0.00    -0.341 N 
HETATM   39  C1  UNL     1     -16.848  45.617 -24.538  1.00  0.00     0.124 C 
HETATM   40  N1  UNL     1     -17.406  46.822 -24.796  1.00  0.00    -0.279 NA
HETATM   41  N2  UNL     1     -17.777  44.646 -24.681  1.00  0.00    -0.279 NA
HETATM   42  H1  UNL     1     -18.046  46.773 -25.580  1.00  0.00     0.126 HD
HETATM   43  H2  UNL     1     -16.711  47.543 -24.979  1.00  0.00     0.126 HD
HETATM   44  H3  UNL     1     -18.662  44.876 -24.243  1.00  0.00     0.126 HD
HETATM   45  H4  UNL     1     -17.423  43.751 -24.350  1.00  0.00     0.126 HD
ATOM     46  H3  UNL     1     -15.368  44.343 -24.073  1.00  0.00     0.164 HD
ENDBRANCH   1  38
BRANCH  11  47
HETATM   47  S1  UNL     1      -9.413  42.878 -26.122  1.00  0.00     0.099 S 
HETATM   48  O2  UNL     1      -9.390  42.596 -27.540  1.00  0.00    -0.601 OA
HETATM   49  O3  UNL     1     -10.323  42.196 -25.232  1.00  0.00    -0.601 OA
BRANCH  47  50
HETATM   50  O4  UNL     1      -7.910  42.551 -25.634  1.00  0.00    -0.295 OA
HETATM   51  H15 UNL     1      -7.357  42.435 -26.436  1.00  0.00     0.232 HD
ENDBRANCH  47  50
ENDBRANCH  11  47
BRANCH  30  52
HETATM   52  C30 UNL     1      -9.181  47.306 -18.132  1.00  0.00     0.172 C 
BRANCH  52  53
HETATM   53  O7  UNL     1      -8.590  47.990 -17.037  1.00  0.00    -0.400 OA
HETATM   54  H34 UNL     1      -8.751  47.456 -16.239  1.00  0.00     0.209 HD
ENDBRANCH  52  53
ENDBRANCH  30  52
BRANCH  24  55
HETATM   55  O6  UNL     1      -1.650  49.649 -21.949  1.00  0.00    -0.361 OA
HETATM   56  H27 UNL     1      -1.588  50.332 -21.261  1.00  0.00     0.217 HD
ENDBRANCH  24  55
TORSDOF 6
ENDMDL
MODEL 5
REMARK minimizedAffinity -9.38124466
REMARK CNNscore 0.223908424
REMARK CNNaffinity 6.24194193
REMARK  6 active torsions:
REMARK  status: ('A' for Active; 'I' for Inactive)
REMARK       I    between atoms: N1_1  and  C1_2 
REMARK       I    between atoms: C1_2  and  N2_3 
REMARK    1  A    between atoms: N3_4  and  C2_6 
REMARK    2  A    between atoms: C11_16  and  S1_17 
REMARK    3  A    between atoms: S1_17  and  O4_20 
REMARK    4  A    between atoms: C23_33  and  O6_34 
REMARK    5  A    between atoms: C29_40  and  C30_41 
REMARK    6  A    between atoms: C30_41  and  O7_42 
ROOT
HETATM    1  C2  UNL     1     -13.093  45.951 -25.538  1.00  0.00     0.263 C 
HETATM    2  O1  UNL     1     -13.093  44.553 -25.983  1.00  0.00    -0.322 OA
HETATM    3  C3  UNL     1     -14.335  44.030 -26.238  1.00  0.00     0.071 C 
HETATM    4  C4  UNL     1     -14.687  42.885 -25.523  1.00  0.00     0.037 C 
HETATM    5  C5  UNL     1     -16.015  42.462 -25.507  1.00  0.00     0.010 C 
HETATM    6  C6  UNL     1     -16.986  43.160 -26.236  1.00  0.00    -0.058 C 
HETATM    7  C7  UNL     1     -16.578  44.190 -27.094  1.00  0.00     0.010 C 
HETATM    8  C8  UNL     1     -15.255  44.633 -27.090  1.00  0.00     0.037 C 
HETATM    9  C9  UNL     1     -18.457  42.900 -25.995  1.00  0.00     0.040 C 
HETATM   10  C10 UNL     1     -18.899  43.281 -24.559  1.00  0.00     0.027 C 
HETATM   11  C11 UNL     1     -18.566  44.735 -24.111  1.00  0.00     0.130 C 
HETATM   12  C12 UNL     1     -18.610  44.992 -22.557  1.00  0.00     0.037 C 
HETATM   13  C13 UNL     1     -18.164  43.854 -21.648  1.00  0.00    -0.014 C 
HETATM   14  C14 UNL     1     -18.126  44.103 -20.320  1.00  0.00    -0.050 C 
HETATM   15  C15 UNL     1     -18.700  45.399 -19.835  1.00  0.00     0.042 C 
HETATM   16  C16 UNL     1     -17.809  46.460 -20.471  1.00  0.00     0.001 C 
HETATM   17  C17 UNL     1     -16.460  46.579 -19.704  1.00  0.00     0.038 C 
HETATM   18  C18 UNL     1     -16.038  45.462 -18.691  1.00  0.00     0.130 C 
HETATM   19  O5  UNL     1     -16.016  44.138 -19.261  1.00  0.00    -0.371 OA
HETATM   20  C19 UNL     1     -17.234  43.361 -19.358  1.00  0.00     0.185 C 
HETATM   21  C20 UNL     1     -17.939  42.797 -18.107  1.00  0.00    -0.006 A 
HETATM   22  C21 UNL     1     -19.252  42.284 -18.255  1.00  0.00     0.014 A 
HETATM   23  C22 UNL     1     -19.935  41.693 -17.190  1.00  0.00     0.037 A 
HETATM   24  C23 UNL     1     -19.314  41.576 -15.956  1.00  0.00     0.067 A 
HETATM   25  C24 UNL     1     -18.019  42.042 -15.773  1.00  0.00     0.057 A 
HETATM   26  C25 UNL     1     -17.334  42.638 -16.841  1.00  0.00     0.029 A 
HETATM   27  C26 UNL     1     -16.022  43.133 -16.598  1.00  0.00    -0.066 C 
HETATM   28  C27 UNL     1     -15.008  43.766 -16.667  1.00  0.00    -0.101 C 
HETATM   29  C28 UNL     1     -14.002  44.709 -17.142  1.00  0.00     0.103 C 
HETATM   30  C29 UNL     1     -14.573  45.744 -18.167  1.00  0.00     0.049 C 
HETATM   31  C31 UNL     1     -17.779  46.286 -22.060  1.00  0.00     0.032 C 
HETATM   32  C32 UNL     1     -16.419  46.377 -22.752  1.00  0.00    -0.053 C 
HETATM   33  C33 UNL     1     -16.215  47.340 -23.753  1.00  0.00     0.008 C 
HETATM   34  C34 UNL     1     -15.110  47.258 -24.607  1.00  0.00     0.012 C 
HETATM   35  C35 UNL     1     -14.164  46.233 -24.464  1.00  0.00    -0.010 C 
HETATM   36  C36 UNL     1     -14.283  45.377 -23.359  1.00  0.00     0.012 C 
HETATM   37  C37 UNL     1     -15.409  45.427 -22.538  1.00  0.00     0.008 C 
ENDROOT
BRANCH   1  38
HETATM   38  N3  UNL     1     -13.074  46.976 -26.602  1.00  0.00    -0.341 N 
HETATM   39  C1  UNL     1     -12.091  47.796 -26.616  1.00  0.00     0.124 C 
HETATM   40  N1  UNL     1     -11.008  47.877 -25.810  1.00  0.00    -0.279 NA
HETATM   41  N2  UNL     1     -12.031  48.762 -27.558  1.00  0.00    -0.279 NA
HETATM   42  H1  UNL     1     -10.170  48.090 -26.338  1.00  0.00     0.126 HD
HETATM   43  H2  UNL     1     -10.856  47.024 -25.275  1.00  0.00     0.126 HD
HETATM   44  H3  UNL     1     -11.772  49.668 -27.181  1.00  0.00     0.126 HD
HETATM   45  H4  UNL     1     -12.902  48.817 -28.081  1.00  0.00     0.126 HD
ATOM     46  H3  UNL     1     -13.817  47.028 -27.299  1.00  0.00     0.164 HD
ENDBRANCH   1  38
BRANCH  11  47
HETATM   47  S1  UNL     1     -19.739  45.912 -24.902  1.00  0.00     0.099 S 
HETATM   48  O2  UNL     1     -19.240  47.268 -24.850  1.00  0.00    -0.601 OA
HETATM   49  O3  UNL     1     -21.097  45.594 -24.526  1.00  0.00    -0.601 OA
BRANCH  47  50
HETATM   50  O4  UNL     1     -19.542  45.482 -26.445  1.00  0.00    -0.295 OA
HETATM   51  H15 UNL     1     -18.982  46.164 -26.874  1.00  0.00     0.232 HD
ENDBRANCH  47  50
ENDBRANCH  11  47
BRANCH  30  52
HETATM   52  C30 UNL     1     -14.391  47.162 -17.600  1.00  0.00     0.172 C 
BRANCH  52  53
HETATM   53  O7  UNL     1     -13.504  47.151 -16.490  1.00  0.00    -0.400 OA
HETATM   54  H34 UNL     1     -13.414  48.070 -16.181  1.00  0.00     0.209 HD
ENDBRANCH  52  53
ENDBRANCH  30  52
BRANCH  24  55
HETATM   55  O6  UNL     1     -20.009  40.985 -14.945  1.00  0.00    -0.361 OA
HETATM   56  H27 UNL     1     -19.407  40.851 -14.193  1.00  0.00     0.217 HD
ENDBRANCH  24  55
TORSDOF 6
ENDMDL
MODEL 6
REMARK minimizedAffinity -8.07373333
REMARK CNNscore 0.212225169
REMARK CNNaffinity 6.29180479
REMARK  6 active torsions:
REMARK  status: ('A' for Active; 'I' for Inactive)
REMARK       I    between atoms: N1_1  and  C1_2 
REMARK       I    between atoms: C1_2  and  N2_3 
REMARK    1  A    between atoms: N3_4  and  C2_6 
REMARK    2  A    between atoms: C11_16  and  S1_17 
REMARK    3  A    between atoms: S1_17  and  O4_20 
REMARK    4  A    between atoms: C23_33  and  O6_34 
REMARK    5  A    between atoms: C29_40  and  C30_41 
REMARK    6  A    between atoms: C30_41  and  O7_42 
ROOT
HETATM    1  C2  UNL     1     -14.534  44.738 -26.413  1.00  0.00     0.263 C 
HETATM    2  O1  UNL     1     -14.769  46.049 -27.029  1.00  0.00    -0.322 OA
HETATM    3  C3  UNL     1     -13.761  46.487 -27.850  1.00  0.00     0.071 C 
HETATM    4  C4  UNL     1     -13.189  47.719 -27.530  1.00  0.00     0.037 C 
HETATM    5  C5  UNL     1     -11.988  48.098 -28.127  1.00  0.00     0.010 C 
HETATM    6  C6  UNL     1     -11.377  47.266 -29.073  1.00  0.00    -0.058 C 
HETATM    7  C7  UNL     1     -12.064  46.128 -29.517  1.00  0.00     0.010 C 
HETATM    8  C8  UNL     1     -13.251  45.731 -28.901  1.00  0.00     0.037 C 
HETATM    9  C9  UNL     1      -9.948  47.515 -29.501  1.00  0.00     0.040 C 
HETATM   10  C10 UNL     1      -8.941  47.349 -28.334  1.00  0.00     0.027 C 
HETATM   11  C11 UNL     1      -9.007  45.993 -27.570  1.00  0.00     0.130 C 
HETATM   12  C12 UNL     1      -8.319  45.981 -26.153  1.00  0.00     0.037 C 
HETATM   13  C13 UNL     1      -8.394  47.260 -25.329  1.00  0.00    -0.014 C 
HETATM   14  C14 UNL     1      -7.874  47.222 -24.082  1.00  0.00    -0.050 C 
HETATM   15  C15 UNL     1      -7.104  46.000 -23.682  1.00  0.00     0.042 C 
HETATM   16  C16 UNL     1      -8.138  44.881 -23.723  1.00  0.00     0.001 C 
HETATM   17  C17 UNL     1      -9.047  44.924 -22.461  1.00  0.00     0.038 C 
HETATM   18  C18 UNL     1      -9.057  46.198 -21.550  1.00  0.00     0.130 C 
HETATM   19  O5  UNL     1      -9.360  47.417 -22.257  1.00  0.00    -0.371 OA
HETATM   20  C19 UNL     1      -8.319  48.131 -22.965  1.00  0.00     0.185 C 
HETATM   21  C20 UNL     1      -7.182  48.862 -22.219  1.00  0.00    -0.006 A 
HETATM   22  C21 UNL     1      -6.066  49.305 -22.971  1.00  0.00     0.014 A 
HETATM   23  C22 UNL     1      -5.028  50.033 -22.387  1.00  0.00     0.037 A 
HETATM   24  C23 UNL     1      -5.091  50.360 -21.040  1.00  0.00     0.067 A 
HETATM   25  C24 UNL     1      -6.179  49.968 -20.271  1.00  0.00     0.057 A 
HETATM   26  C25 UNL     1      -7.219  49.235 -20.858  1.00  0.00     0.029 A 
HETATM   27  C26 UNL     1      -8.297  48.824 -20.023  1.00  0.00    -0.066 C 
HETATM   28  C27 UNL     1      -9.225  48.219 -19.570  1.00  0.00    -0.101 C 
HETATM   29  C28 UNL     1     -10.302  47.245 -19.437  1.00  0.00     0.103 C 
HETATM   30  C29 UNL     1     -10.165  46.045 -20.433  1.00  0.00     0.049 C 
HETATM   31  C31 UNL     1      -8.824  44.806 -25.166  1.00  0.00     0.032 C 
HETATM   32  C32 UNL     1     -10.345  44.649 -25.213  1.00  0.00    -0.053 C 
HETATM   33  C33 UNL     1     -10.907  43.549 -25.880  1.00  0.00     0.008 C 
HETATM   34  C34 UNL     1     -12.267  43.531 -26.205  1.00  0.00     0.012 C 
HETATM   35  C35 UNL     1     -13.107  44.594 -25.846  1.00  0.00    -0.010 C 
HETATM   36  C36 UNL     1     -12.577  45.607 -25.034  1.00  0.00     0.012 C 
HETATM   37  C37 UNL     1     -11.211  45.652 -24.753  1.00  0.00     0.008 C 
ENDROOT
BRANCH   1  38
HETATM   38  N3  UNL     1     -14.951  43.561 -27.203  1.00  0.00    -0.341 N 
HETATM   39  C1  UNL     1     -16.101  43.601 -27.763  1.00  0.00     0.124 C 
HETATM   40  N1  UNL     1     -17.031  44.583 -27.781  1.00  0.00    -0.279 NA
HETATM   41  N2  UNL     1     -16.539  42.546 -28.485  1.00  0.00    -0.279 NA
HETATM   42  H1  UNL     1     -17.457  44.671 -28.696  1.00  0.00     0.126 HD
HETATM   43  H2  UNL     1     -16.651  45.486 -27.504  1.00  0.00     0.126 HD
HETATM   44  H3  UNL     1     -17.505  42.305 -28.289  1.00  0.00     0.126 HD
HETATM   45  H4  UNL     1     -15.928  41.742 -28.364  1.00  0.00     0.126 HD
ATOM     46  H3  UNL     1     -14.345  42.746 -27.298  1.00  0.00     0.164 HD
ENDBRANCH   1  38
BRANCH  11  47
HETATM   47  S1  UNL     1      -8.221  44.673 -28.582  1.00  0.00     0.099 S 
HETATM   48  O2  UNL     1      -9.200  43.962 -29.374  1.00  0.00    -0.601 OA
HETATM   49  O3  UNL     1      -7.228  43.969 -27.803  1.00  0.00    -0.601 OA
BRANCH  47  50
HETATM   50  O4  UNL     1      -7.443  45.592 -29.656  1.00  0.00    -0.295 OA
HETATM   51  H15 UNL     1      -7.952  45.564 -30.495  1.00  0.00     0.232 HD
ENDBRANCH  47  50
ENDBRANCH  11  47
BRANCH  30  52
HETATM   52  C30 UNL     1     -10.047  44.739 -19.630  1.00  0.00     0.172 C 
BRANCH  52  53
HETATM   53  O7  UNL     1      -8.986  44.820 -18.688  1.00  0.00    -0.400 OA
HETATM   54  H34 UNL     1      -8.964  43.977 -18.201  1.00  0.00     0.209 HD
ENDBRANCH  52  53
ENDBRANCH  30  52
BRANCH  24  55
HETATM   55  O6  UNL     1      -4.065  51.080 -20.509  1.00  0.00    -0.361 OA
HETATM   56  H27 UNL     1      -4.309  51.347 -19.608  1.00  0.00     0.217 HD
ENDBRANCH  24  55
TORSDOF 6
ENDMDL
MODEL 7
REMARK minimizedAffinity -9.02412319
REMARK CNNscore 0.181678116
REMARK CNNaffinity 5.98854494
REMARK  6 active torsions:
REMARK  status: ('A' for Active; 'I' for Inactive)
REMARK       I    between atoms: N1_1  and  C1_2 
REMARK       I    between atoms: C1_2  and  N2_3 
REMARK    1  A    between atoms: N3_4  and  C2_6 
REMARK    2  A    between atoms: C11_16  and  S1_17 
REMARK    3  A    between atoms: S1_17  and  O4_20 
REMARK    4  A    between atoms: C23_33  and  O6_34 
REMARK    5  A    between atoms: C29_40  and  C30_41 
REMARK    6  A    between atoms: C30_41  and  O7_42 
ROOT
HETATM    1  C2  UNL     1     -16.758  46.119 -25.693  1.00  0.00     0.263 C 
HETATM    2  O1  UNL     1     -17.654  45.615 -26.740  1.00  0.00    -0.322 OA
HETATM    3  C3  UNL     1     -17.509  44.282 -27.028  1.00  0.00     0.071 C 
HETATM    4  C4  UNL     1     -17.212  43.961 -28.352  1.00  0.00     0.037 C 
HETATM    5  C5  UNL     1     -16.772  42.677 -28.669  1.00  0.00     0.010 C 
HETATM    6  C6  UNL     1     -16.664  41.702 -27.669  1.00  0.00    -0.058 C 
HETATM    7  C7  UNL     1     -17.147  41.992 -26.386  1.00  0.00     0.010 C 
HETATM    8  C8  UNL     1     -17.561  43.283 -26.060  1.00  0.00     0.037 C 
HETATM    9  C9  UNL     1     -15.916  40.414 -27.934  1.00  0.00     0.040 C 
HETATM   10  C10 UNL     1     -14.410  40.650 -28.216  1.00  0.00     0.027 C 
HETATM   11  C11 UNL     1     -13.638  41.467 -27.138  1.00  0.00     0.130 C 
HETATM   12  C12 UNL     1     -12.261  42.074 -27.604  1.00  0.00     0.037 C 
HETATM   13  C13 UNL     1     -12.159  42.541 -29.051  1.00  0.00    -0.014 C 
HETATM   14  C14 UNL     1     -11.003  43.135 -29.427  1.00  0.00    -0.050 C 
HETATM   15  C15 UNL     1      -9.860  43.115 -28.459  1.00  0.00     0.042 C 
HETATM   16  C16 UNL     1     -10.364  43.929 -27.273  1.00  0.00     0.001 C 
HETATM   17  C17 UNL     1     -10.296  45.453 -27.580  1.00  0.00     0.038 C 
HETATM   18  C18 UNL     1     -10.090  45.943 -29.053  1.00  0.00     0.130 C 
HETATM   19  O5  UNL     1     -11.068  45.429 -29.980  1.00  0.00    -0.371 OA
HETATM   20  C19 UNL     1     -10.903  44.116 -30.566  1.00  0.00     0.185 C 
HETATM   21  C20 UNL     1      -9.793  43.819 -31.595  1.00  0.00    -0.006 A 
HETATM   22  C21 UNL     1      -9.526  42.465 -31.919  1.00  0.00     0.014 A 
HETATM   23  C22 UNL     1      -8.586  42.113 -32.889  1.00  0.00     0.037 A 
HETATM   24  C23 UNL     1      -7.906  43.105 -33.580  1.00  0.00     0.067 A 
HETATM   25  C24 UNL     1      -8.154  44.444 -33.312  1.00  0.00     0.057 A 
HETATM   26  C25 UNL     1      -9.096  44.798 -32.337  1.00  0.00     0.029 A 
HETATM   27  C26 UNL     1      -9.292  46.183 -32.072  1.00  0.00    -0.066 C 
HETATM   28  C27 UNL     1      -9.555  47.217 -31.528  1.00  0.00    -0.101 C 
HETATM   29  C28 UNL     1     -10.026  48.165 -30.525  1.00  0.00     0.103 C 
HETATM   30  C29 UNL     1     -10.207  47.518 -29.112  1.00  0.00     0.049 C 
HETATM   31  C31 UNL     1     -11.733  43.315 -26.716  1.00  0.00     0.032 C 
HETATM   32  C32 UNL     1     -12.862  44.294 -26.393  1.00  0.00    -0.053 C 
HETATM   33  C33 UNL     1     -13.395  44.332 -25.095  1.00  0.00     0.008 C 
HETATM   34  C34 UNL     1     -14.609  44.979 -24.841  1.00  0.00     0.012 C 
HETATM   35  C35 UNL     1     -15.305  45.633 -25.868  1.00  0.00    -0.010 C 
HETATM   36  C36 UNL     1     -14.684  45.736 -27.122  1.00  0.00     0.012 C 
HETATM   37  C37 UNL     1     -13.500  45.049 -27.388  1.00  0.00     0.008 C 
ENDROOT
BRANCH   1  38
HETATM   38  N3  UNL     1     -17.237  45.983 -24.301  1.00  0.00    -0.341 N 
HETATM   39  C1  UNL     1     -18.352  46.534 -24.002  1.00  0.00     0.124 C 
HETATM   40  N1  UNL     1     -19.218  47.229 -24.775  1.00  0.00    -0.279 NA
HETATM   41  N2  UNL     1     -18.830  46.454 -22.742  1.00  0.00    -0.279 NA
HETATM   42  H1  UNL     1     -20.179  46.992 -24.556  1.00  0.00     0.126 HD
HETATM   43  H2  UNL     1     -19.059  47.082 -25.770  1.00  0.00     0.126 HD
HETATM   44  H3  UNL     1     -19.189  47.338 -22.396  1.00  0.00     0.126 HD
HETATM   45  H4  UNL     1     -18.131  46.069 -22.110  1.00  0.00     0.126 HD
ATOM     46  H3  UNL     1     -16.698  45.468 -23.605  1.00  0.00     0.164 HD
ENDBRANCH   1  38
BRANCH  11  47
HETATM   47  S1  UNL     1     -13.309  40.403 -25.673  1.00  0.00     0.099 S 
HETATM   48  O2  UNL     1     -13.703  39.033 -25.918  1.00  0.00    -0.601 OA
HETATM   49  O3  UNL     1     -13.688  41.090 -24.460  1.00  0.00    -0.601 OA
BRANCH  47  50
HETATM   50  O4  UNL     1     -11.697  40.362 -25.733  1.00  0.00    -0.295 OA
HETATM   51  H15 UNL     1     -11.436  39.489 -26.095  1.00  0.00     0.232 HD
ENDBRANCH  47  50
ENDBRANCH  11  47
BRANCH  30  52
HETATM   52  C30 UNL     1      -9.286  48.236 -28.111  1.00  0.00     0.172 C 
BRANCH  52  53
HETATM   53  O7  UNL     1      -8.660  49.358 -28.717  1.00  0.00    -0.400 OA
HETATM   54  H34 UNL     1      -8.102  49.781 -28.039  1.00  0.00     0.209 HD
ENDBRANCH  52  53
ENDBRANCH  30  52
BRANCH  24  55
HETATM   55  O6  UNL     1      -7.005  42.721 -34.526  1.00  0.00    -0.361 OA
HETATM   56  H27 UNL     1      -6.714  43.510 -35.013  1.00  0.00     0.217 HD
ENDBRANCH  24  55
TORSDOF 6
ENDMDL
MODEL 8
REMARK minimizedAffinity -7.82351923
REMARK CNNscore 0.169657141
REMARK CNNaffinity 5.81905127
REMARK  6 active torsions:
REMARK  status: ('A' for Active; 'I' for Inactive)
REMARK       I    between atoms: N1_1  and  C1_2 
REMARK       I    between atoms: C1_2  and  N2_3 
REMARK    1  A    between atoms: N3_4  and  C2_6 
REMARK    2  A    between atoms: C11_16  and  S1_17 
REMARK    3  A    between atoms: S1_17  and  O4_20 
REMARK    4  A    between atoms: C23_33  and  O6_34 
REMARK    5  A    between atoms: C29_40  and  C30_41 
REMARK    6  A    between atoms: C30_41  and  O7_42 
ROOT
HETATM    1  C2  UNL     1      -6.777  45.996 -29.099  1.00  0.00     0.263 C 
HETATM    2  O1  UNL     1      -7.431  45.915 -30.410  1.00  0.00    -0.322 OA
HETATM    3  C3  UNL     1      -8.740  46.327 -30.426  1.00  0.00     0.071 C 
HETATM    4  C4  UNL     1      -9.678  45.400 -30.879  1.00  0.00     0.037 C 
HETATM    5  C5  UNL     1     -11.036  45.629 -30.661  1.00  0.00     0.010 C 
HETATM    6  C6  UNL     1     -11.460  46.802 -30.024  1.00  0.00    -0.058 C 
HETATM    7  C7  UNL     1     -10.517  47.801 -29.750  1.00  0.00     0.010 C 
HETATM    8  C8  UNL     1      -9.156  47.563 -29.941  1.00  0.00     0.037 C 
HETATM    9  C9  UNL     1     -12.880  46.927 -29.518  1.00  0.00     0.040 C 
HETATM   10  C10 UNL     1     -13.203  45.904 -28.399  1.00  0.00     0.027 C 
HETATM   11  C11 UNL     1     -12.233  45.903 -27.180  1.00  0.00     0.130 C 
HETATM   12  C12 UNL     1     -12.286  44.616 -26.274  1.00  0.00     0.037 C 
HETATM   13  C13 UNL     1     -12.551  43.285 -26.966  1.00  0.00    -0.014 C 
HETATM   14  C14 UNL     1     -12.515  42.172 -26.197  1.00  0.00    -0.050 C 
HETATM   15  C15 UNL     1     -12.410  42.351 -24.714  1.00  0.00     0.042 C 
HETATM   16  C16 UNL     1     -11.056  43.021 -24.515  1.00  0.00     0.001 C 
HETATM   17  C17 UNL     1      -9.904  41.983 -24.640  1.00  0.00     0.038 C 
HETATM   18  C18 UNL     1     -10.187  40.573 -25.259  1.00  0.00     0.130 C 
HETATM   19  O5  UNL     1     -10.775  40.622 -26.575  1.00  0.00    -0.371 OA
HETATM   20  C19 UNL     1     -12.203  40.799 -26.734  1.00  0.00     0.185 C 
HETATM   21  C20 UNL     1     -13.207  39.695 -26.342  1.00  0.00    -0.006 A 
HETATM   22  C21 UNL     1     -14.581  40.035 -26.274  1.00  0.00     0.014 A 
HETATM   23  C22 UNL     1     -15.561  39.081 -25.994  1.00  0.00     0.037 A 
HETATM   24  C23 UNL     1     -15.196  37.757 -25.801  1.00  0.00     0.067 A 
HETATM   25  C24 UNL     1     -13.864  37.375 -25.883  1.00  0.00     0.057 A 
HETATM   26  C25 UNL     1     -12.880  38.333 -26.161  1.00  0.00     0.029 A 
HETATM   27  C26 UNL     1     -11.524  37.902 -26.202  1.00  0.00    -0.066 C 
HETATM   28  C27 UNL     1     -10.328  37.884 -26.146  1.00  0.00    -0.101 C 
HETATM   29  C28 UNL     1      -8.948  38.337 -26.018  1.00  0.00     0.103 C 
HETATM   30  C29 UNL     1      -8.832  39.774 -25.408  1.00  0.00     0.049 C 
HETATM   31  C31 UNL     1     -10.972  44.372 -25.366  1.00  0.00     0.032 C 
HETATM   32  C32 UNL     1      -9.689  44.624 -26.160  1.00  0.00    -0.053 C 
HETATM   33  C33 UNL     1      -8.943  45.788 -25.917  1.00  0.00     0.008 C 
HETATM   34  C34 UNL     1      -7.952  46.201 -26.815  1.00  0.00     0.012 C 
HETATM   35  C35 UNL     1      -7.659  45.446 -27.960  1.00  0.00    -0.010 C 
HETATM   36  C36 UNL     1      -8.288  44.201 -28.106  1.00  0.00     0.012 C 
HETATM   37  C37 UNL     1      -9.310  43.814 -27.240  1.00  0.00     0.008 C 
ENDROOT
BRANCH   1  38
HETATM   38  N3  UNL     1      -6.153  47.291 -28.758  1.00  0.00    -0.341 N 
HETATM   39  C1  UNL     1      -5.314  47.782 -29.591  1.00  0.00     0.124 C 
HETATM   40  N1  UNL     1      -4.899  47.315 -30.791  1.00  0.00    -0.279 NA
HETATM   41  N2  UNL     1      -4.703  48.956 -29.323  1.00  0.00    -0.279 NA
HETATM   42  H1  UNL     1      -4.808  48.064 -31.467  1.00  0.00     0.126 HD
HETATM   43  H2  UNL     1      -5.519  46.601 -31.168  1.00  0.00     0.126 HD
HETATM   44  H3  UNL     1      -3.708  48.939 -29.520  1.00  0.00     0.126 HD
HETATM   45  H4  UNL     1      -4.883  49.252 -28.366  1.00  0.00     0.126 HD
ATOM     46  H3  UNL     1      -6.383  47.777 -27.891  1.00  0.00     0.164 HD
ENDBRANCH   1  38
BRANCH  11  47
HETATM   47  S1  UNL     1     -12.588  47.355 -26.106  1.00  0.00     0.099 S 
HETATM   48  O2  UNL     1     -11.914  47.244 -24.832  1.00  0.00    -0.601 OA
HETATM   49  O3  UNL     1     -13.985  47.711 -26.191  1.00  0.00    -0.601 OA
BRANCH  47  50
HETATM   50  O4  UNL     1     -11.744  48.480 -26.898  1.00  0.00    -0.295 OA
HETATM   51  H15 UNL     1     -10.919  48.642 -26.392  1.00  0.00     0.232 HD
ENDBRANCH  47  50
ENDBRANCH  11  47
BRANCH  30  52
HETATM   52  C30 UNL     1      -8.021  39.699 -24.104  1.00  0.00     0.172 C 
BRANCH  52  53
HETATM   53  O7  UNL     1      -6.911  38.824 -24.249  1.00  0.00    -0.400 OA
HETATM   54  H34 UNL     1      -6.427  38.825 -23.404  1.00  0.00     0.209 HD
ENDBRANCH  52  53
ENDBRANCH  30  52
BRANCH  24  55
HETATM   55  O6  UNL     1     -16.183  36.855 -25.540  1.00  0.00    -0.361 OA
HETATM   56  H27 UNL     1     -15.799  35.962 -25.564  1.00  0.00     0.217 HD
ENDBRANCH  24  55
TORSDOF 6
ENDMDL
MODEL 9
REMARK minimizedAffinity -8.31523418
REMARK CNNscore 0.149319366
REMARK CNNaffinity 6.42802382
REMARK  6 active torsions:
REMARK  status: ('A' for Active; 'I' for Inactive)
REMARK       I    between atoms: N1_1  and  C1_2 
REMARK       I    between atoms: C1_2  and  N2_3 
REMARK    1  A    between atoms: N3_4  and  C2_6 
REMARK    2  A    between atoms: C11_16  and  S1_17 
REMARK    3  A    between atoms: S1_17  and  O4_20 
REMARK    4  A    between atoms: C23_33  and  O6_34 
REMARK    5  A    between atoms: C29_40  and  C30_41 
REMARK    6  A    between atoms: C30_41  and  O7_42 
ROOT
HETATM    1  C2  UNL     1       0.400  55.587  -8.537  1.00  0.00     0.263 C 
HETATM    2  O1  UNL     1       1.019  55.912  -9.827  1.00  0.00    -0.322 OA
HETATM    3  C3  UNL     1       2.197  55.258 -10.081  1.00  0.00     0.071 C 
HETATM    4  C4  UNL     1       3.309  56.059 -10.341  1.00  0.00     0.037 C 
HETATM    5  C5  UNL     1       4.584  55.496 -10.324  1.00  0.00     0.010 C 
HETATM    6  C6  UNL     1       4.747  54.126 -10.086  1.00  0.00    -0.058 C 
HETATM    7  C7  UNL     1       3.609  53.311 -10.016  1.00  0.00     0.010 C 
HETATM    8  C8  UNL     1       2.333  53.875 -10.004  1.00  0.00     0.037 C 
HETATM    9  C9  UNL     1       6.115  53.561  -9.771  1.00  0.00     0.040 C 
HETATM   10  C10 UNL     1       6.695  54.117  -8.444  1.00  0.00     0.027 C 
HETATM   11  C11 UNL     1       5.786  53.961  -7.189  1.00  0.00     0.130 C 
HETATM   12  C12 UNL     1       6.157  54.882  -5.966  1.00  0.00     0.037 C 
HETATM   13  C13 UNL     1       6.698  56.272  -6.278  1.00  0.00    -0.014 C 
HETATM   14  C14 UNL     1       6.940  57.089  -5.228  1.00  0.00    -0.050 C 
HETATM   15  C15 UNL     1       6.839  56.507  -3.851  1.00  0.00     0.042 C 
HETATM   16  C16 UNL     1       5.374  56.109  -3.723  1.00  0.00     0.001 C 
HETATM   17  C17 UNL     1       4.486  57.355  -3.442  1.00  0.00     0.038 C 
HETATM   18  C18 UNL     1       5.066  58.793  -3.664  1.00  0.00     0.130 C 
HETATM   19  O5  UNL     1       5.589  59.011  -4.990  1.00  0.00    -0.371 OA
HETATM   20  C19 UNL     1       6.934  58.593  -5.325  1.00  0.00     0.185 C 
HETATM   21  C20 UNL     1       8.174  59.296  -4.734  1.00  0.00    -0.006 A 
HETATM   22  C21 UNL     1       9.436  58.670  -4.894  1.00  0.00     0.014 A 
HETATM   23  C22 UNL     1      10.616  59.271  -4.450  1.00  0.00     0.037 A 
HETATM   24  C23 UNL     1      10.568  60.524  -3.858  1.00  0.00     0.067 A 
HETATM   25  C24 UNL     1       9.357  61.185  -3.705  1.00  0.00     0.057 A 
HETATM   26  C25 UNL     1       8.172  60.580  -4.148  1.00  0.00     0.029 A 
HETATM   27  C26 UNL     1       6.950  61.279  -3.938  1.00  0.00    -0.066 C 
HETATM   28  C27 UNL     1       5.792  61.530  -3.767  1.00  0.00    -0.101 C 
HETATM   29  C28 UNL     1       4.349  61.361  -3.644  1.00  0.00     0.103 C 
HETATM   30  C29 UNL     1       3.925  59.866  -3.454  1.00  0.00     0.049 C 
HETATM   31  C31 UNL     1       4.959  55.118  -4.908  1.00  0.00     0.032 C 
HETATM   32  C32 UNL     1       3.630  55.386  -5.617  1.00  0.00    -0.053 C 
HETATM   33  C33 UNL     1       2.645  54.387  -5.642  1.00  0.00     0.008 C 
HETATM   34  C34 UNL     1       1.562  54.475  -6.523  1.00  0.00     0.012 C 
HETATM   35  C35 UNL     1       1.417  55.578  -7.376  1.00  0.00    -0.010 C 
HETATM   36  C36 UNL     1       2.309  56.650  -7.225  1.00  0.00     0.012 C 
HETATM   37  C37 UNL     1       3.416  56.540  -6.385  1.00  0.00     0.008 C 
ENDROOT
BRANCH   1  38
HETATM   38  N3  UNL     1      -0.493  54.410  -8.517  1.00  0.00    -0.341 N 
HETATM   39  C1  UNL     1      -1.357  54.307  -9.455  1.00  0.00     0.124 C 
HETATM   40  N1  UNL     1      -1.590  55.107 -10.521  1.00  0.00    -0.279 NA
HETATM   41  N2  UNL     1      -2.209  53.259  -9.478  1.00  0.00    -0.279 NA
HETATM   42  H1  UNL     1      -1.785  54.564 -11.354  1.00  0.00     0.126 HD
HETATM   43  H2  UNL     1      -0.815  55.740 -10.711  1.00  0.00     0.126 HD
HETATM   44  H3  UNL     1      -3.165  53.529  -9.684  1.00  0.00     0.126 HD
HETATM   45  H4  UNL     1      -2.155  52.726  -8.612  1.00  0.00     0.126 HD
ATOM     46  H3  UNL     1      -0.423  53.706  -7.782  1.00  0.00     0.164 HD
ENDBRANCH   1  38
BRANCH  11  47
HETATM   47  S1  UNL     1       5.830  52.217  -6.605  1.00  0.00     0.099 S 
HETATM   48  O2  UNL     1       4.902  51.390  -7.346  1.00  0.00    -0.601 OA
HETATM   49  O3  UNL     1       5.892  52.173  -5.163  1.00  0.00    -0.601 OA
BRANCH  47  50
HETATM   50  O4  UNL     1       7.277  51.785  -7.174  1.00  0.00    -0.295 OA
HETATM   51  H15 UNL     1       7.130  51.236  -7.973  1.00  0.00     0.232 HD
ENDBRANCH  47  50
ENDBRANCH  11  47
BRANCH  30  52
HETATM   52  C30 UNL     1       3.190  59.721  -2.111  1.00  0.00     0.172 C 
BRANCH  52  53
HETATM   53  O7  UNL     1       1.785  59.843  -2.289  1.00  0.00    -0.400 OA
HETATM   54  H34 UNL     1       1.371  59.731  -1.415  1.00  0.00     0.209 HD
ENDBRANCH  52  53
ENDBRANCH  30  52
BRANCH  24  55
HETATM   55  O6  UNL     1      11.741  61.082  -3.448  1.00  0.00    -0.361 OA
HETATM   56  H27 UNL     1      11.571  62.001  -3.184  1.00  0.00     0.217 HD
ENDBRANCH  24  55
TORSDOF 6
ENDMDL
