MODEL 1
REMARK minimizedAffinity -9.16107941
REMARK  4 active torsions:
REMARK  status: ('A' for Active; 'I' for Inactive)
REMARK    1  A    between atoms: C4_4  and  C5_5 
REMARK    2  A    between atoms: C5_5  and  C6_7 
REMARK    3  A    between atoms: C6_7  and  C7_8 
REMARK    4  A    between atoms: C7_8  and  C9_10 
ROOT
HETATM    1  C9  UNL     1       0.846   7.475  12.986  1.00  0.00    -0.002 C 
HETATM    2  C10 UNL     1       0.681   6.605  11.703  1.00  0.00     0.006 C 
HETATM    3  C11 UNL     1      -0.822   6.290  11.552  1.00  0.00     0.011 C 
HETATM    4  C12 UNL     1      -1.526   7.267  12.510  1.00  0.00    -0.032 C 
HETATM    5  C13 UNL     1      -1.598   8.636  11.739  1.00  0.00     0.016 C 
HETATM    6  C14 UNL     1      -2.996   6.954  12.951  1.00  0.00     0.004 C 
HETATM    7  C15 UNL     1      -3.511   5.542  12.641  1.00  0.00     0.007 C 
HETATM    8  C16 UNL     1      -4.978   5.313  13.059  1.00  0.00     0.007 C 
HETATM    9  C17 UNL     1      -5.667   6.520  13.745  1.00  0.00     0.010 C 
HETATM   10  C18 UNL     1      -7.081   6.200  14.329  1.00  0.00     0.018 C 
HETATM   11  C19 UNL     1      -8.019   5.682  13.220  1.00  0.00     0.023 C 
HETATM   12  C20 UNL     1      -7.047   5.173  15.471  1.00  0.00     0.023 C 
HETATM   13  C21 UNL     1      -7.697   7.492  14.887  1.00  0.00     0.135 C 
HETATM   14  O2  UNL     1      -8.889   7.568  15.192  1.00  0.00    -0.297 OA
HETATM   15  C22 UNL     1      -6.800   8.698  15.030  1.00  0.00     0.080 C 
HETATM   16  C23 UNL     1      -5.467   8.280  15.624  1.00  0.00     0.018 C 
HETATM   17  C24 UNL     1      -4.769   7.214  14.792  1.00  0.00    -0.026 A 
HETATM   18  C25 UNL     1      -3.717   6.394  15.494  1.00  0.00     0.021 A 
HETATM   19  C26 UNL     1      -3.281   7.371  14.412  1.00  0.00    -0.027 A 
HETATM   20  C27 UNL     1      -2.453   8.551  14.900  1.00  0.00     0.011 C 
HETATM   21  C28 UNL     1      -0.931   8.395  14.699  1.00  0.00     0.011 C 
HETATM   22  C29 UNL     1      -0.521   7.275  13.724  1.00  0.00    -0.032 C 
HETATM   23  C30 UNL     1      -0.487   5.928  14.493  1.00  0.00     0.016 C 
ENDROOT
BRANCH   1  24
HETATM   24  C7  UNL     1       2.240   7.315  13.671  1.00  0.00    -0.007 C 
HETATM   25  C8  UNL     1       2.292   7.386  15.201  1.00  0.00     0.011 C 
BRANCH  24  26
HETATM   26  C6  UNL     1       3.351   8.126  12.955  1.00  0.00     0.087 C 
BRANCH  26  27
HETATM   27  C5  UNL     1       3.932   7.524  11.689  1.00  0.00     0.149 C 
HETATM   28  O1  UNL     1       4.727   6.584  11.729  1.00  0.00    -0.293 OA
BRANCH  27  29
HETATM   29  C4  UNL     1       3.664   8.142  10.358  1.00  0.00     0.052 C 
HETATM   30  C2  UNL     1       3.238   7.602   9.199  1.00  0.00    -0.084 C 
HETATM   31  C1  UNL     1       2.981   6.148   8.918  1.00  0.00     0.043 C 
HETATM   32  C3  UNL     1       3.018   8.493   8.000  1.00  0.00     0.043 C 
ENDBRANCH  27  29
ENDBRANCH  26  27
ENDBRANCH  24  26
ENDBRANCH   1  24
TORSDOF 4
ENDMDL
MODEL 2
REMARK minimizedAffinity -9.11801338
REMARK  4 active torsions:
REMARK  status: ('A' for Active; 'I' for Inactive)
REMARK    1  A    between atoms: C4_4  and  C5_5 
REMARK    2  A    between atoms: C5_5  and  C6_7 
REMARK    3  A    between atoms: C6_7  and  C7_8 
REMARK    4  A    between atoms: C7_8  and  C9_10 
ROOT
HETATM    1  C9  UNL     1       3.007   7.440  11.091  1.00  0.00    -0.002 C 
HETATM    2  C10 UNL     1       2.998   5.980  10.544  1.00  0.00     0.006 C 
HETATM    3  C11 UNL     1       1.578   5.416  10.765  1.00  0.00     0.011 C 
HETATM    4  C12 UNL     1       0.711   6.647  11.083  1.00  0.00    -0.032 C 
HETATM    5  C13 UNL     1       0.380   7.300   9.692  1.00  0.00     0.016 C 
HETATM    6  C14 UNL     1      -0.672   6.426  11.785  1.00  0.00     0.004 C 
HETATM    7  C15 UNL     1      -0.917   5.033  12.380  1.00  0.00     0.007 C 
HETATM    8  C16 UNL     1      -2.312   4.869  13.016  1.00  0.00     0.007 C 
HETATM    9  C17 UNL     1      -3.209   6.132  12.980  1.00  0.00     0.010 C 
HETATM   10  C18 UNL     1      -4.535   5.996  13.797  1.00  0.00     0.018 C 
HETATM   11  C19 UNL     1      -5.367   4.805  13.283  1.00  0.00     0.023 C 
HETATM   12  C20 UNL     1      -4.301   5.825  15.306  1.00  0.00     0.023 C 
HETATM   13  C21 UNL     1      -5.377   7.267  13.600  1.00  0.00     0.135 C 
HETATM   14  O2  UNL     1      -6.560   7.324  13.942  1.00  0.00    -0.297 OA
HETATM   15  C22 UNL     1      -4.720   8.455  12.941  1.00  0.00     0.080 C 
HETATM   16  C23 UNL     1      -3.328   8.656  13.513  1.00  0.00     0.018 C 
HETATM   17  C24 UNL     1      -2.448   7.424  13.349  1.00  0.00    -0.026 A 
HETATM   18  C25 UNL     1      -1.258   7.321  14.267  1.00  0.00     0.021 A 
HETATM   19  C26 UNL     1      -1.019   7.556  12.783  1.00  0.00    -0.027 A 
HETATM   20  C27 UNL     1      -0.422   8.911  12.429  1.00  0.00     0.011 C 
HETATM   21  C28 UNL     1       1.101   8.896  12.180  1.00  0.00     0.011 C 
HETATM   22  C29 UNL     1       1.706   7.496  11.962  1.00  0.00    -0.032 C 
HETATM   23  C30 UNL     1       1.996   6.854  13.344  1.00  0.00     0.016 C 
ENDROOT
BRANCH   1  24
HETATM   24  C7  UNL     1       4.411   7.911  11.586  1.00  0.00    -0.007 C 
HETATM   25  C8  UNL     1       4.992   9.186  10.965  1.00  0.00     0.011 C 
BRANCH  24  26
HETATM   26  C6  UNL     1       5.421   6.741  11.709  1.00  0.00     0.087 C 
BRANCH  26  27
HETATM   27  C5  UNL     1       6.787   7.072  12.281  1.00  0.00     0.149 C 
HETATM   28  O1  UNL     1       7.817   6.898  11.629  1.00  0.00    -0.293 OA
BRANCH  27  29
HETATM   29  C4  UNL     1       6.936   7.492  13.705  1.00  0.00     0.052 C 
HETATM   30  C2  UNL     1       8.014   7.911  14.397  1.00  0.00    -0.084 C 
HETATM   31  C1  UNL     1       9.432   7.995  13.904  1.00  0.00     0.043 C 
HETATM   32  C3  UNL     1       7.858   8.310  15.846  1.00  0.00     0.043 C 
ENDBRANCH  27  29
ENDBRANCH  26  27
ENDBRANCH  24  26
ENDBRANCH   1  24
TORSDOF 4
ENDMDL
MODEL 3
REMARK minimizedAffinity -9.06622791
REMARK  4 active torsions:
REMARK  status: ('A' for Active; 'I' for Inactive)
REMARK    1  A    between atoms: C4_4  and  C5_5 
REMARK    2  A    between atoms: C5_5  and  C6_7 
REMARK    3  A    between atoms: C6_7  and  C7_8 
REMARK    4  A    between atoms: C7_8  and  C9_10 
ROOT
HETATM    1  C9  UNL     1       0.501   7.701  13.628  1.00  0.00    -0.002 C 
HETATM    2  C10 UNL     1       0.525   6.896  12.293  1.00  0.00     0.006 C 
HETATM    3  C11 UNL     1      -0.932   6.500  11.970  1.00  0.00     0.011 C 
HETATM    4  C12 UNL     1      -1.793   7.377  12.896  1.00  0.00    -0.032 C 
HETATM    5  C13 UNL     1      -1.876   8.780  12.191  1.00  0.00     0.016 C 
HETATM    6  C14 UNL     1      -3.276   6.951  13.164  1.00  0.00     0.004 C 
HETATM    7  C15 UNL     1      -3.662   5.530  12.732  1.00  0.00     0.007 C 
HETATM    8  C16 UNL     1      -5.146   5.190  12.983  1.00  0.00     0.007 C 
HETATM    9  C17 UNL     1      -5.979   6.312  13.651  1.00  0.00     0.010 C 
HETATM   10  C18 UNL     1      -7.421   5.875  14.067  1.00  0.00     0.018 C 
HETATM   11  C19 UNL     1      -8.205   5.364  12.842  1.00  0.00     0.023 C 
HETATM   12  C20 UNL     1      -7.435   4.790  15.154  1.00  0.00     0.023 C 
HETATM   13  C21 UNL     1      -8.174   7.095  14.621  1.00  0.00     0.135 C 
HETATM   14  O2  UNL     1      -9.393   7.081  14.803  1.00  0.00    -0.297 OA
HETATM   15  C22 UNL     1      -7.378   8.343  14.917  1.00  0.00     0.080 C 
HETATM   16  C23 UNL     1      -6.087   7.973  15.625  1.00  0.00     0.018 C 
HETATM   17  C24 UNL     1      -5.239   7.000  14.819  1.00  0.00    -0.026 A 
HETATM   18  C25 UNL     1      -4.213   6.207  15.587  1.00  0.00     0.021 A 
HETATM   19  C26 UNL     1      -3.735   7.268  14.607  1.00  0.00    -0.027 A 
HETATM   20  C27 UNL     1      -3.040   8.467  15.237  1.00  0.00     0.011 C 
HETATM   21  C28 UNL     1      -1.498   8.414  15.188  1.00  0.00     0.011 C 
HETATM   22  C29 UNL     1      -0.918   7.378  14.208  1.00  0.00    -0.032 C 
HETATM   23  C30 UNL     1      -0.873   5.994  14.909  1.00  0.00     0.016 C 
ENDROOT
BRANCH   1  24
HETATM   24  C7  UNL     1       1.825   7.589  14.447  1.00  0.00    -0.007 C 
HETATM   25  C8  UNL     1       1.728   7.695  15.972  1.00  0.00     0.011 C 
BRANCH  24  26
HETATM   26  C6  UNL     1       2.983   8.407  13.820  1.00  0.00     0.087 C 
BRANCH  26  27
HETATM   27  C5  UNL     1       4.395   7.994  14.193  1.00  0.00     0.149 C 
HETATM   28  O1  UNL     1       4.771   7.970  15.365  1.00  0.00    -0.293 OA
BRANCH  27  29
HETATM   29  C4  UNL     1       5.418   7.734  13.138  1.00  0.00     0.052 C 
HETATM   30  C2  UNL     1       5.306   7.191  11.909  1.00  0.00    -0.084 C 
HETATM   31  C1  UNL     1       4.068   6.608  11.285  1.00  0.00     0.043 C 
HETATM   32  C3  UNL     1       6.529   7.083  11.029  1.00  0.00     0.043 C 
ENDBRANCH  27  29
ENDBRANCH  26  27
ENDBRANCH  24  26
ENDBRANCH   1  24
TORSDOF 4
ENDMDL
MODEL 4
REMARK minimizedAffinity -9.03276443
REMARK  4 active torsions:
REMARK  status: ('A' for Active; 'I' for Inactive)
REMARK    1  A    between atoms: C4_4  and  C5_5 
REMARK    2  A    between atoms: C5_5  and  C6_7 
REMARK    3  A    between atoms: C6_7  and  C7_8 
REMARK    4  A    between atoms: C7_8  and  C9_10 
ROOT
HETATM    1  C9  UNL     1       3.499   7.821  12.175  1.00  0.00    -0.002 C 
HETATM    2  C10 UNL     1       3.659   9.276  12.710  1.00  0.00     0.006 C 
HETATM    3  C11 UNL     1       2.346   9.647  13.431  1.00  0.00     0.011 C 
HETATM    4  C12 UNL     1       1.611   8.308  13.624  1.00  0.00    -0.032 C 
HETATM    5  C13 UNL     1       2.273   7.641  14.885  1.00  0.00     0.016 C 
HETATM    6  C14 UNL     1       0.073   8.335  13.919  1.00  0.00     0.004 C 
HETATM    7  C15 UNL     1      -0.639   9.674  13.688  1.00  0.00     0.007 C 
HETATM    8  C16 UNL     1      -2.141   9.644  14.039  1.00  0.00     0.007 C 
HETATM    9  C17 UNL     1      -2.680   8.276  14.528  1.00  0.00     0.010 C 
HETATM   10  C18 UNL     1      -4.233   8.224  14.692  1.00  0.00     0.018 C 
HETATM   11  C19 UNL     1      -4.709   9.305  15.681  1.00  0.00     0.023 C 
HETATM   12  C20 UNL     1      -4.988   8.398  13.364  1.00  0.00     0.023 C 
HETATM   13  C21 UNL     1      -4.630   6.858  15.274  1.00  0.00     0.135 C 
HETATM   14  O2  UNL     1      -5.760   6.641  15.715  1.00  0.00    -0.297 OA
HETATM   15  C22 UNL     1      -3.578   5.776  15.320  1.00  0.00     0.080 C 
HETATM   16  C23 UNL     1      -2.810   5.750  14.010  1.00  0.00     0.018 C 
HETATM   17  C24 UNL     1      -2.160   7.088  13.689  1.00  0.00    -0.026 A 
HETATM   18  C25 UNL     1      -1.796   7.329  12.247  1.00  0.00     0.021 A 
HETATM   19  C26 UNL     1      -0.679   7.153  13.264  1.00  0.00    -0.027 A 
HETATM   20  C27 UNL     1       0.160   5.893  13.094  1.00  0.00     0.011 C 
HETATM   21  C28 UNL     1       1.505   6.110  12.369  1.00  0.00     0.011 C 
HETATM   22  C29 UNL     1       1.954   7.581  12.268  1.00  0.00    -0.032 C 
HETATM   23  C30 UNL     1       1.267   8.231  11.039  1.00  0.00     0.016 C 
ENDROOT
BRANCH   1  24
HETATM   24  C7  UNL     1       4.353   7.528  10.901  1.00  0.00    -0.007 C 
HETATM   25  C8  UNL     1       4.117   8.409   9.670  1.00  0.00     0.011 C 
BRANCH  24  26
HETATM   26  C6  UNL     1       4.461   6.013  10.593  1.00  0.00     0.087 C 
BRANCH  26  27
HETATM   27  C5  UNL     1       3.407   5.424   9.674  1.00  0.00     0.149 C 
HETATM   28  O1  UNL     1       3.148   4.220   9.680  1.00  0.00    -0.293 OA
BRANCH  27  29
HETATM   29  C4  UNL     1       2.747   6.265   8.633  1.00  0.00     0.052 C 
HETATM   30  C2  UNL     1       2.567   6.063   7.313  1.00  0.00    -0.084 C 
HETATM   31  C1  UNL     1       3.080   4.911   6.494  1.00  0.00     0.043 C 
HETATM   32  C3  UNL     1       1.817   7.090   6.499  1.00  0.00     0.043 C 
ENDBRANCH  27  29
ENDBRANCH  26  27
ENDBRANCH  24  26
ENDBRANCH   1  24
TORSDOF 4
ENDMDL
MODEL 5
REMARK minimizedAffinity -9.03274727
REMARK  4 active torsions:
REMARK  status: ('A' for Active; 'I' for Inactive)
REMARK    1  A    between atoms: C4_4  and  C5_5 
REMARK    2  A    between atoms: C5_5  and  C6_7 
REMARK    3  A    between atoms: C6_7  and  C7_8 
REMARK    4  A    between atoms: C7_8  and  C9_10 
ROOT
HETATM    1  C9  UNL     1      -3.382   7.554  14.261  1.00  0.00    -0.002 C 
HETATM    2  C10 UNL     1      -3.890   6.269  13.540  1.00  0.00     0.006 C 
HETATM    3  C11 UNL     1      -2.703   5.692  12.740  1.00  0.00     0.011 C 
HETATM    4  C12 UNL     1      -1.465   6.420  13.294  1.00  0.00    -0.032 C 
HETATM    5  C13 UNL     1      -1.100   5.675  14.629  1.00  0.00     0.016 C 
HETATM    6  C14 UNL     1      -0.152   6.420  12.438  1.00  0.00     0.004 C 
HETATM    7  C15 UNL     1      -0.292   5.961  10.981  1.00  0.00     0.007 C 
HETATM    8  C16 UNL     1       1.043   5.942  10.208  1.00  0.00     0.007 C 
HETATM    9  C17 UNL     1       2.280   6.415  11.012  1.00  0.00     0.010 C 
HETATM   10  C18 UNL     1       3.578   6.568  10.154  1.00  0.00     0.018 C 
HETATM   11  C19 UNL     1       3.935   5.233   9.471  1.00  0.00     0.023 C 
HETATM   12  C20 UNL     1       3.468   7.662   9.081  1.00  0.00     0.023 C 
HETATM   13  C21 UNL     1       4.748   6.941  11.078  1.00  0.00     0.135 C 
HETATM   14  O2  UNL     1       5.920   6.895  10.697  1.00  0.00    -0.297 OA
HETATM   15  C22 UNL     1       4.428   7.346  12.496  1.00  0.00     0.080 C 
HETATM   16  C23 UNL     1       3.239   8.291  12.505  1.00  0.00     0.018 C 
HETATM   17  C24 UNL     1       2.006   7.682  11.852  1.00  0.00    -0.026 A 
HETATM   18  C25 UNL     1       0.951   8.646  11.377  1.00  0.00     0.021 A 
HETATM   19  C26 UNL     1       0.638   7.744  12.561  1.00  0.00    -0.027 A 
HETATM   20  C27 UNL     1       0.459   8.460  13.893  1.00  0.00     0.011 C 
HETATM   21  C28 UNL     1      -1.010   8.699  14.301  1.00  0.00     0.011 C 
HETATM   22  C29 UNL     1      -2.042   7.870  13.514  1.00  0.00    -0.032 C 
HETATM   23  C30 UNL     1      -2.366   8.603  12.185  1.00  0.00     0.016 C 
ENDROOT
BRANCH   1  24
HETATM   24  C7  UNL     1      -4.506   8.607  14.522  1.00  0.00    -0.007 C 
HETATM   25  C8  UNL     1      -4.535   9.289  15.894  1.00  0.00     0.011 C 
BRANCH  24  26
HETATM   26  C6  UNL     1      -5.891   8.135  14.011  1.00  0.00     0.087 C 
BRANCH  26  27
HETATM   27  C5  UNL     1      -6.749   7.347  14.984  1.00  0.00     0.149 C 
HETATM   28  O1  UNL     1      -7.245   7.874  15.980  1.00  0.00    -0.293 OA
BRANCH  27  29
HETATM   29  C4  UNL     1      -6.905   5.870  14.838  1.00  0.00     0.052 C 
HETATM   30  C2  UNL     1      -7.457   5.129  13.856  1.00  0.00    -0.084 C 
HETATM   31  C1  UNL     1      -8.161   5.634  12.627  1.00  0.00     0.043 C 
HETATM   32  C3  UNL     1      -7.442   3.623  13.963  1.00  0.00     0.043 C 
ENDBRANCH  27  29
ENDBRANCH  26  27
ENDBRANCH  24  26
ENDBRANCH   1  24
TORSDOF 4
ENDMDL
MODEL 6
REMARK minimizedAffinity -9.02208996
REMARK  4 active torsions:
REMARK  status: ('A' for Active; 'I' for Inactive)
REMARK    1  A    between atoms: C4_4  and  C5_5 
REMARK    2  A    between atoms: C5_5  and  C6_7 
REMARK    3  A    between atoms: C6_7  and  C7_8 
REMARK    4  A    between atoms: C7_8  and  C9_10 
ROOT
HETATM    1  C9  UNL     1      -2.041   6.216  12.892  1.00  0.00    -0.002 C 
HETATM    2  C10 UNL     1      -1.965   5.124  11.783  1.00  0.00     0.006 C 
HETATM    3  C11 UNL     1      -0.486   5.002  11.359  1.00  0.00     0.011 C 
HETATM    4  C12 UNL     1       0.301   5.736  12.460  1.00  0.00    -0.032 C 
HETATM    5  C13 UNL     1       0.418   4.712  13.648  1.00  0.00     0.016 C 
HETATM    6  C14 UNL     1       1.766   6.195  12.153  1.00  0.00     0.004 C 
HETATM    7  C15 UNL     1       2.197   6.153  10.681  1.00  0.00     0.007 C 
HETATM    8  C16 UNL     1       3.663   6.574  10.453  1.00  0.00     0.007 C 
HETATM    9  C17 UNL     1       4.437   6.996  11.727  1.00  0.00     0.010 C 
HETATM   10  C18 UNL     1       5.851   7.598  11.445  1.00  0.00     0.018 C 
HETATM   11  C19 UNL     1       6.722   6.590  10.670  1.00  0.00     0.023 C 
HETATM   12  C20 UNL     1       5.802   8.919  10.661  1.00  0.00     0.023 C 
HETATM   13  C21 UNL     1       6.552   7.880  12.783  1.00  0.00     0.135 C 
HETATM   14  O2  UNL     1       7.756   8.138  12.847  1.00  0.00    -0.297 OA
HETATM   15  C22 UNL     1       5.724   7.807  14.044  1.00  0.00     0.080 C 
HETATM   16  C23 UNL     1       4.392   8.501  13.825  1.00  0.00     0.018 C 
HETATM   17  C24 UNL     1       3.611   7.909  12.660  1.00  0.00    -0.026 A 
HETATM   18  C25 UNL     1       2.543   8.781  12.054  1.00  0.00     0.021 A 
HETATM   19  C26 UNL     1       2.122   7.540  12.827  1.00  0.00    -0.027 A 
HETATM   20  C27 UNL     1       1.373   7.809  14.125  1.00  0.00     0.011 C 
HETATM   21  C28 UNL     1      -0.161   7.677  14.021  1.00  0.00     0.011 C 
HETATM   22  C29 UNL     1      -0.662   6.948  12.759  1.00  0.00    -0.032 C 
HETATM   23  C30 UNL     1      -0.740   7.965  11.590  1.00  0.00     0.016 C 
ENDROOT
BRANCH   1  24
HETATM   24  C7  UNL     1      -3.417   6.952  12.948  1.00  0.00    -0.007 C 
HETATM   25  C8  UNL     1      -3.402   8.482  13.029  1.00  0.00     0.011 C 
BRANCH  24  26
HETATM   26  C6  UNL     1      -4.417   6.269  13.917  1.00  0.00     0.087 C 
BRANCH  26  27
HETATM   27  C5  UNL     1      -5.619   5.585  13.292  1.00  0.00     0.149 C 
HETATM   28  O1  UNL     1      -6.766   5.978  13.505  1.00  0.00    -0.293 OA
BRANCH  27  29
HETATM   29  C4  UNL     1      -5.457   4.326  12.507  1.00  0.00     0.052 C 
HETATM   30  C2  UNL     1      -6.235   3.230  12.420  1.00  0.00    -0.084 C 
HETATM   31  C1  UNL     1      -7.496   2.949  13.191  1.00  0.00     0.043 C 
HETATM   32  C3  UNL     1      -5.831   2.102  11.501  1.00  0.00     0.043 C 
ENDBRANCH  27  29
ENDBRANCH  26  27
ENDBRANCH  24  26
ENDBRANCH   1  24
TORSDOF 4
ENDMDL
MODEL 7
REMARK minimizedAffinity -8.99521351
REMARK  4 active torsions:
REMARK  status: ('A' for Active; 'I' for Inactive)
REMARK    1  A    between atoms: C4_4  and  C5_5 
REMARK    2  A    between atoms: C5_5  and  C6_7 
REMARK    3  A    between atoms: C6_7  and  C7_8 
REMARK    4  A    between atoms: C7_8  and  C9_10 
ROOT
HETATM    1  C9  UNL     1      -6.078   6.988  13.951  1.00  0.00    -0.002 C 
HETATM    2  C10 UNL     1      -6.285   8.359  14.663  1.00  0.00     0.006 C 
HETATM    3  C11 UNL     1      -4.890   8.987  14.864  1.00  0.00     0.011 C 
HETATM    4  C12 UNL     1      -3.955   8.169  13.955  1.00  0.00    -0.032 C 
HETATM    5  C13 UNL     1      -4.157   8.751  12.508  1.00  0.00     0.016 C 
HETATM    6  C14 UNL     1      -2.413   8.227  14.222  1.00  0.00     0.004 C 
HETATM    7  C15 UNL     1      -1.978   8.848  15.556  1.00  0.00     0.007 C 
HETATM    8  C16 UNL     1      -0.448   8.916  15.737  1.00  0.00     0.007 C 
HETATM    9  C17 UNL     1       0.384   8.323  14.572  1.00  0.00     0.010 C 
HETATM   10  C18 UNL     1       1.916   8.230  14.864  1.00  0.00     0.018 C 
HETATM   11  C19 UNL     1       2.488   9.622  15.197  1.00  0.00     0.023 C 
HETATM   12  C20 UNL     1       2.257   7.265  16.011  1.00  0.00     0.023 C 
HETATM   13  C21 UNL     1       2.637   7.724  13.604  1.00  0.00     0.135 C 
HETATM   14  O2  UNL     1       3.863   7.780  13.488  1.00  0.00    -0.297 OA
HETATM   15  C22 UNL     1       1.793   7.173  12.480  1.00  0.00     0.080 C 
HETATM   16  C23 UNL     1       0.714   6.267  13.045  1.00  0.00     0.018 C 
HETATM   17  C24 UNL     1      -0.175   6.979  14.055  1.00  0.00    -0.026 A 
HETATM   18  C25 UNL     1      -0.942   6.103  15.011  1.00  0.00     0.021 A 
HETATM   19  C26 UNL     1      -1.711   6.877  13.951  1.00  0.00    -0.027 A 
HETATM   20  C27 UNL     1      -2.384   6.022  12.885  1.00  0.00     0.011 C 
HETATM   21  C28 UNL     1      -3.891   5.780  13.115  1.00  0.00     0.011 C 
HETATM   22  C29 UNL     1      -4.546   6.720  14.144  1.00  0.00    -0.032 C 
HETATM   23  C30 UNL     1      -4.310   6.148  15.567  1.00  0.00     0.016 C 
ENDROOT
BRANCH   1  24
HETATM   24  C7  UNL     1      -7.194   5.944  14.272  1.00  0.00    -0.007 C 
HETATM   25  C8  UNL     1      -6.980   5.024  15.478  1.00  0.00     0.011 C 
BRANCH  24  26
HETATM   26  C6  UNL     1      -7.719   5.225  13.003  1.00  0.00     0.087 C 
BRANCH  26  27
HETATM   27  C5  UNL     1      -7.320   3.772  12.824  1.00  0.00     0.149 C 
HETATM   28  O1  UNL     1      -8.120   2.856  13.017  1.00  0.00    -0.293 OA
BRANCH  27  29
HETATM   29  C4  UNL     1      -5.903   3.399  12.543  1.00  0.00     0.052 C 
HETATM   30  C2  UNL     1      -5.379   2.407  11.796  1.00  0.00    -0.084 C 
HETATM   31  C1  UNL     1      -6.129   1.318  11.079  1.00  0.00     0.043 C 
HETATM   32  C3  UNL     1      -3.879   2.290  11.662  1.00  0.00     0.043 C 
ENDBRANCH  27  29
ENDBRANCH  26  27
ENDBRANCH  24  26
ENDBRANCH   1  24
TORSDOF 4
ENDMDL
MODEL 8
REMARK minimizedAffinity -8.77579689
REMARK  4 active torsions:
REMARK  status: ('A' for Active; 'I' for Inactive)
REMARK    1  A    between atoms: C4_4  and  C5_5 
REMARK    2  A    between atoms: C5_5  and  C6_7 
REMARK    3  A    between atoms: C6_7  and  C7_8 
REMARK    4  A    between atoms: C7_8  and  C9_10 
ROOT
HETATM    1  C9  UNL     1      -2.596   7.257  12.923  1.00  0.00    -0.002 C 
HETATM    2  C10 UNL     1      -2.839   8.722  13.397  1.00  0.00     0.006 C 
HETATM    3  C11 UNL     1      -1.498   9.475  13.265  1.00  0.00     0.011 C 
HETATM    4  C12 UNL     1      -0.619   8.564  12.389  1.00  0.00    -0.032 C 
HETATM    5  C13 UNL     1      -1.073   8.838  10.909  1.00  0.00     0.016 C 
HETATM    6  C14 UNL     1       0.931   8.783  12.403  1.00  0.00     0.004 C 
HETATM    7  C15 UNL     1       1.480   9.681  13.520  1.00  0.00     0.007 C 
HETATM    8  C16 UNL     1       3.006   9.892  13.451  1.00  0.00     0.007 C 
HETATM    9  C17 UNL     1       3.727   9.144  12.300  1.00  0.00     0.010 C 
HETATM   10  C18 UNL     1       5.286   9.220  12.368  1.00  0.00     0.018 C 
HETATM   11  C19 UNL     1       5.757  10.687  12.351  1.00  0.00     0.023 C 
HETATM   12  C20 UNL     1       5.873   8.523  13.605  1.00  0.00     0.023 C 
HETATM   13  C21 UNL     1       5.875   8.532  11.126  1.00  0.00     0.135 C 
HETATM   14  O2  UNL     1       7.063   8.651  10.817  1.00  0.00    -0.297 OA
HETATM   15  C22 UNL     1       4.945   7.714  10.263  1.00  0.00     0.080 C 
HETATM   16  C23 UNL     1       4.048   6.860  11.140  1.00  0.00     0.018 C 
HETATM   17  C24 UNL     1       3.239   7.689  12.127  1.00  0.00    -0.026 A 
HETATM   18  C25 UNL     1       2.699   6.963  13.332  1.00  0.00     0.021 A 
HETATM   19  C26 UNL     1       1.720   7.459  12.278  1.00  0.00    -0.027 A 
HETATM   20  C27 UNL     1       0.996   6.369  11.501  1.00  0.00     0.011 C 
HETATM   21  C28 UNL     1      -0.434   6.069  11.997  1.00  0.00     0.011 C 
HETATM   22  C29 UNL     1      -1.033   7.142  12.926  1.00  0.00    -0.032 C 
HETATM   23  C30 UNL     1      -0.550   6.875  14.376  1.00  0.00     0.016 C 
ENDROOT
BRANCH   1  24
HETATM   24  C7  UNL     1      -3.550   6.219  13.594  1.00  0.00    -0.007 C 
HETATM   25  C8  UNL     1      -3.833   6.379  15.091  1.00  0.00     0.011 C 
BRANCH  24  26
HETATM   26  C6  UNL     1      -3.250   4.763  13.152  1.00  0.00     0.087 C 
BRANCH  26  27
HETATM   27  C5  UNL     1      -4.209   4.139  12.154  1.00  0.00     0.149 C 
HETATM   28  O1  UNL     1      -3.890   3.964  10.977  1.00  0.00    -0.293 OA
BRANCH  27  29
HETATM   29  C4  UNL     1      -5.621   3.844  12.536  1.00  0.00     0.052 C 
HETATM   30  C2  UNL     1      -6.405   2.779  12.276  1.00  0.00    -0.084 C 
HETATM   31  C1  UNL     1      -6.062   1.586  11.426  1.00  0.00     0.043 C 
HETATM   32  C3  UNL     1      -7.809   2.736  12.831  1.00  0.00     0.043 C 
ENDBRANCH  27  29
ENDBRANCH  26  27
ENDBRANCH  24  26
ENDBRANCH   1  24
TORSDOF 4
ENDMDL
MODEL 9
REMARK minimizedAffinity -8.76915264
REMARK  4 active torsions:
REMARK  status: ('A' for Active; 'I' for Inactive)
REMARK    1  A    between atoms: C4_4  and  C5_5 
REMARK    2  A    between atoms: C5_5  and  C6_7 
REMARK    3  A    between atoms: C6_7  and  C7_8 
REMARK    4  A    between atoms: C7_8  and  C9_10 
ROOT
HETATM    1  C9  UNL     1      -0.705   5.921  11.872  1.00  0.00    -0.002 C 
HETATM    2  C10 UNL     1      -1.501   7.180  12.329  1.00  0.00     0.006 C 
HETATM    3  C11 UNL     1      -0.505   8.358  12.384  1.00  0.00     0.011 C 
HETATM    4  C12 UNL     1       0.735   7.861  11.619  1.00  0.00    -0.032 C 
HETATM    5  C13 UNL     1       0.393   8.046  10.095  1.00  0.00     0.016 C 
HETATM    6  C14 UNL     1       2.097   8.602  11.839  1.00  0.00     0.004 C 
HETATM    7  C15 UNL     1       2.159   9.568  13.029  1.00  0.00     0.007 C 
HETATM    8  C16 UNL     1       3.511  10.299  13.163  1.00  0.00     0.007 C 
HETATM    9  C17 UNL     1       4.578   9.915  12.107  1.00  0.00     0.010 C 
HETATM   10  C18 UNL     1       5.993  10.522  12.379  1.00  0.00     0.018 C 
HETATM   11  C19 UNL     1       5.917  12.060  12.444  1.00  0.00     0.023 C 
HETATM   12  C20 UNL     1       6.636  10.001  13.674  1.00  0.00     0.023 C 
HETATM   13  C21 UNL     1       6.928  10.154  11.217  1.00  0.00     0.135 C 
HETATM   14  O2  UNL     1       8.025  10.696  11.067  1.00  0.00    -0.297 OA
HETATM   15  C22 UNL     1       6.453   9.116  10.228  1.00  0.00     0.080 C 
HETATM   16  C23 UNL     1       5.816   7.955  10.969  1.00  0.00     0.018 C 
HETATM   17  C24 UNL     1       4.656   8.394  11.853  1.00  0.00    -0.026 A 
HETATM   18  C25 UNL     1       4.268   7.457  12.967  1.00  0.00     0.021 A 
HETATM   19  C26 UNL     1       3.309   7.644  11.801  1.00  0.00    -0.027 A 
HETATM   20  C27 UNL     1       3.111   6.416  10.922  1.00  0.00     0.011 C 
HETATM   21  C28 UNL     1       1.829   5.611  11.222  1.00  0.00     0.011 C 
HETATM   22  C29 UNL     1       0.786   6.354  12.079  1.00  0.00    -0.032 C 
HETATM   23  C30 UNL     1       1.158   6.188  13.576  1.00  0.00     0.016 C 
ENDROOT
BRANCH   1  24
HETATM   24  C7  UNL     1      -1.305   4.579  12.399  1.00  0.00    -0.007 C 
HETATM   25  C8  UNL     1      -0.993   3.303  11.611  1.00  0.00     0.011 C 
BRANCH  24  26
HETATM   26  C6  UNL     1      -2.789   4.720  12.828  1.00  0.00     0.087 C 
BRANCH  26  27
HETATM   27  C5  UNL     1      -3.831   4.146  11.886  1.00  0.00     0.149 C 
HETATM   28  O1  UNL     1      -3.604   3.998  10.685  1.00  0.00    -0.293 OA
BRANCH  27  29
HETATM   29  C4  UNL     1      -5.219   3.871  12.362  1.00  0.00     0.052 C 
HETATM   30  C2  UNL     1      -6.035   2.819  12.153  1.00  0.00    -0.084 C 
HETATM   31  C1  UNL     1      -5.770   1.625  11.278  1.00  0.00     0.043 C 
HETATM   32  C3  UNL     1      -7.399   2.796  12.801  1.00  0.00     0.043 C 
ENDBRANCH  27  29
ENDBRANCH  26  27
ENDBRANCH  24  26
ENDBRANCH   1  24
TORSDOF 4
ENDMDL
