MODEL 1
REMARK minimizedAffinity -8.29416847
REMARK CNNscore 0.515042901
REMARK CNNaffinity 7.38972902
REMARK  18 active torsions:
REMARK  status: ('A' for Active; 'I' for Inactive)
REMARK    1  A    between atoms: C19_20  and  O2_21 
REMARK    2  A    between atoms: C19_20  and  C20_22 
REMARK    3  A    between atoms: C20_22  and  C21_24 
REMARK    4  A    between atoms: C21_24  and  O4_25 
REMARK    5  A    between atoms: O4_25  and  C22_26 
REMARK    6  A    between atoms: C22_26  and  C23_28 
REMARK    7  A    between atoms: C23_28  and  C24_29 
REMARK    8  A    between atoms: C24_29  and  C25_30 
REMARK       I    between atoms: C25_30  and  N1_32 
REMARK    9  A    between atoms: N1_32  and  C26_33 
REMARK   10  A    between atoms: C26_33  and  C27_34 
REMARK   11  A    between atoms: C27_34  and  C28_35 
REMARK   12  A    between atoms: C28_35  and  C29_36 
REMARK   13  A    between atoms: C29_36  and  C30_37 
REMARK   14  A    between atoms: C30_37  and  C31_38 
REMARK       I    between atoms: C31_38  and  N2_40 
REMARK   15  A    between atoms: N2_40  and  C32_41 
REMARK   16  A    between atoms: C32_41  and  C33_42 
REMARK   17  A    between atoms: C36_45  and  C37_46 
REMARK   18  A    between atoms: C37_46  and  O9_48 
ROOT
HETATM    1  C22 UNL     1       2.433   5.877   9.271  1.00  0.00     0.259 C 
HETATM    2  O5  UNL     1       3.276   5.305   8.595  1.00  0.00    -0.265 OA
ENDROOT
BRANCH   1   3
HETATM    3  O4  UNL     1       1.432   5.255   9.951  1.00  0.00    -0.314 OA
BRANCH   3   4
HETATM    4  C21 UNL     1       1.699   5.004  11.328  1.00  0.00     0.260 C 
BRANCH   4   5
HETATM    5  C20 UNL     1       0.464   4.626  12.150  1.00  0.00     0.185 C 
HETATM    6  O3  UNL     1       0.223   3.436  12.375  1.00  0.00    -0.292 OA
BRANCH   5   7
HETATM    7  C19 UNL     1      -0.361   5.783  12.768  1.00  0.00     0.128 C 
HETATM    8  C14 UNL     1      -1.917   5.616  12.743  1.00  0.00    -0.002 C 
HETATM    9  C13 UNL     1      -2.519   4.641  13.770  1.00  0.00     0.013 C 
HETATM   10  C15 UNL     1      -2.427   5.233  11.320  1.00  0.00     0.019 C 
HETATM   11  C16 UNL     1      -2.329   7.061  13.155  1.00  0.00     0.002 C 
HETATM   12  C12 UNL     1      -4.047   4.804  13.898  1.00  0.00     0.007 C 
HETATM   13  C11 UNL     1      -4.447   6.260  14.233  1.00  0.00     0.002 C 
HETATM   14  C2  UNL     1      -5.977   6.516  14.445  1.00  0.00    -0.016 C 
HETATM   15  C10 UNL     1      -3.850   7.263  13.196  1.00  0.00    -0.004 C 
HETATM   16  C1  UNL     1      -6.763   6.433  13.112  1.00  0.00     0.020 C 
HETATM   17  C3  UNL     1      -6.577   5.494  15.444  1.00  0.00     0.022 C 
HETATM   18  C7  UNL     1      -6.129   7.919  15.042  1.00  0.00    -0.068 C 
HETATM   19  C4  UNL     1      -8.005   5.826  15.869  1.00  0.00     0.084 C 
HETATM   20  C5  UNL     1      -8.148   7.263  16.311  1.00  0.00     0.149 C 
HETATM   21  O1  UNL     1      -9.088   7.636  17.010  1.00  0.00    -0.293 OA
HETATM   22  C6  UNL     1      -7.131   8.249  15.875  1.00  0.00     0.053 C 
HETATM   23  C8  UNL     1      -5.030   8.926  14.777  1.00  0.00     0.035 C 
HETATM   24  C9  UNL     1      -4.284   8.719  13.462  1.00  0.00     0.010 C 
HETATM   25  C17 UNL     1      -1.489   7.932  12.227  1.00  0.00     0.009 C 
HETATM   26  C18 UNL     1      -0.173   7.143  12.044  1.00  0.00     0.047 C 
BRANCH   7  27
HETATM   27  O2  UNL     1       0.073   5.926  14.133  1.00  0.00    -0.381 OA
HETATM   28  H27 UNL     1       0.898   6.441  14.155  1.00  0.00     0.211 HD
ENDBRANCH   7  27
ENDBRANCH   5   7
ENDBRANCH   4   5
ENDBRANCH   3   4
ENDBRANCH   1   3
BRANCH   1  29
HETATM   29  C23 UNL     1       2.322   7.376   9.357  1.00  0.00     0.120 C 
BRANCH  29  30
HETATM   30  C24 UNL     1       3.625   8.108   9.054  1.00  0.00     0.112 C 
BRANCH  30  31
HETATM   31  C25 UNL     1       4.277   8.608  10.324  1.00  0.00     0.217 C 
HETATM   32  O6  UNL     1       5.107   9.510  10.344  1.00  0.00    -0.274 OA
HETATM   33  N1  UNL     1       3.835   7.954  11.455  1.00  0.00    -0.361 N 
HETATM   34  H34 UNL     1       3.163   7.202  11.376  1.00  0.00     0.162 HD
BRANCH  33  35
HETATM   35  C26 UNL     1       4.348   8.282  12.770  1.00  0.00     0.122 C 
BRANCH  35  36
HETATM   36  C27 UNL     1       5.864   8.112  12.882  1.00  0.00     0.020 C 
BRANCH  36  37
HETATM   37  C28 UNL     1       6.334   7.364  14.133  1.00  0.00     0.002 C 
BRANCH  37  38
HETATM   38  C29 UNL     1       7.661   7.867  14.712  1.00  0.00     0.009 C 
BRANCH  38  39
HETATM   39  C30 UNL     1       7.446   8.893  15.827  1.00  0.00     0.103 C 
BRANCH  39  40
HETATM   40  C31 UNL     1       8.688   9.130  16.670  1.00  0.00     0.217 C 
HETATM   41  O7  UNL     1       9.303   8.232  17.237  1.00  0.00    -0.274 OA
HETATM   42  N2  UNL     1       9.059  10.455  16.713  1.00  0.00    -0.357 N 
HETATM   43  H45 UNL     1       8.607  11.109  16.088  1.00  0.00     0.162 HD
BRANCH  42  44
HETATM   44  C32 UNL     1      10.254  10.895  17.397  1.00  0.00     0.161 C 
BRANCH  44  45
HETATM   45  C33 UNL     1       9.913  11.537  18.717  1.00  0.00    -0.040 A 
HETATM   46  C34 UNL     1      10.893  11.716  19.702  1.00  0.00     0.010 A 
HETATM   47  C35 UNL     1      10.562  12.294  20.931  1.00  0.00     0.019 A 
HETATM   48  C36 UNL     1       9.245  12.694  21.193  1.00  0.00     0.037 A 
HETATM   49  C38 UNL     1       8.259  12.506  20.218  1.00  0.00     0.019 A 
HETATM   50  C39 UNL     1       8.592  11.927  18.990  1.00  0.00     0.010 A 
BRANCH  48  51
HETATM   51  C37 UNL     1       8.943  13.298  22.513  1.00  0.00     0.176 C 
HETATM   52  O8  UNL     1       9.229  12.822  23.597  1.00  0.00    -0.646 OA
BRANCH  51  53
HETATM   53  O9  UNL     1       8.296  14.473  22.415  1.00  0.00    -0.773 OA
HETATM   54  H50 UNL     1       8.167  14.750  23.346  1.00  0.00     0.167 HD
ENDBRANCH  51  53
ENDBRANCH  48  51
ENDBRANCH  44  45
ENDBRANCH  42  44
ENDBRANCH  39  40
ENDBRANCH  38  39
ENDBRANCH  37  38
ENDBRANCH  36  37
ENDBRANCH  35  36
ENDBRANCH  33  35
ENDBRANCH  30  31
ENDBRANCH  29  30
ENDBRANCH   1  29
TORSDOF 18
ENDMDL
MODEL 2
REMARK minimizedAffinity -8.39482307
REMARK CNNscore 0.508059382
REMARK CNNaffinity 7.54205656
REMARK  18 active torsions:
REMARK  status: ('A' for Active; 'I' for Inactive)
REMARK    1  A    between atoms: C19_20  and  O2_21 
REMARK    2  A    between atoms: C19_20  and  C20_22 
REMARK    3  A    between atoms: C20_22  and  C21_24 
REMARK    4  A    between atoms: C21_24  and  O4_25 
REMARK    5  A    between atoms: O4_25  and  C22_26 
REMARK    6  A    between atoms: C22_26  and  C23_28 
REMARK    7  A    between atoms: C23_28  and  C24_29 
REMARK    8  A    between atoms: C24_29  and  C25_30 
REMARK       I    between atoms: C25_30  and  N1_32 
REMARK    9  A    between atoms: N1_32  and  C26_33 
REMARK   10  A    between atoms: C26_33  and  C27_34 
REMARK   11  A    between atoms: C27_34  and  C28_35 
REMARK   12  A    between atoms: C28_35  and  C29_36 
REMARK   13  A    between atoms: C29_36  and  C30_37 
REMARK   14  A    between atoms: C30_37  and  C31_38 
REMARK       I    between atoms: C31_38  and  N2_40 
REMARK   15  A    between atoms: N2_40  and  C32_41 
REMARK   16  A    between atoms: C32_41  and  C33_42 
REMARK   17  A    between atoms: C36_45  and  C37_46 
REMARK   18  A    between atoms: C37_46  and  O9_48 
ROOT
HETATM    1  C22 UNL     1       1.322   5.942  10.614  1.00  0.00     0.259 C 
HETATM    2  O5  UNL     1       0.739   7.011  10.498  1.00  0.00    -0.265 OA
ENDROOT
BRANCH   1   3
HETATM    3  O4  UNL     1       0.711   4.743  10.815  1.00  0.00    -0.314 OA
BRANCH   3   4
HETATM    4  C21 UNL     1      -0.636   4.818  11.274  1.00  0.00     0.260 C 
BRANCH   4   5
HETATM    5  C20 UNL     1      -1.393   3.490  11.225  1.00  0.00     0.185 C 
HETATM    6  O3  UNL     1      -0.766   2.428  11.293  1.00  0.00    -0.292 OA
BRANCH   5   7
HETATM    7  C19 UNL     1      -2.942   3.552  11.216  1.00  0.00     0.128 C 
HETATM    8  C14 UNL     1      -3.618   4.201  12.470  1.00  0.00    -0.002 C 
HETATM    9  C13 UNL     1      -3.558   5.736  12.564  1.00  0.00     0.013 C 
HETATM   10  C15 UNL     1      -3.067   3.590  13.794  1.00  0.00     0.019 C 
HETATM   11  C16 UNL     1      -5.096   3.794  12.195  1.00  0.00     0.002 C 
HETATM   12  C12 UNL     1      -4.529   6.290  13.626  1.00  0.00     0.007 C 
HETATM   13  C11 UNL     1      -5.982   5.816  13.385  1.00  0.00     0.002 C 
HETATM   14  C2  UNL     1      -7.056   6.375  14.377  1.00  0.00    -0.016 C 
HETATM   15  C10 UNL     1      -6.061   4.259  13.293  1.00  0.00    -0.004 C 
HETATM   16  C1  UNL     1      -6.914   5.753  15.788  1.00  0.00     0.020 C 
HETATM   17  C3  UNL     1      -6.949   7.918  14.497  1.00  0.00     0.022 C 
HETATM   18  C7  UNL     1      -8.434   6.032  13.802  1.00  0.00    -0.068 C 
HETATM   19  C4  UNL     1      -8.108   8.548  15.266  1.00  0.00     0.084 C 
HETATM   20  C5  UNL     1      -9.450   8.069  14.768  1.00  0.00     0.149 C 
HETATM   21  O1  UNL     1     -10.485   8.695  14.989  1.00  0.00    -0.293 OA
HETATM   22  C6  UNL     1      -9.517   6.802  14.002  1.00  0.00     0.053 C 
HETATM   23  C8  UNL     1      -8.538   4.846  12.868  1.00  0.00     0.035 C 
HETATM   24  C9  UNL     1      -7.506   3.749  13.118  1.00  0.00     0.010 C 
HETATM   25  C17 UNL     1      -4.987   2.305  11.883  1.00  0.00     0.009 C 
HETATM   26  C18 UNL     1      -3.625   2.159  11.168  1.00  0.00     0.047 C 
BRANCH   7  27
HETATM   27  O2  UNL     1      -3.326   4.291  10.042  1.00  0.00    -0.381 OA
HETATM   28  H27 UNL     1      -3.300   3.702   9.268  1.00  0.00     0.211 HD
ENDBRANCH   7  27
ENDBRANCH   5   7
ENDBRANCH   4   5
ENDBRANCH   3   4
ENDBRANCH   1   3
BRANCH   1  29
HETATM   29  C23 UNL     1       2.823   5.821  10.661  1.00  0.00     0.120 C 
BRANCH  29  30
HETATM   30  C24 UNL     1       3.552   7.144  10.459  1.00  0.00     0.112 C 
BRANCH  30  31
HETATM   31  C25 UNL     1       3.969   7.745  11.783  1.00  0.00     0.217 C 
HETATM   32  O6  UNL     1       3.215   7.842  12.745  1.00  0.00    -0.274 OA
HETATM   33  N1  UNL     1       5.283   8.161  11.800  1.00  0.00    -0.361 N 
HETATM   34  H34 UNL     1       5.853   8.075  10.969  1.00  0.00     0.162 HD
BRANCH  33  35
HETATM   35  C26 UNL     1       5.869   8.774  12.976  1.00  0.00     0.122 C 
BRANCH  35  36
HETATM   36  C27 UNL     1       6.283   7.756  14.040  1.00  0.00     0.020 C 
BRANCH  36  37
HETATM   37  C28 UNL     1       7.753   7.328  13.980  1.00  0.00     0.002 C 
BRANCH  37  38
HETATM   38  C29 UNL     1       8.754   8.485  14.059  1.00  0.00     0.009 C 
BRANCH  38  39
HETATM   39  C30 UNL     1       9.069   8.869  15.506  1.00  0.00     0.103 C 
BRANCH  39  40
HETATM   40  C31 UNL     1       8.894  10.354  15.782  1.00  0.00     0.217 C 
HETATM   41  O7  UNL     1       8.068  11.057  15.210  1.00  0.00    -0.274 OA
HETATM   42  N2  UNL     1       9.751  10.820  16.755  1.00  0.00    -0.357 N 
HETATM   43  H45 UNL     1      10.282  10.153  17.298  1.00  0.00     0.162 HD
BRANCH  42  44
HETATM   44  C32 UNL     1       9.705  12.186  17.227  1.00  0.00     0.161 C 
BRANCH  44  45
HETATM   45  C33 UNL     1       9.366  12.236  18.695  1.00  0.00    -0.040 A 
HETATM   46  C34 UNL     1      10.376  12.197  19.665  1.00  0.00     0.010 A 
HETATM   47  C35 UNL     1      10.050  12.224  21.024  1.00  0.00     0.019 A 
HETATM   48  C36 UNL     1       8.710  12.283  21.430  1.00  0.00     0.037 A 
HETATM   49  C38 UNL     1       7.697  12.308  20.465  1.00  0.00     0.019 A 
HETATM   50  C39 UNL     1       8.025  12.280  19.106  1.00  0.00     0.010 A 
BRANCH  48  51
HETATM   51  C37 UNL     1       8.415  12.304  22.883  1.00  0.00     0.176 C 
HETATM   52  O8  UNL     1       7.548  11.659  23.444  1.00  0.00    -0.646 OA
BRANCH  51  53
HETATM   53  O9  UNL     1       9.223  13.133  23.568  1.00  0.00    -0.773 OA
HETATM   54  H50 UNL     1       8.920  13.045  24.495  1.00  0.00     0.167 HD
ENDBRANCH  51  53
ENDBRANCH  48  51
ENDBRANCH  44  45
ENDBRANCH  42  44
ENDBRANCH  39  40
ENDBRANCH  38  39
ENDBRANCH  37  38
ENDBRANCH  36  37
ENDBRANCH  35  36
ENDBRANCH  33  35
ENDBRANCH  30  31
ENDBRANCH  29  30
ENDBRANCH   1  29
TORSDOF 18
ENDMDL
MODEL 3
REMARK minimizedAffinity -8.67901802
REMARK CNNscore 0.413571715
REMARK CNNaffinity 6.94278765
REMARK  18 active torsions:
REMARK  status: ('A' for Active; 'I' for Inactive)
REMARK    1  A    between atoms: C19_20  and  O2_21 
REMARK    2  A    between atoms: C19_20  and  C20_22 
REMARK    3  A    between atoms: C20_22  and  C21_24 
REMARK    4  A    between atoms: C21_24  and  O4_25 
REMARK    5  A    between atoms: O4_25  and  C22_26 
REMARK    6  A    between atoms: C22_26  and  C23_28 
REMARK    7  A    between atoms: C23_28  and  C24_29 
REMARK    8  A    between atoms: C24_29  and  C25_30 
REMARK       I    between atoms: C25_30  and  N1_32 
REMARK    9  A    between atoms: N1_32  and  C26_33 
REMARK   10  A    between atoms: C26_33  and  C27_34 
REMARK   11  A    between atoms: C27_34  and  C28_35 
REMARK   12  A    between atoms: C28_35  and  C29_36 
REMARK   13  A    between atoms: C29_36  and  C30_37 
REMARK   14  A    between atoms: C30_37  and  C31_38 
REMARK       I    between atoms: C31_38  and  N2_40 
REMARK   15  A    between atoms: N2_40  and  C32_41 
REMARK   16  A    between atoms: C32_41  and  C33_42 
REMARK   17  A    between atoms: C36_45  and  C37_46 
REMARK   18  A    between atoms: C37_46  and  O9_48 
ROOT
HETATM    1  C22 UNL     1       3.617   6.298   9.667  1.00  0.00     0.259 C 
HETATM    2  O5  UNL     1       3.813   5.176   9.221  1.00  0.00    -0.265 OA
ENDROOT
BRANCH   1   3
HETATM    3  O4  UNL     1       2.445   6.982   9.556  1.00  0.00    -0.314 OA
BRANCH   3   4
HETATM    4  C21 UNL     1       2.121   7.813  10.667  1.00  0.00     0.260 C 
BRANCH   4   5
HETATM    5  C20 UNL     1       1.570   7.058  11.878  1.00  0.00     0.185 C 
HETATM    6  O3  UNL     1       2.116   7.187  12.978  1.00  0.00    -0.292 OA
BRANCH   5   7
HETATM    7  C19 UNL     1       0.259   6.254  11.679  1.00  0.00     0.128 C 
HETATM    8  C14 UNL     1      -0.845   6.444  12.773  1.00  0.00    -0.002 C 
HETATM    9  C13 UNL     1      -1.644   7.758  12.719  1.00  0.00     0.013 C 
HETATM   10  C15 UNL     1      -0.262   6.263  14.208  1.00  0.00     0.019 C 
HETATM   11  C16 UNL     1      -1.801   5.283  12.367  1.00  0.00     0.002 C 
HETATM   12  C12 UNL     1      -2.910   7.703  13.598  1.00  0.00     0.007 C 
HETATM   13  C11 UNL     1      -3.815   6.501  13.234  1.00  0.00     0.002 C 
HETATM   14  C2  UNL     1      -5.158   6.392  14.031  1.00  0.00    -0.016 C 
HETATM   15  C10 UNL     1      -3.019   5.158  13.291  1.00  0.00    -0.004 C 
HETATM   16  C1  UNL     1      -4.919   5.977  15.504  1.00  0.00     0.020 C 
HETATM   17  C3  UNL     1      -5.926   7.738  14.007  1.00  0.00     0.022 C 
HETATM   18  C7  UNL     1      -6.019   5.334  13.334  1.00  0.00    -0.068 C 
HETATM   19  C4  UNL     1      -7.344   7.638  14.567  1.00  0.00     0.084 C 
HETATM   20  C5  UNL     1      -8.114   6.488  13.964  1.00  0.00     0.149 C 
HETATM   21  O1  UNL     1      -9.342   6.443  13.997  1.00  0.00    -0.293 OA
HETATM   22  C6  UNL     1      -7.363   5.381  13.326  1.00  0.00     0.053 C 
HETATM   23  C8  UNL     1      -5.316   4.271  12.518  1.00  0.00     0.035 C 
HETATM   24  C9  UNL     1      -3.907   3.932  12.998  1.00  0.00     0.010 C 
HETATM   25  C17 UNL     1      -0.853   4.097  12.221  1.00  0.00     0.009 C 
HETATM   26  C18 UNL     1       0.460   4.715  11.691  1.00  0.00     0.047 C 
BRANCH   7  27
HETATM   27  O2  UNL     1      -0.279   6.637  10.401  1.00  0.00    -0.381 OA
HETATM   28  H27 UNL     1       0.183   6.145   9.698  1.00  0.00     0.211 HD
ENDBRANCH   7  27
ENDBRANCH   5   7
ENDBRANCH   4   5
ENDBRANCH   3   4
ENDBRANCH   1   3
BRANCH   1  29
HETATM   29  C23 UNL     1       4.692   7.130  10.314  1.00  0.00     0.120 C 
BRANCH  29  30
HETATM   30  C24 UNL     1       5.495   6.381  11.372  1.00  0.00     0.112 C 
BRANCH  30  31
HETATM   31  C25 UNL     1       6.422   7.317  12.117  1.00  0.00     0.217 C 
HETATM   32  O6  UNL     1       7.188   8.092  11.556  1.00  0.00    -0.274 OA
HETATM   33  N1  UNL     1       6.308   7.216  13.487  1.00  0.00    -0.361 N 
HETATM   34  H34 UNL     1       5.672   6.543  13.894  1.00  0.00     0.162 HD
BRANCH  33  35
HETATM   35  C26 UNL     1       7.119   8.022  14.377  1.00  0.00     0.122 C 
BRANCH  35  36
HETATM   36  C27 UNL     1       8.505   7.427  14.630  1.00  0.00     0.020 C 
BRANCH  36  37
HETATM   37  C28 UNL     1       9.303   8.113  15.743  1.00  0.00     0.002 C 
BRANCH  37  38
HETATM   38  C29 UNL     1       9.026   9.612  15.891  1.00  0.00     0.009 C 
BRANCH  38  39
HETATM   39  C30 UNL     1       9.754  10.436  14.827  1.00  0.00     0.103 C 
BRANCH  39  40
HETATM   40  C31 UNL     1      10.539  11.602  15.406  1.00  0.00     0.217 C 
HETATM   41  O7  UNL     1      11.288  12.310  14.741  1.00  0.00    -0.274 OA
HETATM   42  N2  UNL     1      10.306  11.786  16.751  1.00  0.00    -0.357 N 
HETATM   43  H45 UNL     1       9.553  11.274  17.190  1.00  0.00     0.162 HD
BRANCH  42  44
HETATM   44  C32 UNL     1      10.892  12.884  17.486  1.00  0.00     0.161 C 
BRANCH  44  45
HETATM   45  C33 UNL     1      10.331  12.954  18.884  1.00  0.00    -0.040 A 
HETATM   46  C34 UNL     1      10.388  14.146  19.620  1.00  0.00     0.010 A 
HETATM   47  C35 UNL     1       9.884  14.195  20.922  1.00  0.00     0.019 A 
HETATM   48  C36 UNL     1       9.322  13.053  21.508  1.00  0.00     0.037 A 
HETATM   49  C38 UNL     1       9.275  11.857  20.782  1.00  0.00     0.019 A 
HETATM   50  C39 UNL     1       9.781  11.809  19.480  1.00  0.00     0.010 A 
BRANCH  48  51
HETATM   51  C37 UNL     1       8.805  13.155  22.893  1.00  0.00     0.176 C 
HETATM   52  O8  UNL     1       8.380  12.232  23.566  1.00  0.00    -0.646 OA
BRANCH  51  53
HETATM   53  O9  UNL     1       8.842  14.411  23.374  1.00  0.00    -0.773 OA
HETATM   54  H50 UNL     1       8.479  14.327  24.280  1.00  0.00     0.167 HD
ENDBRANCH  51  53
ENDBRANCH  48  51
ENDBRANCH  44  45
ENDBRANCH  42  44
ENDBRANCH  39  40
ENDBRANCH  38  39
ENDBRANCH  37  38
ENDBRANCH  36  37
ENDBRANCH  35  36
ENDBRANCH  33  35
ENDBRANCH  30  31
ENDBRANCH  29  30
ENDBRANCH   1  29
TORSDOF 18
ENDMDL
MODEL 4
REMARK minimizedAffinity -7.91838503
REMARK CNNscore 0.384666651
REMARK CNNaffinity 7.44779396
REMARK  18 active torsions:
REMARK  status: ('A' for Active; 'I' for Inactive)
REMARK    1  A    between atoms: C19_20  and  O2_21 
REMARK    2  A    between atoms: C19_20  and  C20_22 
REMARK    3  A    between atoms: C20_22  and  C21_24 
REMARK    4  A    between atoms: C21_24  and  O4_25 
REMARK    5  A    between atoms: O4_25  and  C22_26 
REMARK    6  A    between atoms: C22_26  and  C23_28 
REMARK    7  A    between atoms: C23_28  and  C24_29 
REMARK    8  A    between atoms: C24_29  and  C25_30 
REMARK       I    between atoms: C25_30  and  N1_32 
REMARK    9  A    between atoms: N1_32  and  C26_33 
REMARK   10  A    between atoms: C26_33  and  C27_34 
REMARK   11  A    between atoms: C27_34  and  C28_35 
REMARK   12  A    between atoms: C28_35  and  C29_36 
REMARK   13  A    between atoms: C29_36  and  C30_37 
REMARK   14  A    between atoms: C30_37  and  C31_38 
REMARK       I    between atoms: C31_38  and  N2_40 
REMARK   15  A    between atoms: N2_40  and  C32_41 
REMARK   16  A    between atoms: C32_41  and  C33_42 
REMARK   17  A    between atoms: C36_45  and  C37_46 
REMARK   18  A    between atoms: C37_46  and  O9_48 
ROOT
HETATM    1  C22 UNL     1       1.122   5.551  10.760  1.00  0.00     0.259 C 
HETATM    2  O5  UNL     1       0.522   6.587  10.511  1.00  0.00    -0.265 OA
ENDROOT
BRANCH   1   3
HETATM    3  O4  UNL     1       0.527   4.358  11.035  1.00  0.00    -0.314 OA
BRANCH   3   4
HETATM    4  C21 UNL     1      -0.845   4.438  11.415  1.00  0.00     0.260 C 
BRANCH   4   5
HETATM    5  C20 UNL     1      -1.683   3.227  11.002  1.00  0.00     0.185 C 
HETATM    6  O3  UNL     1      -1.121   2.168  10.705  1.00  0.00    -0.292 OA
BRANCH   5   7
HETATM    7  C19 UNL     1      -3.224   3.362  11.098  1.00  0.00     0.128 C 
HETATM    8  C14 UNL     1      -3.780   4.086  12.370  1.00  0.00    -0.002 C 
HETATM    9  C13 UNL     1      -3.645   5.618  12.400  1.00  0.00     0.013 C 
HETATM   10  C15 UNL     1      -3.163   3.497  13.676  1.00  0.00     0.019 C 
HETATM   11  C16 UNL     1      -5.290   3.739  12.215  1.00  0.00     0.002 C 
HETATM   12  C12 UNL     1      -4.512   6.255  13.505  1.00  0.00     0.007 C 
HETATM   13  C11 UNL     1      -5.999   5.842  13.384  1.00  0.00     0.002 C 
HETATM   14  C2  UNL     1      -6.973   6.486  14.426  1.00  0.00    -0.016 C 
HETATM   15  C10 UNL     1      -6.153   4.288  13.359  1.00  0.00    -0.004 C 
HETATM   16  C1  UNL     1      -6.758   5.908  15.847  1.00  0.00     0.020 C 
HETATM   17  C3  UNL     1      -6.790   8.025  14.478  1.00  0.00     0.022 C 
HETATM   18  C7  UNL     1      -8.403   6.188  13.962  1.00  0.00    -0.068 C 
HETATM   19  C4  UNL     1      -7.861   8.736  15.302  1.00  0.00     0.084 C 
HETATM   20  C5  UNL     1      -9.256   8.304  14.917  1.00  0.00     0.149 C 
HETATM   21  O1  UNL     1     -10.243   8.985  15.185  1.00  0.00    -0.293 OA
HETATM   22  C6  UNL     1      -9.433   7.015  14.208  1.00  0.00     0.053 C 
HETATM   23  C8  UNL     1      -8.625   4.975  13.085  1.00  0.00     0.035 C 
HETATM   24  C9  UNL     1      -7.628   3.841  13.305  1.00  0.00     0.010 C 
HETATM   25  C17 UNL     1      -5.270   2.237  11.955  1.00  0.00     0.009 C 
HETATM   26  C18 UNL     1      -3.970   2.002  11.153  1.00  0.00     0.047 C 
BRANCH   7  27
HETATM   27  O2  UNL     1      -3.658   4.076   9.927  1.00  0.00    -0.381 OA
HETATM   28  H27 UNL     1      -3.713   3.458   9.176  1.00  0.00     0.211 HD
ENDBRANCH   7  27
ENDBRANCH   5   7
ENDBRANCH   4   5
ENDBRANCH   3   4
ENDBRANCH   1   3
BRANCH   1  29
HETATM   29  C23 UNL     1       2.619   5.477  10.906  1.00  0.00     0.120 C 
BRANCH  29  30
HETATM   30  C24 UNL     1       3.377   6.336   9.900  1.00  0.00     0.112 C 
BRANCH  30  31
HETATM   31  C25 UNL     1       4.074   7.491  10.585  1.00  0.00     0.217 C 
HETATM   32  O6  UNL     1       3.504   8.265  11.345  1.00  0.00    -0.274 OA
HETATM   33  N1  UNL     1       5.415   7.575  10.275  1.00  0.00    -0.361 N 
HETATM   34  H34 UNL     1       5.827   6.920   9.624  1.00  0.00     0.162 HD
BRANCH  33  35
HETATM   35  C26 UNL     1       6.255   8.621  10.823  1.00  0.00     0.122 C 
BRANCH  35  36
HETATM   36  C27 UNL     1       5.608   9.358  11.997  1.00  0.00     0.020 C 
BRANCH  36  37
HETATM   37  C28 UNL     1       5.498  10.875  11.818  1.00  0.00     0.002 C 
BRANCH  37  38
HETATM   38  C29 UNL     1       5.980  11.692  13.021  1.00  0.00     0.009 C 
BRANCH  38  39
HETATM   39  C30 UNL     1       6.911  10.882  13.926  1.00  0.00     0.103 C 
BRANCH  39  40
HETATM   40  C31 UNL     1       8.376  11.253  13.763  1.00  0.00     0.217 C 
HETATM   41  O7  UNL     1       8.763  12.200  13.086  1.00  0.00    -0.274 OA
HETATM   42  N2  UNL     1       9.218  10.425  14.470  1.00  0.00    -0.357 N 
HETATM   43  H45 UNL     1       8.820   9.776  15.136  1.00  0.00     0.162 HD
BRANCH  42  44
HETATM   44  C32 UNL     1      10.646  10.643  14.517  1.00  0.00     0.161 C 
BRANCH  44  45
HETATM   45  C33 UNL     1      11.084  11.040  15.904  1.00  0.00    -0.040 A 
HETATM   46  C34 UNL     1      10.253  10.815  17.010  1.00  0.00     0.010 A 
HETATM   47  C35 UNL     1      10.659  11.205  18.289  1.00  0.00     0.019 A 
HETATM   48  C36 UNL     1      11.899  11.831  18.477  1.00  0.00     0.037 A 
HETATM   49  C38 UNL     1      12.727  12.070  17.375  1.00  0.00     0.019 A 
HETATM   50  C39 UNL     1      12.318  11.680  16.096  1.00  0.00     0.010 A 
BRANCH  48  51
HETATM   51  C37 UNL     1      12.282  12.231  19.853  1.00  0.00     0.176 C 
HETATM   52  O8  UNL     1      11.680  11.946  20.872  1.00  0.00    -0.646 OA
BRANCH  51  53
HETATM   53  O9  UNL     1      13.405  12.970  19.888  1.00  0.00    -0.773 OA
HETATM   54  H50 UNL     1      13.535  13.156  20.841  1.00  0.00     0.167 HD
ENDBRANCH  51  53
ENDBRANCH  48  51
ENDBRANCH  44  45
ENDBRANCH  42  44
ENDBRANCH  39  40
ENDBRANCH  38  39
ENDBRANCH  37  38
ENDBRANCH  36  37
ENDBRANCH  35  36
ENDBRANCH  33  35
ENDBRANCH  30  31
ENDBRANCH  29  30
ENDBRANCH   1  29
TORSDOF 18
ENDMDL
MODEL 5
REMARK minimizedAffinity -8.31133747
REMARK CNNscore 0.368204474
REMARK CNNaffinity 6.74747849
REMARK  18 active torsions:
REMARK  status: ('A' for Active; 'I' for Inactive)
REMARK    1  A    between atoms: C19_20  and  O2_21 
REMARK    2  A    between atoms: C19_20  and  C20_22 
REMARK    3  A    between atoms: C20_22  and  C21_24 
REMARK    4  A    between atoms: C21_24  and  O4_25 
REMARK    5  A    between atoms: O4_25  and  C22_26 
REMARK    6  A    between atoms: C22_26  and  C23_28 
REMARK    7  A    between atoms: C23_28  and  C24_29 
REMARK    8  A    between atoms: C24_29  and  C25_30 
REMARK       I    between atoms: C25_30  and  N1_32 
REMARK    9  A    between atoms: N1_32  and  C26_33 
REMARK   10  A    between atoms: C26_33  and  C27_34 
REMARK   11  A    between atoms: C27_34  and  C28_35 
REMARK   12  A    between atoms: C28_35  and  C29_36 
REMARK   13  A    between atoms: C29_36  and  C30_37 
REMARK   14  A    between atoms: C30_37  and  C31_38 
REMARK       I    between atoms: C31_38  and  N2_40 
REMARK   15  A    between atoms: N2_40  and  C32_41 
REMARK   16  A    between atoms: C32_41  and  C33_42 
REMARK   17  A    between atoms: C36_45  and  C37_46 
REMARK   18  A    between atoms: C37_46  and  O9_48 
ROOT
HETATM    1  C22 UNL     1       1.973   8.181  15.810  1.00  0.00     0.259 C 
HETATM    2  O5  UNL     1       2.227   8.144  17.006  1.00  0.00    -0.265 OA
ENDROOT
BRANCH   1   3
HETATM    3  O4  UNL     1       0.964   8.906  15.255  1.00  0.00    -0.314 OA
BRANCH   3   4
HETATM    4  C21 UNL     1       0.066   8.163  14.434  1.00  0.00     0.260 C 
BRANCH   4   5
HETATM    5  C20 UNL     1      -1.135   8.966  13.929  1.00  0.00     0.185 C 
HETATM    6  O3  UNL     1      -1.079  10.199  13.911  1.00  0.00    -0.292 OA
BRANCH   5   7
HETATM    7  C19 UNL     1      -2.329   8.169  13.345  1.00  0.00     0.128 C 
HETATM    8  C14 UNL     1      -3.556   7.961  14.294  1.00  0.00    -0.002 C 
HETATM    9  C13 UNL     1      -4.474   9.178  14.505  1.00  0.00     0.013 C 
HETATM   10  C15 UNL     1      -3.114   7.411  15.685  1.00  0.00     0.019 C 
HETATM   11  C16 UNL     1      -4.342   6.906  13.459  1.00  0.00     0.002 C 
HETATM   12  C12 UNL     1      -5.814   8.787  15.160  1.00  0.00     0.007 C 
HETATM   13  C11 UNL     1      -6.549   7.684  14.360  1.00  0.00     0.002 C 
HETATM   14  C2  UNL     1      -7.951   7.260  14.912  1.00  0.00    -0.016 C 
HETATM   15  C10 UNL     1      -5.632   6.438  14.143  1.00  0.00    -0.004 C 
HETATM   16  C1  UNL     1      -7.830   6.454  16.229  1.00  0.00     0.020 C 
HETATM   17  C3  UNL     1      -8.845   8.502  15.165  1.00  0.00     0.022 C 
HETATM   18  C7  UNL     1      -8.622   6.394  13.841  1.00  0.00    -0.068 C 
HETATM   19  C4  UNL     1     -10.296   8.150  15.484  1.00  0.00     0.084 C 
HETATM   20  C5  UNL     1     -10.878   7.175  14.489  1.00  0.00     0.149 C 
HETATM   21  O1  UNL     1     -12.092   7.040  14.347  1.00  0.00    -0.293 OA
HETATM   22  C6  UNL     1      -9.955   6.353  13.671  1.00  0.00     0.053 C 
HETATM   23  C8  UNL     1      -7.733   5.662  12.860  1.00  0.00     0.035 C 
HETATM   24  C9  UNL     1      -6.356   5.293  13.406  1.00  0.00     0.010 C 
HETATM   25  C17 UNL     1      -3.269   5.879  13.113  1.00  0.00     0.009 C 
HETATM   26  C18 UNL     1      -1.976   6.709  12.952  1.00  0.00     0.047 C 
BRANCH   7  27
HETATM   27  O2  UNL     1      -2.764   8.869  12.165  1.00  0.00    -0.381 OA
HETATM   28  H27 UNL     1      -2.183   8.634  11.420  1.00  0.00     0.211 HD
ENDBRANCH   7  27
ENDBRANCH   5   7
ENDBRANCH   4   5
ENDBRANCH   3   4
ENDBRANCH   1   3
BRANCH   1  29
HETATM   29  C23 UNL     1       2.684   7.335  14.787  1.00  0.00     0.120 C 
BRANCH  29  30
HETATM   30  C24 UNL     1       3.638   8.122  13.896  1.00  0.00     0.112 C 
BRANCH  30  31
HETATM   31  C25 UNL     1       5.023   8.187  14.501  1.00  0.00     0.217 C 
HETATM   32  O6  UNL     1       5.289   8.836  15.506  1.00  0.00    -0.274 OA
HETATM   33  N1  UNL     1       5.950   7.430  13.815  1.00  0.00    -0.361 N 
HETATM   34  H34 UNL     1       5.678   6.930  12.980  1.00  0.00     0.162 HD
BRANCH  33  35
HETATM   35  C26 UNL     1       7.337   7.370  14.232  1.00  0.00     0.122 C 
BRANCH  35  36
HETATM   36  C27 UNL     1       8.253   8.273  13.405  1.00  0.00     0.020 C 
BRANCH  36  37
HETATM   37  C28 UNL     1       8.827   9.472  14.166  1.00  0.00     0.002 C 
BRANCH  37  38
HETATM   38  C29 UNL     1      10.155   9.195  14.878  1.00  0.00     0.009 C 
BRANCH  38  39
HETATM   39  C30 UNL     1      11.129  10.368  14.744  1.00  0.00     0.103 C 
BRANCH  39  40
HETATM   40  C31 UNL     1      10.533  11.695  15.185  1.00  0.00     0.217 C 
HETATM   41  O7  UNL     1      10.396  12.657  14.437  1.00  0.00    -0.274 OA
HETATM   42  N2  UNL     1      10.148  11.694  16.507  1.00  0.00    -0.357 N 
HETATM   43  H45 UNL     1      10.135  10.817  17.011  1.00  0.00     0.162 HD
BRANCH  42  44
HETATM   44  C32 UNL     1       9.489  12.828  17.114  1.00  0.00     0.161 C 
BRANCH  44  45
HETATM   45  C33 UNL     1       9.367  12.644  18.605  1.00  0.00    -0.040 A 
HETATM   46  C34 UNL     1       8.202  12.105  19.169  1.00  0.00     0.010 A 
HETATM   47  C35 UNL     1       8.091  11.958  20.554  1.00  0.00     0.019 A 
HETATM   48  C36 UNL     1       9.141  12.353  21.394  1.00  0.00     0.037 A 
HETATM   49  C38 UNL     1      10.300  12.905  20.838  1.00  0.00     0.019 A 
HETATM   50  C39 UNL     1      10.409  13.052  19.452  1.00  0.00     0.010 A 
BRANCH  48  51
HETATM   51  C37 UNL     1       8.973  12.181  22.857  1.00  0.00     0.176 C 
HETATM   52  O8  UNL     1       8.745  11.131  23.430  1.00  0.00    -0.646 OA
BRANCH  51  53
HETATM   53  O9  UNL     1       9.099  13.334  23.537  1.00  0.00    -0.773 OA
HETATM   54  H50 UNL     1       8.968  13.072  24.472  1.00  0.00     0.167 HD
ENDBRANCH  51  53
ENDBRANCH  48  51
ENDBRANCH  44  45
ENDBRANCH  42  44
ENDBRANCH  39  40
ENDBRANCH  38  39
ENDBRANCH  37  38
ENDBRANCH  36  37
ENDBRANCH  35  36
ENDBRANCH  33  35
ENDBRANCH  30  31
ENDBRANCH  29  30
ENDBRANCH   1  29
TORSDOF 18
ENDMDL
MODEL 6
REMARK minimizedAffinity -9.21157455
REMARK CNNscore 0.36059171
REMARK CNNaffinity 7.1337204
REMARK  18 active torsions:
REMARK  status: ('A' for Active; 'I' for Inactive)
REMARK    1  A    between atoms: C19_20  and  O2_21 
REMARK    2  A    between atoms: C19_20  and  C20_22 
REMARK    3  A    between atoms: C20_22  and  C21_24 
REMARK    4  A    between atoms: C21_24  and  O4_25 
REMARK    5  A    between atoms: O4_25  and  C22_26 
REMARK    6  A    between atoms: C22_26  and  C23_28 
REMARK    7  A    between atoms: C23_28  and  C24_29 
REMARK    8  A    between atoms: C24_29  and  C25_30 
REMARK       I    between atoms: C25_30  and  N1_32 
REMARK    9  A    between atoms: N1_32  and  C26_33 
REMARK   10  A    between atoms: C26_33  and  C27_34 
REMARK   11  A    between atoms: C27_34  and  C28_35 
REMARK   12  A    between atoms: C28_35  and  C29_36 
REMARK   13  A    between atoms: C29_36  and  C30_37 
REMARK   14  A    between atoms: C30_37  and  C31_38 
REMARK       I    between atoms: C31_38  and  N2_40 
REMARK   15  A    between atoms: N2_40  and  C32_41 
REMARK   16  A    between atoms: C32_41  and  C33_42 
REMARK   17  A    between atoms: C36_45  and  C37_46 
REMARK   18  A    between atoms: C37_46  and  O9_48 
ROOT
HETATM    1  C22 UNL     1       4.197   6.681  10.295  1.00  0.00     0.259 C 
HETATM    2  O5  UNL     1       3.831   6.618   9.130  1.00  0.00    -0.265 OA
ENDROOT
BRANCH   1   3
HETATM    3  O4  UNL     1       3.516   6.157  11.351  1.00  0.00    -0.314 OA
BRANCH   3   4
HETATM    4  C21 UNL     1       2.835   7.108  12.165  1.00  0.00     0.260 C 
BRANCH   4   5
HETATM    5  C20 UNL     1       1.577   7.697  11.524  1.00  0.00     0.185 C 
HETATM    6  O3  UNL     1       1.619   8.826  11.024  1.00  0.00    -0.292 OA
BRANCH   5   7
HETATM    7  C19 UNL     1       0.331   6.780  11.426  1.00  0.00     0.128 C 
HETATM    8  C14 UNL     1      -0.744   6.947  12.551  1.00  0.00    -0.002 C 
HETATM    9  C13 UNL     1      -1.651   8.186  12.454  1.00  0.00     0.013 C 
HETATM   10  C15 UNL     1      -0.097   6.902  13.969  1.00  0.00     0.019 C 
HETATM   11  C16 UNL     1      -1.614   5.689  12.253  1.00  0.00     0.002 C 
HETATM   12  C12 UNL     1      -2.876   8.082  13.385  1.00  0.00     0.007 C 
HETATM   13  C11 UNL     1      -3.690   6.791  13.130  1.00  0.00     0.002 C 
HETATM   14  C2  UNL     1      -4.990   6.623  13.986  1.00  0.00    -0.016 C 
HETATM   15  C10 UNL     1      -2.784   5.523  13.231  1.00  0.00    -0.004 C 
HETATM   16  C1  UNL     1      -4.665   6.320  15.469  1.00  0.00     0.020 C 
HETATM   17  C3  UNL     1      -5.868   7.899  13.916  1.00  0.00     0.022 C 
HETATM   18  C7  UNL     1      -5.785   5.458  13.387  1.00  0.00    -0.068 C 
HETATM   19  C4  UNL     1      -7.251   7.719  14.538  1.00  0.00     0.084 C 
HETATM   20  C5  UNL     1      -7.944   6.476  14.034  1.00  0.00     0.149 C 
HETATM   21  O1  UNL     1      -9.162   6.333  14.120  1.00  0.00    -0.293 OA
HETATM   22  C6  UNL     1      -7.127   5.396  13.432  1.00  0.00     0.053 C 
HETATM   23  C8  UNL     1      -5.026   4.408  12.606  1.00  0.00     0.035 C 
HETATM   24  C9  UNL     1      -3.577   4.213  13.047  1.00  0.00     0.010 C 
HETATM   25  C17 UNL     1      -0.577   4.577  12.137  1.00  0.00     0.009 C 
HETATM   26  C18 UNL     1       0.660   5.266  11.519  1.00  0.00     0.047 C 
BRANCH   7  27
HETATM   27  O2  UNL     1      -0.282   7.039  10.150  1.00  0.00    -0.381 OA
HETATM   28  H27 UNL     1       0.193   6.544   9.459  1.00  0.00     0.211 HD
ENDBRANCH   7  27
ENDBRANCH   5   7
ENDBRANCH   4   5
ENDBRANCH   3   4
ENDBRANCH   1   3
BRANCH   1  29
HETATM   29  C23 UNL     1       5.413   7.451  10.739  1.00  0.00     0.120 C 
BRANCH  29  30
HETATM   30  C24 UNL     1       6.131   6.830  11.932  1.00  0.00     0.112 C 
BRANCH  30  31
HETATM   31  C25 UNL     1       7.101   7.810  12.555  1.00  0.00     0.217 C 
HETATM   32  O6  UNL     1       7.394   8.884  12.043  1.00  0.00    -0.274 OA
HETATM   33  N1  UNL     1       7.611   7.376  13.760  1.00  0.00    -0.361 N 
HETATM   34  H34 UNL     1       7.349   6.469  14.125  1.00  0.00     0.162 HD
BRANCH  33  35
HETATM   35  C26 UNL     1       8.565   8.169  14.510  1.00  0.00     0.122 C 
BRANCH  35  36
HETATM   36  C27 UNL     1       8.221   8.274  15.996  1.00  0.00     0.020 C 
BRANCH  36  37
HETATM   37  C28 UNL     1       7.357   9.482  16.370  1.00  0.00     0.002 C 
BRANCH  37  38
HETATM   38  C29 UNL     1       6.526  10.050  15.215  1.00  0.00     0.009 C 
BRANCH  38  39
HETATM   39  C30 UNL     1       5.487  11.062  15.702  1.00  0.00     0.103 C 
BRANCH  39  40
HETATM   40  C31 UNL     1       5.743  11.547  17.119  1.00  0.00     0.217 C 
HETATM   41  O7  UNL     1       6.864  11.682  17.597  1.00  0.00    -0.274 OA
HETATM   42  N2  UNL     1       4.582  11.835  17.803  1.00  0.00    -0.357 N 
HETATM   43  H45 UNL     1       3.709  11.861  17.292  1.00  0.00     0.162 HD
BRANCH  42  44
HETATM   44  C32 UNL     1       4.595  12.381  19.141  1.00  0.00     0.161 C 
BRANCH  44  45
HETATM   45  C33 UNL     1       4.015  11.400  20.128  1.00  0.00    -0.040 A 
HETATM   46  C34 UNL     1       2.689  10.962  20.008  1.00  0.00     0.010 A 
HETATM   47  C35 UNL     1       2.155  10.069  20.940  1.00  0.00     0.019 A 
HETATM   48  C36 UNL     1       2.937   9.606  22.007  1.00  0.00     0.037 A 
HETATM   49  C38 UNL     1       4.257  10.051  22.139  1.00  0.00     0.019 A 
HETATM   50  C39 UNL     1       4.790  10.945  21.206  1.00  0.00     0.010 A 
BRANCH  48  51
HETATM   51  C37 UNL     1       2.322   8.663  22.972  1.00  0.00     0.176 C 
HETATM   52  O8  UNL     1       2.480   8.675  24.179  1.00  0.00    -0.646 OA
BRANCH  51  53
HETATM   53  O9  UNL     1       1.537   7.746  22.378  1.00  0.00    -0.773 OA
HETATM   54  H50 UNL     1       1.205   7.203  23.123  1.00  0.00     0.167 HD
ENDBRANCH  51  53
ENDBRANCH  48  51
ENDBRANCH  44  45
ENDBRANCH  42  44
ENDBRANCH  39  40
ENDBRANCH  38  39
ENDBRANCH  37  38
ENDBRANCH  36  37
ENDBRANCH  35  36
ENDBRANCH  33  35
ENDBRANCH  30  31
ENDBRANCH  29  30
ENDBRANCH   1  29
TORSDOF 18
ENDMDL
MODEL 7
REMARK minimizedAffinity -8.57045746
REMARK CNNscore 0.303993464
REMARK CNNaffinity 7.16092539
REMARK  18 active torsions:
REMARK  status: ('A' for Active; 'I' for Inactive)
REMARK    1  A    between atoms: C19_20  and  O2_21 
REMARK    2  A    between atoms: C19_20  and  C20_22 
REMARK    3  A    between atoms: C20_22  and  C21_24 
REMARK    4  A    between atoms: C21_24  and  O4_25 
REMARK    5  A    between atoms: O4_25  and  C22_26 
REMARK    6  A    between atoms: C22_26  and  C23_28 
REMARK    7  A    between atoms: C23_28  and  C24_29 
REMARK    8  A    between atoms: C24_29  and  C25_30 
REMARK       I    between atoms: C25_30  and  N1_32 
REMARK    9  A    between atoms: N1_32  and  C26_33 
REMARK   10  A    between atoms: C26_33  and  C27_34 
REMARK   11  A    between atoms: C27_34  and  C28_35 
REMARK   12  A    between atoms: C28_35  and  C29_36 
REMARK   13  A    between atoms: C29_36  and  C30_37 
REMARK   14  A    between atoms: C30_37  and  C31_38 
REMARK       I    between atoms: C31_38  and  N2_40 
REMARK   15  A    between atoms: N2_40  and  C32_41 
REMARK   16  A    between atoms: C32_41  and  C33_42 
REMARK   17  A    between atoms: C36_45  and  C37_46 
REMARK   18  A    between atoms: C37_46  and  O9_48 
ROOT
HETATM    1  C22 UNL     1      -8.557   8.379  15.111  1.00  0.00     0.259 C 
HETATM    2  O5  UNL     1      -9.226   9.379  15.334  1.00  0.00    -0.265 OA
ENDROOT
BRANCH   1   3
HETATM    3  O4  UNL     1      -7.232   8.386  14.801  1.00  0.00    -0.314 OA
BRANCH   3   4
HETATM    4  C21 UNL     1      -6.378   7.803  15.781  1.00  0.00     0.260 C 
BRANCH   4   5
HETATM    5  C20 UNL     1      -4.900   8.168  15.625  1.00  0.00     0.185 C 
HETATM    6  O3  UNL     1      -4.486   9.239  16.078  1.00  0.00    -0.292 OA
BRANCH   5   7
HETATM    7  C19 UNL     1      -3.964   7.099  15.005  1.00  0.00     0.128 C 
HETATM    8  C14 UNL     1      -3.046   7.577  13.831  1.00  0.00    -0.002 C 
HETATM    9  C13 UNL     1      -1.821   8.422  14.219  1.00  0.00     0.013 C 
HETATM   10  C15 UNL     1      -3.863   8.338  12.742  1.00  0.00     0.019 C 
HETATM   11  C16 UNL     1      -2.536   6.191  13.333  1.00  0.00     0.002 C 
HETATM   12  C12 UNL     1      -0.812   8.547  13.059  1.00  0.00     0.007 C 
HETATM   13  C11 UNL     1      -0.370   7.164  12.524  1.00  0.00     0.002 C 
HETATM   14  C2  UNL     1       0.701   7.184  11.383  1.00  0.00    -0.016 C 
HETATM   15  C10 UNL     1      -1.604   6.296  12.119  1.00  0.00    -0.004 C 
HETATM   16  C1  UNL     1       0.108   7.694  10.047  1.00  0.00     0.020 C 
HETATM   17  C3  UNL     1       1.906   8.079  11.771  1.00  0.00     0.022 C 
HETATM   18  C7  UNL     1       1.206   5.748  11.205  1.00  0.00    -0.068 C 
HETATM   19  C4  UNL     1       3.085   7.961  10.808  1.00  0.00     0.084 C 
HETATM   20  C5  UNL     1       3.459   6.524  10.538  1.00  0.00     0.149 C 
HETATM   21  O1  UNL     1       4.563   6.212  10.098  1.00  0.00    -0.293 OA
HETATM   22  C6  UNL     1       2.457   5.464  10.803  1.00  0.00     0.053 C 
HETATM   23  C8  UNL     1       0.292   4.617  11.623  1.00  0.00     0.035 C 
HETATM   24  C9  UNL     1      -1.197   4.934  11.520  1.00  0.00     0.010 C 
HETATM   25  C17 UNL     1      -3.821   5.378  13.216  1.00  0.00     0.009 C 
HETATM   26  C18 UNL     1      -4.718   5.906  14.358  1.00  0.00     0.047 C 
BRANCH   7  27
HETATM   27  O2  UNL     1      -3.138   6.595  16.070  1.00  0.00    -0.381 OA
HETATM   28  H27 UNL     1      -3.636   5.931  16.577  1.00  0.00     0.211 HD
ENDBRANCH   7  27
ENDBRANCH   5   7
ENDBRANCH   4   5
ENDBRANCH   3   4
ENDBRANCH   1   3
BRANCH   1  29
HETATM   29  C23 UNL     1      -9.142   6.993  15.040  1.00  0.00     0.120 C 
BRANCH  29  30
HETATM   30  C24 UNL     1      -9.659   6.615  13.657  1.00  0.00     0.112 C 
BRANCH  30  31
HETATM   31  C25 UNL     1     -10.957   7.328  13.346  1.00  0.00     0.217 C 
HETATM   32  O6  UNL     1     -11.088   8.106  12.409  1.00  0.00    -0.274 OA
HETATM   33  N1  UNL     1     -11.976   7.002  14.215  1.00  0.00    -0.361 N 
HETATM   34  H34 UNL     1     -11.803   6.367  14.983  1.00  0.00     0.162 HD
BRANCH  33  35
HETATM   35  C26 UNL     1     -13.295   7.588  14.090  1.00  0.00     0.122 C 
BRANCH  35  36
HETATM   36  C27 UNL     1     -14.169   6.884  13.051  1.00  0.00     0.020 C 
BRANCH  36  37
HETATM   37  C28 UNL     1     -15.514   6.379  13.581  1.00  0.00     0.002 C 
BRANCH  37  38
HETATM   38  C29 UNL     1     -15.525   6.056  15.079  1.00  0.00     0.009 C 
BRANCH  38  39
HETATM   39  C30 UNL     1     -16.628   5.058  15.440  1.00  0.00     0.103 C 
BRANCH  39  40
HETATM   40  C31 UNL     1     -16.498   3.733  14.707  1.00  0.00     0.217 C 
HETATM   41  O7  UNL     1     -17.311   3.335  13.878  1.00  0.00    -0.274 OA
HETATM   42  N2  UNL     1     -15.364   3.036  15.060  1.00  0.00    -0.357 N 
HETATM   43  H45 UNL     1     -14.660   3.500  15.618  1.00  0.00     0.162 HD
BRANCH  42  44
HETATM   44  C32 UNL     1     -15.006   1.786  14.430  1.00  0.00     0.161 C 
BRANCH  44  45
HETATM   45  C33 UNL     1     -15.475   0.614  15.255  1.00  0.00    -0.040 A 
HETATM   46  C34 UNL     1     -15.521   0.695  16.653  1.00  0.00     0.010 A 
HETATM   47  C35 UNL     1     -15.939  -0.403  17.410  1.00  0.00     0.019 A 
HETATM   48  C36 UNL     1     -16.310  -1.598  16.778  1.00  0.00     0.037 A 
HETATM   49  C38 UNL     1     -16.253  -1.688  15.383  1.00  0.00     0.019 A 
HETATM   50  C39 UNL     1     -15.834  -0.589  14.628  1.00  0.00     0.010 A 
BRANCH  48  51
HETATM   51  C37 UNL     1     -16.741  -2.736  17.625  1.00  0.00     0.176 C 
HETATM   52  O8  UNL     1     -16.382  -2.951  18.768  1.00  0.00    -0.646 OA
BRANCH  51  53
HETATM   53  O9  UNL     1     -17.606  -3.555  16.999  1.00  0.00    -0.773 OA
HETATM   54  H50 UNL     1     -17.801  -4.245  17.666  1.00  0.00     0.167 HD
ENDBRANCH  51  53
ENDBRANCH  48  51
ENDBRANCH  44  45
ENDBRANCH  42  44
ENDBRANCH  39  40
ENDBRANCH  38  39
ENDBRANCH  37  38
ENDBRANCH  36  37
ENDBRANCH  35  36
ENDBRANCH  33  35
ENDBRANCH  30  31
ENDBRANCH  29  30
ENDBRANCH   1  29
TORSDOF 18
ENDMDL
MODEL 8
REMARK minimizedAffinity -8.24810314
REMARK CNNscore 0.280864567
REMARK CNNaffinity 7.30466032
REMARK  18 active torsions:
REMARK  status: ('A' for Active; 'I' for Inactive)
REMARK    1  A    between atoms: C19_20  and  O2_21 
REMARK    2  A    between atoms: C19_20  and  C20_22 
REMARK    3  A    between atoms: C20_22  and  C21_24 
REMARK    4  A    between atoms: C21_24  and  O4_25 
REMARK    5  A    between atoms: O4_25  and  C22_26 
REMARK    6  A    between atoms: C22_26  and  C23_28 
REMARK    7  A    between atoms: C23_28  and  C24_29 
REMARK    8  A    between atoms: C24_29  and  C25_30 
REMARK       I    between atoms: C25_30  and  N1_32 
REMARK    9  A    between atoms: N1_32  and  C26_33 
REMARK   10  A    between atoms: C26_33  and  C27_34 
REMARK   11  A    between atoms: C27_34  and  C28_35 
REMARK   12  A    between atoms: C28_35  and  C29_36 
REMARK   13  A    between atoms: C29_36  and  C30_37 
REMARK   14  A    between atoms: C30_37  and  C31_38 
REMARK       I    between atoms: C31_38  and  N2_40 
REMARK   15  A    between atoms: N2_40  and  C32_41 
REMARK   16  A    between atoms: C32_41  and  C33_42 
REMARK   17  A    between atoms: C36_45  and  C37_46 
REMARK   18  A    between atoms: C37_46  and  O9_48 
ROOT
HETATM    1  C22 UNL     1       0.932   5.757  11.106  1.00  0.00     0.259 C 
HETATM    2  O5  UNL     1       1.967   5.995  10.500  1.00  0.00    -0.265 OA
ENDROOT
BRANCH   1   3
HETATM    3  O4  UNL     1      -0.087   4.992  10.627  1.00  0.00    -0.314 OA
BRANCH   3   4
HETATM    4  C21 UNL     1      -0.784   4.229  11.609  1.00  0.00     0.260 C 
BRANCH   4   5
HETATM    5  C20 UNL     1      -1.653   3.109  11.033  1.00  0.00     0.185 C 
HETATM    6  O3  UNL     1      -1.120   2.072  10.627  1.00  0.00    -0.292 OA
BRANCH   5   7
HETATM    7  C19 UNL     1      -3.190   3.291  11.107  1.00  0.00     0.128 C 
HETATM    8  C14 UNL     1      -3.743   4.016  12.380  1.00  0.00    -0.002 C 
HETATM    9  C13 UNL     1      -3.561   5.543  12.432  1.00  0.00     0.013 C 
HETATM   10  C15 UNL     1      -3.167   3.391  13.687  1.00  0.00     0.019 C 
HETATM   11  C16 UNL     1      -5.262   3.720  12.196  1.00  0.00     0.002 C 
HETATM   12  C12 UNL     1      -4.425   6.193  13.532  1.00  0.00     0.007 C 
HETATM   13  C11 UNL     1      -5.922   5.829  13.382  1.00  0.00     0.002 C 
HETATM   14  C2  UNL     1      -6.893   6.490  14.417  1.00  0.00    -0.016 C 
HETATM   15  C10 UNL     1      -6.125   4.281  13.333  1.00  0.00    -0.004 C 
HETATM   16  C1  UNL     1      -6.719   5.887  15.833  1.00  0.00     0.020 C 
HETATM   17  C3  UNL     1      -6.661   8.022  14.493  1.00  0.00     0.022 C 
HETATM   18  C7  UNL     1      -8.323   6.243  13.926  1.00  0.00    -0.068 C 
HETATM   19  C4  UNL     1      -7.723   8.756  15.308  1.00  0.00     0.084 C 
HETATM   20  C5  UNL     1      -9.124   8.373  14.896  1.00  0.00     0.149 C 
HETATM   21  O1  UNL     1     -10.094   9.082  15.158  1.00  0.00    -0.293 OA
HETATM   22  C6  UNL     1      -9.331   7.100  14.167  1.00  0.00     0.053 C 
HETATM   23  C8  UNL     1      -8.570   5.050  13.029  1.00  0.00     0.035 C 
HETATM   24  C9  UNL     1      -7.612   3.882  13.250  1.00  0.00     0.010 C 
HETATM   25  C17 UNL     1      -5.284   2.221  11.916  1.00  0.00     0.009 C 
HETATM   26  C18 UNL     1      -3.980   1.955  11.131  1.00  0.00     0.047 C 
BRANCH   7  27
HETATM   27  O2  UNL     1      -3.582   4.034   9.939  1.00  0.00    -0.381 OA
HETATM   28  H27 UNL     1      -3.645   3.428   9.179  1.00  0.00     0.211 HD
ENDBRANCH   7  27
ENDBRANCH   5   7
ENDBRANCH   4   5
ENDBRANCH   3   4
ENDBRANCH   1   3
BRANCH   1  29
HETATM   29  C23 UNL     1       0.592   6.375  12.437  1.00  0.00     0.120 C 
BRANCH  29  30
HETATM   30  C24 UNL     1       0.136   7.826  12.341  1.00  0.00     0.112 C 
BRANCH  30  31
HETATM   31  C25 UNL     1      -0.984   8.112  13.317  1.00  0.00     0.217 C 
HETATM   32  O6  UNL     1      -1.847   8.959  13.122  1.00  0.00    -0.274 OA
HETATM   33  N1  UNL     1      -0.940   7.314  14.441  1.00  0.00    -0.361 N 
HETATM   34  H34 UNL     1      -0.191   6.644  14.558  1.00  0.00     0.162 HD
BRANCH  33  35
HETATM   35  C26 UNL     1      -1.921   7.441  15.500  1.00  0.00     0.122 C 
BRANCH  35  36
HETATM   36  C27 UNL     1      -1.855   8.788  16.221  1.00  0.00     0.020 C 
BRANCH  36  37
HETATM   37  C28 UNL     1      -3.037   9.722  15.943  1.00  0.00     0.002 C 
BRANCH  37  38
HETATM   38  C29 UNL     1      -3.762  10.219  17.197  1.00  0.00     0.009 C 
BRANCH  38  39
HETATM   39  C30 UNL     1      -4.049  11.720  17.134  1.00  0.00     0.103 C 
BRANCH  39  40
HETATM   40  C31 UNL     1      -3.514  12.483  18.336  1.00  0.00     0.217 C 
HETATM   41  O7  UNL     1      -4.125  12.595  19.394  1.00  0.00    -0.274 OA
HETATM   42  N2  UNL     1      -2.264  13.018  18.115  1.00  0.00    -0.357 N 
HETATM   43  H45 UNL     1      -1.755  12.743  17.286  1.00  0.00     0.162 HD
BRANCH  42  44
HETATM   44  C32 UNL     1      -1.537  13.719  19.149  1.00  0.00     0.161 C 
BRANCH  44  45
HETATM   45  C33 UNL     1      -0.338  12.922  19.597  1.00  0.00    -0.040 A 
HETATM   46  C34 UNL     1      -0.326  11.524  19.491  1.00  0.00     0.010 A 
HETATM   47  C35 UNL     1       0.782  10.793  19.928  1.00  0.00     0.019 A 
HETATM   48  C36 UNL     1       1.889  11.450  20.481  1.00  0.00     0.037 A 
HETATM   49  C38 UNL     1       1.877  12.844  20.601  1.00  0.00     0.019 A 
HETATM   50  C39 UNL     1       0.768  13.573  20.165  1.00  0.00     0.010 A 
BRANCH  48  51
HETATM   51  C37 UNL     1       3.039  10.630  20.934  1.00  0.00     0.176 C 
HETATM   52  O8  UNL     1       4.031  11.045  21.504  1.00  0.00    -0.646 OA
BRANCH  51  53
HETATM   53  O9  UNL     1       2.892   9.323  20.650  1.00  0.00    -0.773 OA
HETATM   54  H50 UNL     1       3.709   8.912  21.002  1.00  0.00     0.167 HD
ENDBRANCH  51  53
ENDBRANCH  48  51
ENDBRANCH  44  45
ENDBRANCH  42  44
ENDBRANCH  39  40
ENDBRANCH  38  39
ENDBRANCH  37  38
ENDBRANCH  36  37
ENDBRANCH  35  36
ENDBRANCH  33  35
ENDBRANCH  30  31
ENDBRANCH  29  30
ENDBRANCH   1  29
TORSDOF 18
ENDMDL
MODEL 9
REMARK minimizedAffinity -8.64701557
REMARK CNNscore 0.265598595
REMARK CNNaffinity 6.67390633
REMARK  18 active torsions:
REMARK  status: ('A' for Active; 'I' for Inactive)
REMARK    1  A    between atoms: C19_20  and  O2_21 
REMARK    2  A    between atoms: C19_20  and  C20_22 
REMARK    3  A    between atoms: C20_22  and  C21_24 
REMARK    4  A    between atoms: C21_24  and  O4_25 
REMARK    5  A    between atoms: O4_25  and  C22_26 
REMARK    6  A    between atoms: C22_26  and  C23_28 
REMARK    7  A    between atoms: C23_28  and  C24_29 
REMARK    8  A    between atoms: C24_29  and  C25_30 
REMARK       I    between atoms: C25_30  and  N1_32 
REMARK    9  A    between atoms: N1_32  and  C26_33 
REMARK   10  A    between atoms: C26_33  and  C27_34 
REMARK   11  A    between atoms: C27_34  and  C28_35 
REMARK   12  A    between atoms: C28_35  and  C29_36 
REMARK   13  A    between atoms: C29_36  and  C30_37 
REMARK   14  A    between atoms: C30_37  and  C31_38 
REMARK       I    between atoms: C31_38  and  N2_40 
REMARK   15  A    between atoms: N2_40  and  C32_41 
REMARK   16  A    between atoms: C32_41  and  C33_42 
REMARK   17  A    between atoms: C36_45  and  C37_46 
REMARK   18  A    between atoms: C37_46  and  O9_48 
ROOT
HETATM    1  C22 UNL     1       3.400   6.291   9.795  1.00  0.00     0.259 C 
HETATM    2  O5  UNL     1       3.652   5.656   8.780  1.00  0.00    -0.265 OA
ENDROOT
BRANCH   1   3
HETATM    3  O4  UNL     1       2.324   7.110   9.950  1.00  0.00    -0.314 OA
BRANCH   3   4
HETATM    4  C21 UNL     1       2.447   8.082  10.985  1.00  0.00     0.260 C 
BRANCH   4   5
HETATM    5  C20 UNL     1       1.446   7.911  12.130  1.00  0.00     0.185 C 
HETATM    6  O3  UNL     1       1.574   8.584  13.157  1.00  0.00    -0.292 OA
BRANCH   5   7
HETATM    7  C19 UNL     1       0.236   6.974  11.884  1.00  0.00     0.128 C 
HETATM    8  C14 UNL     1      -0.920   7.041  12.937  1.00  0.00    -0.002 C 
HETATM    9  C13 UNL     1      -1.851   8.263  12.856  1.00  0.00     0.013 C 
HETATM   10  C15 UNL     1      -0.373   6.916  14.392  1.00  0.00     0.019 C 
HETATM   11  C16 UNL     1      -1.732   5.787  12.496  1.00  0.00     0.002 C 
HETATM   12  C12 UNL     1      -3.135   8.070  13.688  1.00  0.00     0.007 C 
HETATM   13  C11 UNL     1      -3.894   6.782  13.292  1.00  0.00     0.002 C 
HETATM   14  C2  UNL     1      -5.245   6.527  14.040  1.00  0.00    -0.016 C 
HETATM   15  C10 UNL     1      -2.963   5.530  13.376  1.00  0.00    -0.004 C 
HETATM   16  C1  UNL     1      -5.017   6.134  15.520  1.00  0.00     0.020 C 
HETATM   17  C3  UNL     1      -6.150   7.785  13.990  1.00  0.00     0.022 C 
HETATM   18  C7  UNL     1      -5.964   5.387  13.312  1.00  0.00    -0.068 C 
HETATM   19  C4  UNL     1      -7.568   7.533  14.498  1.00  0.00     0.084 C 
HETATM   20  C5  UNL     1      -8.191   6.311  13.867  1.00  0.00     0.149 C 
HETATM   21  O1  UNL     1      -9.407   6.135  13.855  1.00  0.00    -0.293 OA
HETATM   22  C6  UNL     1      -7.304   5.292  13.256  1.00  0.00     0.053 C 
HETATM   23  C8  UNL     1      -5.124   4.408  12.520  1.00  0.00     0.035 C 
HETATM   24  C9  UNL     1      -3.705   4.218  13.050  1.00  0.00     0.010 C 
HETATM   25  C17 UNL     1      -0.660   4.709  12.384  1.00  0.00     0.009 C 
HETATM   26  C18 UNL     1       0.598   5.465  11.902  1.00  0.00     0.047 C 
BRANCH   7  27
HETATM   27  O2  UNL     1      -0.293   7.303  10.587  1.00  0.00    -0.381 OA
HETATM   28  H27 UNL     1       0.243   6.867   9.901  1.00  0.00     0.211 HD
ENDBRANCH   7  27
ENDBRANCH   5   7
ENDBRANCH   4   5
ENDBRANCH   3   4
ENDBRANCH   1   3
BRANCH   1  29
HETATM   29  C23 UNL     1       4.318   6.339  10.988  1.00  0.00     0.120 C 
BRANCH  29  30
HETATM   30  C24 UNL     1       5.798   6.323  10.625  1.00  0.00     0.112 C 
BRANCH  30  31
HETATM   31  C25 UNL     1       6.651   6.762  11.795  1.00  0.00     0.217 C 
HETATM   32  O6  UNL     1       7.865   6.916  11.723  1.00  0.00    -0.274 OA
HETATM   33  N1  UNL     1       5.923   6.982  12.945  1.00  0.00    -0.361 N 
HETATM   34  H34 UNL     1       4.925   6.819  12.952  1.00  0.00     0.162 HD
BRANCH  33  35
HETATM   35  C26 UNL     1       6.560   7.398  14.178  1.00  0.00     0.122 C 
BRANCH  35  36
HETATM   36  C27 UNL     1       7.039   8.851  14.146  1.00  0.00     0.020 C 
BRANCH  36  37
HETATM   37  C28 UNL     1       8.473   9.063  14.638  1.00  0.00     0.002 C 
BRANCH  37  38
HETATM   38  C29 UNL     1       9.342   7.802  14.624  1.00  0.00     0.009 C 
BRANCH  38  39
HETATM   39  C30 UNL     1      10.714   8.060  13.996  1.00  0.00     0.103 C 
BRANCH  39  40
HETATM   40  C31 UNL     1      10.970   9.528  13.700  1.00  0.00     0.217 C 
HETATM   41  O7  UNL     1      10.579  10.092  12.683  1.00  0.00    -0.274 OA
HETATM   42  N2  UNL     1      11.670  10.161  14.703  1.00  0.00    -0.357 N 
HETATM   43  H45 UNL     1      11.809   9.678  15.581  1.00  0.00     0.162 HD
BRANCH  42  44
HETATM   44  C32 UNL     1      11.957  11.577  14.662  1.00  0.00     0.161 C 
BRANCH  44  45
HETATM   45  C33 UNL     1      12.666  12.018  15.918  1.00  0.00    -0.040 A 
HETATM   46  C34 UNL     1      12.449  13.295  16.452  1.00  0.00     0.010 A 
HETATM   47  C35 UNL     1      13.126  13.702  17.605  1.00  0.00     0.019 A 
HETATM   48  C36 UNL     1      14.033  12.839  18.235  1.00  0.00     0.037 A 
HETATM   49  C38 UNL     1      14.264  11.568  17.698  1.00  0.00     0.019 A 
HETATM   50  C39 UNL     1      13.587  11.163  16.544  1.00  0.00     0.010 A 
BRANCH  48  51
HETATM   51  C37 UNL     1      14.730  13.319  19.452  1.00  0.00     0.176 C 
HETATM   52  O8  UNL     1      15.417  12.641  20.195  1.00  0.00    -0.646 OA
BRANCH  51  53
HETATM   53  O9  UNL     1      14.534  14.629  19.685  1.00  0.00    -0.773 OA
HETATM   54  H50 UNL     1      15.044  14.803  20.503  1.00  0.00     0.167 HD
ENDBRANCH  51  53
ENDBRANCH  48  51
ENDBRANCH  44  45
ENDBRANCH  42  44
ENDBRANCH  39  40
ENDBRANCH  38  39
ENDBRANCH  37  38
ENDBRANCH  36  37
ENDBRANCH  35  36
ENDBRANCH  33  35
ENDBRANCH  30  31
ENDBRANCH  29  30
ENDBRANCH   1  29
TORSDOF 18
ENDMDL
