MODEL 1
REMARK minimizedAffinity -10.0761042
REMARK CNNscore 0.553550422
REMARK CNNaffinity 6.72705269
REMARK  13 active torsions:
REMARK  status: ('A' for Active; 'I' for Inactive)
REMARK    1  A    between atoms: C12_13  and  O2_14 
REMARK    2  A    between atoms: C19_21  and  O3_22 
REMARK    3  A    between atoms: C19_21  and  C20_23 
REMARK    4  A    between atoms: C20_23  and  C21_25 
REMARK    5  A    between atoms: C21_25  and  O5_26 
REMARK    6  A    between atoms: O5_26  and  C22_27 
REMARK    7  A    between atoms: C22_27  and  C23_29 
REMARK    8  A    between atoms: C23_29  and  C24_30 
REMARK    9  A    between atoms: C24_30  and  C25_31 
REMARK       I    between atoms: C25_31  and  N1_33 
REMARK   10  A    between atoms: N1_33  and  C26_34 
REMARK   11  A    between atoms: C26_34  and  C27_35 
REMARK   12  A    between atoms: C30_38  and  C31_39 
REMARK   13  A    between atoms: C31_39  and  O9_41 
ROOT
HETATM    1  C1  UNL     1      -5.886   5.516  15.645  1.00  0.00     0.020 C 
HETATM    2  C2  UNL     1      -5.754   5.969  14.170  1.00  0.00    -0.014 C 
HETATM    3  C3  UNL     1      -7.116   6.538  13.693  1.00  0.00     0.022 C 
HETATM    4  C4  UNL     1      -8.233   5.498  13.677  1.00  0.00     0.084 C 
HETATM    5  C5  UNL     1      -7.819   4.220  12.987  1.00  0.00     0.149 C 
HETATM    6  O1  UNL     1      -8.644   3.391  12.604  1.00  0.00    -0.293 OA
HETATM    7  C6  UNL     1      -6.378   3.950  12.782  1.00  0.00     0.053 C 
HETATM    8  C7  UNL     1      -5.426   4.745  13.304  1.00  0.00    -0.068 C 
HETATM    9  C8  UNL     1      -3.975   4.494  12.959  1.00  0.00     0.035 C 
HETATM   10  C9  UNL     1      -2.990   5.002  14.007  1.00  0.00     0.010 C 
HETATM   11  C10 UNL     1      -3.233   6.460  14.453  1.00  0.00    -0.002 C 
HETATM   12  C11 UNL     1      -4.606   7.017  13.949  1.00  0.00     0.031 C 
HETATM   13  C12 UNL     1      -4.865   8.463  14.449  1.00  0.00     0.124 C 
HETATM   14  C13 UNL     1      -3.674   9.410  14.164  1.00  0.00     0.045 C 
HETATM   15  C14 UNL     1      -2.307   8.855  14.629  1.00  0.00     0.001 C 
HETATM   16  C15 UNL     1      -2.242   8.855  16.183  1.00  0.00     0.019 C 
HETATM   17  C16 UNL     1      -2.138   7.440  14.008  1.00  0.00     0.002 C 
HETATM   18  C17 UNL     1      -0.680   7.105  14.297  1.00  0.00     0.009 C 
HETATM   19  C18 UNL     1       0.059   8.451  14.163  1.00  0.00     0.047 C 
HETATM   20  C19 UNL     1      -1.031   9.557  14.048  1.00  0.00     0.128 C 
ENDROOT
BRANCH  20  21
HETATM   21  O3  UNL     1      -1.185   9.788  12.643  1.00  0.00    -0.381 OA
HETATM   22  H27 UNL     1      -1.860  10.478  12.516  1.00  0.00     0.211 HD
ENDBRANCH  20  21
BRANCH  20  23
HETATM   23  C20 UNL     1      -0.600  10.838  14.822  1.00  0.00     0.185 C 
HETATM   24  O4  UNL     1      -1.191  11.915  14.689  1.00  0.00    -0.292 OA
BRANCH  23  25
HETATM   25  C21 UNL     1       0.693  10.784  15.638  1.00  0.00     0.260 C 
BRANCH  25  26
HETATM   26  O5  UNL     1       0.547  10.796  17.056  1.00  0.00    -0.314 OA
BRANCH  26  27
HETATM   27  C22 UNL     1       1.668  10.409  17.734  1.00  0.00     0.259 C 
HETATM   28  O6  UNL     1       2.287   9.379  17.516  1.00  0.00    -0.265 OA
BRANCH  27  29
HETATM   29  C23 UNL     1       2.035  11.447  18.764  1.00  0.00     0.120 C 
BRANCH  29  30
HETATM   30  C24 UNL     1       1.394  11.109  20.104  1.00  0.00     0.112 C 
BRANCH  30  31
HETATM   31  C25 UNL     1       2.363  10.377  21.010  1.00  0.00     0.218 C 
HETATM   32  O7  UNL     1       2.667   9.202  20.839  1.00  0.00    -0.274 OA
HETATM   33  N1  UNL     1       2.817  11.143  22.056  1.00  0.00    -0.357 N 
HETATM   34  H34 UNL     1       2.598  12.131  22.077  1.00  0.00     0.162 HD
BRANCH  33  35
HETATM   35  C26 UNL     1       3.867  10.687  22.938  1.00  0.00     0.161 C 
BRANCH  35  36
HETATM   36  C27 UNL     1       4.996  11.688  22.962  1.00  0.00    -0.040 A 
HETATM   37  C28 UNL     1       6.325  11.245  23.041  1.00  0.00     0.010 A 
HETATM   38  C29 UNL     1       7.381  12.161  23.051  1.00  0.00     0.019 A 
HETATM   39  C30 UNL     1       7.120  13.533  22.972  1.00  0.00     0.037 A 
HETATM   40  C32 UNL     1       5.796  13.981  22.882  1.00  0.00     0.019 A 
HETATM   41  C33 UNL     1       4.742  13.063  22.877  1.00  0.00     0.010 A 
BRANCH  39  42
HETATM   42  C31 UNL     1       8.268  14.471  22.993  1.00  0.00     0.176 C 
HETATM   43  O8  UNL     1       8.836  14.933  22.020  1.00  0.00    -0.646 OA
BRANCH  42  44
HETATM   44  O9  UNL     1       8.659  14.791  24.240  1.00  0.00    -0.773 OA
HETATM   45  H39 UNL     1       9.411  15.403  24.093  1.00  0.00     0.167 HD
ENDBRANCH  42  44
ENDBRANCH  39  42
ENDBRANCH  35  36
ENDBRANCH  33  35
ENDBRANCH  30  31
ENDBRANCH  29  30
ENDBRANCH  27  29
ENDBRANCH  26  27
ENDBRANCH  25  26
ENDBRANCH  23  25
ENDBRANCH  20  23
BRANCH  13  46
HETATM   46  O2  UNL     1      -5.185   8.477  15.829  1.00  0.00    -0.395 OA
HETATM   47  H16 UNL     1      -5.458   9.379  16.069  1.00  0.00     0.210 HD
ENDBRANCH  13  46
TORSDOF 13
ENDMDL
MODEL 2
REMARK minimizedAffinity -8.76172733
REMARK CNNscore 0.491074562
REMARK CNNaffinity 6.4101963
REMARK  13 active torsions:
REMARK  status: ('A' for Active; 'I' for Inactive)
REMARK    1  A    between atoms: C12_13  and  O2_14 
REMARK    2  A    between atoms: C19_21  and  O3_22 
REMARK    3  A    between atoms: C19_21  and  C20_23 
REMARK    4  A    between atoms: C20_23  and  C21_25 
REMARK    5  A    between atoms: C21_25  and  O5_26 
REMARK    6  A    between atoms: O5_26  and  C22_27 
REMARK    7  A    between atoms: C22_27  and  C23_29 
REMARK    8  A    between atoms: C23_29  and  C24_30 
REMARK    9  A    between atoms: C24_30  and  C25_31 
REMARK       I    between atoms: C25_31  and  N1_33 
REMARK   10  A    between atoms: N1_33  and  C26_34 
REMARK   11  A    between atoms: C26_34  and  C27_35 
REMARK   12  A    between atoms: C30_38  and  C31_39 
REMARK   13  A    between atoms: C31_39  and  O9_41 
ROOT
HETATM    1  C1  UNL     1      -3.414   6.889  12.436  1.00  0.00     0.020 C 
HETATM    2  C2  UNL     1      -3.909   6.354  13.802  1.00  0.00    -0.014 C 
HETATM    3  C3  UNL     1      -3.404   4.899  13.988  1.00  0.00     0.022 C 
HETATM    4  C4  UNL     1      -3.978   3.925  12.962  1.00  0.00     0.084 C 
HETATM    5  C5  UNL     1      -5.476   4.049  12.827  1.00  0.00     0.149 C 
HETATM    6  O1  UNL     1      -6.156   3.171  12.295  1.00  0.00    -0.293 OA
HETATM    7  C6  UNL     1      -6.144   5.269  13.335  1.00  0.00     0.053 C 
HETATM    8  C7  UNL     1      -5.444   6.322  13.793  1.00  0.00    -0.068 C 
HETATM    9  C8  UNL     1      -6.177   7.490  14.415  1.00  0.00     0.035 C 
HETATM   10  C9  UNL     1      -5.418   8.811  14.339  1.00  0.00     0.010 C 
HETATM   11  C10 UNL     1      -3.952   8.729  14.818  1.00  0.00    -0.002 C 
HETATM   12  C11 UNL     1      -3.470   7.254  15.012  1.00  0.00     0.031 C 
HETATM   13  C12 UNL     1      -1.980   7.181  15.439  1.00  0.00     0.124 C 
HETATM   14  C13 UNL     1      -1.666   8.095  16.649  1.00  0.00     0.045 C 
HETATM   15  C14 UNL     1      -2.168   9.549  16.482  1.00  0.00     0.001 C 
HETATM   16  C15 UNL     1      -1.313  10.279  15.407  1.00  0.00     0.019 C 
HETATM   17  C16 UNL     1      -3.679   9.487  16.126  1.00  0.00     0.002 C 
HETATM   18  C17 UNL     1      -4.127  10.938  16.250  1.00  0.00     0.009 C 
HETATM   19  C18 UNL     1      -3.305  11.495  17.430  1.00  0.00     0.047 C 
HETATM   20  C19 UNL     1      -2.234  10.421  17.783  1.00  0.00     0.128 C 
ENDROOT
BRANCH  20  21
HETATM   21  O3  UNL     1      -2.800   9.667  18.861  1.00  0.00    -0.381 OA
HETATM   22  H27 UNL     1      -2.164   8.978  19.123  1.00  0.00     0.211 HD
ENDBRANCH  20  21
BRANCH  20  23
HETATM   23  C20 UNL     1      -0.884  11.095  18.169  1.00  0.00     0.185 C 
HETATM   24  O4  UNL     1       0.164  10.450  18.279  1.00  0.00    -0.292 OA
BRANCH  23  25
HETATM   25  C21 UNL     1      -0.907  12.569  18.578  1.00  0.00     0.260 C 
BRANCH  25  26
HETATM   26  O5  UNL     1      -0.342  12.883  19.848  1.00  0.00    -0.314 OA
BRANCH  26  27
HETATM   27  C22 UNL     1       0.878  13.493  19.779  1.00  0.00     0.259 C 
HETATM   28  O6  UNL     1       1.139  14.440  19.054  1.00  0.00    -0.265 OA
BRANCH  27  29
HETATM   29  C23 UNL     1       1.838  12.840  20.742  1.00  0.00     0.120 C 
BRANCH  29  30
HETATM   30  C24 UNL     1       1.522  11.356  20.877  1.00  0.00     0.112 C 
BRANCH  30  31
HETATM   31  C25 UNL     1       2.732  10.575  21.348  1.00  0.00     0.218 C 
HETATM   32  O7  UNL     1       3.046   9.492  20.869  1.00  0.00    -0.274 OA
HETATM   33  N1  UNL     1       3.400  11.178  22.386  1.00  0.00    -0.357 N 
HETATM   34  H34 UNL     1       3.140  12.116  22.663  1.00  0.00     0.162 HD
BRANCH  33  35
HETATM   35  C26 UNL     1       4.666  10.680  22.872  1.00  0.00     0.161 C 
BRANCH  35  36
HETATM   36  C27 UNL     1       5.664  11.808  22.972  1.00  0.00    -0.040 A 
HETATM   37  C28 UNL     1       5.219  13.138  23.001  1.00  0.00     0.010 A 
HETATM   38  C29 UNL     1       6.132  14.191  23.108  1.00  0.00     0.019 A 
HETATM   39  C30 UNL     1       7.503  13.926  23.196  1.00  0.00     0.037 A 
HETATM   40  C32 UNL     1       7.952  12.600  23.179  1.00  0.00     0.019 A 
HETATM   41  C33 UNL     1       7.037  11.548  23.068  1.00  0.00     0.010 A 
BRANCH  39  42
HETATM   42  C31 UNL     1       8.437  15.072  23.300  1.00  0.00     0.176 C 
HETATM   43  O8  UNL     1       8.716  15.854  22.409  1.00  0.00    -0.646 OA
BRANCH  42  44
HETATM   44  O9  UNL     1       8.987  15.189  24.522  1.00  0.00    -0.773 OA
HETATM   45  H39 UNL     1       9.569  15.973  24.435  1.00  0.00     0.167 HD
ENDBRANCH  42  44
ENDBRANCH  39  42
ENDBRANCH  35  36
ENDBRANCH  33  35
ENDBRANCH  30  31
ENDBRANCH  29  30
ENDBRANCH  27  29
ENDBRANCH  26  27
ENDBRANCH  25  26
ENDBRANCH  23  25
ENDBRANCH  20  23
BRANCH  13  46
HETATM   46  O2  UNL     1      -1.121   7.488  14.354  1.00  0.00    -0.395 OA
HETATM   47  H16 UNL     1      -0.206   7.312  14.632  1.00  0.00     0.210 HD
ENDBRANCH  13  46
TORSDOF 13
ENDMDL
MODEL 3
REMARK minimizedAffinity -10.6401043
REMARK CNNscore 0.434108257
REMARK CNNaffinity 7.43249083
REMARK  13 active torsions:
REMARK  status: ('A' for Active; 'I' for Inactive)
REMARK    1  A    between atoms: C12_13  and  O2_14 
REMARK    2  A    between atoms: C19_21  and  O3_22 
REMARK    3  A    between atoms: C19_21  and  C20_23 
REMARK    4  A    between atoms: C20_23  and  C21_25 
REMARK    5  A    between atoms: C21_25  and  O5_26 
REMARK    6  A    between atoms: O5_26  and  C22_27 
REMARK    7  A    between atoms: C22_27  and  C23_29 
REMARK    8  A    between atoms: C23_29  and  C24_30 
REMARK    9  A    between atoms: C24_30  and  C25_31 
REMARK       I    between atoms: C25_31  and  N1_33 
REMARK   10  A    between atoms: N1_33  and  C26_34 
REMARK   11  A    between atoms: C26_34  and  C27_35 
REMARK   12  A    between atoms: C30_38  and  C31_39 
REMARK   13  A    between atoms: C31_39  and  O9_41 
ROOT
HETATM    1  C1  UNL     1       0.681   7.989  10.107  1.00  0.00     0.020 C 
HETATM    2  C2  UNL     1       1.212   7.570  11.500  1.00  0.00    -0.014 C 
HETATM    3  C3  UNL     1       2.370   8.518  11.906  1.00  0.00     0.022 C 
HETATM    4  C4  UNL     1       3.583   8.419  10.984  1.00  0.00     0.084 C 
HETATM    5  C5  UNL     1       4.008   6.990  10.745  1.00  0.00     0.149 C 
HETATM    6  O1  UNL     1       5.118   6.708  10.294  1.00  0.00    -0.293 OA
HETATM    7  C6  UNL     1       3.054   5.898  11.046  1.00  0.00     0.053 C 
HETATM    8  C7  UNL     1       1.781   6.147  11.403  1.00  0.00    -0.068 C 
HETATM    9  C8  UNL     1       0.888   5.001  11.821  1.00  0.00     0.035 C 
HETATM   10  C9  UNL     1      -0.601   5.267  11.617  1.00  0.00     0.010 C 
HETATM   11  C10 UNL     1      -1.088   6.616  12.189  1.00  0.00    -0.002 C 
HETATM   12  C11 UNL     1       0.097   7.550  12.604  1.00  0.00     0.031 C 
HETATM   13  C12 UNL     1      -0.402   8.924  13.126  1.00  0.00     0.124 C 
HETATM   14  C13 UNL     1      -1.488   8.782  14.221  1.00  0.00     0.045 C 
HETATM   15  C14 UNL     1      -2.648   7.835  13.834  1.00  0.00     0.001 C 
HETATM   16  C15 UNL     1      -3.517   8.494  12.725  1.00  0.00     0.019 C 
HETATM   17  C16 UNL     1      -2.023   6.479  13.400  1.00  0.00     0.002 C 
HETATM   18  C17 UNL     1      -3.230   5.554  13.305  1.00  0.00     0.009 C 
HETATM   19  C18 UNL     1      -4.158   6.012  14.447  1.00  0.00     0.047 C 
HETATM   20  C19 UNL     1      -3.570   7.343  15.003  1.00  0.00     0.128 C 
ENDROOT
BRANCH  20  21
HETATM   21  O3  UNL     1      -2.781   6.961  16.135  1.00  0.00    -0.381 OA
HETATM   22  H27 UNL     1      -2.389   7.763  16.523  1.00  0.00     0.211 HD
ENDBRANCH  20  21
BRANCH  20  23
HETATM   23  C20 UNL     1      -4.711   8.336  15.377  1.00  0.00     0.185 C 
HETATM   24  O4  UNL     1      -4.562   9.213  16.234  1.00  0.00    -0.292 OA
BRANCH  23  25
HETATM   25  C21 UNL     1      -6.096   8.099  14.773  1.00  0.00     0.260 C 
BRANCH  25  26
HETATM   26  O5  UNL     1      -7.110   7.649  15.668  1.00  0.00    -0.314 OA
BRANCH  26  27
HETATM   27  C22 UNL     1      -7.150   6.293  15.827  1.00  0.00     0.259 C 
HETATM   28  O6  UNL     1      -6.724   5.698  16.805  1.00  0.00    -0.265 OA
BRANCH  27  29
HETATM   29  C23 UNL     1      -7.814   5.651  14.635  1.00  0.00     0.120 C 
BRANCH  29  30
HETATM   30  C24 UNL     1      -7.656   4.138  14.695  1.00  0.00     0.112 C 
BRANCH  30  31
HETATM   31  C25 UNL     1      -7.520   3.542  13.307  1.00  0.00     0.218 C 
HETATM   32  O7  UNL     1      -8.356   2.782  12.831  1.00  0.00    -0.274 OA
HETATM   33  N1  UNL     1      -6.356   3.900  12.672  1.00  0.00    -0.357 N 
HETATM   34  H34 UNL     1      -5.763   4.606  13.087  1.00  0.00     0.162 HD
BRANCH  33  35
HETATM   35  C26 UNL     1      -6.110   3.572  11.286  1.00  0.00     0.161 C 
BRANCH  35  36
HETATM   36  C27 UNL     1      -4.760   2.915  11.140  1.00  0.00    -0.040 A 
HETATM   37  C28 UNL     1      -3.756   3.535  10.381  1.00  0.00     0.010 A 
HETATM   38  C29 UNL     1      -2.497   2.944  10.248  1.00  0.00     0.019 A 
HETATM   39  C30 UNL     1      -2.222   1.727  10.882  1.00  0.00     0.037 A 
HETATM   40  C32 UNL     1      -3.217   1.108  11.650  1.00  0.00     0.019 A 
HETATM   41  C33 UNL     1      -4.477   1.700  11.778  1.00  0.00     0.010 A 
BRANCH  39  42
HETATM   42  C31 UNL     1      -0.876   1.130  10.709  1.00  0.00     0.176 C 
HETATM   43  O8  UNL     1      -0.629   0.052  10.199  1.00  0.00    -0.646 OA
BRANCH  42  44
HETATM   44  O9  UNL     1       0.108   1.913  11.187  1.00  0.00    -0.773 OA
HETATM   45  H39 UNL     1       0.920   1.394  11.006  1.00  0.00     0.167 HD
ENDBRANCH  42  44
ENDBRANCH  39  42
ENDBRANCH  35  36
ENDBRANCH  33  35
ENDBRANCH  30  31
ENDBRANCH  29  30
ENDBRANCH  27  29
ENDBRANCH  26  27
ENDBRANCH  25  26
ENDBRANCH  23  25
ENDBRANCH  20  23
BRANCH  13  46
HETATM   46  O2  UNL     1      -0.878   9.732  12.063  1.00  0.00    -0.395 OA
HETATM   47  H16 UNL     1      -1.063  10.620  12.416  1.00  0.00     0.210 HD
ENDBRANCH  13  46
TORSDOF 13
ENDMDL
MODEL 4
REMARK minimizedAffinity -9.80686283
REMARK CNNscore 0.371622384
REMARK CNNaffinity 7.30448484
REMARK  13 active torsions:
REMARK  status: ('A' for Active; 'I' for Inactive)
REMARK    1  A    between atoms: C12_13  and  O2_14 
REMARK    2  A    between atoms: C19_21  and  O3_22 
REMARK    3  A    between atoms: C19_21  and  C20_23 
REMARK    4  A    between atoms: C20_23  and  C21_25 
REMARK    5  A    between atoms: C21_25  and  O5_26 
REMARK    6  A    between atoms: O5_26  and  C22_27 
REMARK    7  A    between atoms: C22_27  and  C23_29 
REMARK    8  A    between atoms: C23_29  and  C24_30 
REMARK    9  A    between atoms: C24_30  and  C25_31 
REMARK       I    between atoms: C25_31  and  N1_33 
REMARK   10  A    between atoms: N1_33  and  C26_34 
REMARK   11  A    between atoms: C26_34  and  C27_35 
REMARK   12  A    between atoms: C30_38  and  C31_39 
REMARK   13  A    between atoms: C31_39  and  O9_41 
ROOT
HETATM    1  C1  UNL     1      -8.455   6.511  16.110  1.00  0.00     0.020 C 
HETATM    2  C2  UNL     1      -8.248   7.193  14.736  1.00  0.00    -0.014 C 
HETATM    3  C3  UNL     1      -8.714   8.669  14.828  1.00  0.00     0.022 C 
HETATM    4  C4  UNL     1     -10.208   8.813  15.108  1.00  0.00     0.084 C 
HETATM    5  C5  UNL     1     -11.050   7.954  14.196  1.00  0.00     0.149 C 
HETATM    6  O1  UNL     1     -12.257   8.146  14.051  1.00  0.00    -0.293 OA
HETATM    7  C6  UNL     1     -10.406   6.836  13.469  1.00  0.00     0.053 C 
HETATM    8  C7  UNL     1      -9.127   6.486  13.695  1.00  0.00    -0.068 C 
HETATM    9  C8  UNL     1      -8.484   5.420  12.836  1.00  0.00     0.035 C 
HETATM   10  C9  UNL     1      -7.327   4.691  13.513  1.00  0.00     0.010 C 
HETATM   11  C10 UNL     1      -6.278   5.625  14.155  1.00  0.00    -0.002 C 
HETATM   12  C11 UNL     1      -6.765   7.110  14.225  1.00  0.00     0.031 C 
HETATM   13  C12 UNL     1      -5.728   8.029  14.922  1.00  0.00     0.124 C 
HETATM   14  C13 UNL     1      -4.306   7.874  14.327  1.00  0.00     0.045 C 
HETATM   15  C14 UNL     1      -3.827   6.407  14.223  1.00  0.00     0.001 C 
HETATM   16  C15 UNL     1      -3.550   5.843  15.645  1.00  0.00     0.019 C 
HETATM   17  C16 UNL     1      -4.915   5.611  13.448  1.00  0.00     0.002 C 
HETATM   18  C17 UNL     1      -4.236   4.276  13.169  1.00  0.00     0.009 C 
HETATM   19  C18 UNL     1      -2.760   4.639  12.913  1.00  0.00     0.047 C 
HETATM   20  C19 UNL     1      -2.589   6.138  13.299  1.00  0.00     0.128 C 
ENDROOT
BRANCH  20  21
HETATM   21  O3  UNL     1      -2.718   6.860  12.069  1.00  0.00    -0.381 OA
HETATM   22  H27 UNL     1      -2.617   7.810  12.256  1.00  0.00     0.211 HD
ENDBRANCH  20  21
BRANCH  20  23
HETATM   23  C20 UNL     1      -1.214   6.376  13.990  1.00  0.00     0.185 C 
HETATM   24  O4  UNL     1      -1.121   6.916  15.098  1.00  0.00    -0.292 OA
BRANCH  23  25
HETATM   25  C21 UNL     1       0.055   6.075  13.190  1.00  0.00     0.260 C 
BRANCH  25  26
HETATM   26  O5  UNL     1      -0.114   5.864  11.791  1.00  0.00    -0.314 OA
BRANCH  26  27
HETATM   27  C22 UNL     1       0.962   5.284  11.181  1.00  0.00     0.259 C 
HETATM   28  O6  UNL     1       1.128   4.079  11.069  1.00  0.00    -0.265 OA
BRANCH  27  29
HETATM   29  C23 UNL     1       1.892   6.347  10.651  1.00  0.00     0.120 C 
BRANCH  29  30
HETATM   30  C24 UNL     1       3.276   5.761  10.405  1.00  0.00     0.112 C 
BRANCH  30  31
HETATM   31  C25 UNL     1       4.316   6.852  10.247  1.00  0.00     0.218 C 
HETATM   32  O7  UNL     1       4.123   7.855   9.571  1.00  0.00    -0.274 OA
HETATM   33  N1  UNL     1       5.497   6.576  10.893  1.00  0.00    -0.357 N 
HETATM   34  H34 UNL     1       5.548   5.776  11.510  1.00  0.00     0.162 HD
BRANCH  33  35
HETATM   35  C26 UNL     1       6.555   7.554  11.001  1.00  0.00     0.161 C 
BRANCH  35  36
HETATM   36  C27 UNL     1       6.890   7.798  12.452  1.00  0.00    -0.040 A 
HETATM   37  C28 UNL     1       8.185   7.537  12.927  1.00  0.00     0.010 A 
HETATM   38  C29 UNL     1       8.512   7.772  14.266  1.00  0.00     0.019 A 
HETATM   39  C30 UNL     1       7.549   8.280  15.145  1.00  0.00     0.037 A 
HETATM   40  C32 UNL     1       6.258   8.552  14.674  1.00  0.00     0.019 A 
HETATM   41  C33 UNL     1       5.933   8.313  13.335  1.00  0.00     0.010 A 
BRANCH  39  42
HETATM   42  C31 UNL     1       7.935   8.507  16.558  1.00  0.00     0.176 C 
HETATM   43  O8  UNL     1       7.438   9.321  17.316  1.00  0.00    -0.646 OA
BRANCH  42  44
HETATM   44  O9  UNL     1       8.933   7.701  16.963  1.00  0.00    -0.773 OA
HETATM   45  H39 UNL     1       9.074   7.965  17.897  1.00  0.00     0.167 HD
ENDBRANCH  42  44
ENDBRANCH  39  42
ENDBRANCH  35  36
ENDBRANCH  33  35
ENDBRANCH  30  31
ENDBRANCH  29  30
ENDBRANCH  27  29
ENDBRANCH  26  27
ENDBRANCH  25  26
ENDBRANCH  23  25
ENDBRANCH  20  23
BRANCH  13  46
HETATM   46  O2  UNL     1      -5.703   7.803  16.321  1.00  0.00    -0.395 OA
HETATM   47  H16 UNL     1      -5.134   8.479  16.728  1.00  0.00     0.210 HD
ENDBRANCH  13  46
TORSDOF 13
ENDMDL
MODEL 5
REMARK minimizedAffinity -8.2911005
REMARK CNNscore 0.339177966
REMARK CNNaffinity 7.09223175
REMARK  13 active torsions:
REMARK  status: ('A' for Active; 'I' for Inactive)
REMARK    1  A    between atoms: C12_13  and  O2_14 
REMARK    2  A    between atoms: C19_21  and  O3_22 
REMARK    3  A    between atoms: C19_21  and  C20_23 
REMARK    4  A    between atoms: C20_23  and  C21_25 
REMARK    5  A    between atoms: C21_25  and  O5_26 
REMARK    6  A    between atoms: O5_26  and  C22_27 
REMARK    7  A    between atoms: C22_27  and  C23_29 
REMARK    8  A    between atoms: C23_29  and  C24_30 
REMARK    9  A    between atoms: C24_30  and  C25_31 
REMARK       I    between atoms: C25_31  and  N1_33 
REMARK   10  A    between atoms: N1_33  and  C26_34 
REMARK   11  A    between atoms: C26_34  and  C27_35 
REMARK   12  A    between atoms: C30_38  and  C31_39 
REMARK   13  A    between atoms: C31_39  and  O9_41 
ROOT
HETATM    1  C1  UNL     1      -3.034   4.291  10.518  1.00  0.00     0.020 C 
HETATM    2  C2  UNL     1      -3.069   3.469  11.830  1.00  0.00    -0.014 C 
HETATM    3  C3  UNL     1      -1.685   3.566  12.524  1.00  0.00     0.022 C 
HETATM    4  C4  UNL     1      -0.556   2.941  11.708  1.00  0.00     0.084 C 
HETATM    5  C5  UNL     1      -0.904   1.559  11.209  1.00  0.00     0.149 C 
HETATM    6  O1  UNL     1      -0.044   0.777  10.804  1.00  0.00    -0.293 OA
HETATM    7  C6  UNL     1      -2.324   1.140  11.191  1.00  0.00     0.053 C 
HETATM    8  C7  UNL     1      -3.320   1.995  11.484  1.00  0.00    -0.068 C 
HETATM    9  C8  UNL     1      -4.740   1.482  11.572  1.00  0.00     0.035 C 
HETATM   10  C9  UNL     1      -5.802   2.544  11.304  1.00  0.00     0.010 C 
HETATM   11  C10 UNL     1      -5.610   3.850  12.106  1.00  0.00    -0.002 C 
HETATM   12  C11 UNL     1      -4.213   3.919  12.807  1.00  0.00     0.031 C 
HETATM   13  C12 UNL     1      -4.008   5.258  13.564  1.00  0.00     0.124 C 
HETATM   14  C13 UNL     1      -5.189   5.591  14.508  1.00  0.00     0.045 C 
HETATM   15  C14 UNL     1      -6.577   5.495  13.833  1.00  0.00     0.001 C 
HETATM   16  C15 UNL     1      -6.750   6.662  12.819  1.00  0.00     0.019 C 
HETATM   17  C16 UNL     1      -6.685   4.090  13.176  1.00  0.00     0.002 C 
HETATM   18  C17 UNL     1      -8.154   3.999  12.786  1.00  0.00     0.009 C 
HETATM   19  C18 UNL     1      -8.900   4.735  13.917  1.00  0.00     0.047 C 
HETATM   20  C19 UNL     1      -7.819   5.440  14.789  1.00  0.00     0.128 C 
ENDROOT
BRANCH  20  21
HETATM   21  O3  UNL     1      -7.571   4.543  15.877  1.00  0.00    -0.381 OA
HETATM   22  H27 UNL     1      -6.898   4.940  16.458  1.00  0.00     0.211 HD
ENDBRANCH  20  21
BRANCH  20  23
HETATM   23  C20 UNL     1      -8.319   6.835  15.266  1.00  0.00     0.185 C 
HETATM   24  O4  UNL     1      -7.768   7.451  16.185  1.00  0.00    -0.292 OA
BRANCH  23  25
HETATM   25  C21 UNL     1      -9.628   7.369  14.680  1.00  0.00     0.260 C 
BRANCH  25  26
HETATM   26  O5  UNL     1     -10.012   8.682  15.079  1.00  0.00    -0.314 OA
BRANCH  26  27
HETATM   27  C22 UNL     1     -11.301   8.776  15.519  1.00  0.00     0.259 C 
HETATM   28  O6  UNL     1     -11.666   9.477  16.449  1.00  0.00    -0.265 OA
BRANCH  27  29
HETATM   29  C23 UNL     1     -12.201   7.909  14.674  1.00  0.00     0.120 C 
BRANCH  29  30
HETATM   30  C24 UNL     1     -13.441   8.688  14.254  1.00  0.00     0.112 C 
BRANCH  30  31
HETATM   31  C25 UNL     1     -14.708   8.001  14.721  1.00  0.00     0.218 C 
HETATM   32  O7  UNL     1     -15.131   8.105  15.867  1.00  0.00    -0.274 OA
HETATM   33  N1  UNL     1     -15.295   7.222  13.753  1.00  0.00    -0.357 N 
HETATM   34  H34 UNL     1     -14.944   7.263  12.806  1.00  0.00     0.162 HD
BRANCH  33  35
HETATM   35  C26 UNL     1     -16.592   6.615  13.945  1.00  0.00     0.161 C 
BRANCH  35  36
HETATM   36  C27 UNL     1     -16.451   5.119  14.078  1.00  0.00    -0.040 A 
HETATM   37  C28 UNL     1     -17.389   4.268  13.473  1.00  0.00     0.010 A 
HETATM   38  C29 UNL     1     -17.261   2.880  13.578  1.00  0.00     0.019 A 
HETATM   39  C30 UNL     1     -16.187   2.325  14.282  1.00  0.00     0.037 A 
HETATM   40  C32 UNL     1     -15.242   3.168  14.879  1.00  0.00     0.019 A 
HETATM   41  C33 UNL     1     -15.374   4.557  14.776  1.00  0.00     0.010 A 
BRANCH  39  42
HETATM   42  C31 UNL     1     -16.094   0.848  14.376  1.00  0.00     0.176 C 
HETATM   43  O8  UNL     1     -16.813   0.124  15.040  1.00  0.00    -0.646 OA
BRANCH  42  44
HETATM   44  O9  UNL     1     -15.097   0.339  13.629  1.00  0.00    -0.773 OA
HETATM   45  H39 UNL     1     -15.160  -0.625  13.793  1.00  0.00     0.167 HD
ENDBRANCH  42  44
ENDBRANCH  39  42
ENDBRANCH  35  36
ENDBRANCH  33  35
ENDBRANCH  30  31
ENDBRANCH  29  30
ENDBRANCH  27  29
ENDBRANCH  26  27
ENDBRANCH  25  26
ENDBRANCH  23  25
ENDBRANCH  20  23
BRANCH  13  46
HETATM   46  O2  UNL     1      -3.784   6.326  12.659  1.00  0.00    -0.395 OA
HETATM   47  H16 UNL     1      -3.541   7.115  13.174  1.00  0.00     0.210 HD
ENDBRANCH  13  46
TORSDOF 13
ENDMDL
MODEL 6
REMARK minimizedAffinity -7.91625214
REMARK CNNscore 0.335079014
REMARK CNNaffinity 6.0166173
REMARK  13 active torsions:
REMARK  status: ('A' for Active; 'I' for Inactive)
REMARK    1  A    between atoms: C12_13  and  O2_14 
REMARK    2  A    between atoms: C19_21  and  O3_22 
REMARK    3  A    between atoms: C19_21  and  C20_23 
REMARK    4  A    between atoms: C20_23  and  C21_25 
REMARK    5  A    between atoms: C21_25  and  O5_26 
REMARK    6  A    between atoms: O5_26  and  C22_27 
REMARK    7  A    between atoms: C22_27  and  C23_29 
REMARK    8  A    between atoms: C23_29  and  C24_30 
REMARK    9  A    between atoms: C24_30  and  C25_31 
REMARK       I    between atoms: C25_31  and  N1_33 
REMARK   10  A    between atoms: N1_33  and  C26_34 
REMARK   11  A    between atoms: C26_34  and  C27_35 
REMARK   12  A    between atoms: C30_38  and  C31_39 
REMARK   13  A    between atoms: C31_39  and  O9_41 
ROOT
HETATM    1  C1  UNL     1       1.433   6.216  10.619  1.00  0.00     0.020 C 
HETATM    2  C2  UNL     1       1.681   7.723  10.364  1.00  0.00    -0.014 C 
HETATM    3  C3  UNL     1       0.506   8.294   9.529  1.00  0.00     0.022 C 
HETATM    4  C4  UNL     1       0.399   7.680   8.136  1.00  0.00     0.084 C 
HETATM    5  C5  UNL     1       1.724   7.666   7.411  1.00  0.00     0.149 C 
HETATM    6  O1  UNL     1       1.798   7.500   6.193  1.00  0.00    -0.293 OA
HETATM    7  C6  UNL     1       2.970   7.839   8.192  1.00  0.00     0.053 C 
HETATM    8  C7  UNL     1       2.965   7.879   9.536  1.00  0.00    -0.068 C 
HETATM    9  C8  UNL     1       4.249   8.183  10.277  1.00  0.00     0.035 C 
HETATM   10  C9  UNL     1       4.292   7.629  11.697  1.00  0.00     0.010 C 
HETATM   11  C10 UNL     1       3.044   7.959  12.546  1.00  0.00    -0.002 C 
HETATM   12  C11 UNL     1       1.877   8.547  11.686  1.00  0.00     0.031 C 
HETATM   13  C12 UNL     1       0.610   8.823  12.537  1.00  0.00     0.124 C 
HETATM   14  C13 UNL     1       0.920   9.656  13.806  1.00  0.00     0.045 C 
HETATM   15  C14 UNL     1       2.094   9.102  14.647  1.00  0.00     0.001 C 
HETATM   16  C15 UNL     1       1.667   7.774  15.335  1.00  0.00     0.019 C 
HETATM   17  C16 UNL     1       3.315   8.936  13.699  1.00  0.00     0.002 C 
HETATM   18  C17 UNL     1       4.465   8.654  14.658  1.00  0.00     0.009 C 
HETATM   19  C18 UNL     1       4.155   9.516  15.898  1.00  0.00     0.047 C 
HETATM   20  C19 UNL     1       2.711  10.072  15.713  1.00  0.00     0.128 C 
ENDROOT
BRANCH  20  21
HETATM   21  O3  UNL     1       2.882  11.381  15.157  1.00  0.00    -0.381 OA
HETATM   22  H27 UNL     1       2.003  11.776  15.022  1.00  0.00     0.211 HD
ENDBRANCH  20  21
BRANCH  20  23
HETATM   23  C20 UNL     1       1.951  10.094  17.072  1.00  0.00     0.185 C 
HETATM   24  O4  UNL     1       2.384   9.519  18.076  1.00  0.00    -0.292 OA
BRANCH  23  25
HETATM   25  C21 UNL     1       0.552  10.712  17.103  1.00  0.00     0.260 C 
BRANCH  25  26
HETATM   26  O5  UNL     1      -0.515   9.846  17.481  1.00  0.00    -0.314 OA
BRANCH  26  27
HETATM   27  C22 UNL     1      -1.532   9.785  16.570  1.00  0.00     0.259 C 
HETATM   28  O6  UNL     1      -1.775   8.815  15.869  1.00  0.00    -0.265 OA
BRANCH  27  29
HETATM   29  C23 UNL     1      -2.314  11.074  16.580  1.00  0.00     0.120 C 
BRANCH  29  30
HETATM   30  C24 UNL     1      -3.320  11.072  17.723  1.00  0.00     0.112 C 
BRANCH  30  31
HETATM   31  C25 UNL     1      -3.636  12.481  18.184  1.00  0.00     0.218 C 
HETATM   32  O7  UNL     1      -3.162  13.473  17.643  1.00  0.00    -0.274 OA
HETATM   33  N1  UNL     1      -4.456  12.524  19.285  1.00  0.00    -0.357 N 
HETATM   34  H34 UNL     1      -4.885  11.669  19.616  1.00  0.00     0.162 HD
BRANCH  33  35
HETATM   35  C26 UNL     1      -5.005  13.765  19.781  1.00  0.00     0.161 C 
BRANCH  35  36
HETATM   36  C27 UNL     1      -6.117  13.487  20.761  1.00  0.00    -0.040 A 
HETATM   37  C28 UNL     1      -5.823  13.292  22.119  1.00  0.00     0.010 A 
HETATM   38  C29 UNL     1      -6.846  13.047  23.040  1.00  0.00     0.019 A 
HETATM   39  C30 UNL     1      -8.179  13.002  22.614  1.00  0.00     0.037 A 
HETATM   40  C32 UNL     1      -8.479  13.207  21.262  1.00  0.00     0.019 A 
HETATM   41  C33 UNL     1      -7.453  13.448  20.342  1.00  0.00     0.010 A 
BRANCH  39  42
HETATM   42  C31 UNL     1      -9.232  12.732  23.622  1.00  0.00     0.176 C 
HETATM   43  O8  UNL     1      -9.608  13.498  24.490  1.00  0.00    -0.646 OA
BRANCH  42  44
HETATM   44  O9  UNL     1      -9.771  11.505  23.497  1.00  0.00    -0.773 OA
HETATM   45  H39 UNL     1     -10.435  11.475  24.218  1.00  0.00     0.167 HD
ENDBRANCH  42  44
ENDBRANCH  39  42
ENDBRANCH  35  36
ENDBRANCH  33  35
ENDBRANCH  30  31
ENDBRANCH  29  30
ENDBRANCH  27  29
ENDBRANCH  26  27
ENDBRANCH  25  26
ENDBRANCH  23  25
ENDBRANCH  20  23
BRANCH  13  46
HETATM   46  O2  UNL     1      -0.043   7.616  12.889  1.00  0.00    -0.395 OA
HETATM   47  H16 UNL     1      -0.890   7.840  13.312  1.00  0.00     0.210 HD
ENDBRANCH  13  46
TORSDOF 13
ENDMDL
MODEL 7
REMARK minimizedAffinity -8.55863571
REMARK CNNscore 0.31563881
REMARK CNNaffinity 6.28332472
REMARK  13 active torsions:
REMARK  status: ('A' for Active; 'I' for Inactive)
REMARK    1  A    between atoms: C12_13  and  O2_14 
REMARK    2  A    between atoms: C19_21  and  O3_22 
REMARK    3  A    between atoms: C19_21  and  C20_23 
REMARK    4  A    between atoms: C20_23  and  C21_25 
REMARK    5  A    between atoms: C21_25  and  O5_26 
REMARK    6  A    between atoms: O5_26  and  C22_27 
REMARK    7  A    between atoms: C22_27  and  C23_29 
REMARK    8  A    between atoms: C23_29  and  C24_30 
REMARK    9  A    between atoms: C24_30  and  C25_31 
REMARK       I    between atoms: C25_31  and  N1_33 
REMARK   10  A    between atoms: N1_33  and  C26_34 
REMARK   11  A    between atoms: C26_34  and  C27_35 
REMARK   12  A    between atoms: C30_38  and  C31_39 
REMARK   13  A    between atoms: C31_39  and  O9_41 
ROOT
HETATM    1  C1  UNL     1       1.099   6.175  10.502  1.00  0.00     0.020 C 
HETATM    2  C2  UNL     1       1.612   7.603  10.195  1.00  0.00    -0.014 C 
HETATM    3  C3  UNL     1       0.504   8.388   9.445  1.00  0.00     0.022 C 
HETATM    4  C4  UNL     1       0.166   7.798   8.078  1.00  0.00     0.084 C 
HETATM    5  C5  UNL     1       1.398   7.522   7.251  1.00  0.00     0.149 C 
HETATM    6  O1  UNL     1       1.338   7.339   6.035  1.00  0.00    -0.293 OA
HETATM    7  C6  UNL     1       2.715   7.454   7.925  1.00  0.00     0.053 C 
HETATM    8  C7  UNL     1       2.829   7.502   9.265  1.00  0.00    -0.068 C 
HETATM    9  C8  UNL     1       4.203   7.555   9.894  1.00  0.00     0.035 C 
HETATM   10  C9  UNL     1       4.256   7.011  11.318  1.00  0.00     0.010 C 
HETATM   11  C10 UNL     1       3.170   7.583  12.256  1.00  0.00    -0.002 C 
HETATM   12  C11 UNL     1       2.071   8.381  11.479  1.00  0.00     0.031 C 
HETATM   13  C12 UNL     1       0.956   8.904  12.423  1.00  0.00     0.124 C 
HETATM   14  C13 UNL     1       1.525   9.667  13.645  1.00  0.00     0.045 C 
HETATM   15  C14 UNL     1       2.635   8.901  14.401  1.00  0.00     0.001 C 
HETATM   16  C15 UNL     1       2.017   7.685  15.150  1.00  0.00     0.019 C 
HETATM   17  C16 UNL     1       3.719   8.496  13.363  1.00  0.00     0.002 C 
HETATM   18  C17 UNL     1       4.867   8.000  14.233  1.00  0.00     0.009 C 
HETATM   19  C18 UNL     1       4.833   8.913  15.474  1.00  0.00     0.047 C 
HETATM   20  C19 UNL     1       3.514   9.738  15.393  1.00  0.00     0.128 C 
ENDROOT
BRANCH  20  21
HETATM   21  O3  UNL     1       3.888  10.986  14.797  1.00  0.00    -0.381 OA
HETATM   22  H27 UNL     1       3.093  11.544  14.724  1.00  0.00     0.211 HD
ENDBRANCH  20  21
BRANCH  20  23
HETATM   23  C20 UNL     1       2.887   9.916  16.808  1.00  0.00     0.185 C 
HETATM   24  O4  UNL     1       2.305   8.993  17.388  1.00  0.00    -0.292 OA
BRANCH  23  25
HETATM   25  C21 UNL     1       2.857  11.322  17.409  1.00  0.00     0.260 C 
BRANCH  25  26
HETATM   26  O5  UNL     1       1.574  11.837  17.755  1.00  0.00    -0.314 OA
BRANCH  26  27
HETATM   27  C22 UNL     1       1.483  12.288  19.041  1.00  0.00     0.259 C 
HETATM   28  O6  UNL     1       1.514  13.465  19.365  1.00  0.00    -0.265 OA
BRANCH  27  29
HETATM   29  C23 UNL     1       1.314  11.126  19.987  1.00  0.00     0.120 C 
BRANCH  29  30
HETATM   30  C24 UNL     1       1.899  11.468  21.351  1.00  0.00     0.112 C 
BRANCH  30  31
HETATM   31  C25 UNL     1       3.257  10.823  21.547  1.00  0.00     0.218 C 
HETATM   32  O7  UNL     1       3.738  10.040  20.736  1.00  0.00    -0.274 OA
HETATM   33  N1  UNL     1       3.856  11.165  22.735  1.00  0.00    -0.357 N 
HETATM   34  H34 UNL     1       3.443  11.890  23.306  1.00  0.00     0.162 HD
BRANCH  33  35
HETATM   35  C26 UNL     1       5.218  10.788  23.039  1.00  0.00     0.161 C 
BRANCH  35  36
HETATM   36  C27 UNL     1       6.103  12.009  23.060  1.00  0.00    -0.040 A 
HETATM   37  C28 UNL     1       7.499  11.864  23.092  1.00  0.00     0.010 A 
HETATM   38  C29 UNL     1       8.330  12.987  23.097  1.00  0.00     0.019 A 
HETATM   39  C30 UNL     1       7.776  14.272  23.063  1.00  0.00     0.037 A 
HETATM   40  C32 UNL     1       6.384  14.423  23.020  1.00  0.00     0.019 A 
HETATM   41  C33 UNL     1       5.554  13.297  23.019  1.00  0.00     0.010 A 
BRANCH  39  42
HETATM   42  C31 UNL     1       8.694  15.436  23.078  1.00  0.00     0.176 C 
HETATM   43  O8  UNL     1       9.740  15.534  22.462  1.00  0.00    -0.646 OA
BRANCH  42  44
HETATM   44  O9  UNL     1       8.259  16.433  23.870  1.00  0.00    -0.773 OA
HETATM   45  H39 UNL     1       8.957  17.116  23.779  1.00  0.00     0.167 HD
ENDBRANCH  42  44
ENDBRANCH  39  42
ENDBRANCH  35  36
ENDBRANCH  33  35
ENDBRANCH  30  31
ENDBRANCH  29  30
ENDBRANCH  27  29
ENDBRANCH  26  27
ENDBRANCH  25  26
ENDBRANCH  23  25
ENDBRANCH  20  23
BRANCH  13  46
HETATM   46  O2  UNL     1       0.113   7.848  12.852  1.00  0.00    -0.395 OA
HETATM   47  H16 UNL     1      -0.636   8.235  13.337  1.00  0.00     0.210 HD
ENDBRANCH  13  46
TORSDOF 13
ENDMDL
MODEL 8
REMARK minimizedAffinity -9.13544559
REMARK CNNscore 0.312652767
REMARK CNNaffinity 6.66442919
REMARK  13 active torsions:
REMARK  status: ('A' for Active; 'I' for Inactive)
REMARK    1  A    between atoms: C12_13  and  O2_14 
REMARK    2  A    between atoms: C19_21  and  O3_22 
REMARK    3  A    between atoms: C19_21  and  C20_23 
REMARK    4  A    between atoms: C20_23  and  C21_25 
REMARK    5  A    between atoms: C21_25  and  O5_26 
REMARK    6  A    between atoms: O5_26  and  C22_27 
REMARK    7  A    between atoms: C22_27  and  C23_29 
REMARK    8  A    between atoms: C23_29  and  C24_30 
REMARK    9  A    between atoms: C24_30  and  C25_31 
REMARK       I    between atoms: C25_31  and  N1_33 
REMARK   10  A    between atoms: N1_33  and  C26_34 
REMARK   11  A    between atoms: C26_34  and  C27_35 
REMARK   12  A    between atoms: C30_38  and  C31_39 
REMARK   13  A    between atoms: C31_39  and  O9_41 
ROOT
HETATM    1  C1  UNL     1      -6.290   5.870  15.832  1.00  0.00     0.020 C 
HETATM    2  C2  UNL     1      -6.327   6.640  14.489  1.00  0.00    -0.014 C 
HETATM    3  C3  UNL     1      -7.107   7.965  14.688  1.00  0.00     0.022 C 
HETATM    4  C4  UNL     1      -8.575   7.753  15.052  1.00  0.00     0.084 C 
HETATM    5  C5  UNL     1      -9.257   6.764  14.138  1.00  0.00     0.149 C 
HETATM    6  O1  UNL     1     -10.483   6.683  14.066  1.00  0.00    -0.293 OA
HETATM    7  C6  UNL     1      -8.425   5.855  13.317  1.00  0.00     0.053 C 
HETATM    8  C7  UNL     1      -7.089   5.796  13.457  1.00  0.00    -0.068 C 
HETATM    9  C8  UNL     1      -6.278   4.942  12.508  1.00  0.00     0.035 C 
HETATM   10  C9  UNL     1      -4.946   4.468  13.082  1.00  0.00     0.010 C 
HETATM   11  C10 UNL     1      -4.096   5.587  13.721  1.00  0.00    -0.002 C 
HETATM   12  C11 UNL     1      -4.899   6.918  13.899  1.00  0.00     0.031 C 
HETATM   13  C12 UNL     1      -4.053   8.019  14.593  1.00  0.00     0.124 C 
HETATM   14  C13 UNL     1      -2.674   8.217  13.918  1.00  0.00     0.045 C 
HETATM   15  C14 UNL     1      -1.885   6.904  13.707  1.00  0.00     0.001 C 
HETATM   16  C15 UNL     1      -1.399   6.357  15.080  1.00  0.00     0.019 C 
HETATM   17  C16 UNL     1      -2.811   5.915  12.946  1.00  0.00     0.002 C 
HETATM   18  C17 UNL     1      -1.869   4.783  12.557  1.00  0.00     0.009 C 
HETATM   19  C18 UNL     1      -0.531   5.483  12.247  1.00  0.00     0.047 C 
HETATM   20  C19 UNL     1      -0.678   6.964  12.708  1.00  0.00     0.128 C 
ENDROOT
BRANCH  20  21
HETATM   21  O3  UNL     1      -1.043   7.690  11.528  1.00  0.00    -0.381 OA
HETATM   22  H27 UNL     1      -1.146   8.629  11.762  1.00  0.00     0.211 HD
ENDBRANCH  20  21
BRANCH  20  23
HETATM   23  C20 UNL     1       0.649   7.479  13.340  1.00  0.00     0.185 C 
HETATM   24  O4  UNL     1       1.540   6.709  13.712  1.00  0.00    -0.292 OA
BRANCH  23  25
HETATM   25  C21 UNL     1       0.766   8.973  13.648  1.00  0.00     0.260 C 
BRANCH  25  26
HETATM   26  O5  UNL     1       2.080   9.524  13.625  1.00  0.00    -0.314 OA
BRANCH  26  27
HETATM   27  C22 UNL     1       2.322  10.430  14.618  1.00  0.00     0.259 C 
HETATM   28  O6  UNL     1       2.166  11.636  14.507  1.00  0.00    -0.265 OA
BRANCH  27  29
HETATM   29  C23 UNL     1       2.782   9.720  15.866  1.00  0.00     0.120 C 
BRANCH  29  30
HETATM   30  C24 UNL     1       3.592  10.666  16.743  1.00  0.00     0.112 C 
BRANCH  30  31
HETATM   31  C25 UNL     1       3.058  10.697  18.161  1.00  0.00     0.218 C 
HETATM   32  O7  UNL     1       2.188   9.930  18.555  1.00  0.00    -0.274 OA
HETATM   33  N1  UNL     1       3.610  11.694  18.929  1.00  0.00    -0.357 N 
HETATM   34  H34 UNL     1       4.390  12.225  18.565  1.00  0.00     0.162 HD
BRANCH  33  35
HETATM   35  C26 UNL     1       3.357  11.793  20.348  1.00  0.00     0.161 C 
BRANCH  35  36
HETATM   36  C27 UNL     1       4.656  11.955  21.097  1.00  0.00    -0.040 A 
HETATM   37  C28 UNL     1       5.810  12.377  20.419  1.00  0.00     0.010 A 
HETATM   38  C29 UNL     1       7.017  12.545  21.104  1.00  0.00     0.019 A 
HETATM   39  C30 UNL     1       7.083  12.300  22.480  1.00  0.00     0.037 A 
HETATM   40  C32 UNL     1       5.932  11.888  23.165  1.00  0.00     0.019 A 
HETATM   41  C33 UNL     1       4.727  11.718  22.476  1.00  0.00     0.010 A 
BRANCH  39  42
HETATM   42  C31 UNL     1       8.384  12.481  23.167  1.00  0.00     0.176 C 
HETATM   43  O8  UNL     1       8.838  13.534  23.578  1.00  0.00    -0.646 OA
BRANCH  42  44
HETATM   44  O9  UNL     1       9.064  11.329  23.310  1.00  0.00    -0.773 OA
HETATM   45  H39 UNL     1       9.885  11.606  23.769  1.00  0.00     0.167 HD
ENDBRANCH  42  44
ENDBRANCH  39  42
ENDBRANCH  35  36
ENDBRANCH  33  35
ENDBRANCH  30  31
ENDBRANCH  29  30
ENDBRANCH  27  29
ENDBRANCH  26  27
ENDBRANCH  25  26
ENDBRANCH  23  25
ENDBRANCH  20  23
BRANCH  13  46
HETATM   46  O2  UNL     1      -3.891   7.745  15.973  1.00  0.00    -0.395 OA
HETATM   47  H16 UNL     1      -3.464   8.514  16.388  1.00  0.00     0.210 HD
ENDBRANCH  13  46
TORSDOF 13
ENDMDL
MODEL 9
REMARK minimizedAffinity -7.95005751
REMARK CNNscore 0.284999549
REMARK CNNaffinity 6.236269
REMARK  13 active torsions:
REMARK  status: ('A' for Active; 'I' for Inactive)
REMARK    1  A    between atoms: C12_13  and  O2_14 
REMARK    2  A    between atoms: C19_21  and  O3_22 
REMARK    3  A    between atoms: C19_21  and  C20_23 
REMARK    4  A    between atoms: C20_23  and  C21_25 
REMARK    5  A    between atoms: C21_25  and  O5_26 
REMARK    6  A    between atoms: O5_26  and  C22_27 
REMARK    7  A    between atoms: C22_27  and  C23_29 
REMARK    8  A    between atoms: C23_29  and  C24_30 
REMARK    9  A    between atoms: C24_30  and  C25_31 
REMARK       I    between atoms: C25_31  and  N1_33 
REMARK   10  A    between atoms: N1_33  and  C26_34 
REMARK   11  A    between atoms: C26_34  and  C27_35 
REMARK   12  A    between atoms: C30_38  and  C31_39 
REMARK   13  A    between atoms: C31_39  and  O9_41 
ROOT
HETATM    1  C1  UNL     1      -5.944   5.511  15.638  1.00  0.00     0.020 C 
HETATM    2  C2  UNL     1      -5.836   5.974  14.164  1.00  0.00    -0.014 C 
HETATM    3  C3  UNL     1      -7.209   6.532  13.707  1.00  0.00     0.022 C 
HETATM    4  C4  UNL     1      -8.316   5.480  13.701  1.00  0.00     0.084 C 
HETATM    5  C5  UNL     1      -7.898   4.210  12.999  1.00  0.00     0.149 C 
HETATM    6  O1  UNL     1      -8.720   3.375  12.623  1.00  0.00    -0.293 OA
HETATM    7  C6  UNL     1      -6.458   3.956  12.774  1.00  0.00     0.053 C 
HETATM    8  C7  UNL     1      -5.507   4.757  13.287  1.00  0.00    -0.068 C 
HETATM    9  C8  UNL     1      -4.058   4.522  12.922  1.00  0.00     0.035 C 
HETATM   10  C9  UNL     1      -3.065   5.034  13.960  1.00  0.00     0.010 C 
HETATM   11  C10 UNL     1      -3.316   6.488  14.417  1.00  0.00    -0.002 C 
HETATM   12  C11 UNL     1      -4.700   7.034  13.933  1.00  0.00     0.031 C 
HETATM   13  C12 UNL     1      -4.967   8.474  14.443  1.00  0.00     0.124 C 
HETATM   14  C13 UNL     1      -3.789   9.435  14.147  1.00  0.00     0.045 C 
HETATM   15  C14 UNL     1      -2.411   8.891  14.592  1.00  0.00     0.001 C 
HETATM   16  C15 UNL     1      -2.325   8.885  16.145  1.00  0.00     0.019 C 
HETATM   17  C16 UNL     1      -2.236   7.481  13.962  1.00  0.00     0.002 C 
HETATM   18  C17 UNL     1      -0.771   7.158  14.230  1.00  0.00     0.009 C 
HETATM   19  C18 UNL     1      -0.047   8.512  14.093  1.00  0.00     0.047 C 
HETATM   20  C19 UNL     1      -1.150   9.609  13.999  1.00  0.00     0.128 C 
ENDROOT
BRANCH  20  21
HETATM   21  O3  UNL     1      -1.324   9.845  12.597  1.00  0.00    -0.381 OA
HETATM   22  H27 UNL     1      -2.007  10.529  12.481  1.00  0.00     0.211 HD
ENDBRANCH  20  21
BRANCH  20  23
HETATM   23  C20 UNL     1      -0.721  10.890  14.772  1.00  0.00     0.185 C 
HETATM   24  O4  UNL     1       0.230  10.893  15.560  1.00  0.00    -0.292 OA
BRANCH  23  25
HETATM   25  C21 UNL     1      -1.615  12.127  14.665  1.00  0.00     0.260 C 
BRANCH  25  26
HETATM   26  O5  UNL     1      -1.182  13.285  15.374  1.00  0.00    -0.314 OA
BRANCH  26  27
HETATM   27  C22 UNL     1      -1.802  13.464  16.579  1.00  0.00     0.259 C 
HETATM   28  O6  UNL     1      -3.004  13.355  16.761  1.00  0.00    -0.265 OA
BRANCH  27  29
HETATM   29  C23 UNL     1      -0.783  13.791  17.642  1.00  0.00     0.120 C 
BRANCH  29  30
HETATM   30  C24 UNL     1      -1.228  13.233  18.987  1.00  0.00     0.112 C 
BRANCH  30  31
HETATM   31  C25 UNL     1      -0.623  11.868  19.246  1.00  0.00     0.218 C 
HETATM   32  O7  UNL     1      -1.081  10.840  18.759  1.00  0.00    -0.274 OA
HETATM   33  N1  UNL     1       0.445  11.899  20.109  1.00  0.00    -0.357 N 
HETATM   34  H34 UNL     1       0.825  12.793  20.393  1.00  0.00     0.162 HD
BRANCH  33  35
HETATM   35  C26 UNL     1       1.260  10.733  20.359  1.00  0.00     0.161 C 
BRANCH  35  36
HETATM   36  C27 UNL     1       2.699  11.019  20.008  1.00  0.00    -0.040 A 
HETATM   37  C28 UNL     1       3.038  11.416  18.705  1.00  0.00     0.010 A 
HETATM   38  C29 UNL     1       4.366  11.697  18.370  1.00  0.00     0.019 A 
HETATM   39  C30 UNL     1       5.371  11.593  19.338  1.00  0.00     0.037 A 
HETATM   40  C32 UNL     1       5.037  11.208  20.642  1.00  0.00     0.019 A 
HETATM   41  C33 UNL     1       3.709  10.923  20.974  1.00  0.00     0.010 A 
BRANCH  39  42
HETATM   42  C31 UNL     1       6.767  11.893  18.939  1.00  0.00     0.176 C 
HETATM   43  O8  UNL     1       7.753  11.239  19.228  1.00  0.00    -0.646 OA
BRANCH  42  44
HETATM   44  O9  UNL     1       6.869  13.007  18.191  1.00  0.00    -0.773 OA
HETATM   45  H39 UNL     1       7.831  13.072  18.011  1.00  0.00     0.167 HD
ENDBRANCH  42  44
ENDBRANCH  39  42
ENDBRANCH  35  36
ENDBRANCH  33  35
ENDBRANCH  30  31
ENDBRANCH  29  30
ENDBRANCH  27  29
ENDBRANCH  26  27
ENDBRANCH  25  26
ENDBRANCH  23  25
ENDBRANCH  20  23
BRANCH  13  46
HETATM   46  O2  UNL     1      -5.270   8.478  15.828  1.00  0.00    -0.395 OA
HETATM   47  H16 UNL     1      -5.548   9.377  16.076  1.00  0.00     0.210 HD
ENDBRANCH  13  46
TORSDOF 13
ENDMDL
