MODEL 1
REMARK minimizedAffinity -8.79048061
REMARK CNNscore 0.535832465
REMARK CNNaffinity 7.14695549
REMARK  5 active torsions:
REMARK  status: ('A' for Active; 'I' for Inactive)
REMARK    1  A    between atoms: C2_2  and  C3_3 
REMARK    2  A    between atoms: C6_6  and  C7_7 
REMARK    3  A    between atoms: C7_7  and  O1_9 
REMARK    4  A    between atoms: C14_17  and  O4_18 
REMARK    5  A    between atoms: C23_30  and  O6_31 
ROOT
HETATM    1  C3  UNL     1      -7.687   4.380  13.193  1.00  0.00     0.008 C 
HETATM    2  C4  UNL     1      -7.032   5.577  13.835  1.00  0.00    -0.023 C 
HETATM    3  C5  UNL     1      -6.829   5.700  15.157  1.00  0.00     0.004 C 
HETATM    4  C6  UNL     1      -6.044   6.805  15.829  1.00  0.00     0.182 C 
HETATM    5  O2  UNL     1      -5.143   7.427  14.890  1.00  0.00    -0.308 OA
HETATM    6  C9  UNL     1      -3.977   6.754  14.656  1.00  0.00     0.276 C 
HETATM    7  O3  UNL     1      -3.686   5.671  15.159  1.00  0.00    -0.264 OA
HETATM    8  C10 UNL     1      -2.983   7.598  13.806  1.00  0.00     0.095 C 
HETATM    9  C11 UNL     1      -3.679   8.575  12.844  1.00  0.00     0.036 C 
HETATM   10  C12 UNL     1      -2.322   8.422  14.906  1.00  0.00     0.002 C 
HETATM   11  C13 UNL     1      -1.042   8.743  15.105  1.00  0.00     0.053 C 
HETATM   12  C14 UNL     1       0.006   8.396  14.164  1.00  0.00     0.140 C 
HETATM   13  N1  UNL     1       0.154   7.524  13.257  1.00  0.00    -0.333 N 
ATOM     14  H1  UNL     1       1.023   7.544  12.724  1.00  0.00     0.168 HD
HETATM   15  C15 UNL     1      -0.761   6.554  12.934  1.00  0.00     0.097 C 
HETATM   16  C16 UNL     1      -2.103   6.586  13.053  1.00  0.00     0.045 C 
HETATM   17  C17 UNL     1      -2.890   5.525  12.318  1.00  0.00     0.194 C 
HETATM   18  O5  UNL     1      -4.030   5.758  11.938  1.00  0.00    -0.287 OA
HETATM   19  C18 UNL     1      -2.281   4.216  12.031  1.00  0.00     0.046 A 
HETATM   20  C19 UNL     1      -0.892   4.151  12.047  1.00  0.00     0.032 A 
HETATM   21  C20 UNL     1      -0.215   2.956  11.749  1.00  0.00     0.026 A 
HETATM   22  C21 UNL     1      -0.920   1.807  11.392  1.00  0.00    -0.027 A 
HETATM   23  C22 UNL     1      -0.186   0.546  11.033  1.00  0.00     0.051 C 
HETATM   24  C23 UNL     1      -2.311   1.890  11.301  1.00  0.00     0.086 A 
HETATM   25  C24 UNL     1      -3.007   3.072  11.644  1.00  0.00     0.059 A 
HETATM   26  C25 UNL     1      -4.481   3.008  11.475  1.00  0.00     0.163 C 
HETATM   27  O7  UNL     1      -4.890   2.540  10.408  1.00  0.00    -0.292 OA
HETATM   28  C26 UNL     1      -5.408   3.295  12.637  1.00  0.00     0.084 C 
HETATM   29  C27 UNL     1      -6.752   3.815  12.105  1.00  0.00     0.016 C 
HETATM   30  C28 UNL     1      -0.096   5.359  12.294  1.00  0.00     0.210 C 
HETATM   31  O8  UNL     1       1.099   5.351  12.008  1.00  0.00    -0.285 OA
ENDROOT
BRANCH   4  32
HETATM   32  C7  UNL     1      -6.997   7.877  16.413  1.00  0.00     0.147 C 
HETATM   33  C8  UNL     1      -8.355   7.291  16.790  1.00  0.00     0.042 C 
BRANCH  32  34
HETATM   34  O1  UNL     1      -7.217   8.917  15.453  1.00  0.00    -0.393 OA
HETATM   35  H14 UNL     1      -7.700   9.631  15.904  1.00  0.00     0.210 HD
ENDBRANCH  32  34
ENDBRANCH   4  32
BRANCH   1  36
HETATM   36  C2  UNL     1      -9.046   4.754  12.572  1.00  0.00     0.004 C 
HETATM   37  C1  UNL     1      -8.954   5.883  11.553  1.00  0.00     0.006 C 
ENDBRANCH   1  36
BRANCH  12  38
HETATM   38  O4  UNL     1       1.040   9.232  14.351  1.00  0.00    -0.346 OA
HETATM   39  H20 UNL     1       1.732   8.968  13.720  1.00  0.00     0.219 HD
ENDBRANCH  12  38
BRANCH  24  40
HETATM   40  O6  UNL     1      -2.967   0.774  10.837  1.00  0.00    -0.359 OA
HETATM   41  H25 UNL     1      -3.813   1.064  10.428  1.00  0.00     0.217 HD
ENDBRANCH  24  40
TORSDOF 5
ENDMDL
MODEL 2
REMARK minimizedAffinity -7.06325531
REMARK CNNscore 0.343106747
REMARK CNNaffinity 5.22573423
REMARK  5 active torsions:
REMARK  status: ('A' for Active; 'I' for Inactive)
REMARK    1  A    between atoms: C2_2  and  C3_3 
REMARK    2  A    between atoms: C6_6  and  C7_7 
REMARK    3  A    between atoms: C7_7  and  O1_9 
REMARK    4  A    between atoms: C14_17  and  O4_18 
REMARK    5  A    between atoms: C23_30  and  O6_31 
ROOT
HETATM    1  C3  UNL     1     -16.429  -7.085  17.733  1.00  0.00     0.008 C 
HETATM    2  C4  UNL     1     -15.806  -7.229  16.367  1.00  0.00    -0.023 C 
HETATM    3  C5  UNL     1     -16.420  -7.806  15.321  1.00  0.00     0.004 C 
HETATM    4  C6  UNL     1     -15.899  -7.837  13.901  1.00  0.00     0.182 C 
HETATM    5  O2  UNL     1     -14.937  -6.783  13.693  1.00  0.00    -0.308 OA
HETATM    6  C9  UNL     1     -15.461  -5.542  13.464  1.00  0.00     0.276 C 
HETATM    7  O3  UNL     1     -16.662  -5.283  13.462  1.00  0.00    -0.264 OA
HETATM    8  C10 UNL     1     -14.365  -4.521  13.040  1.00  0.00     0.095 C 
HETATM    9  C11 UNL     1     -12.980  -4.829  13.633  1.00  0.00     0.036 C 
HETATM   10  C12 UNL     1     -14.301  -4.804  11.542  1.00  0.00     0.002 C 
HETATM   11  C13 UNL     1     -14.224  -3.972  10.501  1.00  0.00     0.053 C 
HETATM   12  C14 UNL     1     -14.089  -2.537  10.655  1.00  0.00     0.140 C 
HETATM   13  N1  UNL     1     -14.352  -1.697  11.567  1.00  0.00    -0.333 N 
ATOM     14  H1  UNL     1     -14.111  -0.722  11.390  1.00  0.00     0.168 HD
HETATM   15  C15 UNL     1     -14.935  -1.993  12.772  1.00  0.00     0.097 C 
HETATM   16  C16 UNL     1     -14.879  -3.139  13.479  1.00  0.00     0.045 C 
HETATM   17  C17 UNL     1     -15.329  -3.089  14.921  1.00  0.00     0.194 C 
HETATM   18  O5  UNL     1     -14.852  -3.861  15.741  1.00  0.00    -0.287 OA
HETATM   19  C18 UNL     1     -16.323  -2.092  15.352  1.00  0.00     0.046 A 
HETATM   20  C19 UNL     1     -16.483  -0.971  14.545  1.00  0.00     0.032 A 
HETATM   21  C20 UNL     1     -17.379   0.054  14.890  1.00  0.00     0.026 A 
HETATM   22  C21 UNL     1     -18.110  -0.007  16.077  1.00  0.00    -0.027 A 
HETATM   23  C22 UNL     1     -19.033   1.114  16.459  1.00  0.00     0.051 C 
HETATM   24  C23 UNL     1     -17.895  -1.095  16.926  1.00  0.00     0.086 A 
HETATM   25  C24 UNL     1     -17.032  -2.156  16.568  1.00  0.00     0.059 A 
HETATM   26  C25 UNL     1     -16.895  -3.227  17.587  1.00  0.00     0.163 C 
HETATM   27  O7  UNL     1     -16.694  -2.858  18.747  1.00  0.00    -0.292 OA
HETATM   28  C26 UNL     1     -17.207  -4.669  17.243  1.00  0.00     0.084 C 
HETATM   29  C27 UNL     1     -16.392  -5.602  18.152  1.00  0.00     0.016 C 
HETATM   30  C28 UNL     1     -15.649  -0.794  13.349  1.00  0.00     0.210 C 
HETATM   31  O8  UNL     1     -15.586   0.317  12.829  1.00  0.00    -0.285 OA
ENDROOT
BRANCH   4  32
HETATM   32  C7  UNL     1     -15.240  -9.203  13.589  1.00  0.00     0.147 C 
HETATM   33  C8  UNL     1     -15.997 -10.363  14.228  1.00  0.00     0.042 C 
BRANCH  32  34
HETATM   34  O1  UNL     1     -13.897  -9.227  14.085  1.00  0.00    -0.393 OA
HETATM   35  H14 UNL     1     -13.477 -10.037  13.748  1.00  0.00     0.210 HD
ENDBRANCH  32  34
ENDBRANCH   4  32
BRANCH   1  36
HETATM   36  C2  UNL     1     -15.689  -7.942  18.777  1.00  0.00     0.004 C 
HETATM   37  C1  UNL     1     -16.422  -8.036  20.110  1.00  0.00     0.006 C 
ENDBRANCH   1  36
BRANCH  12  38
HETATM   38  O4  UNL     1     -13.554  -2.037   9.530  1.00  0.00    -0.346 OA
HETATM   39  H20 UNL     1     -13.489  -1.073   9.654  1.00  0.00     0.219 HD
ENDBRANCH  12  38
BRANCH  24  40
HETATM   40  O6  UNL     1     -18.545  -1.069  18.137  1.00  0.00    -0.359 OA
HETATM   41  H25 UNL     1     -18.024  -1.606  18.776  1.00  0.00     0.217 HD
ENDBRANCH  24  40
TORSDOF 5
ENDMDL
MODEL 3
REMARK minimizedAffinity -10.4620152
REMARK CNNscore 0.316171855
REMARK CNNaffinity 6.38876867
REMARK  5 active torsions:
REMARK  status: ('A' for Active; 'I' for Inactive)
REMARK    1  A    between atoms: C2_2  and  C3_3 
REMARK    2  A    between atoms: C6_6  and  C7_7 
REMARK    3  A    between atoms: C7_7  and  O1_9 
REMARK    4  A    between atoms: C14_17  and  O4_18 
REMARK    5  A    between atoms: C23_30  and  O6_31 
ROOT
HETATM    1  C3  UNL     1      -5.343   6.698  14.825  1.00  0.00     0.008 C 
HETATM    2  C4  UNL     1      -4.138   7.570  15.073  1.00  0.00    -0.023 C 
HETATM    3  C5  UNL     1      -3.449   7.585  16.226  1.00  0.00     0.004 C 
HETATM    4  C6  UNL     1      -2.152   8.324  16.468  1.00  0.00     0.182 C 
HETATM    5  O2  UNL     1      -1.489   8.604  15.218  1.00  0.00    -0.308 OA
HETATM    6  C9  UNL     1      -0.786   7.565  14.677  1.00  0.00     0.276 C 
HETATM    7  O3  UNL     1      -0.722   6.438  15.165  1.00  0.00    -0.264 OA
HETATM    8  C10 UNL     1       0.064   8.017  13.454  1.00  0.00     0.095 C 
HETATM    9  C11 UNL     1      -0.552   9.198  12.685  1.00  0.00     0.036 C 
HETATM   10  C12 UNL     1       1.311   8.528  14.169  1.00  0.00     0.002 C 
HETATM   11  C13 UNL     1       2.605   8.368  13.885  1.00  0.00     0.053 C 
HETATM   12  C14 UNL     1       3.065   7.691  12.688  1.00  0.00     0.140 C 
HETATM   13  N1  UNL     1       2.575   6.842  11.885  1.00  0.00    -0.333 N 
ATOM     14  H1  UNL     1       3.149   6.563  11.090  1.00  0.00     0.168 HD
HETATM   15  C15 UNL     1       1.334   6.269  11.999  1.00  0.00     0.097 C 
HETATM   16  C16 UNL     1       0.218   6.773  12.561  1.00  0.00     0.045 C 
HETATM   17  C17 UNL     1      -1.088   6.078  12.257  1.00  0.00     0.194 C 
HETATM   18  O5  UNL     1      -2.137   6.710  12.263  1.00  0.00    -0.287 OA
HETATM   19  C18 UNL     1      -1.105   4.644  11.924  1.00  0.00     0.046 A 
HETATM   20  C19 UNL     1       0.088   4.088  11.475  1.00  0.00     0.032 A 
HETATM   21  C20 UNL     1       0.166   2.738  11.096  1.00  0.00     0.026 A 
HETATM   22  C21 UNL     1      -0.966   1.923  11.126  1.00  0.00    -0.027 A 
HETATM   23  C22 UNL     1      -0.882   0.491  10.678  1.00  0.00     0.051 C 
HETATM   24  C23 UNL     1      -2.181   2.497  11.504  1.00  0.00     0.086 A 
HETATM   25  C24 UNL     1      -2.264   3.842  11.932  1.00  0.00     0.059 A 
HETATM   26  C25 UNL     1      -3.628   4.310  12.281  1.00  0.00     0.163 C 
HETATM   27  O7  UNL     1      -4.523   4.041  11.474  1.00  0.00    -0.292 OA
HETATM   28  C26 UNL     1      -3.925   4.884  13.651  1.00  0.00     0.084 C 
HETATM   29  C27 UNL     1      -5.108   5.860  13.553  1.00  0.00     0.016 C 
HETATM   30  C28 UNL     1       1.280   4.929  11.304  1.00  0.00     0.210 C 
HETATM   31  O8  UNL     1       2.216   4.502  10.633  1.00  0.00    -0.285 OA
ENDROOT
BRANCH   4  32
HETATM   32  C7  UNL     1      -2.410   9.652  17.221  1.00  0.00     0.147 C 
HETATM   33  C8  UNL     1      -1.121  10.432  17.463  1.00  0.00     0.042 C 
BRANCH  32  34
HETATM   34  O1  UNL     1      -3.010   9.388  18.494  1.00  0.00    -0.393 OA
HETATM   35  H14 UNL     1      -3.283  10.243  18.870  1.00  0.00     0.210 HD
ENDBRANCH  32  34
ENDBRANCH   4  32
BRANCH   1  36
HETATM   36  C2  UNL     1      -6.621   7.544  14.665  1.00  0.00     0.004 C 
HETATM   37  C1  UNL     1      -7.459   7.619  15.936  1.00  0.00     0.006 C 
ENDBRANCH   1  36
BRANCH  12  38
HETATM   38  O4  UNL     1       4.316   8.100  12.422  1.00  0.00    -0.346 OA
HETATM   39  H20 UNL     1       4.605   7.620  11.626  1.00  0.00     0.219 HD
ENDBRANCH  12  38
BRANCH  24  40
HETATM   40  O6  UNL     1      -3.296   1.698  11.414  1.00  0.00    -0.359 OA
HETATM   41  H25 UNL     1      -4.079   2.278  11.287  1.00  0.00     0.217 HD
ENDBRANCH  24  40
TORSDOF 5
ENDMDL
MODEL 4
REMARK minimizedAffinity -10.3425703
REMARK CNNscore 0.299779326
REMARK CNNaffinity 6.15138197
REMARK  5 active torsions:
REMARK  status: ('A' for Active; 'I' for Inactive)
REMARK    1  A    between atoms: C2_2  and  C3_3 
REMARK    2  A    between atoms: C6_6  and  C7_7 
REMARK    3  A    between atoms: C7_7  and  O1_9 
REMARK    4  A    between atoms: C14_17  and  O4_18 
REMARK    5  A    between atoms: C23_30  and  O6_31 
ROOT
HETATM    1  C3  UNL     1      -1.222   3.280  11.031  1.00  0.00     0.008 C 
HETATM    2  C4  UNL     1      -0.537   4.459  11.676  1.00  0.00    -0.023 C 
HETATM    3  C5  UNL     1      -0.120   5.543  11.002  1.00  0.00     0.004 C 
HETATM    4  C6  UNL     1       0.430   6.809  11.622  1.00  0.00     0.182 C 
HETATM    5  O2  UNL     1       0.013   6.920  12.998  1.00  0.00    -0.308 OA
HETATM    6  C9  UNL     1      -1.256   7.387  13.194  1.00  0.00     0.276 C 
HETATM    7  O3  UNL     1      -2.040   7.671  12.291  1.00  0.00    -0.264 OA
HETATM    8  C10 UNL     1      -1.540   7.675  14.697  1.00  0.00     0.095 C 
HETATM    9  C11 UNL     1      -0.744   6.772  15.654  1.00  0.00     0.036 C 
HETATM   10  C12 UNL     1      -0.971   9.086  14.811  1.00  0.00     0.002 C 
HETATM   11  C13 UNL     1      -1.446  10.170  15.427  1.00  0.00     0.053 C 
HETATM   12  C14 UNL     1      -2.650  10.146  16.235  1.00  0.00     0.140 C 
HETATM   13  N1  UNL     1      -3.677   9.406  16.304  1.00  0.00    -0.333 N 
ATOM     14  H1  UNL     1      -4.370   9.632  17.018  1.00  0.00     0.168 HD
HETATM   15  C15 UNL     1      -3.932   8.328  15.497  1.00  0.00     0.097 C 
HETATM   16  C16 UNL     1      -3.057   7.506  14.882  1.00  0.00     0.045 C 
HETATM   17  C17 UNL     1      -3.596   6.206  14.330  1.00  0.00     0.194 C 
HETATM   18  O5  UNL     1      -2.869   5.226  14.248  1.00  0.00    -0.287 OA
HETATM   19  C18 UNL     1      -5.005   6.105  13.914  1.00  0.00     0.046 A 
HETATM   20  C19 UNL     1      -5.885   7.043  14.441  1.00  0.00     0.032 A 
HETATM   21  C20 UNL     1      -7.256   7.008  14.134  1.00  0.00     0.026 A 
HETATM   22  C21 UNL     1      -7.779   6.004  13.319  1.00  0.00    -0.027 A 
HETATM   23  C22 UNL     1      -9.253   5.950  13.032  1.00  0.00     0.051 C 
HETATM   24  C23 UNL     1      -6.909   5.017  12.851  1.00  0.00     0.086 A 
HETATM   25  C24 UNL     1      -5.521   5.067  13.113  1.00  0.00     0.059 A 
HETATM   26  C25 UNL     1      -4.734   3.934  12.564  1.00  0.00     0.163 C 
HETATM   27  O7  UNL     1      -5.188   2.804  12.766  1.00  0.00    -0.292 OA
HETATM   28  C26 UNL     1      -3.570   4.180  11.627  1.00  0.00     0.084 C 
HETATM   29  C27 UNL     1      -2.565   3.024  11.743  1.00  0.00     0.016 C 
HETATM   30  C28 UNL     1      -5.413   8.047  15.402  1.00  0.00     0.210 C 
HETATM   31  O8  UNL     1      -6.238   8.658  16.077  1.00  0.00    -0.285 OA
ENDROOT
BRANCH   4  32
HETATM   32  C7  UNL     1       1.977   6.825  11.551  1.00  0.00     0.147 C 
HETATM   33  C8  UNL     1       2.519   5.758  10.605  1.00  0.00     0.042 C 
BRANCH  32  34
HETATM   34  O1  UNL     1       2.532   6.586  12.849  1.00  0.00    -0.393 OA
HETATM   35  H14 UNL     1       3.490   6.744  12.790  1.00  0.00     0.210 HD
ENDBRANCH  32  34
ENDBRANCH   4  32
BRANCH   1  36
HETATM   36  C2  UNL     1      -0.343   2.017  11.102  1.00  0.00     0.004 C 
HETATM   37  C1  UNL     1      -1.073   0.749  10.674  1.00  0.00     0.006 C 
ENDBRANCH   1  36
BRANCH  12  38
HETATM   38  O4  UNL     1      -2.609  11.179  17.091  1.00  0.00    -0.346 OA
HETATM   39  H20 UNL     1      -3.433  11.148  17.608  1.00  0.00     0.219 HD
ENDBRANCH  12  38
BRANCH  24  40
HETATM   40  O6  UNL     1      -7.475   3.981  12.146  1.00  0.00    -0.359 OA
HETATM   41  H25 UNL     1      -6.895   3.193  12.241  1.00  0.00     0.217 HD
ENDBRANCH  24  40
TORSDOF 5
ENDMDL
MODEL 5
REMARK minimizedAffinity -6.98729992
REMARK CNNscore 0.239597037
REMARK CNNaffinity 5.43706894
REMARK  5 active torsions:
REMARK  status: ('A' for Active; 'I' for Inactive)
REMARK    1  A    between atoms: C2_2  and  C3_3 
REMARK    2  A    between atoms: C6_6  and  C7_7 
REMARK    3  A    between atoms: C7_7  and  O1_9 
REMARK    4  A    between atoms: C14_17  and  O4_18 
REMARK    5  A    between atoms: C23_30  and  O6_31 
ROOT
HETATM    1  C3  UNL     1       0.681  17.859   7.904  1.00  0.00     0.008 C 
HETATM    2  C4  UNL     1       0.548  17.155   6.576  1.00  0.00    -0.023 C 
HETATM    3  C5  UNL     1       0.651  15.826   6.420  1.00  0.00     0.004 C 
HETATM    4  C6  UNL     1       0.376  15.064   5.142  1.00  0.00     0.182 C 
HETATM    5  O2  UNL     1      -0.464  15.840   4.263  1.00  0.00    -0.308 OA
HETATM    6  C9  UNL     1      -1.799  15.819   4.553  1.00  0.00     0.276 C 
HETATM    7  O3  UNL     1      -2.296  15.224   5.508  1.00  0.00    -0.264 OA
HETATM    8  C10 UNL     1      -2.644  16.500   3.437  1.00  0.00     0.095 C 
HETATM    9  C11 UNL     1      -1.890  17.617   2.696  1.00  0.00     0.036 C 
HETATM   10  C12 UNL     1      -2.804  15.329   2.471  1.00  0.00     0.002 C 
HETATM   11  C13 UNL     1      -3.867  14.905   1.785  1.00  0.00     0.053 C 
HETATM   12  C14 UNL     1      -5.133  15.613   1.786  1.00  0.00     0.140 C 
HETATM   13  N1  UNL     1      -5.706  16.438   2.560  1.00  0.00    -0.333 N 
ATOM     14  H1  UNL     1      -6.616  16.797   2.272  1.00  0.00     0.168 HD
HETATM   15  C15 UNL     1      -5.200  16.887   3.753  1.00  0.00     0.097 C 
HETATM   16  C16 UNL     1      -3.913  17.028   4.127  1.00  0.00     0.045 C 
HETATM   17  C17 UNL     1      -3.635  17.853   5.362  1.00  0.00     0.194 C 
HETATM   18  O5  UNL     1      -2.573  18.452   5.474  1.00  0.00    -0.287 OA
HETATM   19  C18 UNL     1      -4.648  17.963   6.424  1.00  0.00     0.046 A 
HETATM   20  C19 UNL     1      -5.963  17.680   6.071  1.00  0.00     0.032 A 
HETATM   21  C20 UNL     1      -7.008  17.793   7.003  1.00  0.00     0.026 A 
HETATM   22  C21 UNL     1      -6.759  18.229   8.304  1.00  0.00    -0.027 A 
HETATM   23  C22 UNL     1      -7.889  18.387   9.281  1.00  0.00     0.051 C 
HETATM   24  C23 UNL     1      -5.451  18.586   8.640  1.00  0.00     0.086 A 
HETATM   25  C24 UNL     1      -4.383  18.432   7.725  1.00  0.00     0.059 A 
HETATM   26  C25 UNL     1      -3.058  18.876   8.225  1.00  0.00     0.163 C 
HETATM   27  O7  UNL     1      -3.021  19.980   8.776  1.00  0.00    -0.292 OA
HETATM   28  C26 UNL     1      -1.879  17.924   8.248  1.00  0.00     0.084 C 
HETATM   29  C27 UNL     1      -0.572  18.724   8.145  1.00  0.00     0.016 C 
HETATM   30  C28 UNL     1      -6.301  17.338   4.684  1.00  0.00     0.210 C 
HETATM   31  O8  UNL     1      -7.476  17.391   4.329  1.00  0.00    -0.285 OA
ENDROOT
BRANCH   4  32
HETATM   32  C7  UNL     1       1.699  14.718   4.414  1.00  0.00     0.147 C 
HETATM   33  C8  UNL     1       1.475  13.769   3.241  1.00  0.00     0.042 C 
BRANCH  32  34
HETATM   34  O1  UNL     1       2.610  14.088   5.322  1.00  0.00    -0.393 OA
HETATM   35  H14 UNL     1       3.468  14.016   4.870  1.00  0.00     0.210 HD
ENDBRANCH  32  34
ENDBRANCH   4  32
BRANCH   1  36
HETATM   36  C2  UNL     1       1.942  18.743   7.943  1.00  0.00     0.004 C 
HETATM   37  C1  UNL     1       3.239  17.943   7.974  1.00  0.00     0.006 C 
ENDBRANCH   1  36
BRANCH  12  38
HETATM   38  O4  UNL     1      -5.815  15.269   0.683  1.00  0.00    -0.346 OA
HETATM   39  H20 UNL     1      -6.663  15.745   0.718  1.00  0.00     0.219 HD
ENDBRANCH  12  38
BRANCH  24  40
HETATM   40  O6  UNL     1      -5.259  19.118   9.892  1.00  0.00    -0.359 OA
HETATM   41  H25 UNL     1      -4.462  19.693   9.862  1.00  0.00     0.217 HD
ENDBRANCH  24  40
TORSDOF 5
ENDMDL
MODEL 6
REMARK minimizedAffinity -7.0403223
REMARK CNNscore 0.236389026
REMARK CNNaffinity 5.53726196
REMARK  5 active torsions:
REMARK  status: ('A' for Active; 'I' for Inactive)
REMARK    1  A    between atoms: C2_2  and  C3_3 
REMARK    2  A    between atoms: C6_6  and  C7_7 
REMARK    3  A    between atoms: C7_7  and  O1_9 
REMARK    4  A    between atoms: C14_17  and  O4_18 
REMARK    5  A    between atoms: C23_30  and  O6_31 
ROOT
HETATM    1  C3  UNL     1      -2.233  15.003   2.663  1.00  0.00     0.008 C 
HETATM    2  C4  UNL     1      -1.012  15.403   3.454  1.00  0.00    -0.023 C 
HETATM    3  C5  UNL     1      -0.388  14.595   4.326  1.00  0.00     0.004 C 
HETATM    4  C6  UNL     1       0.920  14.895   5.023  1.00  0.00     0.182 C 
HETATM    5  O2  UNL     1       1.660  15.899   4.299  1.00  0.00    -0.308 OA
HETATM    6  C9  UNL     1       2.354  15.451   3.211  1.00  0.00     0.276 C 
HETATM    7  O3  UNL     1       2.350  14.288   2.813  1.00  0.00    -0.264 OA
HETATM    8  C10 UNL     1       3.285  16.553   2.625  1.00  0.00     0.095 C 
HETATM    9  C11 UNL     1       2.756  17.980   2.844  1.00  0.00     0.036 C 
HETATM   10  C12 UNL     1       4.509  16.370   3.518  1.00  0.00     0.002 C 
HETATM   11  C13 UNL     1       5.810  16.360   3.221  1.00  0.00     0.053 C 
HETATM   12  C14 UNL     1       6.310  16.635   1.888  1.00  0.00     0.140 C 
HETATM   13  N1  UNL     1       5.834  16.580   0.715  1.00  0.00    -0.333 N 
ATOM     14  H1  UNL     1       6.440  16.872  -0.052  1.00  0.00     0.168 HD
HETATM   15  C15 UNL     1       4.569  16.160   0.393  1.00  0.00     0.097 C 
HETATM   16  C16 UNL     1       3.443  16.225   1.131  1.00  0.00     0.045 C 
HETATM   17  C17 UNL     1       2.130  16.000   0.416  1.00  0.00     0.194 C 
HETATM   18  O5  UNL     1       1.107  16.528   0.830  1.00  0.00    -0.287 OA
HETATM   19  C18 UNL     1       2.080  15.167  -0.797  1.00  0.00     0.046 A 
HETATM   20  C19 UNL     1       3.274  14.983  -1.484  1.00  0.00     0.032 A 
HETATM   21  C20 UNL     1       3.323  14.236  -2.672  1.00  0.00     0.026 A 
HETATM   22  C21 UNL     1       2.163  13.686  -3.218  1.00  0.00    -0.027 A 
HETATM   23  C22 UNL     1       2.219  12.925  -4.512  1.00  0.00     0.051 C 
HETATM   24  C23 UNL     1       0.951  13.933  -2.570  1.00  0.00     0.086 A 
HETATM   25  C24 UNL     1       0.894  14.644  -1.349  1.00  0.00     0.059 A 
HETATM   26  C25 UNL     1      -0.470  14.841  -0.798  1.00  0.00     0.163 C 
HETATM   27  O7  UNL     1      -1.328  15.242  -1.590  1.00  0.00    -0.292 OA
HETATM   28  C26 UNL     1      -0.820  14.364   0.596  1.00  0.00     0.084 C 
HETATM   29  C27 UNL     1      -1.960  15.224   1.163  1.00  0.00     0.016 C 
HETATM   30  C28 UNL     1       4.503  15.641  -1.024  1.00  0.00     0.210 C 
HETATM   31  O8  UNL     1       5.459  15.718  -1.793  1.00  0.00    -0.285 OA
ENDROOT
BRANCH   4  32
HETATM   32  C7  UNL     1       0.670  15.385   6.471  1.00  0.00     0.147 C 
HETATM   33  C8  UNL     1      -0.328  16.538   6.520  1.00  0.00     0.042 C 
BRANCH  32  34
HETATM   34  O1  UNL     1       1.896  15.838   7.056  1.00  0.00    -0.393 OA
HETATM   35  H14 UNL     1       1.724  16.002   8.000  1.00  0.00     0.210 HD
ENDBRANCH  32  34
ENDBRANCH   4  32
BRANCH   1  36
HETATM   36  C2  UNL     1      -3.469  15.816   3.095  1.00  0.00     0.004 C 
HETATM   37  C1  UNL     1      -3.413  17.275   2.660  1.00  0.00     0.006 C 
ENDBRANCH   1  36
BRANCH  12  38
HETATM   38  O4  UNL     1       7.587  17.036   1.987  1.00  0.00    -0.346 OA
HETATM   39  H20 UNL     1       7.902  17.198   1.080  1.00  0.00     0.219 HD
ENDBRANCH  12  38
BRANCH  24  40
HETATM   40  O6  UNL     1      -0.186  13.476  -3.193  1.00  0.00    -0.359 OA
HETATM   41  H25 UNL     1      -0.940  14.039  -2.909  1.00  0.00     0.217 HD
ENDBRANCH  24  40
TORSDOF 5
ENDMDL
MODEL 7
REMARK minimizedAffinity -9.97325611
REMARK CNNscore 0.221859127
REMARK CNNaffinity 6.63596582
REMARK  5 active torsions:
REMARK  status: ('A' for Active; 'I' for Inactive)
REMARK    1  A    between atoms: C2_2  and  C3_3 
REMARK    2  A    between atoms: C6_6  and  C7_7 
REMARK    3  A    between atoms: C7_7  and  O1_9 
REMARK    4  A    between atoms: C14_17  and  O4_18 
REMARK    5  A    between atoms: C23_30  and  O6_31 
ROOT
HETATM    1  C3  UNL     1      -3.027  10.608  16.180  1.00  0.00     0.008 C 
HETATM    2  C4  UNL     1      -3.956   9.465  15.856  1.00  0.00    -0.023 C 
HETATM    3  C5  UNL     1      -5.011   9.569  15.033  1.00  0.00     0.004 C 
HETATM    4  C6  UNL     1      -5.877   8.422  14.560  1.00  0.00     0.182 C 
HETATM    5  O2  UNL     1      -5.172   7.171  14.689  1.00  0.00    -0.308 OA
HETATM    6  C9  UNL     1      -4.277   6.893  13.695  1.00  0.00     0.276 C 
HETATM    7  O3  UNL     1      -4.027   7.642  12.753  1.00  0.00    -0.264 OA
HETATM    8  C10 UNL     1      -3.727   5.440  13.801  1.00  0.00     0.095 C 
HETATM    9  C11 UNL     1      -3.681   4.908  15.243  1.00  0.00     0.036 C 
HETATM   10  C12 UNL     1      -4.827   4.684  13.063  1.00  0.00     0.002 C 
HETATM   11  C13 UNL     1      -4.756   3.699  12.165  1.00  0.00     0.053 C 
HETATM   12  C14 UNL     1      -3.503   3.078  11.783  1.00  0.00     0.140 C 
HETATM   13  N1  UNL     1      -2.281   3.417  11.811  1.00  0.00    -0.333 N 
ATOM     14  H1  UNL     1      -1.598   2.733  11.487  1.00  0.00     0.168 HD
HETATM   15  C15 UNL     1      -1.805   4.628  12.242  1.00  0.00     0.097 C 
HETATM   16  C16 UNL     1      -2.331   5.466  13.157  1.00  0.00     0.045 C 
HETATM   17  C17 UNL     1      -1.438   6.566  13.685  1.00  0.00     0.194 C 
HETATM   18  O5  UNL     1      -1.609   7.007  14.814  1.00  0.00    -0.287 OA
HETATM   19  C18 UNL     1      -0.343   7.095  12.854  1.00  0.00     0.046 A 
HETATM   20  C19 UNL     1       0.107   6.286  11.817  1.00  0.00     0.032 A 
HETATM   21  C20 UNL     1       1.172   6.684  10.992  1.00  0.00     0.026 A 
HETATM   22  C21 UNL     1       1.834   7.892  11.216  1.00  0.00    -0.027 A 
HETATM   23  C22 UNL     1       2.999   8.289  10.355  1.00  0.00     0.051 C 
HETATM   24  C23 UNL     1       1.433   8.671  12.303  1.00  0.00     0.086 A 
HETATM   25  C24 UNL     1       0.333   8.304  13.112  1.00  0.00     0.059 A 
HETATM   26  C25 UNL     1       0.046   9.225  14.240  1.00  0.00     0.163 C 
HETATM   27  O7  UNL     1       1.012   9.567  14.927  1.00  0.00    -0.292 OA
HETATM   28  C26 UNL     1      -1.317   9.869  14.389  1.00  0.00     0.084 C 
HETATM   29  C27 UNL     1      -1.577  10.185  15.869  1.00  0.00     0.016 C 
HETATM   30  C28 UNL     1      -0.470   4.951  11.614  1.00  0.00     0.210 C 
HETATM   31  O8  UNL     1       0.132   4.146  10.907  1.00  0.00    -0.285 OA
ENDROOT
BRANCH   4  32
HETATM   32  C7  UNL     1      -7.193   8.356  15.374  1.00  0.00     0.147 C 
HETATM   33  C8  UNL     1      -7.990   7.091  15.072  1.00  0.00     0.042 C 
BRANCH  32  34
HETATM   34  O1  UNL     1      -8.020   9.483  15.065  1.00  0.00    -0.393 OA
HETATM   35  H14 UNL     1      -8.763   9.479  15.693  1.00  0.00     0.210 HD
ENDBRANCH  32  34
ENDBRANCH   4  32
BRANCH   1  36
HETATM   36  C2  UNL     1      -3.145  11.021  17.660  1.00  0.00     0.004 C 
HETATM   37  C1  UNL     1      -2.612   9.969  18.625  1.00  0.00     0.006 C 
ENDBRANCH   1  36
BRANCH  12  38
HETATM   38  O4  UNL     1      -3.765   1.859  11.285  1.00  0.00    -0.346 OA
HETATM   39  H20 UNL     1      -2.910   1.474  11.023  1.00  0.00     0.219 HD
ENDBRANCH  12  38
BRANCH  24  40
HETATM   40  O6  UNL     1       2.178   9.796  12.564  1.00  0.00    -0.359 OA
HETATM   41  H25 UNL     1       2.093  10.005  13.521  1.00  0.00     0.217 HD
ENDBRANCH  24  40
TORSDOF 5
ENDMDL
MODEL 8
REMARK minimizedAffinity -7.52805901
REMARK CNNscore 0.208056301
REMARK CNNaffinity 5.96099997
REMARK  5 active torsions:
REMARK  status: ('A' for Active; 'I' for Inactive)
REMARK    1  A    between atoms: C2_2  and  C3_3 
REMARK    2  A    between atoms: C6_6  and  C7_7 
REMARK    3  A    between atoms: C7_7  and  O1_9 
REMARK    4  A    between atoms: C14_17  and  O4_18 
REMARK    5  A    between atoms: C23_30  and  O6_31 
ROOT
HETATM    1  C3  UNL     1      -2.903  11.776  17.420  1.00  0.00     0.008 C 
HETATM    2  C4  UNL     1      -3.061  10.545  16.564  1.00  0.00    -0.023 C 
HETATM    3  C5  UNL     1      -3.812  10.498  15.452  1.00  0.00     0.004 C 
HETATM    4  C6  UNL     1      -3.880   9.339  14.482  1.00  0.00     0.182 C 
HETATM    5  O2  UNL     1      -2.709   8.506  14.609  1.00  0.00    -0.308 OA
HETATM    6  C9  UNL     1      -1.589   8.961  13.973  1.00  0.00     0.276 C 
HETATM    7  O3  UNL     1      -1.522  10.020  13.352  1.00  0.00    -0.264 OA
HETATM    8  C10 UNL     1      -0.448   7.902  13.983  1.00  0.00     0.095 C 
HETATM    9  C11 UNL     1      -0.486   6.975  15.209  1.00  0.00     0.036 C 
HETATM   10  C12 UNL     1      -0.841   7.073  12.763  1.00  0.00     0.002 C 
HETATM   11  C13 UNL     1      -0.098   6.568  11.778  1.00  0.00     0.053 C 
HETATM   12  C14 UNL     1       1.349   6.663  11.761  1.00  0.00     0.140 C 
HETATM   13  N1  UNL     1       2.211   7.424  12.295  1.00  0.00    -0.333 N 
ATOM     14  H1  UNL     1       3.193   7.221  12.113  1.00  0.00     0.168 HD
HETATM   15  C15 UNL     1       1.928   8.499  13.098  1.00  0.00     0.097 C 
HETATM   16  C16 UNL     1       0.868   8.695  13.907  1.00  0.00     0.045 C 
HETATM   17  C17 UNL     1       0.968   9.805  14.927  1.00  0.00     0.194 C 
HETATM   18  O5  UNL     1       0.350   9.729  15.980  1.00  0.00    -0.287 OA
HETATM   19  C18 UNL     1       1.829  10.972  14.670  1.00  0.00     0.046 A 
HETATM   20  C19 UNL     1       2.840  10.813  13.729  1.00  0.00     0.032 A 
HETATM   21  C20 UNL     1       3.738  11.854  13.442  1.00  0.00     0.026 A 
HETATM   22  C21 UNL     1       3.662  13.070  14.122  1.00  0.00    -0.027 A 
HETATM   23  C22 UNL     1       4.653  14.162  13.838  1.00  0.00     0.051 C 
HETATM   24  C23 UNL     1       2.696  13.205  15.121  1.00  0.00     0.086 A 
HETATM   25  C24 UNL     1       1.756  12.182  15.388  1.00  0.00     0.059 A 
HETATM   26  C25 UNL     1       0.808  12.470  16.493  1.00  0.00     0.163 C 
HETATM   27  O7  UNL     1       1.300  12.910  17.536  1.00  0.00    -0.292 OA
HETATM   28  C26 UNL     1      -0.688  12.431  16.261  1.00  0.00     0.084 C 
HETATM   29  C27 UNL     1      -1.403  12.093  17.578  1.00  0.00     0.016 C 
HETATM   30  C28 UNL     1       3.045   9.516  13.073  1.00  0.00     0.210 C 
HETATM   31  O8  UNL     1       4.105   9.307  12.488  1.00  0.00    -0.285 OA
ENDROOT
BRANCH   4  32
HETATM   32  C7  UNL     1      -5.147   8.486  14.735  1.00  0.00     0.147 C 
HETATM   33  C8  UNL     1      -5.495   7.609  13.536  1.00  0.00     0.042 C 
BRANCH  32  34
HETATM   34  O1  UNL     1      -6.269   9.336  14.999  1.00  0.00    -0.393 OA
HETATM   35  H14 UNL     1      -7.003   8.768  15.289  1.00  0.00     0.210 HD
ENDBRANCH  32  34
ENDBRANCH   4  32
BRANCH   1  36
HETATM   36  C2  UNL     1      -3.545  11.578  18.807  1.00  0.00     0.004 C 
HETATM   37  C1  UNL     1      -4.461  12.724  19.218  1.00  0.00     0.006 C 
ENDBRANCH   1  36
BRANCH  12  38
HETATM   38  O4  UNL     1       1.832   5.689  10.973  1.00  0.00    -0.346 OA
HETATM   39  H20 UNL     1       2.800   5.787  10.968  1.00  0.00     0.219 HD
ENDBRANCH  12  38
BRANCH  24  40
HETATM   40  O6  UNL     1       2.721  14.371  15.849  1.00  0.00    -0.359 OA
HETATM   41  H25 UNL     1       2.327  14.190  16.732  1.00  0.00     0.217 HD
ENDBRANCH  24  40
TORSDOF 5
ENDMDL
MODEL 9
REMARK minimizedAffinity -6.80107498
REMARK CNNscore 0.201620787
REMARK CNNaffinity 5.06178713
REMARK  5 active torsions:
REMARK  status: ('A' for Active; 'I' for Inactive)
REMARK    1  A    between atoms: C2_2  and  C3_3 
REMARK    2  A    between atoms: C6_6  and  C7_7 
REMARK    3  A    between atoms: C7_7  and  O1_9 
REMARK    4  A    between atoms: C14_17  and  O4_18 
REMARK    5  A    between atoms: C23_30  and  O6_31 
ROOT
HETATM    1  C3  UNL     1     -17.448   8.284  24.844  1.00  0.00     0.008 C 
HETATM    2  C4  UNL     1     -16.585   7.433  23.945  1.00  0.00    -0.023 C 
HETATM    3  C5  UNL     1     -15.444   7.861  23.381  1.00  0.00     0.004 C 
HETATM    4  C6  UNL     1     -14.471   7.004  22.602  1.00  0.00     0.182 C 
HETATM    5  O2  UNL     1     -14.643   5.612  22.938  1.00  0.00    -0.308 OA
HETATM    6  C9  UNL     1     -14.052   5.209  24.101  1.00  0.00     0.276 C 
HETATM    7  O3  UNL     1     -13.436   5.951  24.863  1.00  0.00    -0.264 OA
HETATM    8  C10 UNL     1     -14.106   3.662  24.271  1.00  0.00     0.095 C 
HETATM    9  C11 UNL     1     -15.328   3.016  23.600  1.00  0.00     0.036 C 
HETATM   10  C12 UNL     1     -12.871   3.262  23.470  1.00  0.00     0.002 C 
HETATM   11  C13 UNL     1     -11.915   2.369  23.731  1.00  0.00     0.053 C 
HETATM   12  C14 UNL     1     -11.955   1.495  24.888  1.00  0.00     0.140 C 
HETATM   13  N1  UNL     1     -12.523   1.521  26.021  1.00  0.00    -0.333 N 
ATOM     14  H1  UNL     1     -12.380   0.721  26.636  1.00  0.00     0.168 HD
HETATM   15  C15 UNL     1     -13.316   2.540  26.485  1.00  0.00     0.097 C 
HETATM   16  C16 UNL     1     -14.082   3.400  25.787  1.00  0.00     0.045 C 
HETATM   17  C17 UNL     1     -15.106   4.201  26.558  1.00  0.00     0.194 C 
HETATM   18  O5  UNL     1     -16.135   4.573  26.009  1.00  0.00    -0.287 OA
HETATM   19  C18 UNL     1     -14.885   4.514  27.980  1.00  0.00     0.046 A 
HETATM   20  C19 UNL     1     -13.984   3.710  28.668  1.00  0.00     0.032 A 
HETATM   21  C20 UNL     1     -13.733   3.904  30.037  1.00  0.00     0.026 A 
HETATM   22  C21 UNL     1     -14.411   4.891  30.753  1.00  0.00    -0.027 A 
HETATM   23  C22 UNL     1     -14.168   5.062  32.226  1.00  0.00     0.051 C 
HETATM   24  C23 UNL     1     -15.372   5.649  30.081  1.00  0.00     0.086 A 
HETATM   25  C24 UNL     1     -15.600   5.496  28.694  1.00  0.00     0.059 A 
HETATM   26  C25 UNL     1     -16.668   6.360  28.132  1.00  0.00     0.163 C 
HETATM   27  O7  UNL     1     -17.730   6.398  28.760  1.00  0.00    -0.292 OA
HETATM   28  C26 UNL     1     -16.377   7.303  26.982  1.00  0.00     0.084 C 
HETATM   29  C27 UNL     1     -17.665   7.547  26.181  1.00  0.00     0.016 C 
HETATM   30  C28 UNL     1     -13.335   2.579  27.995  1.00  0.00     0.210 C 
HETATM   31  O8  UNL     1     -12.793   1.714  28.678  1.00  0.00    -0.285 OA
ENDROOT
BRANCH   4  32
HETATM   32  C7  UNL     1     -14.673   7.193  21.078  1.00  0.00     0.147 C 
HETATM   33  C8  UNL     1     -15.696   6.214  20.510  1.00  0.00     0.042 C 
BRANCH  32  34
HETATM   34  O1  UNL     1     -13.436   6.987  20.388  1.00  0.00    -0.393 OA
HETATM   35  H14 UNL     1     -13.572   7.251  19.461  1.00  0.00     0.210 HD
ENDBRANCH  32  34
ENDBRANCH   4  32
BRANCH   1  36
HETATM   36  C2  UNL     1     -18.808   8.587  24.187  1.00  0.00     0.004 C 
HETATM   37  C1  UNL     1     -19.076   7.752  22.941  1.00  0.00     0.006 C 
ENDBRANCH   1  36
BRANCH  12  38
HETATM   38  O4  UNL     1     -11.185   0.423  24.640  1.00  0.00    -0.346 OA
HETATM   39  H20 UNL     1     -11.218  -0.136  25.436  1.00  0.00     0.219 HD
ENDBRANCH  12  38
BRANCH  24  40
HETATM   40  O6  UNL     1     -16.102   6.533  30.840  1.00  0.00    -0.359 OA
HETATM   41  H25 UNL     1     -16.968   6.675  30.397  1.00  0.00     0.217 HD
ENDBRANCH  24  40
TORSDOF 5
ENDMDL
