MODEL 1
REMARK minimizedAffinity -7.88963556
REMARK CNNscore 0.600846708
REMARK CNNaffinity 7.39970922
REMARK  12 active torsions:
REMARK  status: ('A' for Active; 'I' for Inactive)
REMARK    1  A    between atoms: C2_2  and  C3_3 
REMARK    2  A    between atoms: C2_2  and  C9_10 
REMARK    3  A    between atoms: C3_3  and  C4_4 
REMARK    4  A    between atoms: C5_5  and  C6_6 
REMARK    5  A    between atoms: C6_6  and  O1_9 
REMARK    6  A    between atoms: C27_29  and  O3_30 
REMARK    7  A    between atoms: O3_30  and  C28_31 
REMARK    8  A    between atoms: C29_33  and  C30_34 
REMARK    9  A    between atoms: C30_34  and  O5_35 
REMARK   10  A    between atoms: C31_36  and  O6_37 
REMARK   11  A    between atoms: C32_38  and  O7_39 
REMARK   12  A    between atoms: C33_40  and  O8_41 
ROOT
HETATM    1  C9  UNL     1      -3.522   8.870  14.916  1.00  0.00    -0.002 C 
HETATM    2  C10 UNL     1      -2.436   8.892  13.801  1.00  0.00     0.006 C 
HETATM    3  C11 UNL     1      -1.222   9.684  14.381  1.00  0.00     0.011 C 
HETATM    4  C12 UNL     1      -1.570   9.899  15.875  1.00  0.00    -0.029 C 
HETATM    5  C13 UNL     1      -1.143   8.551  16.581  1.00  0.00     0.016 C 
HETATM    6  C14 UNL     1      -0.869  11.039  16.707  1.00  0.00     0.028 C 
HETATM    7  C15 UNL     1       0.079  12.013  16.070  1.00  0.00    -0.021 C 
HETATM    8  C16 UNL     1       0.405  13.131  16.746  1.00  0.00     0.008 C 
HETATM    9  C17 UNL     1      -0.219  13.489  18.106  1.00  0.00     0.092 C 
HETATM   10  O2  UNL     1      -1.406  14.203  17.725  1.00  0.00    -0.374 OA
HETATM   11  C18 UNL     1      -2.381  13.170  17.382  1.00  0.00     0.179 C 
HETATM   12  C19 UNL     1      -1.788  11.761  17.775  1.00  0.00    -0.004 C 
HETATM   13  C20 UNL     1      -2.890  10.815  18.274  1.00  0.00     0.014 C 
HETATM   14  C21 UNL     1      -3.758  10.157  17.177  1.00  0.00     0.011 C 
HETATM   15  C22 UNL     1      -3.124  10.109  15.774  1.00  0.00    -0.032 C 
HETATM   16  C23 UNL     1      -3.442  11.410  14.976  1.00  0.00     0.016 C 
HETATM   17  C24 UNL     1      -0.859  12.310  18.878  1.00  0.00     0.036 C 
HETATM   18  C25 UNL     1       0.133  11.430  19.633  1.00  0.00     0.011 C 
HETATM   19  C26 UNL     1       1.601  11.812  19.429  1.00  0.00     0.033 C 
HETATM   20  C27 UNL     1       1.932  13.327  19.424  1.00  0.00     0.136 C 
HETATM   21  C34 UNL     1       0.730  14.268  19.059  1.00  0.00     0.014 C 
HETATM   22  C35 UNL     1      -0.021  14.751  20.333  1.00  0.00     0.021 C 
HETATM   23  C36 UNL     1       1.276  15.566  18.413  1.00  0.00     0.021 C 
ENDROOT
BRANCH  20  24
HETATM   24  O3  UNL     1       2.476  13.745  20.685  1.00  0.00    -0.352 OA
BRANCH  24  25
HETATM   25  C28 UNL     1       3.632  13.015  21.114  1.00  0.00     0.292 C 
HETATM   26  O4  UNL     1       3.271  11.847  21.836  1.00  0.00    -0.348 OA
HETATM   27  C29 UNL     1       4.407  10.998  22.119  1.00  0.00     0.179 C 
HETATM   28  C31 UNL     1       5.698  11.787  22.408  1.00  0.00     0.180 C 
HETATM   29  C32 UNL     1       5.374  13.178  22.967  1.00  0.00     0.183 C 
HETATM   30  C33 UNL     1       4.414  13.959  22.054  1.00  0.00     0.204 C 
BRANCH  27  31
HETATM   31  C30 UNL     1       3.997  10.146  23.325  1.00  0.00     0.198 C 
BRANCH  31  32
HETATM   32  O5  UNL     1       3.561   8.862  22.884  1.00  0.00    -0.398 OA
HETATM   33  H46 UNL     1       2.966   9.034  22.128  1.00  0.00     0.209 HD
ENDBRANCH  31  32
ENDBRANCH  27  31
BRANCH  28  34
HETATM   34  O6  UNL     1       6.431  11.957  21.180  1.00  0.00    -0.390 OA
HETATM   35  H48 UNL     1       7.175  12.551  21.408  1.00  0.00     0.210 HD
ENDBRANCH  28  34
BRANCH  29  36
HETATM   36  O7  UNL     1       6.598  13.906  23.147  1.00  0.00    -0.390 OA
HETATM   37  H50 UNL     1       6.533  14.664  22.523  1.00  0.00     0.210 HD
ENDBRANCH  29  36
BRANCH  30  38
HETATM   38  O8  UNL     1       5.147  14.956  21.309  1.00  0.00    -0.388 OA
HETATM   39  H52 UNL     1       4.515  15.313  20.658  1.00  0.00     0.210 HD
ENDBRANCH  30  38
ENDBRANCH  24  25
ENDBRANCH  20  24
BRANCH   1  40
HETATM   40  C2  UNL     1      -4.995   8.564  14.502  1.00  0.00    -0.010 C 
HETATM   41  C1  UNL     1      -5.724   7.940  15.711  1.00  0.00     0.010 C 
BRANCH  40  42
HETATM   42  C3  UNL     1      -5.217   7.711  13.238  1.00  0.00     0.031 C 
BRANCH  42  43
HETATM   43  C4  UNL     1      -6.330   6.688  13.226  1.00  0.00    -0.027 C 
HETATM   44  C5  UNL     1      -6.233   5.361  13.428  1.00  0.00     0.006 C 
BRANCH  44  45
HETATM   45  C6  UNL     1      -7.367   4.357  13.440  1.00  0.00     0.068 C 
HETATM   46  C7  UNL     1      -8.604   4.946  12.758  1.00  0.00     0.050 C 
HETATM   47  C8  UNL     1      -6.937   3.065  12.740  1.00  0.00     0.050 C 
BRANCH  45  48
HETATM   48  O1  UNL     1      -7.722   4.018  14.781  1.00  0.00    -0.387 OA
HETATM   49  H15 UNL     1      -8.029   4.835  15.208  1.00  0.00     0.211 HD
ENDBRANCH  45  48
ENDBRANCH  44  45
ENDBRANCH  42  43
ENDBRANCH  40  42
ENDBRANCH   1  40
TORSDOF 12
ENDMDL
MODEL 2
REMARK minimizedAffinity -8.67794704
REMARK CNNscore 0.435899824
REMARK CNNaffinity 7.23319197
REMARK  12 active torsions:
REMARK  status: ('A' for Active; 'I' for Inactive)
REMARK    1  A    between atoms: C2_2  and  C3_3 
REMARK    2  A    between atoms: C2_2  and  C9_10 
REMARK    3  A    between atoms: C3_3  and  C4_4 
REMARK    4  A    between atoms: C5_5  and  C6_6 
REMARK    5  A    between atoms: C6_6  and  O1_9 
REMARK    6  A    between atoms: C27_29  and  O3_30 
REMARK    7  A    between atoms: O3_30  and  C28_31 
REMARK    8  A    between atoms: C29_33  and  C30_34 
REMARK    9  A    between atoms: C30_34  and  O5_35 
REMARK   10  A    between atoms: C31_36  and  O6_37 
REMARK   11  A    between atoms: C32_38  and  O7_39 
REMARK   12  A    between atoms: C33_40  and  O8_41 
ROOT
HETATM    1  C9  UNL     1       0.198   7.840  13.352  1.00  0.00    -0.002 C 
HETATM    2  C10 UNL     1      -0.181   8.832  12.215  1.00  0.00     0.006 C 
HETATM    3  C11 UNL     1      -1.731   9.012  12.281  1.00  0.00     0.011 C 
HETATM    4  C12 UNL     1      -2.155   8.289  13.584  1.00  0.00    -0.029 C 
HETATM    5  C13 UNL     1      -1.892   9.346  14.729  1.00  0.00     0.016 C 
HETATM    6  C14 UNL     1      -3.643   7.817  13.793  1.00  0.00     0.028 C 
HETATM    7  C15 UNL     1      -4.676   7.959  12.713  1.00  0.00    -0.021 C 
HETATM    8  C16 UNL     1      -5.830   7.276  12.830  1.00  0.00     0.008 C 
HETATM    9  C17 UNL     1      -6.098   6.293  13.984  1.00  0.00     0.092 C 
HETATM   10  O2  UNL     1      -5.555   5.064  13.477  1.00  0.00    -0.374 OA
HETATM   11  C18 UNL     1      -4.113   5.162  13.696  1.00  0.00     0.179 C 
HETATM   12  C19 UNL     1      -3.818   6.447  14.565  1.00  0.00    -0.004 C 
HETATM   13  C20 UNL     1      -2.644   6.208  15.526  1.00  0.00     0.014 C 
HETATM   14  C21 UNL     1      -1.234   6.294  14.898  1.00  0.00     0.011 C 
HETATM   15  C22 UNL     1      -1.147   7.083  13.577  1.00  0.00    -0.032 C 
HETATM   16  C23 UNL     1      -1.424   6.154  12.356  1.00  0.00     0.016 C 
HETATM   17  C24 UNL     1      -5.207   6.475  15.236  1.00  0.00     0.036 C 
HETATM   18  C25 UNL     1      -5.647   7.598  16.171  1.00  0.00     0.011 C 
HETATM   19  C26 UNL     1      -6.843   8.410  15.669  1.00  0.00     0.033 C 
HETATM   20  C27 UNL     1      -7.996   7.612  15.007  1.00  0.00     0.136 C 
HETATM   21  C34 UNL     1      -7.587   6.214  14.423  1.00  0.00     0.014 C 
HETATM   22  C35 UNL     1      -7.809   5.077  15.461  1.00  0.00     0.021 C 
HETATM   23  C36 UNL     1      -8.528   5.857  13.245  1.00  0.00     0.021 C 
ENDROOT
BRANCH  20  24
HETATM   24  O3  UNL     1      -9.091   7.426  15.917  1.00  0.00    -0.352 OA
BRANCH  24  25
HETATM   25  C28 UNL     1      -9.945   8.566  16.072  1.00  0.00     0.292 C 
HETATM   26  O4  UNL     1     -10.224   8.825  17.440  1.00  0.00    -0.348 OA
HETATM   27  C29 UNL     1     -10.929  10.073  17.635  1.00  0.00     0.179 C 
HETATM   28  C31 UNL     1     -11.932  10.386  16.508  1.00  0.00     0.180 C 
HETATM   29  C32 UNL     1     -12.428   9.096  15.845  1.00  0.00     0.183 C 
HETATM   30  C33 UNL     1     -11.267   8.216  15.352  1.00  0.00     0.204 C 
BRANCH  27  31
HETATM   31  C30 UNL     1     -11.637   9.942  18.987  1.00  0.00     0.198 C 
BRANCH  31  32
HETATM   32  O5  UNL     1     -11.698   8.570  19.370  1.00  0.00    -0.398 OA
HETATM   33  H46 UNL     1     -11.985   8.088  18.570  1.00  0.00     0.209 HD
ENDBRANCH  31  32
ENDBRANCH  27  31
BRANCH  28  34
HETATM   34  O6  UNL     1     -11.277  11.185  15.504  1.00  0.00    -0.390 OA
HETATM   35  H48 UNL     1     -11.926  11.258  14.775  1.00  0.00     0.210 HD
ENDBRANCH  28  34
BRANCH  29  36
HETATM   36  O7  UNL     1     -13.296   9.436  14.752  1.00  0.00    -0.390 OA
HETATM   37  H50 UNL     1     -12.831   9.108  13.950  1.00  0.00     0.210 HD
ENDBRANCH  29  36
BRANCH  30  38
HETATM   38  O8  UNL     1     -11.133   8.335  13.919  1.00  0.00    -0.388 OA
HETATM   39  H52 UNL     1     -10.305   7.871  13.694  1.00  0.00     0.210 HD
ENDBRANCH  30  38
ENDBRANCH  24  25
ENDBRANCH  20  24
BRANCH   1  40
HETATM   40  C2  UNL     1       1.575   7.111  13.265  1.00  0.00    -0.010 C 
HETATM   41  C1  UNL     1       2.376   7.422  14.546  1.00  0.00     0.010 C 
BRANCH  40  42
HETATM   42  C3  UNL     1       2.437   7.366  12.013  1.00  0.00     0.031 C 
BRANCH  42  43
HETATM   43  C4  UNL     1       3.944   7.320  12.135  1.00  0.00    -0.027 C 
HETATM   44  C5  UNL     1       4.823   6.761  11.283  1.00  0.00     0.006 C 
BRANCH  44  45
HETATM   45  C6  UNL     1       6.332   6.750  11.410  1.00  0.00     0.068 C 
HETATM   46  C7  UNL     1       6.745   7.087  12.846  1.00  0.00     0.050 C 
HETATM   47  C8  UNL     1       6.888   5.383  11.003  1.00  0.00     0.050 C 
BRANCH  45  48
HETATM   48  O1  UNL     1       6.915   7.724  10.544  1.00  0.00    -0.387 OA
HETATM   49  H15 UNL     1       6.587   8.593  10.832  1.00  0.00     0.211 HD
ENDBRANCH  45  48
ENDBRANCH  44  45
ENDBRANCH  42  43
ENDBRANCH  40  42
ENDBRANCH   1  40
TORSDOF 12
ENDMDL
MODEL 3
REMARK minimizedAffinity -7.51148987
REMARK CNNscore 0.38541916
REMARK CNNaffinity 6.19390249
REMARK  12 active torsions:
REMARK  status: ('A' for Active; 'I' for Inactive)
REMARK    1  A    between atoms: C2_2  and  C3_3 
REMARK    2  A    between atoms: C2_2  and  C9_10 
REMARK    3  A    between atoms: C3_3  and  C4_4 
REMARK    4  A    between atoms: C5_5  and  C6_6 
REMARK    5  A    between atoms: C6_6  and  O1_9 
REMARK    6  A    between atoms: C27_29  and  O3_30 
REMARK    7  A    between atoms: O3_30  and  C28_31 
REMARK    8  A    between atoms: C29_33  and  C30_34 
REMARK    9  A    between atoms: C30_34  and  O5_35 
REMARK   10  A    between atoms: C31_36  and  O6_37 
REMARK   11  A    between atoms: C32_38  and  O7_39 
REMARK   12  A    between atoms: C33_40  and  O8_41 
ROOT
HETATM    1  C9  UNL     1      -3.727 -10.913   4.861  1.00  0.00    -0.002 C 
HETATM    2  C10 UNL     1      -2.864 -11.929   4.059  1.00  0.00     0.006 C 
HETATM    3  C11 UNL     1      -3.552 -12.093   2.667  1.00  0.00     0.011 C 
HETATM    4  C12 UNL     1      -4.656 -11.007   2.644  1.00  0.00    -0.029 C 
HETATM    5  C13 UNL     1      -3.904  -9.683   2.218  1.00  0.00     0.016 C 
HETATM    6  C14 UNL     1      -5.877 -11.123   1.655  1.00  0.00     0.028 C 
HETATM    7  C15 UNL     1      -6.068 -12.324   0.775  1.00  0.00    -0.021 C 
HETATM    8  C16 UNL     1      -7.265 -12.507   0.186  1.00  0.00     0.008 C 
HETATM    9  C17 UNL     1      -8.467 -11.582   0.445  1.00  0.00     0.092 C 
HETATM   10  O2  UNL     1      -9.074 -12.177   1.602  1.00  0.00    -0.374 OA
HETATM   11  C18 UNL     1      -8.279 -11.709   2.735  1.00  0.00     0.179 C 
HETATM   12  C19 UNL     1      -7.263 -10.614   2.225  1.00  0.00    -0.004 C 
HETATM   13  C20 UNL     1      -7.049  -9.521   3.283  1.00  0.00     0.014 C 
HETATM   14  C21 UNL     1      -6.093  -9.885   4.441  1.00  0.00     0.011 C 
HETATM   15  C22 UNL     1      -5.109 -11.034   4.149  1.00  0.00    -0.032 C 
HETATM   16  C23 UNL     1      -5.746 -12.414   4.496  1.00  0.00     0.016 C 
HETATM   17  C24 UNL     1      -8.123 -10.186   1.019  1.00  0.00     0.036 C 
HETATM   18  C25 UNL     1      -7.643  -9.173  -0.017  1.00  0.00     0.011 C 
HETATM   19  C26 UNL     1      -7.501  -9.734  -1.434  1.00  0.00     0.033 C 
HETATM   20  C27 UNL     1      -8.619 -10.694  -1.917  1.00  0.00     0.136 C 
HETATM   21  C34 UNL     1      -9.418 -11.413  -0.774  1.00  0.00     0.014 C 
HETATM   22  C35 UNL     1     -10.696 -10.616  -0.386  1.00  0.00     0.021 C 
HETATM   23  C36 UNL     1      -9.948 -12.771  -1.297  1.00  0.00     0.021 C 
ENDROOT
BRANCH  20  24
HETATM   24  O3  UNL     1      -9.552 -10.018  -2.774  1.00  0.00    -0.352 OA
BRANCH  24  25
HETATM   25  C28 UNL     1      -8.956  -9.204  -3.791  1.00  0.00     0.292 C 
HETATM   26  O4  UNL     1      -9.385  -7.855  -3.696  1.00  0.00    -0.348 OA
HETATM   27  C29 UNL     1      -8.660  -6.978  -4.590  1.00  0.00     0.179 C 
HETATM   28  C31 UNL     1      -8.300  -7.643  -5.932  1.00  0.00     0.180 C 
HETATM   29  C32 UNL     1      -9.298  -8.754  -6.276  1.00  0.00     0.183 C 
HETATM   30  C33 UNL     1      -9.431  -9.784  -5.142  1.00  0.00     0.204 C 
BRANCH  27  31
HETATM   31  C30 UNL     1      -9.565  -5.760  -4.800  1.00  0.00     0.198 C 
BRANCH  31  32
HETATM   32  O5  UNL     1      -9.711  -5.049  -3.573  1.00  0.00    -0.398 OA
HETATM   33  H46 UNL     1      -9.887  -5.731  -2.896  1.00  0.00     0.209 HD
ENDBRANCH  31  32
ENDBRANCH  27  31
BRANCH  28  34
HETATM   34  O6  UNL     1      -6.990  -8.234  -5.828  1.00  0.00    -0.390 OA
HETATM   35  H48 UNL     1      -6.866  -8.726  -6.665  1.00  0.00     0.210 HD
ENDBRANCH  28  34
BRANCH  29  36
HETATM   36  O7  UNL     1      -8.881  -9.398  -7.490  1.00  0.00    -0.390 OA
HETATM   37  H50 UNL     1      -8.672 -10.322  -7.225  1.00  0.00     0.210 HD
ENDBRANCH  29  36
BRANCH  30  38
HETATM   38  O8  UNL     1      -8.709 -10.987  -5.483  1.00  0.00    -0.388 OA
HETATM   39  H52 UNL     1      -8.716 -11.534  -4.676  1.00  0.00     0.210 HD
ENDBRANCH  30  38
ENDBRANCH  24  25
ENDBRANCH  20  24
BRANCH   1  40
HETATM   40  C2  UNL     1      -3.575 -10.883   6.415  1.00  0.00    -0.010 C 
HETATM   41  C1  UNL     1      -3.017 -12.245   6.878  1.00  0.00     0.010 C 
BRANCH  40  42
HETATM   42  C3  UNL     1      -4.815 -10.496   7.244  1.00  0.00     0.031 C 
BRANCH  42  43
HETATM   43  C4  UNL     1      -4.682 -10.354   8.743  1.00  0.00    -0.027 C 
HETATM   44  C5  UNL     1      -5.620  -9.949   9.619  1.00  0.00     0.006 C 
BRANCH  44  45
HETATM   45  C6  UNL     1      -5.474  -9.840  11.123  1.00  0.00     0.068 C 
HETATM   46  C7  UNL     1      -6.250  -8.627  11.645  1.00  0.00     0.050 C 
HETATM   47  C8  UNL     1      -5.974 -11.121  11.796  1.00  0.00     0.050 C 
BRANCH  45  48
HETATM   48  O1  UNL     1      -4.103  -9.675  11.483  1.00  0.00    -0.387 OA
HETATM   49  H15 UNL     1      -3.803  -8.842  11.084  1.00  0.00     0.211 HD
ENDBRANCH  45  48
ENDBRANCH  44  45
ENDBRANCH  42  43
ENDBRANCH  40  42
ENDBRANCH   1  40
TORSDOF 12
ENDMDL
MODEL 4
REMARK minimizedAffinity -8.16403389
REMARK CNNscore 0.355727285
REMARK CNNaffinity 6.85483551
REMARK  12 active torsions:
REMARK  status: ('A' for Active; 'I' for Inactive)
REMARK    1  A    between atoms: C2_2  and  C3_3 
REMARK    2  A    between atoms: C2_2  and  C9_10 
REMARK    3  A    between atoms: C3_3  and  C4_4 
REMARK    4  A    between atoms: C5_5  and  C6_6 
REMARK    5  A    between atoms: C6_6  and  O1_9 
REMARK    6  A    between atoms: C27_29  and  O3_30 
REMARK    7  A    between atoms: O3_30  and  C28_31 
REMARK    8  A    between atoms: C29_33  and  C30_34 
REMARK    9  A    between atoms: C30_34  and  O5_35 
REMARK   10  A    between atoms: C31_36  and  O6_37 
REMARK   11  A    between atoms: C32_38  and  O7_39 
REMARK   12  A    between atoms: C33_40  and  O8_41 
ROOT
HETATM    1  C9  UNL     1      -5.272   4.602  13.431  1.00  0.00    -0.002 C 
HETATM    2  C10 UNL     1      -4.754   4.464  11.971  1.00  0.00     0.006 C 
HETATM    3  C11 UNL     1      -3.363   5.174  11.925  1.00  0.00     0.011 C 
HETATM    4  C12 UNL     1      -3.041   5.502  13.405  1.00  0.00    -0.029 C 
HETATM    5  C13 UNL     1      -2.439   4.161  13.987  1.00  0.00     0.016 C 
HETATM    6  C14 UNL     1      -1.990   6.617  13.770  1.00  0.00     0.028 C 
HETATM    7  C15 UNL     1      -1.339   7.464  12.715  1.00  0.00    -0.021 C 
HETATM    8  C16 UNL     1      -0.694   8.583  13.095  1.00  0.00     0.008 C 
HETATM    9  C17 UNL     1      -0.670   9.072  14.555  1.00  0.00     0.092 C 
HETATM   10  O2  UNL     1      -1.862   9.868  14.637  1.00  0.00    -0.374 OA
HETATM   11  C18 UNL     1      -2.951   8.910  14.818  1.00  0.00     0.179 C 
HETATM   12  C19 UNL     1      -2.332   7.477  15.054  1.00  0.00    -0.004 C 
HETATM   13  C20 UNL     1      -3.179   6.664  16.045  1.00  0.00     0.014 C 
HETATM   14  C21 UNL     1      -4.464   6.028  15.466  1.00  0.00     0.011 C 
HETATM   15  C22 UNL     1      -4.479   5.846  13.936  1.00  0.00    -0.032 C 
HETATM   16  C23 UNL     1      -5.024   7.125  13.229  1.00  0.00     0.016 C 
HETATM   17  C24 UNL     1      -0.997   8.000  15.622  1.00  0.00     0.036 C 
HETATM   18  C25 UNL     1       0.166   7.076  15.974  1.00  0.00     0.011 C 
HETATM   19  C26 UNL     1       1.434   7.311  15.149  1.00  0.00     0.033 C 
HETATM   20  C27 UNL     1       1.822   8.787  14.876  1.00  0.00     0.136 C 
HETATM   21  C34 UNL     1       0.636   9.812  14.958  1.00  0.00     0.014 C 
HETATM   22  C35 UNL     1       0.517  10.430  16.381  1.00  0.00     0.021 C 
HETATM   23  C36 UNL     1       0.938  11.018  14.033  1.00  0.00     0.021 C 
ENDROOT
BRANCH  20  24
HETATM   24  O3  UNL     1       2.868   9.224  15.757  1.00  0.00    -0.352 OA
BRANCH  24  25
HETATM   25  C28 UNL     1       4.173   9.267  15.168  1.00  0.00     0.292 C 
HETATM   26  O4  UNL     1       4.186  10.055  13.988  1.00  0.00    -0.348 OA
HETATM   27  C29 UNL     1       5.523  10.268  13.478  1.00  0.00     0.179 C 
HETATM   28  C31 UNL     1       6.447   9.052  13.674  1.00  0.00     0.180 C 
HETATM   29  C32 UNL     1       5.636   7.752  13.732  1.00  0.00     0.183 C 
HETATM   30  C33 UNL     1       4.528   7.809  14.797  1.00  0.00     0.204 C 
BRANCH  27  31
HETATM   31  C30 UNL     1       5.352  10.599  11.991  1.00  0.00     0.198 C 
BRANCH  31  32
HETATM   32  O5  UNL     1       5.591  11.987  11.775  1.00  0.00    -0.398 OA
HETATM   33  H46 UNL     1       5.101  12.450  12.483  1.00  0.00     0.209 HD
ENDBRANCH  31  32
ENDBRANCH  27  31
BRANCH  28  34
HETATM   34  O6  UNL     1       7.155   9.195  14.921  1.00  0.00    -0.390 OA
HETATM   35  H48 UNL     1       7.637   8.351  15.038  1.00  0.00     0.210 HD
ENDBRANCH  28  34
BRANCH  29  36
HETATM   36  O7  UNL     1       6.526   6.656  13.995  1.00  0.00    -0.390 OA
HETATM   37  H50 UNL     1       6.247   6.311  14.874  1.00  0.00     0.210 HD
ENDBRANCH  29  36
BRANCH  30  38
HETATM   38  O8  UNL     1       4.924   7.051  15.960  1.00  0.00    -0.388 OA
HETATM   39  H52 UNL     1       4.250   7.242  16.639  1.00  0.00     0.210 HD
ENDBRANCH  30  38
ENDBRANCH  24  25
ENDBRANCH  20  24
BRANCH   1  40
HETATM   40  C2  UNL     1      -6.799   4.409  13.691  1.00  0.00    -0.010 C 
HETATM   41  C1  UNL     1      -7.575   4.947  12.471  1.00  0.00     0.010 C 
BRANCH  40  42
HETATM   42  C3  UNL     1      -7.377   4.986  14.998  1.00  0.00     0.031 C 
BRANCH  42  43
HETATM   43  C4  UNL     1      -8.272   6.203  14.932  1.00  0.00    -0.027 C 
HETATM   44  C5  UNL     1      -8.678   6.985  15.949  1.00  0.00     0.006 C 
BRANCH  44  45
HETATM   45  C6  UNL     1      -9.552   8.218  15.857  1.00  0.00     0.068 C 
HETATM   46  C7  UNL     1      -8.748   9.397  15.303  1.00  0.00     0.050 C 
HETATM   47  C8  UNL     1     -10.768   7.939  14.970  1.00  0.00     0.050 C 
BRANCH  45  48
HETATM   48  O1  UNL     1     -10.040   8.585  17.148  1.00  0.00    -0.387 OA
HETATM   49  H15 UNL     1      -9.265   8.796  17.694  1.00  0.00     0.211 HD
ENDBRANCH  45  48
ENDBRANCH  44  45
ENDBRANCH  42  43
ENDBRANCH  40  42
ENDBRANCH   1  40
TORSDOF 12
ENDMDL
MODEL 5
REMARK minimizedAffinity -9.7986145
REMARK CNNscore 0.329516947
REMARK CNNaffinity 7.37587118
REMARK  12 active torsions:
REMARK  status: ('A' for Active; 'I' for Inactive)
REMARK    1  A    between atoms: C2_2  and  C3_3 
REMARK    2  A    between atoms: C2_2  and  C9_10 
REMARK    3  A    between atoms: C3_3  and  C4_4 
REMARK    4  A    between atoms: C5_5  and  C6_6 
REMARK    5  A    between atoms: C6_6  and  O1_9 
REMARK    6  A    between atoms: C27_29  and  O3_30 
REMARK    7  A    between atoms: O3_30  and  C28_31 
REMARK    8  A    between atoms: C29_33  and  C30_34 
REMARK    9  A    between atoms: C30_34  and  O5_35 
REMARK   10  A    between atoms: C31_36  and  O6_37 
REMARK   11  A    between atoms: C32_38  and  O7_39 
REMARK   12  A    between atoms: C33_40  and  O8_41 
ROOT
HETATM    1  C9  UNL     1      -6.186   6.937  14.433  1.00  0.00    -0.002 C 
HETATM    2  C10 UNL     1      -6.079   8.248  15.264  1.00  0.00     0.006 C 
HETATM    3  C11 UNL     1      -4.653   8.827  14.997  1.00  0.00     0.011 C 
HETATM    4  C12 UNL     1      -4.078   7.946  13.860  1.00  0.00    -0.029 C 
HETATM    5  C13 UNL     1      -4.677   8.565  12.535  1.00  0.00     0.016 C 
HETATM    6  C14 UNL     1      -2.524   7.868  13.612  1.00  0.00     0.028 C 
HETATM    7  C15 UNL     1      -1.545   8.557  14.516  1.00  0.00    -0.021 C 
HETATM    8  C16 UNL     1      -0.245   8.213  14.441  1.00  0.00     0.008 C 
HETATM    9  C17 UNL     1       0.262   7.085  13.525  1.00  0.00     0.092 C 
HETATM   10  O2  UNL     1       0.121   5.923  14.356  1.00  0.00    -0.374 OA
HETATM   11  C18 UNL     1      -1.292   5.560  14.271  1.00  0.00     0.179 C 
HETATM   12  C19 UNL     1      -1.980   6.451  13.164  1.00  0.00    -0.004 C 
HETATM   13  C20 UNL     1      -3.063   5.662  12.413  1.00  0.00     0.014 C 
HETATM   14  C21 UNL     1      -4.415   5.511  13.147  1.00  0.00     0.011 C 
HETATM   15  C22 UNL     1      -4.687   6.550  14.251  1.00  0.00    -0.032 C 
HETATM   16  C23 UNL     1      -4.109   6.073  15.618  1.00  0.00     0.016 C 
HETATM   17  C24 UNL     1      -0.683   6.692  12.364  1.00  0.00     0.036 C 
HETATM   18  C25 UNL     1      -0.623   7.620  11.153  1.00  0.00     0.011 C 
HETATM   19  C26 UNL     1       0.297   8.830  11.327  1.00  0.00     0.033 C 
HETATM   20  C27 UNL     1       1.655   8.575  12.032  1.00  0.00     0.136 C 
HETATM   21  C34 UNL     1       1.693   7.313  12.963  1.00  0.00     0.014 C 
HETATM   22  C35 UNL     1       2.206   6.058  12.199  1.00  0.00     0.021 C 
HETATM   23  C36 UNL     1       2.736   7.538  14.087  1.00  0.00     0.021 C 
ENDROOT
BRANCH  20  24
HETATM   24  O3  UNL     1       2.726   8.477  11.081  1.00  0.00    -0.352 OA
BRANCH  24  25
HETATM   25  C28 UNL     1       4.040   8.484  11.650  1.00  0.00     0.292 C 
HETATM   26  O4  UNL     1       4.440   9.796  12.019  1.00  0.00    -0.348 OA
HETATM   27  C29 UNL     1       5.680   9.808  12.763  1.00  0.00     0.179 C 
HETATM   28  C31 UNL     1       6.681   8.736  12.291  1.00  0.00     0.180 C 
HETATM   29  C32 UNL     1       6.447   8.380  10.819  1.00  0.00     0.183 C 
HETATM   30  C33 UNL     1       4.991   7.965  10.549  1.00  0.00     0.204 C 
BRANCH  27  31
HETATM   31  C30 UNL     1       6.255  11.218  12.587  1.00  0.00     0.198 C 
BRANCH  31  32
HETATM   32  O5  UNL     1       5.474  11.943  11.641  1.00  0.00    -0.398 OA
HETATM   33  H46 UNL     1       5.333  11.329  10.893  1.00  0.00     0.209 HD
ENDBRANCH  31  32
ENDBRANCH  27  31
BRANCH  28  34
HETATM   34  O6  UNL     1       6.496   7.542  13.076  1.00  0.00    -0.390 OA
HETATM   35  H48 UNL     1       7.079   6.873  12.663  1.00  0.00     0.210 HD
ENDBRANCH  28  34
BRANCH  29  36
HETATM   36  O7  UNL     1       7.346   7.324  10.444  1.00  0.00    -0.390 OA
HETATM   37  H50 UNL     1       6.762   6.562  10.228  1.00  0.00     0.210 HD
ENDBRANCH  29  36
BRANCH  30  38
HETATM   38  O8  UNL     1       4.906   6.530  10.412  1.00  0.00    -0.388 OA
HETATM   39  H52 UNL     1       3.953   6.326  10.384  1.00  0.00     0.210 HD
ENDBRANCH  30  38
ENDBRANCH  24  25
ENDBRANCH  20  24
BRANCH   1  40
HETATM   40  C2  UNL     1      -7.285   5.902  14.830  1.00  0.00    -0.010 C 
HETATM   41  C1  UNL     1      -6.784   5.100  16.049  1.00  0.00     0.010 C 
BRANCH  40  42
HETATM   42  C3  UNL     1      -7.798   4.952  13.731  1.00  0.00     0.031 C 
BRANCH  42  43
HETATM   43  C4  UNL     1      -6.863   3.907  13.166  1.00  0.00    -0.027 C 
HETATM   44  C5  UNL     1      -6.746   3.509  11.886  1.00  0.00     0.006 C 
BRANCH  44  45
HETATM   45  C6  UNL     1      -5.781   2.479  11.338  1.00  0.00     0.068 C 
HETATM   46  C7  UNL     1      -4.481   2.486  12.148  1.00  0.00     0.050 C 
HETATM   47  C8  UNL     1      -6.419   1.088  11.366  1.00  0.00     0.050 C 
BRANCH  45  48
HETATM   48  O1  UNL     1      -5.454   2.771   9.979  1.00  0.00    -0.387 OA
HETATM   49  H15 UNL     1      -5.016   3.639   9.973  1.00  0.00     0.211 HD
ENDBRANCH  45  48
ENDBRANCH  44  45
ENDBRANCH  42  43
ENDBRANCH  40  42
ENDBRANCH   1  40
TORSDOF 12
ENDMDL
MODEL 6
REMARK minimizedAffinity -10.173315
REMARK CNNscore 0.307118624
REMARK CNNaffinity 7.36807442
REMARK  12 active torsions:
REMARK  status: ('A' for Active; 'I' for Inactive)
REMARK    1  A    between atoms: C2_2  and  C3_3 
REMARK    2  A    between atoms: C2_2  and  C9_10 
REMARK    3  A    between atoms: C3_3  and  C4_4 
REMARK    4  A    between atoms: C5_5  and  C6_6 
REMARK    5  A    between atoms: C6_6  and  O1_9 
REMARK    6  A    between atoms: C27_29  and  O3_30 
REMARK    7  A    between atoms: O3_30  and  C28_31 
REMARK    8  A    between atoms: C29_33  and  C30_34 
REMARK    9  A    between atoms: C30_34  and  O5_35 
REMARK   10  A    between atoms: C31_36  and  O6_37 
REMARK   11  A    between atoms: C32_38  and  O7_39 
REMARK   12  A    between atoms: C33_40  and  O8_41 
ROOT
HETATM    1  C9  UNL     1       0.447   7.888  13.870  1.00  0.00    -0.002 C 
HETATM    2  C10 UNL     1       0.089   9.202  13.119  1.00  0.00     0.006 C 
HETATM    3  C11 UNL     1      -1.469   9.313  13.138  1.00  0.00     0.011 C 
HETATM    4  C12 UNL     1      -1.932   8.175  14.082  1.00  0.00    -0.029 C 
HETATM    5  C13 UNL     1      -1.781   8.777  15.535  1.00  0.00     0.016 C 
HETATM    6  C14 UNL     1      -3.407   7.626  14.015  1.00  0.00     0.028 C 
HETATM    7  C15 UNL     1      -4.383   8.109  12.982  1.00  0.00    -0.021 C 
HETATM    8  C16 UNL     1      -5.510   7.401  12.780  1.00  0.00     0.008 C 
HETATM    9  C17 UNL     1      -5.797   6.074  13.504  1.00  0.00     0.092 C 
HETATM   10  O2  UNL     1      -5.173   5.108  12.644  1.00  0.00    -0.374 OA
HETATM   11  C18 UNL     1      -3.751   5.158  12.981  1.00  0.00     0.179 C 
HETATM   12  C19 UNL     1      -3.563   6.070  14.256  1.00  0.00    -0.004 C 
HETATM   13  C20 UNL     1      -2.435   5.541  15.154  1.00  0.00     0.014 C 
HETATM   14  C21 UNL     1      -0.997   5.871  14.690  1.00  0.00     0.011 C 
HETATM   15  C22 UNL     1      -0.872   7.069  13.730  1.00  0.00    -0.032 C 
HETATM   16  C23 UNL     1      -1.039   6.613  12.248  1.00  0.00     0.016 C 
HETATM   17  C24 UNL     1      -4.987   5.833  14.800  1.00  0.00     0.036 C 
HETATM   18  C25 UNL     1      -5.528   6.553  16.032  1.00  0.00     0.011 C 
HETATM   19  C26 UNL     1      -6.730   7.461  15.759  1.00  0.00     0.033 C 
HETATM   20  C27 UNL     1      -7.807   6.914  14.788  1.00  0.00     0.136 C 
HETATM   21  C34 UNL     1      -7.303   5.814  13.788  1.00  0.00     0.014 C 
HETATM   22  C35 UNL     1      -7.532   4.383  14.355  1.00  0.00     0.021 C 
HETATM   23  C36 UNL     1      -8.161   5.864  12.498  1.00  0.00     0.021 C 
ENDROOT
BRANCH  20  24
HETATM   24  O3  UNL     1      -8.941   6.400  15.502  1.00  0.00    -0.352 OA
BRANCH  24  25
HETATM   25  C28 UNL     1     -10.151   7.148  15.330  1.00  0.00     0.292 C 
HETATM   26  O4  UNL     1     -10.412   7.409  13.959  1.00  0.00    -0.348 OA
HETATM   27  C29 UNL     1     -11.715   7.998  13.746  1.00  0.00     0.179 C 
HETATM   28  C31 UNL     1     -12.136   8.964  14.870  1.00  0.00     0.180 C 
HETATM   29  C32 UNL     1     -10.908   9.572  15.557  1.00  0.00     0.183 C 
HETATM   30  C33 UNL     1      -9.934   8.493  16.060  1.00  0.00     0.204 C 
BRANCH  27  31
HETATM   31  C30 UNL     1     -11.627   8.722  12.398  1.00  0.00     0.198 C 
BRANCH  31  32
HETATM   32  O5  UNL     1     -12.826   9.458  12.165  1.00  0.00    -0.398 OA
HETATM   33  H46 UNL     1     -13.555   8.848  12.395  1.00  0.00     0.209 HD
ENDBRANCH  31  32
ENDBRANCH  27  31
BRANCH  28  34
HETATM   34  O6  UNL     1     -12.889   8.235  15.859  1.00  0.00    -0.390 OA
HETATM   35  H48 UNL     1     -13.033   8.871  16.589  1.00  0.00     0.210 HD
ENDBRANCH  28  34
BRANCH  29  36
HETATM   36  O7  UNL     1     -11.343  10.400  16.646  1.00  0.00    -0.390 OA
HETATM   37  H50 UNL     1     -10.987   9.963  17.452  1.00  0.00     0.210 HD
ENDBRANCH  29  36
BRANCH  30  38
HETATM   38  O8  UNL     1     -10.064   8.343  17.491  1.00  0.00    -0.388 OA
HETATM   39  H52 UNL     1      -9.531   7.559  17.721  1.00  0.00     0.210 HD
ENDBRANCH  30  38
ENDBRANCH  24  25
ENDBRANCH  20  24
BRANCH   1  40
HETATM   40  C2  UNL     1       1.859   7.266  13.631  1.00  0.00    -0.010 C 
HETATM   41  C1  UNL     1       2.656   7.338  14.950  1.00  0.00     0.010 C 
BRANCH  40  42
HETATM   42  C3  UNL     1       2.695   7.825  12.463  1.00  0.00     0.031 C 
BRANCH  42  43
HETATM   43  C4  UNL     1       2.173   7.684  11.051  1.00  0.00    -0.027 C 
HETATM   44  C5  UNL     1       2.777   8.055   9.907  1.00  0.00     0.006 C 
BRANCH  44  45
HETATM   45  C6  UNL     1       2.248   7.877   8.499  1.00  0.00     0.068 C 
HETATM   46  C7  UNL     1       2.506   6.449   8.012  1.00  0.00     0.050 C 
HETATM   47  C8  UNL     1       0.751   8.193   8.453  1.00  0.00     0.050 C 
BRANCH  45  48
HETATM   48  O1  UNL     1       2.902   8.774   7.601  1.00  0.00    -0.387 OA
HETATM   49  H15 UNL     1       3.846   8.544   7.607  1.00  0.00     0.211 HD
ENDBRANCH  45  48
ENDBRANCH  44  45
ENDBRANCH  42  43
ENDBRANCH  40  42
ENDBRANCH   1  40
TORSDOF 12
ENDMDL
MODEL 7
REMARK minimizedAffinity -8.14128685
REMARK CNNscore 0.300907552
REMARK CNNaffinity 6.83856583
REMARK  12 active torsions:
REMARK  status: ('A' for Active; 'I' for Inactive)
REMARK    1  A    between atoms: C2_2  and  C3_3 
REMARK    2  A    between atoms: C2_2  and  C9_10 
REMARK    3  A    between atoms: C3_3  and  C4_4 
REMARK    4  A    between atoms: C5_5  and  C6_6 
REMARK    5  A    between atoms: C6_6  and  O1_9 
REMARK    6  A    between atoms: C27_29  and  O3_30 
REMARK    7  A    between atoms: O3_30  and  C28_31 
REMARK    8  A    between atoms: C29_33  and  C30_34 
REMARK    9  A    between atoms: C30_34  and  O5_35 
REMARK   10  A    between atoms: C31_36  and  O6_37 
REMARK   11  A    between atoms: C32_38  and  O7_39 
REMARK   12  A    between atoms: C33_40  and  O8_41 
ROOT
HETATM    1  C9  UNL     1      -2.195   5.744  13.024  1.00  0.00    -0.002 C 
HETATM    2  C10 UNL     1      -3.456   5.435  13.882  1.00  0.00     0.006 C 
HETATM    3  C11 UNL     1      -3.747   6.720  14.720  1.00  0.00     0.011 C 
HETATM    4  C12 UNL     1      -2.777   7.787  14.153  1.00  0.00    -0.029 C 
HETATM    5  C13 UNL     1      -3.509   8.348  12.869  1.00  0.00     0.016 C 
HETATM    6  C14 UNL     1      -2.400   9.060  15.001  1.00  0.00     0.028 C 
HETATM    7  C15 UNL     1      -2.880   9.241  16.411  1.00  0.00    -0.021 C 
HETATM    8  C16 UNL     1      -2.291  10.177  17.178  1.00  0.00     0.008 C 
HETATM    9  C17 UNL     1      -1.090  11.010  16.694  1.00  0.00     0.092 C 
HETATM   10  O2  UNL     1       0.027  10.180  17.048  1.00  0.00    -0.374 OA
HETATM   11  C18 UNL     1       0.107   9.174  15.991  1.00  0.00     0.179 C 
HETATM   12  C19 UNL     1      -0.906   9.560  14.844  1.00  0.00    -0.004 C 
HETATM   13  C20 UNL     1      -0.348   9.187  13.463  1.00  0.00     0.014 C 
HETATM   14  C21 UNL     1      -0.458   7.695  13.074  1.00  0.00     0.011 C 
HETATM   15  C22 UNL     1      -1.525   6.890  13.841  1.00  0.00    -0.032 C 
HETATM   16  C23 UNL     1      -0.937   6.305  15.161  1.00  0.00     0.016 C 
HETATM   17  C24 UNL     1      -0.895  11.070  15.160  1.00  0.00     0.036 C 
HETATM   18  C25 UNL     1      -1.800  12.068  14.443  1.00  0.00     0.011 C 
HETATM   19  C26 UNL     1      -2.807  12.778  15.351  1.00  0.00     0.033 C 
HETATM   20  C27 UNL     1      -2.289  13.235  16.739  1.00  0.00     0.136 C 
HETATM   21  C34 UNL     1      -1.038  12.452  17.272  1.00  0.00     0.014 C 
HETATM   22  C35 UNL     1       0.288  13.167  16.886  1.00  0.00     0.021 C 
HETATM   23  C36 UNL     1      -1.051  12.464  18.822  1.00  0.00     0.021 C 
ENDROOT
BRANCH  20  24
HETATM   24  O3  UNL     1      -1.989  14.639  16.747  1.00  0.00    -0.352 OA
BRANCH  24  25
HETATM   25  C28 UNL     1      -3.066  15.487  16.330  1.00  0.00     0.292 C 
HETATM   26  O4  UNL     1      -4.328  14.885  16.574  1.00  0.00    -0.348 OA
HETATM   27  C29 UNL     1      -5.430  15.791  16.336  1.00  0.00     0.179 C 
HETATM   28  C31 UNL     1      -5.182  16.751  15.157  1.00  0.00     0.180 C 
HETATM   29  C32 UNL     1      -4.209  16.135  14.146  1.00  0.00     0.183 C 
HETATM   30  C33 UNL     1      -2.895  15.685  14.807  1.00  0.00     0.204 C 
BRANCH  27  31
HETATM   31  C30 UNL     1      -6.650  14.901  16.078  1.00  0.00     0.198 C 
BRANCH  31  32
HETATM   32  O5  UNL     1      -7.843  15.676  16.176  1.00  0.00    -0.398 OA
HETATM   33  H46 UNL     1      -7.738  16.214  16.986  1.00  0.00     0.209 HD
ENDBRANCH  31  32
ENDBRANCH  27  31
BRANCH  28  34
HETATM   34  O6  UNL     1      -4.597  17.969  15.657  1.00  0.00    -0.390 OA
HETATM   35  H48 UNL     1      -4.367  18.487  14.859  1.00  0.00     0.210 HD
ENDBRANCH  28  34
BRANCH  29  36
HETATM   36  O7  UNL     1      -3.944  17.091  13.108  1.00  0.00    -0.390 OA
HETATM   37  H50 UNL     1      -2.985  17.293  13.190  1.00  0.00     0.210 HD
ENDBRANCH  29  36
BRANCH  30  38
HETATM   38  O8  UNL     1      -1.847  16.634  14.513  1.00  0.00    -0.388 OA
HETATM   39  H52 UNL     1      -1.091  16.369  15.069  1.00  0.00     0.210 HD
ENDBRANCH  30  38
ENDBRANCH  24  25
ENDBRANCH  20  24
BRANCH   1  40
HETATM   40  C2  UNL     1      -1.391   4.541  12.437  1.00  0.00    -0.010 C 
HETATM   41  C1  UNL     1       0.114   4.812  12.641  1.00  0.00     0.010 C 
BRANCH  40  42
HETATM   42  C3  UNL     1      -1.676   4.140  10.977  1.00  0.00     0.031 C 
BRANCH  42  43
HETATM   43  C4  UNL     1      -3.041   3.600  10.615  1.00  0.00    -0.027 C 
HETATM   44  C5  UNL     1      -4.017   3.198  11.449  1.00  0.00     0.006 C 
BRANCH  44  45
HETATM   45  C6  UNL     1      -5.390   2.687  11.064  1.00  0.00     0.068 C 
HETATM   46  C7  UNL     1      -5.492   1.183  11.336  1.00  0.00     0.050 C 
HETATM   47  C8  UNL     1      -6.472   3.442  11.840  1.00  0.00     0.050 C 
BRANCH  45  48
HETATM   48  O1  UNL     1      -5.634   2.900   9.674  1.00  0.00    -0.387 OA
HETATM   49  H15 UNL     1      -4.966   2.388   9.187  1.00  0.00     0.211 HD
ENDBRANCH  45  48
ENDBRANCH  44  45
ENDBRANCH  42  43
ENDBRANCH  40  42
ENDBRANCH   1  40
TORSDOF 12
ENDMDL
MODEL 8
REMARK minimizedAffinity -7.60456419
REMARK CNNscore 0.278462321
REMARK CNNaffinity 6.3286767
REMARK  12 active torsions:
REMARK  status: ('A' for Active; 'I' for Inactive)
REMARK    1  A    between atoms: C2_2  and  C3_3 
REMARK    2  A    between atoms: C2_2  and  C9_10 
REMARK    3  A    between atoms: C3_3  and  C4_4 
REMARK    4  A    between atoms: C5_5  and  C6_6 
REMARK    5  A    between atoms: C6_6  and  O1_9 
REMARK    6  A    between atoms: C27_29  and  O3_30 
REMARK    7  A    between atoms: O3_30  and  C28_31 
REMARK    8  A    between atoms: C29_33  and  C30_34 
REMARK    9  A    between atoms: C30_34  and  O5_35 
REMARK   10  A    between atoms: C31_36  and  O6_37 
REMARK   11  A    between atoms: C32_38  and  O7_39 
REMARK   12  A    between atoms: C33_40  and  O8_41 
ROOT
HETATM    1  C9  UNL     1      -2.075  12.649  15.993  1.00  0.00    -0.002 C 
HETATM    2  C10 UNL     1      -2.232  14.117  16.484  1.00  0.00     0.006 C 
HETATM    3  C11 UNL     1      -1.043  14.388  17.459  1.00  0.00     0.011 C 
HETATM    4  C12 UNL     1      -0.131  13.143  17.323  1.00  0.00    -0.029 C 
HETATM    5  C13 UNL     1       0.740  13.426  16.035  1.00  0.00     0.016 C 
HETATM    6  C14 UNL     1       0.907  12.780  18.451  1.00  0.00     0.028 C 
HETATM    7  C15 UNL     1       0.986  13.560  19.731  1.00  0.00    -0.021 C 
HETATM    8  C16 UNL     1       1.666  13.031  20.766  1.00  0.00     0.008 C 
HETATM    9  C17 UNL     1       2.291  11.626  20.717  1.00  0.00     0.092 C 
HETATM   10  O2  UNL     1       1.208  10.788  21.148  1.00  0.00    -0.374 OA
HETATM   11  C18 UNL     1       0.363  10.617  19.968  1.00  0.00     0.179 C 
HETATM   12  C19 UNL     1       1.104  11.233  18.718  1.00  0.00    -0.004 C 
HETATM   13  C20 UNL     1       0.819  10.418  17.448  1.00  0.00     0.014 C 
HETATM   14  C21 UNL     1      -0.550  10.677  16.778  1.00  0.00     0.011 C 
HETATM   15  C22 UNL     1      -1.215  12.021  17.132  1.00  0.00    -0.032 C 
HETATM   16  C23 UNL     1      -2.086  11.887  18.419  1.00  0.00     0.016 C 
HETATM   17  C24 UNL     1       2.521  11.048  19.300  1.00  0.00     0.036 C 
HETATM   18  C25 UNL     1       3.774  11.564  18.597  1.00  0.00     0.011 C 
HETATM   19  C26 UNL     1       4.544  12.632  19.378  1.00  0.00     0.033 C 
HETATM   20  C27 UNL     1       4.688  12.407  20.906  1.00  0.00     0.136 C 
HETATM   21  C34 UNL     1       3.597  11.479  21.547  1.00  0.00     0.014 C 
HETATM   22  C35 UNL     1       4.070   9.997  21.597  1.00  0.00     0.021 C 
HETATM   23  C36 UNL     1       3.398  11.875  23.031  1.00  0.00     0.021 C 
ENDROOT
BRANCH  20  24
HETATM   24  O3  UNL     1       5.985  11.888  21.236  1.00  0.00    -0.352 OA
BRANCH  24  25
HETATM   25  C28 UNL     1       6.815  12.777  21.992  1.00  0.00     0.292 C 
HETATM   26  O4  UNL     1       6.135  13.982  22.309  1.00  0.00    -0.348 OA
HETATM   27  C29 UNL     1       6.882  14.816  23.225  1.00  0.00     0.179 C 
HETATM   28  C31 UNL     1       8.404  14.756  22.997  1.00  0.00     0.180 C 
HETATM   29  C32 UNL     1       8.725  14.403  21.540  1.00  0.00     0.183 C 
HETATM   30  C33 UNL     1       8.025  13.109  21.091  1.00  0.00     0.204 C 
BRANCH  27  31
HETATM   31  C30 UNL     1       6.347  16.237  23.022  1.00  0.00     0.198 C 
BRANCH  31  32
HETATM   32  O5  UNL     1       7.028  17.138  23.892  1.00  0.00    -0.398 OA
HETATM   33  H46 UNL     1       7.046  16.696  24.763  1.00  0.00     0.209 HD
ENDBRANCH  31  32
ENDBRANCH  27  31
BRANCH  28  34
HETATM   34  O6  UNL     1       8.967  13.732  23.840  1.00  0.00    -0.390 OA
HETATM   35  H48 UNL     1       9.906  13.671  23.574  1.00  0.00     0.210 HD
ENDBRANCH  28  34
BRANCH  29  36
HETATM   36  O7  UNL     1      10.148  14.280  21.391  1.00  0.00    -0.390 OA
HETATM   37  H50 UNL     1      10.295  13.336  21.153  1.00  0.00     0.210 HD
ENDBRANCH  29  36
BRANCH  30  38
HETATM   38  O8  UNL     1       8.975  12.022  21.060  1.00  0.00    -0.388 OA
HETATM   39  H52 UNL     1       8.446  11.217  20.908  1.00  0.00     0.210 HD
ENDBRANCH  30  38
ENDBRANCH  24  25
ENDBRANCH  20  24
BRANCH   1  40
HETATM   40  C2  UNL     1      -3.325  11.938  15.386  1.00  0.00    -0.010 C 
HETATM   41  C1  UNL     1      -4.550  12.266  16.265  1.00  0.00     0.010 C 
BRANCH  40  42
HETATM   42  C3  UNL     1      -3.229  10.420  15.136  1.00  0.00     0.031 C 
BRANCH  42  43
HETATM   43  C4  UNL     1      -4.496   9.594  15.132  1.00  0.00    -0.027 C 
HETATM   44  C5  UNL     1      -4.612   8.264  14.962  1.00  0.00     0.006 C 
BRANCH  44  45
HETATM   45  C6  UNL     1      -5.890   7.452  14.991  1.00  0.00     0.068 C 
HETATM   46  C7  UNL     1      -7.106   8.379  15.080  1.00  0.00     0.050 C 
HETATM   47  C8  UNL     1      -5.984   6.569  13.743  1.00  0.00     0.050 C 
BRANCH  45  48
HETATM   48  O1  UNL     1      -5.911   6.588  16.127  1.00  0.00    -0.387 OA
HETATM   49  H15 UNL     1      -5.889   7.156  16.916  1.00  0.00     0.211 HD
ENDBRANCH  45  48
ENDBRANCH  44  45
ENDBRANCH  42  43
ENDBRANCH  40  42
ENDBRANCH   1  40
TORSDOF 12
ENDMDL
MODEL 9
REMARK minimizedAffinity -7.52448225
REMARK CNNscore 0.260738492
REMARK CNNaffinity 5.96746683
REMARK  12 active torsions:
REMARK  status: ('A' for Active; 'I' for Inactive)
REMARK    1  A    between atoms: C2_2  and  C3_3 
REMARK    2  A    between atoms: C2_2  and  C9_10 
REMARK    3  A    between atoms: C3_3  and  C4_4 
REMARK    4  A    between atoms: C5_5  and  C6_6 
REMARK    5  A    between atoms: C6_6  and  O1_9 
REMARK    6  A    between atoms: C27_29  and  O3_30 
REMARK    7  A    between atoms: O3_30  and  C28_31 
REMARK    8  A    between atoms: C29_33  and  C30_34 
REMARK    9  A    between atoms: C30_34  and  O5_35 
REMARK   10  A    between atoms: C31_36  and  O6_37 
REMARK   11  A    between atoms: C32_38  and  O7_39 
REMARK   12  A    between atoms: C33_40  and  O8_41 
ROOT
HETATM    1  C9  UNL     1     -16.191   7.722  14.255  1.00  0.00    -0.002 C 
HETATM    2  C10 UNL     1     -15.816   7.739  15.765  1.00  0.00     0.006 C 
HETATM    3  C11 UNL     1     -15.876   6.257  16.254  1.00  0.00     0.011 C 
HETATM    4  C12 UNL     1     -16.072   5.425  14.962  1.00  0.00    -0.029 C 
HETATM    5  C13 UNL     1     -14.616   5.265  14.368  1.00  0.00     0.016 C 
HETATM    6  C14 UNL     1     -16.653   3.962  15.029  1.00  0.00     0.028 C 
HETATM    7  C15 UNL     1     -17.125   3.359  16.319  1.00  0.00    -0.021 C 
HETATM    8  C16 UNL     1     -17.879   2.244  16.272  1.00  0.00     0.008 C 
HETATM    9  C17 UNL     1     -18.345   1.614  14.947  1.00  0.00     0.092 C 
HETATM   10  O2  UNL     1     -19.569   2.316  14.682  1.00  0.00    -0.374 OA
HETATM   11  C18 UNL     1     -19.160   3.594  14.103  1.00  0.00     0.179 C 
HETATM   12  C19 UNL     1     -17.605   3.555  13.833  1.00  0.00    -0.004 C 
HETATM   13  C20 UNL     1     -17.245   4.334  12.559  1.00  0.00     0.014 C 
HETATM   14  C21 UNL     1     -17.193   5.872  12.705  1.00  0.00     0.011 C 
HETATM   15  C22 UNL     1     -16.999   6.393  14.141  1.00  0.00    -0.032 C 
HETATM   16  C23 UNL     1     -18.372   6.564  14.861  1.00  0.00     0.016 C 
HETATM   17  C24 UNL     1     -17.533   2.020  13.694  1.00  0.00     0.036 C 
HETATM   18  C25 UNL     1     -16.216   1.270  13.518  1.00  0.00     0.011 C 
HETATM   19  C26 UNL     1     -15.879   0.305  14.657  1.00  0.00     0.033 C 
HETATM   20  C27 UNL     1     -17.050  -0.540  15.221  1.00  0.00     0.136 C 
HETATM   21  C34 UNL     1     -18.479   0.066  14.989  1.00  0.00     0.014 C 
HETATM   22  C35 UNL     1     -19.122  -0.480  13.682  1.00  0.00     0.021 C 
HETATM   23  C36 UNL     1     -19.426  -0.411  16.119  1.00  0.00     0.021 C 
ENDROOT
BRANCH  20  24
HETATM   24  O3  UNL     1     -17.028  -1.877  14.698  1.00  0.00    -0.352 OA
BRANCH  24  25
HETATM   25  C28 UNL     1     -15.726  -2.468  14.612  1.00  0.00     0.292 C 
HETATM   26  O4  UNL     1     -15.395  -2.806  13.273  1.00  0.00    -0.348 OA
HETATM   27  C29 UNL     1     -14.019  -3.232  13.133  1.00  0.00     0.179 C 
HETATM   28  C31 UNL     1     -13.506  -4.034  14.343  1.00  0.00     0.180 C 
HETATM   29  C32 UNL     1     -14.662  -4.741  15.060  1.00  0.00     0.183 C 
HETATM   30  C33 UNL     1     -15.783  -3.763  15.452  1.00  0.00     0.204 C 
BRANCH  27  31
HETATM   31  C30 UNL     1     -13.974  -4.071  11.852  1.00  0.00     0.198 C 
BRANCH  31  32
HETATM   32  O5  UNL     1     -15.298  -4.428  11.461  1.00  0.00    -0.398 OA
HETATM   33  H46 UNL     1     -15.739  -4.729  12.279  1.00  0.00     0.209 HD
ENDBRANCH  31  32
ENDBRANCH  27  31
BRANCH  28  34
HETATM   34  O6  UNL     1     -12.884  -3.131  15.277  1.00  0.00    -0.390 OA
HETATM   35  H48 UNL     1     -12.678  -3.678  16.062  1.00  0.00     0.210 HD
ENDBRANCH  28  34
BRANCH  29  36
HETATM   36  O7  UNL     1     -14.152  -5.409  16.224  1.00  0.00    -0.390 OA
HETATM   37  H50 UNL     1     -14.585  -4.957  16.984  1.00  0.00     0.210 HD
ENDBRANCH  29  36
BRANCH  30  38
HETATM   38  O8  UNL     1     -15.714  -3.478  16.866  1.00  0.00    -0.388 OA
HETATM   39  H52 UNL     1     -16.352  -2.756  17.019  1.00  0.00     0.210 HD
ENDBRANCH  30  38
ENDBRANCH  24  25
ENDBRANCH  20  24
BRANCH   1  40
HETATM   40  C2  UNL     1     -16.662   9.058  13.598  1.00  0.00    -0.010 C 
HETATM   41  C1  UNL     1     -16.921   8.801  12.099  1.00  0.00     0.010 C 
BRANCH  40  42
HETATM   42  C3  UNL     1     -15.766  10.298  13.788  1.00  0.00     0.031 C 
BRANCH  42  43
HETATM   43  C4  UNL     1     -14.330  10.247  13.318  1.00  0.00    -0.027 C 
HETATM   44  C5  UNL     1     -13.497   9.191  13.324  1.00  0.00     0.006 C 
BRANCH  44  45
HETATM   45  C6  UNL     1     -12.069   9.155  12.821  1.00  0.00     0.068 C 
HETATM   46  C7  UNL     1     -11.154   9.940  13.766  1.00  0.00     0.050 C 
HETATM   47  C8  UNL     1     -11.588   7.707  12.695  1.00  0.00     0.050 C 
BRANCH  45  48
HETATM   48  O1  UNL     1     -11.978   9.749  11.526  1.00  0.00    -0.387 OA
HETATM   49  H15 UNL     1     -12.249  10.678  11.620  1.00  0.00     0.211 HD
ENDBRANCH  45  48
ENDBRANCH  44  45
ENDBRANCH  42  43
ENDBRANCH  40  42
ENDBRANCH   1  40
TORSDOF 12
ENDMDL
