MODEL 1
REMARK minimizedAffinity -9.87747192
REMARK  9 active torsions:
REMARK  status: ('A' for Active; 'I' for Inactive)
REMARK    1  A    between atoms: C2_2  and  C3_3 
REMARK    2  A    between atoms: C2_2  and  C9_12 
REMARK    3  A    between atoms: C3_3  and  C4_4 
REMARK    4  A    between atoms: C4_4  and  C5_5 
REMARK    5  A    between atoms: C5_5  and  O1_6 
REMARK    6  A    between atoms: C5_5  and  C6_7 
REMARK    7  A    between atoms: C6_7  and  O2_9 
REMARK    8  A    between atoms: C6_7  and  C8_10 
REMARK    9  A    between atoms: C8_10  and  O3_11 
ROOT
HETATM    1  C9  UNL     1      -0.720  51.047 -21.856  1.00  0.00    -0.002 C 
HETATM    2  C10 UNL     1      -0.867  50.781 -20.339  1.00  0.00     0.007 C 
HETATM    3  C11 UNL     1      -2.108  49.871 -20.166  1.00  0.00     0.015 C 
HETATM    4  C12 UNL     1      -2.465  49.382 -21.588  1.00  0.00    -0.005 C 
HETATM    5  C13 UNL     1      -1.563  48.142 -21.877  1.00  0.00     0.021 C 
HETATM    6  C14 UNL     1      -3.872  48.915 -21.940  1.00  0.00    -0.000 C 
HETATM    7  C15 UNL     1      -4.358  49.046 -23.204  1.00  0.00    -0.060 C 
HETATM    8  C16 UNL     1      -3.527  49.731 -24.302  1.00  0.00     0.036 C 
HETATM    9  C17 UNL     1      -2.164  50.330 -23.902  1.00  0.00     0.015 C 
HETATM   10  C18 UNL     1      -2.126  50.681 -22.412  1.00  0.00    -0.028 C 
HETATM   11  C19 UNL     1      -3.131  51.848 -22.164  1.00  0.00     0.016 C 
HETATM   12  C20 UNL     1      -5.788  48.587 -23.603  1.00  0.00    -0.014 C 
HETATM   13  C21 UNL     1      -6.685  49.835 -23.442  1.00  0.00     0.020 C 
HETATM   14  C22 UNL     1      -5.846  48.094 -25.073  1.00  0.00     0.021 C 
HETATM   15  C23 UNL     1      -7.194  47.515 -25.467  1.00  0.00     0.080 C 
HETATM   16  C24 UNL     1      -7.574  46.370 -24.564  1.00  0.00     0.135 C 
HETATM   17  O4  UNL     1      -8.017  45.328 -25.050  1.00  0.00    -0.297 OA
HETATM   18  C25 UNL     1      -7.502  46.602 -23.046  1.00  0.00     0.018 C 
HETATM   19  C26 UNL     1      -7.473  45.210 -22.362  1.00  0.00     0.023 C 
HETATM   20  C27 UNL     1      -8.804  47.289 -22.609  1.00  0.00     0.023 C 
HETATM   21  C28 UNL     1      -6.184  47.376 -22.690  1.00  0.00     0.020 C 
HETATM   22  C29 UNL     1      -6.087  47.777 -21.215  1.00  0.00     0.090 C 
HETATM   23  C30 UNL     1      -4.700  48.268 -20.872  1.00  0.00     0.157 C 
HETATM   24  O5  UNL     1      -4.281  48.151 -19.721  1.00  0.00    -0.293 OA
ENDROOT
BRANCH   1  25
HETATM   25  C2  UNL     1      -0.081  52.405 -22.278  1.00  0.00    -0.014 C 
HETATM   26  C1  UNL     1       1.036  52.918 -21.359  1.00  0.00     0.010 C 
BRANCH  25  27
HETATM   27  C3  UNL     1       0.460  52.281 -23.727  1.00  0.00     0.007 C 
BRANCH  27  28
HETATM   28  C4  UNL     1      -0.049  53.298 -24.756  1.00  0.00     0.035 C 
BRANCH  28  29
HETATM   29  C5  UNL     1       0.464  53.232 -26.203  1.00  0.00     0.154 C 
BRANCH  29  30
HETATM   30  O1  UNL     1      -0.482  53.852 -27.085  1.00  0.00    -0.392 OA
HETATM   31  H10 UNL     1      -0.198  53.621 -27.992  1.00  0.00     0.210 HD
ENDBRANCH  29  30
BRANCH  29  32
HETATM   32  C6  UNL     1       0.948  51.882 -26.816  1.00  0.00     0.101 C 
HETATM   33  C7  UNL     1      -0.043  50.724 -26.656  1.00  0.00     0.051 C 
BRANCH  32  34
HETATM   34  O2  UNL     1       1.011  52.106 -28.253  1.00  0.00    -0.385 OA
HETATM   35  H14 UNL     1       1.630  52.842 -28.415  1.00  0.00     0.210 HD
ENDBRANCH  32  34
BRANCH  32  36
HETATM   36  C8  UNL     1       2.358  51.472 -26.345  1.00  0.00     0.204 C 
BRANCH  36  37
HETATM   37  O3  UNL     1       3.311  51.475 -27.394  1.00  0.00    -0.398 OA
HETATM   38  H17 UNL     1       4.184  51.316 -26.996  1.00  0.00     0.209 HD
ENDBRANCH  36  37
ENDBRANCH  32  36
ENDBRANCH  29  32
ENDBRANCH  28  29
ENDBRANCH  27  28
ENDBRANCH  25  27
ENDBRANCH   1  25
TORSDOF 9
ENDMDL
MODEL 2
REMARK minimizedAffinity -9.82447147
REMARK  9 active torsions:
REMARK  status: ('A' for Active; 'I' for Inactive)
REMARK    1  A    between atoms: C2_2  and  C3_3 
REMARK    2  A    between atoms: C2_2  and  C9_12 
REMARK    3  A    between atoms: C3_3  and  C4_4 
REMARK    4  A    between atoms: C4_4  and  C5_5 
REMARK    5  A    between atoms: C5_5  and  O1_6 
REMARK    6  A    between atoms: C5_5  and  C6_7 
REMARK    7  A    between atoms: C6_7  and  O2_9 
REMARK    8  A    between atoms: C6_7  and  C8_10 
REMARK    9  A    between atoms: C8_10  and  O3_11 
ROOT
HETATM    1  C9  UNL     1      -0.795  50.725 -21.559  1.00  0.00    -0.002 C 
HETATM    2  C10 UNL     1      -0.973  50.322 -20.076  1.00  0.00     0.007 C 
HETATM    3  C11 UNL     1      -2.216  49.403 -20.011  1.00  0.00     0.015 C 
HETATM    4  C12 UNL     1      -2.544  49.046 -21.479  1.00  0.00    -0.005 C 
HETATM    5  C13 UNL     1      -1.637  47.836 -21.861  1.00  0.00     0.021 C 
HETATM    6  C14 UNL     1      -3.944  48.616 -21.900  1.00  0.00    -0.000 C 
HETATM    7  C15 UNL     1      -4.404  48.862 -23.157  1.00  0.00    -0.060 C 
HETATM    8  C16 UNL     1      -3.551  49.642 -24.171  1.00  0.00     0.036 C 
HETATM    9  C17 UNL     1      -2.196  50.200 -23.690  1.00  0.00     0.015 C 
HETATM   10  C18 UNL     1      -2.189  50.414 -22.175  1.00  0.00    -0.028 C 
HETATM   11  C19 UNL     1      -3.198  51.556 -21.842  1.00  0.00     0.016 C 
HETATM   12  C20 UNL     1      -5.826  48.444 -23.625  1.00  0.00    -0.014 C 
HETATM   13  C21 UNL     1      -6.726  49.674 -23.369  1.00  0.00     0.020 C 
HETATM   14  C22 UNL     1      -5.854  48.087 -25.134  1.00  0.00     0.021 C 
HETATM   15  C23 UNL     1      -7.194  47.548 -25.606  1.00  0.00     0.080 C 
HETATM   16  C24 UNL     1      -7.592  46.327 -24.818  1.00  0.00     0.135 C 
HETATM   17  O4  UNL     1      -8.026  45.334 -25.407  1.00  0.00    -0.297 OA
HETATM   18  C25 UNL     1      -7.551  46.420 -23.285  1.00  0.00     0.018 C 
HETATM   19  C26 UNL     1      -7.536  44.971 -22.730  1.00  0.00     0.023 C 
HETATM   20  C27 UNL     1      -8.862  47.067 -22.814  1.00  0.00     0.023 C 
HETATM   21  C28 UNL     1      -6.241  47.156 -22.834  1.00  0.00     0.020 C 
HETATM   22  C29 UNL     1      -6.173  47.422 -21.326  1.00  0.00     0.090 C 
HETATM   23  C30 UNL     1      -4.794  47.876 -20.912  1.00  0.00     0.157 C 
HETATM   24  O5  UNL     1      -4.399  47.654 -19.768  1.00  0.00    -0.293 OA
ENDROOT
BRANCH   1  25
HETATM   25  C2  UNL     1      -0.146  52.115 -21.843  1.00  0.00    -0.014 C 
HETATM   26  C1  UNL     1       1.045  52.478 -20.947  1.00  0.00     0.010 C 
BRANCH  25  27
HETATM   27  C3  UNL     1       0.290  52.175 -23.331  1.00  0.00     0.007 C 
BRANCH  27  28
HETATM   28  C4  UNL     1      -0.503  53.106 -24.258  1.00  0.00     0.035 C 
BRANCH  28  29
HETATM   29  C5  UNL     1       0.024  53.393 -25.672  1.00  0.00     0.154 C 
BRANCH  29  30
HETATM   30  O1  UNL     1       0.295  54.794 -25.818  1.00  0.00    -0.392 OA
HETATM   31  H10 UNL     1       0.446  54.943 -26.772  1.00  0.00     0.210 HD
ENDBRANCH  29  30
BRANCH  29  32
HETATM   32  C6  UNL     1      -0.740  52.872 -26.927  1.00  0.00     0.101 C 
HETATM   33  C7  UNL     1      -0.390  51.436 -27.332  1.00  0.00     0.051 C 
BRANCH  32  34
HETATM   34  O2  UNL     1      -2.140  52.803 -26.532  1.00  0.00    -0.385 OA
HETATM   35  H14 UNL     1      -2.419  53.696 -26.259  1.00  0.00     0.210 HD
ENDBRANCH  32  34
BRANCH  32  36
HETATM   36  C8  UNL     1      -0.644  53.826 -28.137  1.00  0.00     0.204 C 
BRANCH  36  37
HETATM   37  O3  UNL     1      -1.905  54.331 -28.539  1.00  0.00    -0.398 OA
HETATM   38  H17 UNL     1      -1.745  55.002 -29.226  1.00  0.00     0.209 HD
ENDBRANCH  36  37
ENDBRANCH  32  36
ENDBRANCH  29  32
ENDBRANCH  28  29
ENDBRANCH  27  28
ENDBRANCH  25  27
ENDBRANCH   1  25
TORSDOF 9
ENDMDL
MODEL 3
REMARK minimizedAffinity -9.6072588
REMARK  9 active torsions:
REMARK  status: ('A' for Active; 'I' for Inactive)
REMARK    1  A    between atoms: C2_2  and  C3_3 
REMARK    2  A    between atoms: C2_2  and  C9_12 
REMARK    3  A    between atoms: C3_3  and  C4_4 
REMARK    4  A    between atoms: C4_4  and  C5_5 
REMARK    5  A    between atoms: C5_5  and  O1_6 
REMARK    6  A    between atoms: C5_5  and  C6_7 
REMARK    7  A    between atoms: C6_7  and  O2_9 
REMARK    8  A    between atoms: C6_7  and  C8_10 
REMARK    9  A    between atoms: C8_10  and  O3_11 
ROOT
HETATM    1  C9  UNL     1      -1.445  50.989 -23.277  1.00  0.00    -0.002 C 
HETATM    2  C10 UNL     1      -1.020  52.471 -23.409  1.00  0.00     0.007 C 
HETATM    3  C11 UNL     1      -0.388  52.874 -22.054  1.00  0.00     0.015 C 
HETATM    4  C12 UNL     1      -0.180  51.550 -21.284  1.00  0.00    -0.005 C 
HETATM    5  C13 UNL     1       1.178  50.955 -21.771  1.00  0.00     0.021 C 
HETATM    6  C14 UNL     1      -0.081  51.520 -19.764  1.00  0.00    -0.000 C 
HETATM    7  C15 UNL     1      -0.480  50.428 -19.057  1.00  0.00    -0.060 C 
HETATM    8  C16 UNL     1      -1.105  49.215 -19.766  1.00  0.00     0.036 C 
HETATM    9  C17 UNL     1      -1.335  49.312 -21.287  1.00  0.00     0.015 C 
HETATM   10  C18 UNL     1      -1.471  50.769 -21.738  1.00  0.00    -0.028 C 
HETATM   11  C19 UNL     1      -2.785  51.344 -21.127  1.00  0.00     0.016 C 
HETATM   12  C20 UNL     1      -0.400  50.359 -17.507  1.00  0.00    -0.014 C 
HETATM   13  C21 UNL     1      -1.782  50.830 -16.998  1.00  0.00     0.020 C 
HETATM   14  C22 UNL     1      -0.129  48.916 -17.008  1.00  0.00     0.021 C 
HETATM   15  C23 UNL     1       0.086  48.822 -15.506  1.00  0.00     0.080 C 
HETATM   16  C24 UNL     1       1.229  49.701 -15.069  1.00  0.00     0.135 C 
HETATM   17  O4  UNL     1       2.076  49.261 -14.289  1.00  0.00    -0.297 OA
HETATM   18  C25 UNL     1       1.220  51.168 -15.529  1.00  0.00     0.018 C 
HETATM   19  C26 UNL     1       2.662  51.716 -15.369  1.00  0.00     0.023 C 
HETATM   20  C27 UNL     1       0.329  51.962 -14.562  1.00  0.00     0.023 C 
HETATM   21  C28 UNL     1       0.805  51.247 -17.041  1.00  0.00     0.020 C 
HETATM   22  C29 UNL     1       0.632  52.679 -17.556  1.00  0.00     0.090 C 
HETATM   23  C30 UNL     1       0.505  52.707 -19.061  1.00  0.00     0.157 C 
HETATM   24  O5  UNL     1       0.860  53.707 -19.683  1.00  0.00    -0.293 OA
ENDROOT
BRANCH   1  25
HETATM   25  C2  UNL     1      -2.675  50.527 -24.118  1.00  0.00    -0.014 C 
HETATM   26  C1  UNL     1      -3.667  51.636 -24.491  1.00  0.00     0.010 C 
BRANCH  25  27
HETATM   27  C3  UNL     1      -2.171  49.830 -25.409  1.00  0.00     0.007 C 
BRANCH  27  28
HETATM   28  C4  UNL     1      -0.984  50.474 -26.137  1.00  0.00     0.035 C 
BRANCH  28  29
HETATM   29  C5  UNL     1      -1.227  51.668 -27.073  1.00  0.00     0.154 C 
BRANCH  29  30
HETATM   30  O1  UNL     1      -1.979  51.244 -28.220  1.00  0.00    -0.392 OA
HETATM   31  H10 UNL     1      -1.944  51.986 -28.856  1.00  0.00     0.210 HD
ENDBRANCH  29  30
BRANCH  29  32
HETATM   32  C6  UNL     1      -0.046  52.578 -27.527  1.00  0.00     0.101 C 
HETATM   33  C7  UNL     1       1.272  51.833 -27.765  1.00  0.00     0.051 C 
BRANCH  32  34
HETATM   34  O2  UNL     1      -0.419  53.077 -28.843  1.00  0.00    -0.385 OA
HETATM   35  H14 UNL     1      -1.261  53.562 -28.752  1.00  0.00     0.210 HD
ENDBRANCH  32  34
BRANCH  32  36
HETATM   36  C8  UNL     1       0.169  53.799 -26.609  1.00  0.00     0.204 C 
BRANCH  36  37
HETATM   37  O3  UNL     1      -0.220  55.019 -27.217  1.00  0.00    -0.398 OA
HETATM   38  H17 UNL     1      -0.158  55.716 -26.540  1.00  0.00     0.209 HD
ENDBRANCH  36  37
ENDBRANCH  32  36
ENDBRANCH  29  32
ENDBRANCH  28  29
ENDBRANCH  27  28
ENDBRANCH  25  27
ENDBRANCH   1  25
TORSDOF 9
ENDMDL
MODEL 4
REMARK minimizedAffinity -9.19253731
REMARK  9 active torsions:
REMARK  status: ('A' for Active; 'I' for Inactive)
REMARK    1  A    between atoms: C2_2  and  C3_3 
REMARK    2  A    between atoms: C2_2  and  C9_12 
REMARK    3  A    between atoms: C3_3  and  C4_4 
REMARK    4  A    between atoms: C4_4  and  C5_5 
REMARK    5  A    between atoms: C5_5  and  O1_6 
REMARK    6  A    between atoms: C5_5  and  C6_7 
REMARK    7  A    between atoms: C6_7  and  O2_9 
REMARK    8  A    between atoms: C6_7  and  C8_10 
REMARK    9  A    between atoms: C8_10  and  O3_11 
ROOT
HETATM    1  C9  UNL     1      -5.863  48.969 -21.770  1.00  0.00    -0.002 C 
HETATM    2  C10 UNL     1      -4.977  48.770 -20.517  1.00  0.00     0.007 C 
HETATM    3  C11 UNL     1      -3.641  49.498 -20.799  1.00  0.00     0.015 C 
HETATM    4  C12 UNL     1      -3.892  50.353 -22.061  1.00  0.00    -0.005 C 
HETATM    5  C13 UNL     1      -4.547  51.685 -21.580  1.00  0.00     0.021 C 
HETATM    6  C14 UNL     1      -2.748  50.800 -22.962  1.00  0.00    -0.000 C 
HETATM    7  C15 UNL     1      -2.943  51.008 -24.293  1.00  0.00    -0.060 C 
HETATM    8  C16 UNL     1      -4.310  50.735 -24.941  1.00  0.00     0.036 C 
HETATM    9  C17 UNL     1      -5.422  50.145 -24.051  1.00  0.00     0.015 C 
HETATM   10  C18 UNL     1      -4.836  49.379 -22.863  1.00  0.00    -0.028 C 
HETATM   11  C19 UNL     1      -4.097  48.121 -23.415  1.00  0.00     0.016 C 
HETATM   12  C20 UNL     1      -1.802  51.460 -25.246  1.00  0.00    -0.014 C 
HETATM   13  C21 UNL     1      -1.212  50.157 -25.834  1.00  0.00     0.020 C 
HETATM   14  C22 UNL     1      -2.332  52.353 -26.397  1.00  0.00     0.021 C 
HETATM   15  C23 UNL     1      -1.234  52.924 -27.279  1.00  0.00     0.080 C 
HETATM   16  C24 UNL     1      -0.251  53.725 -26.465  1.00  0.00     0.135 C 
HETATM   17  O4  UNL     1       0.121  54.830 -26.869  1.00  0.00    -0.297 OA
HETATM   18  C25 UNL     1       0.344  53.067 -25.211  1.00  0.00     0.018 C 
HETATM   19  C26 UNL     1       0.924  54.198 -24.321  1.00  0.00     0.023 C 
HETATM   20  C27 UNL     1       1.526  52.191 -25.650  1.00  0.00     0.023 C 
HETATM   21  C28 UNL     1      -0.786  52.320 -24.418  1.00  0.00     0.020 C 
HETATM   22  C29 UNL     1      -0.268  51.514 -23.222  1.00  0.00     0.090 C 
HETATM   23  C30 UNL     1      -1.404  51.046 -22.345  1.00  0.00     0.157 C 
HETATM   24  O5  UNL     1      -1.207  50.852 -21.146  1.00  0.00    -0.293 OA
ENDROOT
BRANCH   1  25
HETATM   25  C2  UNL     1      -6.891  47.842 -22.096  1.00  0.00    -0.014 C 
HETATM   26  C1  UNL     1      -7.288  46.953 -20.911  1.00  0.00     0.010 C 
BRANCH  25  27
HETATM   27  C3  UNL     1      -8.165  48.482 -22.710  1.00  0.00     0.007 C 
BRANCH  27  28
HETATM   28  C4  UNL     1      -8.791  47.778 -23.920  1.00  0.00     0.035 C 
BRANCH  28  29
HETATM   29  C5  UNL     1      -8.861  48.510 -25.269  1.00  0.00     0.154 C 
BRANCH  29  30
HETATM   30  O1  UNL     1      -8.903  49.928 -25.053  1.00  0.00    -0.392 OA
HETATM   31  H10 UNL     1      -9.129  50.327 -25.917  1.00  0.00     0.210 HD
ENDBRANCH  29  30
BRANCH  29  32
HETATM   32  C6  UNL     1      -9.922  48.110 -26.339  1.00  0.00     0.101 C 
HETATM   33  C7  UNL     1     -10.705  46.835 -26.007  1.00  0.00     0.051 C 
BRANCH  32  34
HETATM   34  O2  UNL     1     -10.924  49.166 -26.310  1.00  0.00    -0.385 OA
HETATM   35  H14 UNL     1     -10.477  50.009 -26.512  1.00  0.00     0.210 HD
ENDBRANCH  32  34
BRANCH  32  36
HETATM   36  C8  UNL     1      -9.349  48.049 -27.770  1.00  0.00     0.204 C 
BRANCH  36  37
HETATM   37  O3  UNL     1      -8.729  49.260 -28.166  1.00  0.00    -0.398 OA
HETATM   38  H17 UNL     1      -8.302  49.103 -29.026  1.00  0.00     0.209 HD
ENDBRANCH  36  37
ENDBRANCH  32  36
ENDBRANCH  29  32
ENDBRANCH  28  29
ENDBRANCH  27  28
ENDBRANCH  25  27
ENDBRANCH   1  25
TORSDOF 9
ENDMDL
MODEL 5
REMARK minimizedAffinity -9.07816029
REMARK  9 active torsions:
REMARK  status: ('A' for Active; 'I' for Inactive)
REMARK    1  A    between atoms: C2_2  and  C3_3 
REMARK    2  A    between atoms: C2_2  and  C9_12 
REMARK    3  A    between atoms: C3_3  and  C4_4 
REMARK    4  A    between atoms: C4_4  and  C5_5 
REMARK    5  A    between atoms: C5_5  and  O1_6 
REMARK    6  A    between atoms: C5_5  and  C6_7 
REMARK    7  A    between atoms: C6_7  and  O2_9 
REMARK    8  A    between atoms: C6_7  and  C8_10 
REMARK    9  A    between atoms: C8_10  and  O3_11 
ROOT
HETATM    1  C9  UNL     1      -1.572  49.179 -18.102  1.00  0.00    -0.002 C 
HETATM    2  C10 UNL     1      -2.865  48.338 -18.227  1.00  0.00     0.007 C 
HETATM    3  C11 UNL     1      -3.271  48.370 -19.721  1.00  0.00     0.015 C 
HETATM    4  C12 UNL     1      -2.055  48.961 -20.469  1.00  0.00    -0.005 C 
HETATM    5  C13 UNL     1      -1.073  47.778 -20.735  1.00  0.00     0.021 C 
HETATM    6  C14 UNL     1      -2.207  49.638 -21.826  1.00  0.00    -0.000 C 
HETATM    7  C15 UNL     1      -1.359  50.628 -22.213  1.00  0.00    -0.060 C 
HETATM    8  C16 UNL     1      -0.262  51.143 -21.267  1.00  0.00     0.036 C 
HETATM    9  C17 UNL     1      -0.208  50.554 -19.843  1.00  0.00     0.015 C 
HETATM   10  C18 UNL     1      -1.576  50.022 -19.408  1.00  0.00    -0.028 C 
HETATM   11  C19 UNL     1      -2.546  51.237 -19.271  1.00  0.00     0.016 C 
HETATM   12  C20 UNL     1      -1.482  51.346 -23.586  1.00  0.00    -0.014 C 
HETATM   13  C21 UNL     1      -2.355  52.595 -23.325  1.00  0.00     0.020 C 
HETATM   14  C22 UNL     1      -0.098  51.787 -24.131  1.00  0.00     0.021 C 
HETATM   15  C23 UNL     1      -0.156  52.377 -25.531  1.00  0.00     0.080 C 
HETATM   16  C24 UNL     1      -0.765  51.401 -26.503  1.00  0.00     0.135 C 
HETATM   17  O4  UNL     1      -0.232  51.216 -27.600  1.00  0.00    -0.297 OA
HETATM   18  C25 UNL     1      -2.109  50.758 -26.126  1.00  0.00     0.018 C 
HETATM   19  C26 UNL     1      -2.286  49.494 -27.008  1.00  0.00     0.023 C 
HETATM   20  C27 UNL     1      -3.228  51.736 -26.514  1.00  0.00     0.023 C 
HETATM   21  C28 UNL     1      -2.086  50.331 -24.615  1.00  0.00     0.020 C 
HETATM   22  C29 UNL     1      -3.432  49.805 -24.105  1.00  0.00     0.090 C 
HETATM   23  C30 UNL     1      -3.288  49.160 -22.747  1.00  0.00     0.157 C 
HETATM   24  O5  UNL     1      -4.070  48.273 -22.410  1.00  0.00    -0.293 OA
ENDROOT
BRANCH   1  25
HETATM   25  C2  UNL     1      -1.331  49.908 -16.744  1.00  0.00    -0.014 C 
HETATM   26  C1  UNL     1      -2.323  49.557 -15.626  1.00  0.00     0.010 C 
BRANCH  25  27
HETATM   27  C3  UNL     1       0.114  49.614 -16.262  1.00  0.00     0.007 C 
BRANCH  27  28
HETATM   28  C4  UNL     1       1.135  50.755 -16.365  1.00  0.00     0.035 C 
BRANCH  28  29
HETATM   29  C5  UNL     1       1.194  51.819 -15.259  1.00  0.00     0.154 C 
BRANCH  29  30
HETATM   30  O1  UNL     1       1.289  53.126 -15.844  1.00  0.00    -0.392 OA
HETATM   31  H10 UNL     1       1.506  53.736 -15.111  1.00  0.00     0.210 HD
ENDBRANCH  29  30
BRANCH  29  32
HETATM   32  C6  UNL     1       2.213  51.694 -14.086  1.00  0.00     0.101 C 
HETATM   33  C7  UNL     1       2.933  50.342 -14.015  1.00  0.00     0.051 C 
BRANCH  32  34
HETATM   34  O2  UNL     1       3.271  52.649 -14.383  1.00  0.00    -0.385 OA
HETATM   35  H14 UNL     1       2.866  53.534 -14.443  1.00  0.00     0.210 HD
ENDBRANCH  32  34
BRANCH  32  36
HETATM   36  C8  UNL     1       1.613  52.072 -12.716  1.00  0.00     0.204 C 
BRANCH  36  37
HETATM   37  O3  UNL     1       0.663  53.120 -12.803  1.00  0.00    -0.398 OA
HETATM   38  H17 UNL     1       0.256  53.219 -11.924  1.00  0.00     0.209 HD
ENDBRANCH  36  37
ENDBRANCH  32  36
ENDBRANCH  29  32
ENDBRANCH  28  29
ENDBRANCH  27  28
ENDBRANCH  25  27
ENDBRANCH   1  25
TORSDOF 9
ENDMDL
MODEL 6
REMARK minimizedAffinity -8.90326595
REMARK  9 active torsions:
REMARK  status: ('A' for Active; 'I' for Inactive)
REMARK    1  A    between atoms: C2_2  and  C3_3 
REMARK    2  A    between atoms: C2_2  and  C9_12 
REMARK    3  A    between atoms: C3_3  and  C4_4 
REMARK    4  A    between atoms: C4_4  and  C5_5 
REMARK    5  A    between atoms: C5_5  and  O1_6 
REMARK    6  A    between atoms: C5_5  and  C6_7 
REMARK    7  A    between atoms: C6_7  and  O2_9 
REMARK    8  A    between atoms: C6_7  and  C8_10 
REMARK    9  A    between atoms: C8_10  and  O3_11 
ROOT
HETATM    1  C9  UNL     1      -4.623  47.904 -20.247  1.00  0.00    -0.002 C 
HETATM    2  C10 UNL     1      -5.342  47.127 -21.375  1.00  0.00     0.007 C 
HETATM    3  C11 UNL     1      -4.708  47.594 -22.709  1.00  0.00     0.015 C 
HETATM    4  C12 UNL     1      -3.444  48.388 -22.311  1.00  0.00    -0.005 C 
HETATM    5  C13 UNL     1      -2.303  47.344 -22.104  1.00  0.00     0.021 C 
HETATM    6  C14 UNL     1      -2.835  49.433 -23.238  1.00  0.00    -0.000 C 
HETATM    7  C15 UNL     1      -2.154  50.500 -22.740  1.00  0.00    -0.060 C 
HETATM    8  C16 UNL     1      -2.035  50.722 -21.223  1.00  0.00     0.036 C 
HETATM    9  C17 UNL     1      -2.777  49.741 -20.293  1.00  0.00     0.015 C 
HETATM   10  C18 UNL     1      -3.969  49.095 -21.005  1.00  0.00    -0.028 C 
HETATM   11  C19 UNL     1      -5.025  50.207 -21.288  1.00  0.00     0.016 C 
HETATM   12  C20 UNL     1      -1.522  51.589 -23.651  1.00  0.00    -0.014 C 
HETATM   13  C21 UNL     1      -2.591  52.699 -23.774  1.00  0.00     0.020 C 
HETATM   14  C22 UNL     1      -0.230  52.181 -23.029  1.00  0.00     0.021 C 
HETATM   15  C23 UNL     1       0.493  53.156 -23.943  1.00  0.00     0.080 C 
HETATM   16  C24 UNL     1       0.848  52.504 -25.254  1.00  0.00     0.135 C 
HETATM   17  O4  UNL     1       1.978  52.655 -25.726  1.00  0.00    -0.297 OA
HETATM   18  C25 UNL     1      -0.267  51.769 -26.013  1.00  0.00     0.018 C 
HETATM   19  C26 UNL     1       0.412  50.819 -27.035  1.00  0.00     0.023 C 
HETATM   20  C27 UNL     1      -1.055  52.809 -26.823  1.00  0.00     0.023 C 
HETATM   21  C28 UNL     1      -1.119  50.917 -25.008  1.00  0.00     0.020 C 
HETATM   22  C29 UNL     1      -2.343  50.254 -25.648  1.00  0.00     0.090 C 
HETATM   23  C30 UNL     1      -2.965  49.239 -24.719  1.00  0.00     0.157 C 
HETATM   24  O5  UNL     1      -3.586  48.286 -25.186  1.00  0.00    -0.293 OA
ENDROOT
BRANCH   1  25
HETATM   25  C2  UNL     1      -5.448  48.203 -18.957  1.00  0.00    -0.014 C 
HETATM   26  C1  UNL     1      -4.659  48.843 -17.808  1.00  0.00     0.010 C 
BRANCH  25  27
HETATM   27  C3  UNL     1      -6.650  49.113 -19.326  1.00  0.00     0.007 C 
BRANCH  27  28
HETATM   28  C4  UNL     1      -8.030  48.448 -19.419  1.00  0.00     0.035 C 
BRANCH  28  29
HETATM   29  C5  UNL     1      -8.921  48.376 -18.169  1.00  0.00     0.154 C 
BRANCH  29  30
HETATM   30  O1  UNL     1      -8.844  49.611 -17.443  1.00  0.00    -0.392 OA
HETATM   31  H10 UNL     1      -9.273  49.445 -16.580  1.00  0.00     0.210 HD
ENDBRANCH  29  30
BRANCH  29  32
HETATM   32  C6  UNL     1      -8.809  47.176 -17.180  1.00  0.00     0.101 C 
HETATM   33  C7  UNL     1      -8.467  45.838 -17.844  1.00  0.00     0.051 C 
BRANCH  32  34
HETATM   34  O2  UNL     1      -7.654  47.467 -16.342  1.00  0.00    -0.385 OA
HETATM   35  H14 UNL     1      -7.816  48.318 -15.893  1.00  0.00     0.210 HD
ENDBRANCH  32  34
BRANCH  32  36
HETATM   36  C8  UNL     1     -10.034  47.036 -16.253  1.00  0.00     0.204 C 
BRANCH  36  37
HETATM   37  O3  UNL     1      -9.729  47.300 -14.895  1.00  0.00    -0.398 OA
HETATM   38  H17 UNL     1     -10.568  47.299 -14.401  1.00  0.00     0.209 HD
ENDBRANCH  36  37
ENDBRANCH  32  36
ENDBRANCH  29  32
ENDBRANCH  28  29
ENDBRANCH  27  28
ENDBRANCH  25  27
ENDBRANCH   1  25
TORSDOF 9
ENDMDL
MODEL 7
REMARK minimizedAffinity -8.83768845
REMARK  9 active torsions:
REMARK  status: ('A' for Active; 'I' for Inactive)
REMARK    1  A    between atoms: C2_2  and  C3_3 
REMARK    2  A    between atoms: C2_2  and  C9_12 
REMARK    3  A    between atoms: C3_3  and  C4_4 
REMARK    4  A    between atoms: C4_4  and  C5_5 
REMARK    5  A    between atoms: C5_5  and  O1_6 
REMARK    6  A    between atoms: C5_5  and  C6_7 
REMARK    7  A    between atoms: C6_7  and  O2_9 
REMARK    8  A    between atoms: C6_7  and  C8_10 
REMARK    9  A    between atoms: C8_10  and  O3_11 
ROOT
HETATM    1  C9  UNL     1      -0.561  52.285 -21.316  1.00  0.00    -0.002 C 
HETATM    2  C10 UNL     1      -0.169  51.964 -22.778  1.00  0.00     0.007 C 
HETATM    3  C11 UNL     1      -1.275  51.040 -23.341  1.00  0.00     0.015 C 
HETATM    4  C12 UNL     1      -2.426  51.095 -22.311  1.00  0.00    -0.005 C 
HETATM    5  C13 UNL     1      -3.273  52.360 -22.651  1.00  0.00     0.021 C 
HETATM    6  C14 UNL     1      -3.451  49.973 -22.201  1.00  0.00    -0.000 C 
HETATM    7  C15 UNL     1      -4.062  49.695 -21.017  1.00  0.00    -0.060 C 
HETATM    8  C16 UNL     1      -3.688  50.462 -19.738  1.00  0.00     0.036 C 
HETATM    9  C17 UNL     1      -2.547  51.495 -19.827  1.00  0.00     0.015 C 
HETATM   10  C18 UNL     1      -1.590  51.169 -20.978  1.00  0.00    -0.028 C 
HETATM   11  C19 UNL     1      -0.857  49.836 -20.634  1.00  0.00     0.016 C 
HETATM   12  C20 UNL     1      -5.109  48.558 -20.862  1.00  0.00    -0.014 C 
HETATM   13  C21 UNL     1      -4.309  47.316 -20.405  1.00  0.00     0.020 C 
HETATM   14  C22 UNL     1      -6.181  48.903 -19.796  1.00  0.00     0.021 C 
HETATM   15  C23 UNL     1      -7.298  47.878 -19.702  1.00  0.00     0.080 C 
HETATM   16  C24 UNL     1      -7.985  47.705 -21.032  1.00  0.00     0.135 C 
HETATM   17  O4  UNL     1      -9.216  47.682 -21.087  1.00  0.00    -0.297 OA
HETATM   18  C25 UNL     1      -7.104  47.442 -22.263  1.00  0.00     0.018 C 
HETATM   19  C26 UNL     1      -7.952  47.765 -23.522  1.00  0.00     0.023 C 
HETATM   20  C27 UNL     1      -6.789  45.939 -22.309  1.00  0.00     0.023 C 
HETATM   21  C28 UNL     1      -5.852  48.388 -22.231  1.00  0.00     0.020 C 
HETATM   22  C29 UNL     1      -4.840  48.106 -23.346  1.00  0.00     0.090 C 
HETATM   23  C30 UNL     1      -3.806  49.203 -23.437  1.00  0.00     0.157 C 
HETATM   24  O5  UNL     1      -3.256  49.433 -24.513  1.00  0.00    -0.293 OA
ENDROOT
BRANCH   1  25
HETATM   25  C2  UNL     1       0.604  52.554 -20.313  1.00  0.00    -0.014 C 
HETATM   26  C1  UNL     1       1.430  53.816 -20.593  1.00  0.00     0.010 C 
BRANCH  25  27
HETATM   27  C3  UNL     1       0.026  52.625 -18.875  1.00  0.00     0.007 C 
BRANCH  27  28
HETATM   28  C4  UNL     1       0.666  51.718 -17.816  1.00  0.00     0.035 C 
BRANCH  28  29
HETATM   29  C5  UNL     1       0.738  52.193 -16.356  1.00  0.00     0.154 C 
BRANCH  29  30
HETATM   30  O1  UNL     1       1.529  53.387 -16.270  1.00  0.00    -0.392 OA
HETATM   31  H10 UNL     1       1.691  53.536 -15.318  1.00  0.00     0.210 HD
ENDBRANCH  29  30
BRANCH  29  32
HETATM   32  C6  UNL     1       1.146  51.209 -15.218  1.00  0.00     0.101 C 
HETATM   33  C7  UNL     1       0.859  49.735 -15.522  1.00  0.00     0.051 C 
BRANCH  32  34
HETATM   34  O2  UNL     1       2.598  51.284 -15.138  1.00  0.00    -0.385 OA
HETATM   35  H14 UNL     1       2.841  52.209 -14.948  1.00  0.00     0.210 HD
ENDBRANCH  32  34
BRANCH  32  36
HETATM   36  C8  UNL     1       0.582  51.608 -13.838  1.00  0.00     0.204 C 
BRANCH  36  37
HETATM   37  O3  UNL     1       0.474  53.012 -13.674  1.00  0.00    -0.398 OA
HETATM   38  H17 UNL     1       0.011  53.172 -12.833  1.00  0.00     0.209 HD
ENDBRANCH  36  37
ENDBRANCH  32  36
ENDBRANCH  29  32
ENDBRANCH  28  29
ENDBRANCH  27  28
ENDBRANCH  25  27
ENDBRANCH   1  25
TORSDOF 9
ENDMDL
MODEL 8
REMARK minimizedAffinity -8.7785778
REMARK  9 active torsions:
REMARK  status: ('A' for Active; 'I' for Inactive)
REMARK    1  A    between atoms: C2_2  and  C3_3 
REMARK    2  A    between atoms: C2_2  and  C9_12 
REMARK    3  A    between atoms: C3_3  and  C4_4 
REMARK    4  A    between atoms: C4_4  and  C5_5 
REMARK    5  A    between atoms: C5_5  and  O1_6 
REMARK    6  A    between atoms: C5_5  and  C6_7 
REMARK    7  A    between atoms: C6_7  and  O2_9 
REMARK    8  A    between atoms: C6_7  and  C8_10 
REMARK    9  A    between atoms: C8_10  and  O3_11 
ROOT
HETATM    1  C9  UNL     1      -0.965  49.639 -20.642  1.00  0.00    -0.002 C 
HETATM    2  C10 UNL     1      -1.380  49.026 -19.283  1.00  0.00     0.007 C 
HETATM    3  C11 UNL     1      -2.703  48.260 -19.528  1.00  0.00     0.015 C 
HETATM    4  C12 UNL     1      -2.861  48.186 -21.063  1.00  0.00    -0.005 C 
HETATM    5  C13 UNL     1      -2.030  46.956 -21.543  1.00  0.00     0.021 C 
HETATM    6  C14 UNL     1      -4.225  47.997 -21.716  1.00  0.00    -0.000 C 
HETATM    7  C15 UNL     1      -4.485  48.495 -22.955  1.00  0.00    -0.060 C 
HETATM    8  C16 UNL     1      -3.432  49.323 -23.708  1.00  0.00     0.036 C 
HETATM    9  C17 UNL     1      -2.108  49.634 -22.982  1.00  0.00     0.015 C 
HETATM   10  C18 UNL     1      -2.286  49.598 -21.462  1.00  0.00    -0.028 C 
HETATM   11  C19 UNL     1      -3.218  50.780 -21.055  1.00  0.00     0.016 C 
HETATM   12  C20 UNL     1      -5.864  48.327 -23.652  1.00  0.00    -0.014 C 
HETATM   13  C21 UNL     1      -6.669  49.596 -23.292  1.00  0.00     0.020 C 
HETATM   14  C22 UNL     1      -5.720  48.225 -25.193  1.00  0.00     0.021 C 
HETATM   15  C23 UNL     1      -7.029  47.930 -25.907  1.00  0.00     0.080 C 
HETATM   16  C24 UNL     1      -7.645  46.652 -25.398  1.00  0.00     0.135 C 
HETATM   17  O4  UNL     1      -8.088  45.825 -26.199  1.00  0.00    -0.297 OA
HETATM   18  C25 UNL     1      -7.804  46.490 -23.879  1.00  0.00     0.018 C 
HETATM   19  C26 UNL     1      -8.002  44.979 -23.589  1.00  0.00     0.023 C 
HETATM   20  C27 UNL     1      -9.099  47.201 -23.459  1.00  0.00     0.023 C 
HETATM   21  C28 UNL     1      -6.503  46.985 -23.154  1.00  0.00     0.020 C 
HETATM   22  C29 UNL     1      -6.616  46.994 -21.626  1.00  0.00     0.090 C 
HETATM   23  C30 UNL     1      -5.268  47.211 -20.979  1.00  0.00     0.157 C 
HETATM   24  O5  UNL     1      -5.054  46.762 -19.854  1.00  0.00    -0.293 OA
ENDROOT
BRANCH   1  25
HETATM   25  C2  UNL     1      -0.155  50.972 -20.599  1.00  0.00    -0.014 C 
HETATM   26  C1  UNL     1      -0.308  51.872 -21.831  1.00  0.00     0.010 C 
BRANCH  25  27
HETATM   27  C3  UNL     1      -0.556  51.766 -19.327  1.00  0.00     0.007 C 
BRANCH  27  28
HETATM   28  C4  UNL     1       0.580  52.282 -18.434  1.00  0.00     0.035 C 
BRANCH  28  29
HETATM   29  C5  UNL     1       1.037  51.444 -17.231  1.00  0.00     0.154 C 
BRANCH  29  30
HETATM   30  O1  UNL     1       0.004  50.521 -16.858  1.00  0.00    -0.392 OA
HETATM   31  H10 UNL     1       0.270  50.152 -15.993  1.00  0.00     0.210 HD
ENDBRANCH  29  30
BRANCH  29  32
HETATM   32  C6  UNL     1       1.614  52.130 -15.955  1.00  0.00     0.101 C 
HETATM   33  C7  UNL     1       3.127  51.969 -15.779  1.00  0.00     0.051 C 
BRANCH  32  34
HETATM   34  O2  UNL     1       1.426  53.559 -16.160  1.00  0.00    -0.385 OA
HETATM   35  H14 UNL     1       0.472  53.721 -16.283  1.00  0.00     0.210 HD
ENDBRANCH  32  34
BRANCH  32  36
HETATM   36  C8  UNL     1       0.863  51.742 -14.664  1.00  0.00     0.204 C 
BRANCH  36  37
HETATM   37  O3  UNL     1       0.520  52.864 -13.869  1.00  0.00    -0.398 OA
HETATM   38  H17 UNL     1      -0.040  52.545 -13.141  1.00  0.00     0.209 HD
ENDBRANCH  36  37
ENDBRANCH  32  36
ENDBRANCH  29  32
ENDBRANCH  28  29
ENDBRANCH  27  28
ENDBRANCH  25  27
ENDBRANCH   1  25
TORSDOF 9
ENDMDL
MODEL 9
REMARK minimizedAffinity -8.74046707
REMARK  9 active torsions:
REMARK  status: ('A' for Active; 'I' for Inactive)
REMARK    1  A    between atoms: C2_2  and  C3_3 
REMARK    2  A    between atoms: C2_2  and  C9_12 
REMARK    3  A    between atoms: C3_3  and  C4_4 
REMARK    4  A    between atoms: C4_4  and  C5_5 
REMARK    5  A    between atoms: C5_5  and  O1_6 
REMARK    6  A    between atoms: C5_5  and  C6_7 
REMARK    7  A    between atoms: C6_7  and  O2_9 
REMARK    8  A    between atoms: C6_7  and  C8_10 
REMARK    9  A    between atoms: C8_10  and  O3_11 
ROOT
HETATM    1  C9  UNL     1      -1.106  50.674 -21.742  1.00  0.00    -0.002 C 
HETATM    2  C10 UNL     1      -0.298  49.893 -20.678  1.00  0.00     0.007 C 
HETATM    3  C11 UNL     1      -1.246  48.810 -20.108  1.00  0.00     0.015 C 
HETATM    4  C12 UNL     1      -2.465  48.785 -21.057  1.00  0.00    -0.005 C 
HETATM    5  C13 UNL     1      -2.084  47.859 -22.253  1.00  0.00     0.021 C 
HETATM    6  C14 UNL     1      -3.822  48.268 -20.597  1.00  0.00    -0.000 C 
HETATM    7  C15 UNL     1      -4.975  48.746 -21.138  1.00  0.00    -0.060 C 
HETATM    8  C16 UNL     1      -4.946  49.873 -22.184  1.00  0.00     0.036 C 
HETATM    9  C17 UNL     1      -3.579  50.491 -22.537  1.00  0.00     0.015 C 
HETATM   10  C18 UNL     1      -2.579  50.320 -21.390  1.00  0.00    -0.028 C 
HETATM   11  C19 UNL     1      -3.073  51.178 -20.185  1.00  0.00     0.016 C 
HETATM   12  C20 UNL     1      -6.378  48.248 -20.694  1.00  0.00    -0.014 C 
HETATM   13  C21 UNL     1      -6.835  49.227 -19.588  1.00  0.00     0.020 C 
HETATM   14  C22 UNL     1      -7.396  48.278 -21.864  1.00  0.00     0.021 C 
HETATM   15  C23 UNL     1      -8.747  47.679 -21.510  1.00  0.00     0.080 C 
HETATM   16  C24 UNL     1      -8.598  46.254 -21.041  1.00  0.00     0.135 C 
HETATM   17  O4  UNL     1      -9.359  45.385 -21.474  1.00  0.00    -0.297 OA
HETATM   18  C25 UNL     1      -7.568  45.968 -19.938  1.00  0.00     0.018 C 
HETATM   19  C26 UNL     1      -7.268  44.446 -19.964  1.00  0.00     0.023 C 
HETATM   20  C27 UNL     1      -8.225  46.272 -18.584  1.00  0.00     0.023 C 
HETATM   21  C28 UNL     1      -6.243  46.757 -20.232  1.00  0.00     0.020 C 
HETATM   22  C29 UNL     1      -5.201  46.646 -19.115  1.00  0.00     0.090 C 
HETATM   23  C30 UNL     1      -3.862  47.185 -19.561  1.00  0.00     0.157 C 
HETATM   24  O5  UNL     1      -2.831  46.748 -19.053  1.00  0.00    -0.293 OA
ENDROOT
BRANCH   1  25
HETATM   25  C2  UNL     1      -0.729  52.172 -21.957  1.00  0.00    -0.014 C 
HETATM   26  C1  UNL     1       0.600  52.612 -21.329  1.00  0.00     0.010 C 
BRANCH  25  27
HETATM   27  C3  UNL     1      -0.703  52.473 -23.480  1.00  0.00     0.007 C 
BRANCH  27  28
HETATM   28  C4  UNL     1      -0.304  51.324 -24.415  1.00  0.00     0.035 C 
BRANCH  28  29
HETATM   29  C5  UNL     1      -0.411  51.515 -25.936  1.00  0.00     0.154 C 
BRANCH  29  30
HETATM   30  O1  UNL     1      -0.864  50.299 -26.550  1.00  0.00    -0.392 OA
HETATM   31  H10 UNL     1      -0.737  50.419 -27.512  1.00  0.00     0.210 HD
ENDBRANCH  29  30
BRANCH  29  32
HETATM   32  C6  UNL     1       0.782  52.102 -26.751  1.00  0.00     0.101 C 
HETATM   33  C7  UNL     1       0.592  52.058 -28.271  1.00  0.00     0.051 C 
BRANCH  32  34
HETATM   34  O2  UNL     1       0.811  53.523 -26.433  1.00  0.00    -0.385 OA
HETATM   35  H14 UNL     1       0.927  53.612 -25.469  1.00  0.00     0.210 HD
ENDBRANCH  32  34
BRANCH  32  36
HETATM   36  C8  UNL     1       2.146  51.506 -26.347  1.00  0.00     0.204 C 
BRANCH  36  37
HETATM   37  O3  UNL     1       3.200  51.923 -27.198  1.00  0.00    -0.398 OA
HETATM   38  H17 UNL     1       4.033  51.596 -26.813  1.00  0.00     0.209 HD
ENDBRANCH  36  37
ENDBRANCH  32  36
ENDBRANCH  29  32
ENDBRANCH  28  29
ENDBRANCH  27  28
ENDBRANCH  25  27
ENDBRANCH   1  25
TORSDOF 9
ENDMDL
