MODEL 1
REMARK minimizedAffinity -9.64585686
REMARK  6 active torsions:
REMARK  status: ('A' for Active; 'I' for Inactive)
REMARK    1  A    between atoms: C4_4  and  C5_5 
REMARK    2  A    between atoms: C5_5  and  C6_6 
REMARK    3  A    between atoms: C6_6  and  C7_7 
REMARK    4  A    between atoms: C7_7  and  C9_9 
REMARK    5  A    between atoms: C24_24  and  O1_25 
REMARK    6  A    between atoms: C27_28  and  O2_29 
ROOT
HETATM    1  C9  UNL     1      -0.693  49.666 -18.675  1.00  0.00    -0.002 C 
HETATM    2  C10 UNL     1      -1.894  48.728 -18.356  1.00  0.00     0.007 C 
HETATM    3  C11 UNL     1      -2.681  48.523 -19.664  1.00  0.00     0.015 C 
HETATM    4  C12 UNL     1      -1.742  49.032 -20.770  1.00  0.00    -0.013 C 
HETATM    5  C13 UNL     1      -0.754  47.870 -21.103  1.00  0.00     0.021 C 
HETATM    6  C14 UNL     1      -2.334  49.440 -22.115  1.00  0.00    -0.065 C 
HETATM    7  C15 UNL     1      -1.698  50.365 -22.880  1.00  0.00    -0.068 C 
HETATM    8  C16 UNL     1      -0.449  51.095 -22.378  1.00  0.00     0.036 C 
HETATM    9  C17 UNL     1       0.042  50.778 -20.948  1.00  0.00     0.015 C 
HETATM   10  C18 UNL     1      -1.098  50.277 -20.053  1.00  0.00    -0.029 C 
HETATM   11  C19 UNL     1      -2.103  51.449 -19.825  1.00  0.00     0.016 C 
HETATM   12  C20 UNL     1      -2.235  50.775 -24.269  1.00  0.00    -0.014 C 
HETATM   13  C21 UNL     1      -3.082  52.056 -24.059  1.00  0.00     0.020 C 
HETATM   14  C22 UNL     1      -1.094  51.081 -25.281  1.00  0.00     0.016 C 
HETATM   15  C23 UNL     1      -1.595  51.373 -26.695  1.00  0.00     0.033 C 
HETATM   16  C24 UNL     1      -2.479  50.254 -27.232  1.00  0.00     0.118 C 
HETATM   17  C25 UNL     1      -3.611  49.897 -26.273  1.00  0.00     0.039 C 
HETATM   18  C26 UNL     1      -3.073  49.598 -24.864  1.00  0.00     0.029 C 
HETATM   19  C27 UNL     1      -4.181  49.165 -23.897  1.00  0.00     0.127 C 
HETATM   20  C28 UNL     1      -3.596  48.726 -22.548  1.00  0.00     0.067 C 
ENDROOT
BRANCH   1  21
HETATM   21  C7  UNL     1      -0.354  50.609 -17.486  1.00  0.00    -0.014 C 
HETATM   22  C8  UNL     1      -1.502  50.721 -16.476  1.00  0.00     0.010 C 
BRANCH  21  23
HETATM   23  C6  UNL     1       0.079  52.028 -17.940  1.00  0.00     0.008 C 
BRANCH  23  24
HETATM   24  C5  UNL     1       1.481  52.459 -17.494  1.00  0.00     0.028 C 
BRANCH  24  25
HETATM   25  C4  UNL     1       1.796  51.914 -16.126  1.00  0.00    -0.025 C 
HETATM   26  C2  UNL     1       2.990  51.880 -15.502  1.00  0.00    -0.091 C 
HETATM   27  C1  UNL     1       3.117  51.276 -14.127  1.00  0.00     0.042 C 
HETATM   28  C3  UNL     1       4.281  52.417 -16.058  1.00  0.00     0.042 C 
ENDBRANCH  24  25
ENDBRANCH  23  24
ENDBRANCH  21  23
ENDBRANCH   1  21
BRANCH  19  29
HETATM   29  O2  UNL     1      -4.937  48.084 -24.449  1.00  0.00    -0.395 OA
HETATM   30  H44 UNL     1      -4.320  47.360 -24.651  1.00  0.00     0.210 HD
ENDBRANCH  19  29
BRANCH  16  31
HETATM   31  O1  UNL     1      -3.018  50.635 -28.493  1.00  0.00    -0.396 OA
HETATM   32  H39 UNL     1      -3.568  51.426 -28.359  1.00  0.00     0.210 HD
ENDBRANCH  16  31
TORSDOF 6
ENDMDL
MODEL 2
REMARK minimizedAffinity -9.51351643
REMARK  6 active torsions:
REMARK  status: ('A' for Active; 'I' for Inactive)
REMARK    1  A    between atoms: C4_4  and  C5_5 
REMARK    2  A    between atoms: C5_5  and  C6_6 
REMARK    3  A    between atoms: C6_6  and  C7_7 
REMARK    4  A    between atoms: C7_7  and  C9_9 
REMARK    5  A    between atoms: C24_24  and  O1_25 
REMARK    6  A    between atoms: C27_28  and  O2_29 
ROOT
HETATM    1  C9  UNL     1      -1.429  49.379 -18.483  1.00  0.00    -0.002 C 
HETATM    2  C10 UNL     1      -2.653  48.430 -18.635  1.00  0.00     0.007 C 
HETATM    3  C11 UNL     1      -3.047  48.417 -20.125  1.00  0.00     0.015 C 
HETATM    4  C12 UNL     1      -1.849  49.050 -20.851  1.00  0.00    -0.013 C 
HETATM    5  C13 UNL     1      -0.787  47.924 -21.052  1.00  0.00     0.021 C 
HETATM    6  C14 UNL     1      -2.055  49.646 -22.240  1.00  0.00    -0.065 C 
HETATM    7  C15 UNL     1      -1.250  50.653 -22.669  1.00  0.00    -0.068 C 
HETATM    8  C16 UNL     1      -0.201  51.284 -21.750  1.00  0.00     0.036 C 
HETATM    9  C17 UNL     1      -0.117  50.770 -20.296  1.00  0.00     0.015 C 
HETATM   10  C18 UNL     1      -1.450  50.176 -19.824  1.00  0.00    -0.029 C 
HETATM   11  C19 UNL     1      -2.500  51.326 -19.727  1.00  0.00     0.016 C 
HETATM   12  C20 UNL     1      -1.391  51.255 -24.085  1.00  0.00    -0.014 C 
HETATM   13  C21 UNL     1      -2.287  52.512 -23.947  1.00  0.00     0.020 C 
HETATM   14  C22 UNL     1      -0.022  51.671 -24.693  1.00  0.00     0.016 C 
HETATM   15  C23 UNL     1      -0.120  52.158 -26.139  1.00  0.00     0.033 C 
HETATM   16  C24 UNL     1      -0.801  51.138 -27.043  1.00  0.00     0.118 C 
HETATM   17  C25 UNL     1      -2.148  50.679 -26.488  1.00  0.00     0.039 C 
HETATM   18  C26 UNL     1      -2.012  50.184 -25.039  1.00  0.00     0.029 C 
HETATM   19  C27 UNL     1      -3.336  49.648 -24.481  1.00  0.00     0.127 C 
HETATM   20  C28 UNL     1      -3.136  49.021 -23.094  1.00  0.00     0.067 C 
ENDROOT
BRANCH   1  21
HETATM   21  C7  UNL     1      -1.447  50.147 -17.132  1.00  0.00    -0.014 C 
HETATM   22  C8  UNL     1      -2.843  50.663 -16.766  1.00  0.00     0.010 C 
BRANCH  21  23
HETATM   23  C6  UNL     1      -0.431  51.319 -17.085  1.00  0.00     0.008 C 
BRANCH  23  24
HETATM   24  C5  UNL     1       0.573  51.270 -15.928  1.00  0.00     0.028 C 
BRANCH  24  25
HETATM   25  C4  UNL     1       1.862  51.947 -16.310  1.00  0.00    -0.025 C 
HETATM   26  C2  UNL     1       3.018  51.983 -15.618  1.00  0.00    -0.091 C 
HETATM   27  C1  UNL     1       4.209  52.731 -16.158  1.00  0.00     0.042 C 
HETATM   28  C3  UNL     1       3.262  51.312 -14.293  1.00  0.00     0.042 C 
ENDBRANCH  24  25
ENDBRANCH  23  24
ENDBRANCH  21  23
ENDBRANCH   1  21
BRANCH  19  29
HETATM   29  O2  UNL     1      -3.890  48.665 -25.359  1.00  0.00    -0.395 OA
HETATM   30  H44 UNL     1      -3.229  47.963 -25.478  1.00  0.00     0.210 HD
ENDBRANCH  19  29
BRANCH  16  31
HETATM   31  O1  UNL     1      -0.979  51.695 -28.340  1.00  0.00    -0.396 OA
HETATM   32  H39 UNL     1      -1.559  52.471 -28.258  1.00  0.00     0.210 HD
ENDBRANCH  16  31
TORSDOF 6
ENDMDL
MODEL 3
REMARK minimizedAffinity -9.44234371
REMARK  6 active torsions:
REMARK  status: ('A' for Active; 'I' for Inactive)
REMARK    1  A    between atoms: C4_4  and  C5_5 
REMARK    2  A    between atoms: C5_5  and  C6_6 
REMARK    3  A    between atoms: C6_6  and  C7_7 
REMARK    4  A    between atoms: C7_7  and  C9_9 
REMARK    5  A    between atoms: C24_24  and  O1_25 
REMARK    6  A    between atoms: C27_28  and  O2_29 
ROOT
HETATM    1  C9  UNL     1      -4.889  49.333 -25.088  1.00  0.00    -0.002 C 
HETATM    2  C10 UNL     1      -5.995  49.181 -24.004  1.00  0.00     0.007 C 
HETATM    3  C11 UNL     1      -5.427  49.735 -22.683  1.00  0.00     0.015 C 
HETATM    4  C12 UNL     1      -4.169  50.516 -23.094  1.00  0.00    -0.013 C 
HETATM    5  C13 UNL     1      -4.640  51.929 -23.564  1.00  0.00     0.021 C 
HETATM    6  C14 UNL     1      -3.091  50.789 -22.051  1.00  0.00    -0.065 C 
HETATM    7  C15 UNL     1      -1.800  50.954 -22.440  1.00  0.00    -0.068 C 
HETATM    8  C16 UNL     1      -1.375  50.766 -23.899  1.00  0.00     0.036 C 
HETATM    9  C17 UNL     1      -2.458  50.335 -24.913  1.00  0.00     0.015 C 
HETATM   10  C18 UNL     1      -3.608  49.582 -24.233  1.00  0.00    -0.029 C 
HETATM   11  C19 UNL     1      -3.065  48.219 -23.703  1.00  0.00     0.016 C 
HETATM   12  C20 UNL     1      -0.682  51.278 -21.424  1.00  0.00    -0.014 C 
HETATM   13  C21 UNL     1      -0.020  49.929 -21.045  1.00  0.00     0.020 C 
HETATM   14  C22 UNL     1       0.399  52.227 -22.013  1.00  0.00     0.016 C 
HETATM   15  C23 UNL     1       1.452  52.660 -20.992  1.00  0.00     0.033 C 
HETATM   16  C24 UNL     1       0.825  53.291 -19.755  1.00  0.00     0.118 C 
HETATM   17  C25 UNL     1      -0.258  52.409 -19.139  1.00  0.00     0.039 C 
HETATM   18  C26 UNL     1      -1.307  52.002 -20.188  1.00  0.00     0.029 C 
HETATM   19  C27 UNL     1      -2.447  51.177 -19.582  1.00  0.00     0.127 C 
HETATM   20  C28 UNL     1      -3.551  50.918 -20.616  1.00  0.00     0.067 C 
ENDROOT
BRANCH   1  21
HETATM   21  C7  UNL     1      -4.911  48.166 -26.116  1.00  0.00    -0.014 C 
HETATM   22  C8  UNL     1      -4.173  48.509 -27.414  1.00  0.00     0.010 C 
BRANCH  21  23
HETATM   23  C6  UNL     1      -6.346  47.677 -26.448  1.00  0.00     0.008 C 
BRANCH  23  24
HETATM   24  C5  UNL     1      -6.705  47.664 -27.938  1.00  0.00     0.028 C 
BRANCH  24  25
HETATM   25  C4  UNL     1      -7.070  46.274 -28.387  1.00  0.00    -0.025 C 
HETATM   26  C2  UNL     1      -6.806  45.689 -29.573  1.00  0.00    -0.091 C 
HETATM   27  C1  UNL     1      -7.269  44.283 -29.850  1.00  0.00     0.042 C 
HETATM   28  C3  UNL     1      -6.051  46.324 -30.709  1.00  0.00     0.042 C 
ENDBRANCH  24  25
ENDBRANCH  23  24
ENDBRANCH  21  23
ENDBRANCH   1  21
BRANCH  19  29
HETATM   29  O2  UNL     1      -3.014  51.852 -18.456  1.00  0.00    -0.395 OA
HETATM   30  H44 UNL     1      -3.311  52.729 -18.752  1.00  0.00     0.210 HD
ENDBRANCH  19  29
BRANCH  16  31
HETATM   31  O1  UNL     1       1.837  53.555 -18.790  1.00  0.00    -0.396 OA
HETATM   32  H39 UNL     1       2.239  52.707 -18.535  1.00  0.00     0.210 HD
ENDBRANCH  16  31
TORSDOF 6
ENDMDL
MODEL 4
REMARK minimizedAffinity -9.16896534
REMARK  6 active torsions:
REMARK  status: ('A' for Active; 'I' for Inactive)
REMARK    1  A    between atoms: C4_4  and  C5_5 
REMARK    2  A    between atoms: C5_5  and  C6_6 
REMARK    3  A    between atoms: C6_6  and  C7_7 
REMARK    4  A    between atoms: C7_7  and  C9_9 
REMARK    5  A    between atoms: C24_24  and  O1_25 
REMARK    6  A    between atoms: C27_28  and  O2_29 
ROOT
HETATM    1  C9  UNL     1      -0.602  50.100 -21.336  1.00  0.00    -0.002 C 
HETATM    2  C10 UNL     1      -0.917  49.621 -19.888  1.00  0.00     0.007 C 
HETATM    3  C11 UNL     1      -2.273  48.892 -19.927  1.00  0.00     0.015 C 
HETATM    4  C12 UNL     1      -2.541  48.641 -21.420  1.00  0.00    -0.013 C 
HETATM    5  C13 UNL     1      -1.757  47.350 -21.816  1.00  0.00     0.021 C 
HETATM    6  C14 UNL     1      -3.971  48.389 -21.885  1.00  0.00    -0.065 C 
HETATM    7  C15 UNL     1      -4.335  48.707 -23.155  1.00  0.00    -0.068 C 
HETATM    8  C16 UNL     1      -3.369  49.415 -24.109  1.00  0.00     0.036 C 
HETATM    9  C17 UNL     1      -1.976  49.802 -23.564  1.00  0.00     0.015 C 
HETATM   10  C18 UNL     1      -1.989  49.979 -22.042  1.00  0.00    -0.029 C 
HETATM   11  C19 UNL     1      -2.858  51.228 -21.693  1.00  0.00     0.016 C 
HETATM   12  C20 UNL     1      -5.758  48.426 -23.684  1.00  0.00    -0.014 C 
HETATM   13  C21 UNL     1      -6.565  49.737 -23.507  1.00  0.00     0.020 C 
HETATM   14  C22 UNL     1      -5.766  48.024 -25.186  1.00  0.00     0.016 C 
HETATM   15  C23 UNL     1      -7.148  47.625 -25.704  1.00  0.00     0.033 C 
HETATM   16  C24 UNL     1      -7.776  46.517 -24.866  1.00  0.00     0.118 C 
HETATM   17  C25 UNL     1      -7.783  46.850 -23.376  1.00  0.00     0.039 C 
HETATM   18  C26 UNL     1      -6.378  47.234 -22.885  1.00  0.00     0.029 C 
HETATM   19  C27 UNL     1      -6.341  47.502 -21.377  1.00  0.00     0.127 C 
HETATM   20  C28 UNL     1      -4.903  47.731 -20.892  1.00  0.00     0.067 C 
ENDROOT
BRANCH   1  21
HETATM   21  C7  UNL     1       0.153  51.459 -21.353  1.00  0.00    -0.014 C 
HETATM   22  C8  UNL     1       0.016  52.226 -20.033  1.00  0.00     0.010 C 
BRANCH  21  23
HETATM   23  C6  UNL     1      -0.269  52.374 -22.533  1.00  0.00     0.008 C 
BRANCH  23  24
HETATM   24  C5  UNL     1       0.750  52.484 -23.673  1.00  0.00     0.028 C 
BRANCH  24  25
HETATM   25  C4  UNL     1       0.121  52.108 -24.988  1.00  0.00    -0.025 C 
HETATM   26  C2  UNL     1       0.725  51.609 -26.084  1.00  0.00    -0.091 C 
HETATM   27  C1  UNL     1      -0.073  51.306 -27.326  1.00  0.00     0.042 C 
HETATM   28  C3  UNL     1       2.193  51.297 -26.205  1.00  0.00     0.042 C 
ENDBRANCH  24  25
ENDBRANCH  23  24
ENDBRANCH  21  23
ENDBRANCH   1  21
BRANCH  19  29
HETATM   29  O2  UNL     1      -6.905  46.402 -20.657  1.00  0.00    -0.395 OA
HETATM   30  H44 UNL     1      -6.411  45.601 -20.901  1.00  0.00     0.210 HD
ENDBRANCH  19  29
BRANCH  16  31
HETATM   31  O1  UNL     1      -9.106  46.278 -25.313  1.00  0.00    -0.396 OA
HETATM   32  H39 UNL     1      -9.619  47.093 -25.182  1.00  0.00     0.210 HD
ENDBRANCH  16  31
TORSDOF 6
ENDMDL
MODEL 5
REMARK minimizedAffinity -9.15563583
REMARK  6 active torsions:
REMARK  status: ('A' for Active; 'I' for Inactive)
REMARK    1  A    between atoms: C4_4  and  C5_5 
REMARK    2  A    between atoms: C5_5  and  C6_6 
REMARK    3  A    between atoms: C6_6  and  C7_7 
REMARK    4  A    between atoms: C7_7  and  C9_9 
REMARK    5  A    between atoms: C24_24  and  O1_25 
REMARK    6  A    between atoms: C27_28  and  O2_29 
ROOT
HETATM    1  C9  UNL     1      -0.836  52.461 -22.167  1.00  0.00    -0.002 C 
HETATM    2  C10 UNL     1       0.057  52.054 -23.376  1.00  0.00     0.007 C 
HETATM    3  C11 UNL     1      -0.780  51.131 -24.281  1.00  0.00     0.015 C 
HETATM    4  C12 UNL     1      -2.226  51.309 -23.790  1.00  0.00    -0.013 C 
HETATM    5  C13 UNL     1      -2.786  52.597 -24.470  1.00  0.00     0.021 C 
HETATM    6  C14 UNL     1      -3.253  50.224 -24.100  1.00  0.00    -0.065 C 
HETATM    7  C15 UNL     1      -4.318  50.047 -23.276  1.00  0.00    -0.068 C 
HETATM    8  C16 UNL     1      -4.463  50.841 -21.975  1.00  0.00     0.036 C 
HETATM    9  C17 UNL     1      -3.329  51.823 -21.603  1.00  0.00     0.015 C 
HETATM   10  C18 UNL     1      -1.993  51.416 -22.236  1.00  0.00    -0.029 C 
HETATM   11  C19 UNL     1      -1.522  50.078 -21.587  1.00  0.00     0.016 C 
HETATM   12  C20 UNL     1      -5.407  48.994 -23.576  1.00  0.00    -0.014 C 
HETATM   13  C21 UNL     1      -5.030  47.723 -22.773  1.00  0.00     0.020 C 
HETATM   14  C22 UNL     1      -6.825  49.465 -23.145  1.00  0.00     0.016 C 
HETATM   15  C23 UNL     1      -7.937  48.493 -23.538  1.00  0.00     0.033 C 
HETATM   16  C24 UNL     1      -7.925  48.181 -25.029  1.00  0.00     0.118 C 
HETATM   17  C25 UNL     1      -6.551  47.726 -25.516  1.00  0.00     0.039 C 
HETATM   18  C26 UNL     1      -5.458  48.731 -25.115  1.00  0.00     0.029 C 
HETATM   19  C27 UNL     1      -4.079  48.337 -25.654  1.00  0.00     0.127 C 
HETATM   20  C28 UNL     1      -3.042  49.433 -25.372  1.00  0.00     0.067 C 
ENDROOT
BRANCH   1  21
HETATM   21  C7  UNL     1      -0.015  52.613 -20.856  1.00  0.00    -0.014 C 
HETATM   22  C8  UNL     1       1.449  52.985 -21.117  1.00  0.00     0.010 C 
BRANCH  21  23
HETATM   23  C6  UNL     1      -0.077  51.354 -19.950  1.00  0.00     0.008 C 
BRANCH  23  24
HETATM   24  C5  UNL     1      -0.310  51.630 -18.460  1.00  0.00     0.028 C 
BRANCH  24  25
HETATM   25  C4  UNL     1       0.927  52.208 -17.825  1.00  0.00    -0.025 C 
HETATM   26  C2  UNL     1       1.506  51.851 -16.662  1.00  0.00    -0.091 C 
HETATM   27  C1  UNL     1       2.743  52.561 -16.175  1.00  0.00     0.042 C 
HETATM   28  C3  UNL     1       1.027  50.754 -15.749  1.00  0.00     0.042 C 
ENDBRANCH  24  25
ENDBRANCH  23  24
ENDBRANCH  21  23
ENDBRANCH   1  21
BRANCH  19  29
HETATM   29  O2  UNL     1      -4.137  48.105 -27.064  1.00  0.00    -0.395 OA
HETATM   30  H44 UNL     1      -4.481  48.911 -27.486  1.00  0.00     0.210 HD
ENDBRANCH  19  29
BRANCH  16  31
HETATM   31  O1  UNL     1      -8.894  47.178 -25.315  1.00  0.00    -0.396 OA
HETATM   32  H39 UNL     1      -8.646  46.373 -24.829  1.00  0.00     0.210 HD
ENDBRANCH  16  31
TORSDOF 6
ENDMDL
MODEL 6
REMARK minimizedAffinity -9.08977795
REMARK  6 active torsions:
REMARK  status: ('A' for Active; 'I' for Inactive)
REMARK    1  A    between atoms: C4_4  and  C5_5 
REMARK    2  A    between atoms: C5_5  and  C6_6 
REMARK    3  A    between atoms: C6_6  and  C7_7 
REMARK    4  A    between atoms: C7_7  and  C9_9 
REMARK    5  A    between atoms: C24_24  and  O1_25 
REMARK    6  A    between atoms: C27_28  and  O2_29 
ROOT
HETATM    1  C9  UNL     1      -1.082  51.058 -23.097  1.00  0.00    -0.002 C 
HETATM    2  C10 UNL     1      -0.573  52.529 -23.094  1.00  0.00     0.007 C 
HETATM    3  C11 UNL     1      -0.080  52.845 -21.669  1.00  0.00     0.015 C 
HETATM    4  C12 UNL     1       0.030  51.476 -20.979  1.00  0.00    -0.013 C 
HETATM    5  C13 UNL     1       1.405  50.864 -21.393  1.00  0.00     0.021 C 
HETATM    6  C14 UNL     1       0.013  51.409 -19.456  1.00  0.00    -0.065 C 
HETATM    7  C15 UNL     1      -0.438  50.289 -18.834  1.00  0.00    -0.068 C 
HETATM    8  C16 UNL     1      -1.036  49.121 -19.624  1.00  0.00     0.036 C 
HETATM    9  C17 UNL     1      -1.153  49.277 -21.157  1.00  0.00     0.015 C 
HETATM   10  C18 UNL     1      -1.235  50.750 -21.575  1.00  0.00    -0.029 C 
HETATM   11  C19 UNL     1      -2.586  51.339 -21.061  1.00  0.00     0.016 C 
HETATM   12  C20 UNL     1      -0.430  50.158 -17.295  1.00  0.00    -0.014 C 
HETATM   13  C21 UNL     1      -1.843  50.567 -16.805  1.00  0.00     0.020 C 
HETATM   14  C22 UNL     1      -0.128  48.708 -16.823  1.00  0.00     0.016 C 
HETATM   15  C23 UNL     1       0.004  48.575 -15.306  1.00  0.00     0.033 C 
HETATM   16  C24 UNL     1       1.043  49.533 -14.735  1.00  0.00     0.118 C 
HETATM   17  C25 UNL     1       0.807  50.975 -15.177  1.00  0.00     0.039 C 
HETATM   18  C26 UNL     1       0.691  51.075 -16.707  1.00  0.00     0.029 C 
HETATM   19  C27 UNL     1       0.527  52.522 -17.185  1.00  0.00     0.127 C 
HETATM   20  C28 UNL     1       0.569  52.606 -18.717  1.00  0.00     0.067 C 
ENDROOT
BRANCH   1  21
HETATM   21  C7  UNL     1      -2.296  50.860 -24.048  1.00  0.00    -0.014 C 
HETATM   22  C8  UNL     1      -2.660  49.384 -24.239  1.00  0.00     0.010 C 
BRANCH  21  23
HETATM   23  C6  UNL     1      -2.099  51.531 -25.433  1.00  0.00     0.008 C 
BRANCH  23  24
HETATM   24  C5  UNL     1      -1.334  50.693 -26.463  1.00  0.00     0.028 C 
BRANCH  24  25
HETATM   25  C4  UNL     1       0.152  50.835 -26.269  1.00  0.00    -0.025 C 
HETATM   26  C2  UNL     1       1.038  51.458 -27.072  1.00  0.00    -0.091 C 
HETATM   27  C1  UNL     1       2.502  51.483 -26.718  1.00  0.00     0.042 C 
HETATM   28  C3  UNL     1       0.702  52.176 -28.351  1.00  0.00     0.042 C 
ENDBRANCH  24  25
ENDBRANCH  23  24
ENDBRANCH  21  23
ENDBRANCH   1  21
BRANCH  19  29
HETATM   29  O2  UNL     1       1.562  53.350 -16.646  1.00  0.00    -0.395 OA
HETATM   30  H44 UNL     1       2.417  52.970 -16.910  1.00  0.00     0.210 HD
ENDBRANCH  19  29
BRANCH  16  31
HETATM   31  O1  UNL     1       1.032  49.457 -13.314  1.00  0.00    -0.396 OA
HETATM   32  H39 UNL     1       0.153  49.734 -13.005  1.00  0.00     0.210 HD
ENDBRANCH  16  31
TORSDOF 6
ENDMDL
MODEL 7
REMARK minimizedAffinity -9.01121712
REMARK  6 active torsions:
REMARK  status: ('A' for Active; 'I' for Inactive)
REMARK    1  A    between atoms: C4_4  and  C5_5 
REMARK    2  A    between atoms: C5_5  and  C6_6 
REMARK    3  A    between atoms: C6_6  and  C7_7 
REMARK    4  A    between atoms: C7_7  and  C9_9 
REMARK    5  A    between atoms: C24_24  and  O1_25 
REMARK    6  A    between atoms: C27_28  and  O2_29 
ROOT
HETATM    1  C9  UNL     1      -0.030  50.950 -21.277  1.00  0.00    -0.002 C 
HETATM    2  C10 UNL     1      -0.102  51.346 -19.773  1.00  0.00     0.007 C 
HETATM    3  C11 UNL     1      -1.411  50.768 -19.204  1.00  0.00     0.015 C 
HETATM    4  C12 UNL     1      -1.887  49.760 -20.262  1.00  0.00    -0.013 C 
HETATM    5  C13 UNL     1      -1.110  48.430 -20.009  1.00  0.00     0.021 C 
HETATM    6  C14 UNL     1      -3.357  49.355 -20.292  1.00  0.00    -0.065 C 
HETATM    7  C15 UNL     1      -3.921  48.948 -21.459  1.00  0.00    -0.068 C 
HETATM    8  C16 UNL     1      -3.145  48.986 -22.779  1.00  0.00     0.036 C 
HETATM    9  C17 UNL     1      -1.706  49.548 -22.749  1.00  0.00     0.015 C 
HETATM   10  C18 UNL     1      -1.499  50.523 -21.584  1.00  0.00    -0.029 C 
HETATM   11  C19 UNL     1      -2.366  51.796 -21.840  1.00  0.00     0.016 C 
HETATM   12  C20 UNL     1      -5.393  48.484 -21.528  1.00  0.00    -0.014 C 
HETATM   13  C21 UNL     1      -6.227  49.714 -21.969  1.00  0.00     0.020 C 
HETATM   14  C22 UNL     1      -5.606  47.332 -22.551  1.00  0.00     0.016 C 
HETATM   15  C23 UNL     1      -7.029  46.773 -22.553  1.00  0.00     0.033 C 
HETATM   16  C24 UNL     1      -7.470  46.324 -21.166  1.00  0.00     0.118 C 
HETATM   17  C25 UNL     1      -7.270  47.411 -20.113  1.00  0.00     0.039 C 
HETATM   18  C26 UNL     1      -5.827  47.942 -20.128  1.00  0.00     0.029 C 
HETATM   19  C27 UNL     1      -5.578  48.983 -19.031  1.00  0.00     0.127 C 
HETATM   20  C28 UNL     1      -4.096  49.379 -18.973  1.00  0.00     0.067 C 
ENDROOT
BRANCH   1  21
HETATM   21  C7  UNL     1       0.647  52.051 -22.141  1.00  0.00    -0.014 C 
HETATM   22  C8  UNL     1       0.723  53.402 -21.422  1.00  0.00     0.010 C 
BRANCH  21  23
HETATM   23  C6  UNL     1      -0.027  52.236 -23.526  1.00  0.00     0.008 C 
BRANCH  23  24
HETATM   24  C5  UNL     1       0.702  53.181 -24.488  1.00  0.00     0.028 C 
BRANCH  24  25
HETATM   25  C4  UNL     1       0.409  52.816 -25.919  1.00  0.00    -0.025 C 
HETATM   26  C2  UNL     1       1.141  52.041 -26.744  1.00  0.00    -0.091 C 
HETATM   27  C1  UNL     1       0.693  51.799 -28.162  1.00  0.00     0.042 C 
HETATM   28  C3  UNL     1       2.426  51.348 -26.378  1.00  0.00     0.042 C 
ENDBRANCH  24  25
ENDBRANCH  23  24
ENDBRANCH  21  23
ENDBRANCH   1  21
BRANCH  19  29
HETATM   29  O2  UNL     1      -5.973  48.474 -17.755  1.00  0.00    -0.395 OA
HETATM   30  H44 UNL     1      -5.484  47.649 -17.598  1.00  0.00     0.210 HD
ENDBRANCH  19  29
BRANCH  16  31
HETATM   31  O1  UNL     1      -8.838  45.935 -21.203  1.00  0.00    -0.396 OA
HETATM   32  H39 UNL     1      -9.365  46.712 -21.458  1.00  0.00     0.210 HD
ENDBRANCH  16  31
TORSDOF 6
ENDMDL
MODEL 8
REMARK minimizedAffinity -8.94734669
REMARK  6 active torsions:
REMARK  status: ('A' for Active; 'I' for Inactive)
REMARK    1  A    between atoms: C4_4  and  C5_5 
REMARK    2  A    between atoms: C5_5  and  C6_6 
REMARK    3  A    between atoms: C6_6  and  C7_7 
REMARK    4  A    between atoms: C7_7  and  C9_9 
REMARK    5  A    between atoms: C24_24  and  O1_25 
REMARK    6  A    between atoms: C27_28  and  O2_29 
ROOT
HETATM    1  C9  UNL     1      -5.361  49.914 -24.045  1.00  0.00    -0.002 C 
HETATM    2  C10 UNL     1      -6.356  49.585 -22.894  1.00  0.00     0.007 C 
HETATM    3  C11 UNL     1      -5.660  49.934 -21.565  1.00  0.00     0.015 C 
HETATM    4  C12 UNL     1      -4.444  50.783 -21.971  1.00  0.00    -0.013 C 
HETATM    5  C13 UNL     1      -4.953  52.246 -22.168  1.00  0.00     0.021 C 
HETATM    6  C14 UNL     1      -3.269  50.903 -21.008  1.00  0.00    -0.065 C 
HETATM    7  C15 UNL     1      -2.021  51.140 -21.491  1.00  0.00    -0.068 C 
HETATM    8  C16 UNL     1      -1.741  51.185 -22.996  1.00  0.00     0.036 C 
HETATM    9  C17 UNL     1      -2.921  50.904 -23.954  1.00  0.00     0.015 C 
HETATM   10  C18 UNL     1      -4.001  50.043 -23.290  1.00  0.00    -0.029 C 
HETATM   11  C19 UNL     1      -3.415  48.620 -23.032  1.00  0.00     0.016 C 
HETATM   12  C20 UNL     1      -0.808  51.316 -20.550  1.00  0.00    -0.014 C 
HETATM   13  C21 UNL     1      -0.118  49.932 -20.450  1.00  0.00     0.020 C 
HETATM   14  C22 UNL     1       0.214  52.357 -21.087  1.00  0.00     0.016 C 
HETATM   15  C23 UNL     1       1.364  52.638 -20.119  1.00  0.00     0.033 C 
HETATM   16  C24 UNL     1       0.863  53.064 -18.744  1.00  0.00     0.118 C 
HETATM   17  C25 UNL     1      -0.158  52.085 -18.170  1.00  0.00     0.039 C 
HETATM   18  C26 UNL     1      -1.306  51.834 -19.162  1.00  0.00     0.029 C 
HETATM   19  C27 UNL     1      -2.385  50.912 -18.583  1.00  0.00     0.127 C 
HETATM   20  C28 UNL     1      -3.586  50.804 -19.532  1.00  0.00     0.067 C 
ENDROOT
BRANCH   1  21
HETATM   21  C7  UNL     1      -5.489  48.920 -25.233  1.00  0.00    -0.014 C 
HETATM   22  C8  UNL     1      -6.440  47.757 -24.929  1.00  0.00     0.010 C 
BRANCH  21  23
HETATM   23  C6  UNL     1      -4.121  48.361 -25.709  1.00  0.00     0.008 C 
BRANCH  23  24
HETATM   24  C5  UNL     1      -3.609  48.927 -27.038  1.00  0.00     0.028 C 
BRANCH  24  25
HETATM   25  C4  UNL     1      -2.191  49.415 -26.900  1.00  0.00    -0.025 C 
HETATM   26  C2  UNL     1      -1.725  50.669 -27.060  1.00  0.00    -0.091 C 
HETATM   27  C1  UNL     1      -0.258  50.966 -26.895  1.00  0.00     0.042 C 
HETATM   28  C3  UNL     1      -2.562  51.873 -27.398  1.00  0.00     0.042 C 
ENDBRANCH  24  25
ENDBRANCH  23  24
ENDBRANCH  21  23
ENDBRANCH   1  21
BRANCH  19  29
HETATM   29  O2  UNL     1      -2.836  51.400 -17.316  1.00  0.00    -0.395 OA
HETATM   30  H44 UNL     1      -3.157  52.309 -17.443  1.00  0.00     0.210 HD
ENDBRANCH  19  29
BRANCH  16  31
HETATM   31  O1  UNL     1       1.966  53.187 -17.853  1.00  0.00    -0.396 OA
HETATM   32  H39 UNL     1       2.387  52.314 -17.772  1.00  0.00     0.210 HD
ENDBRANCH  16  31
TORSDOF 6
ENDMDL
MODEL 9
REMARK minimizedAffinity -8.90287113
REMARK  6 active torsions:
REMARK  status: ('A' for Active; 'I' for Inactive)
REMARK    1  A    between atoms: C4_4  and  C5_5 
REMARK    2  A    between atoms: C5_5  and  C6_6 
REMARK    3  A    between atoms: C6_6  and  C7_7 
REMARK    4  A    between atoms: C7_7  and  C9_9 
REMARK    5  A    between atoms: C24_24  and  O1_25 
REMARK    6  A    between atoms: C27_28  and  O2_29 
ROOT
HETATM    1  C9  UNL     1      -3.950  50.328 -24.667  1.00  0.00    -0.002 C 
HETATM    2  C10 UNL     1      -5.360  49.799 -24.271  1.00  0.00     0.007 C 
HETATM    3  C11 UNL     1      -5.365  49.595 -22.744  1.00  0.00     0.015 C 
HETATM    4  C12 UNL     1      -4.116  50.339 -22.245  1.00  0.00    -0.013 C 
HETATM    5  C13 UNL     1      -4.502  51.845 -22.114  1.00  0.00     0.021 C 
HETATM    6  C14 UNL     1      -3.523  49.966 -20.890  1.00  0.00    -0.065 C 
HETATM    7  C15 UNL     1      -2.199  50.157 -20.656  1.00  0.00    -0.068 C 
HETATM    8  C16 UNL     1      -1.254  50.640 -21.760  1.00  0.00     0.036 C 
HETATM    9  C17 UNL     1      -1.849  50.861 -23.169  1.00  0.00     0.015 C 
HETATM   10  C18 UNL     1      -3.099  50.003 -23.400  1.00  0.00    -0.029 C 
HETATM   11  C19 UNL     1      -2.673  48.502 -23.433  1.00  0.00     0.016 C 
HETATM   12  C20 UNL     1      -1.564  49.839 -19.285  1.00  0.00    -0.014 C 
HETATM   13  C21 UNL     1      -0.974  48.410 -19.388  1.00  0.00     0.020 C 
HETATM   14  C22 UNL     1      -0.428  50.832 -18.911  1.00  0.00     0.016 C 
HETATM   15  C23 UNL     1       0.136  50.613 -17.507  1.00  0.00     0.033 C 
HETATM   16  C24 UNL     1      -0.952  50.644 -16.441  1.00  0.00     0.118 C 
HETATM   17  C25 UNL     1      -2.106  49.697 -16.762  1.00  0.00     0.039 C 
HETATM   18  C26 UNL     1      -2.658  49.952 -18.174  1.00  0.00     0.029 C 
HETATM   19  C27 UNL     1      -3.865  49.064 -18.496  1.00  0.00     0.127 C 
HETATM   20  C28 UNL     1      -4.487  49.447 -19.846  1.00  0.00     0.067 C 
ENDROOT
BRANCH   1  21
HETATM   21  C7  UNL     1      -3.495  49.798 -26.056  1.00  0.00    -0.014 C 
HETATM   22  C8  UNL     1      -4.041  48.399 -26.362  1.00  0.00     0.010 C 
BRANCH  21  23
HETATM   23  C6  UNL     1      -1.953  49.804 -26.233  1.00  0.00     0.008 C 
BRANCH  23  24
HETATM   24  C5  UNL     1      -1.371  51.073 -26.867  1.00  0.00     0.028 C 
BRANCH  24  25
HETATM   25  C4  UNL     1       0.127  50.973 -26.983  1.00  0.00    -0.025 C 
HETATM   26  C2  UNL     1       1.059  51.561 -26.207  1.00  0.00    -0.091 C 
HETATM   27  C1  UNL     1       2.525  51.356 -26.488  1.00  0.00     0.042 C 
HETATM   28  C3  UNL     1       0.778  52.443 -25.021  1.00  0.00     0.042 C 
ENDBRANCH  24  25
ENDBRANCH  23  24
ENDBRANCH  21  23
ENDBRANCH   1  21
BRANCH  19  29
HETATM   29  O2  UNL     1      -4.861  49.181 -17.476  1.00  0.00    -0.395 OA
HETATM   30  H44 UNL     1      -5.103  50.120 -17.400  1.00  0.00     0.210 HD
ENDBRANCH  19  29
BRANCH  16  31
HETATM   31  O1  UNL     1      -0.391  50.309 -15.177  1.00  0.00    -0.396 OA
HETATM   32  H39 UNL     1      -0.040  49.404 -15.234  1.00  0.00     0.210 HD
ENDBRANCH  16  31
TORSDOF 6
ENDMDL
