MODEL 1
REMARK minimizedAffinity -8.25544071
REMARK CNNscore 0.536634982
REMARK CNNaffinity 8.0261116
REMARK  11 active torsions:
REMARK  status: ('A' for Active; 'I' for Inactive)
REMARK    1  A    between atoms: C12_13  and  O2_14 
REMARK    2  A    between atoms: C19_21  and  O3_22 
REMARK    3  A    between atoms: C19_21  and  C20_23 
REMARK    4  A    between atoms: C20_23  and  C21_25 
REMARK    5  A    between atoms: C21_25  and  O5_26 
REMARK    6  A    between atoms: O5_26  and  C22_27 
REMARK    7  A    between atoms: C22_27  and  C23_29 
REMARK    8  A    between atoms: C23_29  and  C24_30 
REMARK    9  A    between atoms: C24_30  and  C25_31 
REMARK       I    between atoms: C25_31  and  N1_33 
REMARK   10  A    between atoms: N1_33  and  C26_34 
REMARK   11  A    between atoms: C26_34  and  C27_35 
ROOT
HETATM    1  C1  UNL     1     -12.031   9.549  12.575  1.00  0.00     0.020 C 
HETATM    2  C2  UNL     1     -11.775   9.043  14.016  1.00  0.00    -0.014 C 
HETATM    3  C3  UNL     1     -13.015   8.258  14.509  1.00  0.00     0.022 C 
HETATM    4  C4  UNL     1     -14.252   9.132  14.700  1.00  0.00     0.084 C 
HETATM    5  C5  UNL     1     -13.960  10.356  15.533  1.00  0.00     0.149 C 
HETATM    6  O1  UNL     1     -14.850  10.977  16.111  1.00  0.00    -0.293 OA
HETATM    7  C6  UNL     1     -12.566  10.846  15.618  1.00  0.00     0.053 C 
HETATM    8  C7  UNL     1     -11.569  10.263  14.931  1.00  0.00    -0.068 C 
HETATM    9  C8  UNL     1     -10.143  10.726  15.102  1.00  0.00     0.035 C 
HETATM   10  C9  UNL     1      -9.262   9.623  15.712  1.00  0.00     0.010 C 
HETATM   11  C10 UNL     1      -9.785   8.205  15.412  1.00  0.00    -0.002 C 
HETATM   12  C11 UNL     1     -10.455   8.177  14.011  1.00  0.00     0.031 C 
HETATM   13  C12 UNL     1     -10.538   6.747  13.433  1.00  0.00     0.124 C 
HETATM   14  C13 UNL     1      -9.139   6.100  13.266  1.00  0.00     0.045 C 
HETATM   15  C14 UNL     1      -8.076   6.561  14.305  1.00  0.00     0.001 C 
HETATM   16  C15 UNL     1      -7.169   7.649  13.669  1.00  0.00     0.019 C 
HETATM   17  C16 UNL     1      -8.782   7.055  15.592  1.00  0.00     0.002 C 
HETATM   18  C17 UNL     1      -7.668   7.174  16.623  1.00  0.00     0.009 C 
HETATM   19  C18 UNL     1      -6.691   6.039  16.256  1.00  0.00     0.047 C 
HETATM   20  C19 UNL     1      -7.192   5.421  14.916  1.00  0.00     0.128 C 
ENDROOT
BRANCH  20  21
HETATM   21  O3  UNL     1      -8.026   4.312  15.276  1.00  0.00    -0.381 OA
HETATM   22  H27 UNL     1      -7.436   3.640  15.678  1.00  0.00     0.211 HD
ENDBRANCH  20  21
BRANCH  20  23
HETATM   23  C20 UNL     1      -6.019   4.961  14.012  1.00  0.00     0.185 C 
HETATM   24  O4  UNL     1      -6.188   4.137  13.107  1.00  0.00    -0.292 OA
BRANCH  23  25
HETATM   25  C21 UNL     1      -4.600   5.455  14.325  1.00  0.00     0.260 C 
BRANCH  25  26
HETATM   26  O5  UNL     1      -3.788   6.038  13.317  1.00  0.00    -0.314 OA
BRANCH  26  27
HETATM   27  C22 UNL     1      -2.754   6.790  13.773  1.00  0.00     0.259 C 
HETATM   28  O6  UNL     1      -2.385   6.819  14.942  1.00  0.00    -0.265 OA
BRANCH  27  29
HETATM   29  C23 UNL     1      -2.015   7.488  12.655  1.00  0.00     0.120 C 
BRANCH  29  30
HETATM   30  C24 UNL     1      -0.619   6.948  12.366  1.00  0.00     0.112 C 
BRANCH  30  31
HETATM   31  C25 UNL     1      -0.547   5.441  12.496  1.00  0.00     0.218 C 
HETATM   32  O7  UNL     1       0.222   4.868  13.260  1.00  0.00    -0.274 OA
HETATM   33  N1  UNL     1      -1.410   4.785  11.646  1.00  0.00    -0.357 N 
HETATM   34  H34 UNL     1      -2.135   5.316  11.184  1.00  0.00     0.162 HD
BRANCH  33  35
HETATM   35  C26 UNL     1      -1.561   3.347  11.683  1.00  0.00     0.161 C 
BRANCH  35  36
HETATM   36  C27 UNL     1      -2.966   2.942  11.333  1.00  0.00    -0.038 A 
HETATM   37  C28 UNL     1      -3.516   1.752  11.817  1.00  0.00     0.025 A 
HETATM   38  C29 UNL     1      -4.810   1.417  11.443  1.00  0.00     0.088 A 
HETATM   39  N2  UNL     1      -5.576   2.173  10.629  1.00  0.00    -0.375 N 
HETATM   40  C30 UNL     1      -5.024   3.314  10.165  1.00  0.00     0.088 A 
ATOM     41  H2  UNL     1      -6.525   1.896  10.377  1.00  0.00     0.164 HD
HETATM   42  C31 UNL     1      -3.742   3.735  10.481  1.00  0.00     0.025 A 
ENDBRANCH  35  36
ENDBRANCH  33  35
ENDBRANCH  30  31
ENDBRANCH  29  30
ENDBRANCH  27  29
ENDBRANCH  26  27
ENDBRANCH  25  26
ENDBRANCH  23  25
ENDBRANCH  20  23
BRANCH  13  43
HETATM   43  O2  UNL     1     -11.362   5.907  14.238  1.00  0.00    -0.395 OA
HETATM   44  H16 UNL     1     -10.803   5.330  14.788  1.00  0.00     0.210 HD
ENDBRANCH  13  43
TORSDOF 11
ENDMDL
MODEL 2
REMARK minimizedAffinity -9.21948719
REMARK CNNscore 0.492675513
REMARK CNNaffinity 6.17365646
REMARK  11 active torsions:
REMARK  status: ('A' for Active; 'I' for Inactive)
REMARK    1  A    between atoms: C12_13  and  O2_14 
REMARK    2  A    between atoms: C19_21  and  O3_22 
REMARK    3  A    between atoms: C19_21  and  C20_23 
REMARK    4  A    between atoms: C20_23  and  C21_25 
REMARK    5  A    between atoms: C21_25  and  O5_26 
REMARK    6  A    between atoms: O5_26  and  C22_27 
REMARK    7  A    between atoms: C22_27  and  C23_29 
REMARK    8  A    between atoms: C23_29  and  C24_30 
REMARK    9  A    between atoms: C24_30  and  C25_31 
REMARK       I    between atoms: C25_31  and  N1_33 
REMARK   10  A    between atoms: N1_33  and  C26_34 
REMARK   11  A    between atoms: C26_34  and  C27_35 
ROOT
HETATM    1  C1  UNL     1      -5.849   5.822  15.939  1.00  0.00     0.020 C 
HETATM    2  C2  UNL     1      -5.514   6.334  14.517  1.00  0.00    -0.014 C 
HETATM    3  C3  UNL     1      -6.652   7.263  14.028  1.00  0.00     0.022 C 
HETATM    4  C4  UNL     1      -7.973   6.535  13.795  1.00  0.00     0.084 C 
HETATM    5  C5  UNL     1      -7.803   5.309  12.933  1.00  0.00     0.149 C 
HETATM    6  O1  UNL     1      -8.745   4.805  12.325  1.00  0.00    -0.293 OA
HETATM    7  C6  UNL     1      -6.469   4.670  12.854  1.00  0.00     0.053 C 
HETATM    8  C7  UNL     1      -5.427   5.122  13.572  1.00  0.00    -0.068 C 
HETATM    9  C8  UNL     1      -4.057   4.509  13.409  1.00  0.00     0.035 C 
HETATM   10  C9  UNL     1      -3.050   5.524  12.842  1.00  0.00     0.010 C 
HETATM   11  C10 UNL     1      -3.420   6.983  13.174  1.00  0.00    -0.002 C 
HETATM   12  C11 UNL     1      -4.107   7.048  14.565  1.00  0.00     0.031 C 
HETATM   13  C12 UNL     1      -4.042   8.463  15.181  1.00  0.00     0.124 C 
HETATM   14  C13 UNL     1      -2.584   8.947  15.387  1.00  0.00     0.045 C 
HETATM   15  C14 UNL     1      -1.560   8.399  14.350  1.00  0.00     0.001 C 
HETATM   16  C15 UNL     1      -0.789   7.201  14.970  1.00  0.00     0.019 C 
HETATM   17  C16 UNL     1      -2.294   8.019  13.041  1.00  0.00     0.002 C 
HETATM   18  C17 UNL     1      -1.181   7.805  12.023  1.00  0.00     0.009 C 
HETATM   19  C18 UNL     1      -0.092   8.815  12.435  1.00  0.00     0.047 C 
HETATM   20  C19 UNL     1      -0.546   9.450  13.785  1.00  0.00     0.128 C 
ENDROOT
BRANCH  20  21
HETATM   21  O3  UNL     1      -1.246  10.652  13.443  1.00  0.00    -0.381 OA
HETATM   22  H27 UNL     1      -0.580  11.266  13.068  1.00  0.00     0.211 HD
ENDBRANCH  20  21
BRANCH  20  23
HETATM   23  C20 UNL     1       0.655   9.755  14.718  1.00  0.00     0.185 C 
HETATM   24  O4  UNL     1       1.739   9.176  14.582  1.00  0.00    -0.292 OA
BRANCH  23  25
HETATM   25  C21 UNL     1       0.454  10.708  15.904  1.00  0.00     0.260 C 
BRANCH  25  26
HETATM   26  O5  UNL     1       0.413  10.221  17.236  1.00  0.00    -0.314 OA
BRANCH  26  27
HETATM   27  C22 UNL     1       1.548  10.415  17.956  1.00  0.00     0.259 C 
HETATM   28  O6  UNL     1       2.636   9.929  17.670  1.00  0.00    -0.265 OA
BRANCH  27  29
HETATM   29  C23 UNL     1       1.354  11.410  19.076  1.00  0.00     0.120 C 
BRANCH  29  30
HETATM   30  C24 UNL     1       0.900  10.812  20.402  1.00  0.00     0.112 C 
BRANCH  30  31
HETATM   31  C25 UNL     1       2.056  10.249  21.204  1.00  0.00     0.218 C 
HETATM   32  O7  UNL     1       2.410   9.077  21.140  1.00  0.00    -0.274 OA
HETATM   33  N1  UNL     1       2.642  11.181  22.032  1.00  0.00    -0.357 N 
HETATM   34  H34 UNL     1       2.420  12.158  21.898  1.00  0.00     0.162 HD
BRANCH  33  35
HETATM   35  C26 UNL     1       3.819  10.868  22.810  1.00  0.00     0.161 C 
BRANCH  35  36
HETATM   36  C27 UNL     1       4.753  12.045  22.875  1.00  0.00    -0.038 A 
HETATM   37  C28 UNL     1       6.137  11.866  22.945  1.00  0.00     0.025 A 
HETATM   38  C29 UNL     1       6.949  12.988  23.027  1.00  0.00     0.088 A 
HETATM   39  N2  UNL     1       6.482  14.254  23.050  1.00  0.00    -0.375 N 
HETATM   40  C30 UNL     1       5.142  14.406  22.990  1.00  0.00     0.088 A 
ATOM     41  H2  UNL     1       7.110  15.055  23.109  1.00  0.00     0.164 HD
HETATM   42  C31 UNL     1       4.249  13.350  22.906  1.00  0.00     0.025 A 
ENDBRANCH  35  36
ENDBRANCH  33  35
ENDBRANCH  30  31
ENDBRANCH  29  30
ENDBRANCH  27  29
ENDBRANCH  26  27
ENDBRANCH  25  26
ENDBRANCH  23  25
ENDBRANCH  20  23
BRANCH  13  43
HETATM   43  O2  UNL     1      -4.755   9.409  14.387  1.00  0.00    -0.395 OA
HETATM   44  H16 UNL     1      -4.127   9.935  13.861  1.00  0.00     0.210 HD
ENDBRANCH  13  43
TORSDOF 11
ENDMDL
MODEL 3
REMARK minimizedAffinity -8.08968163
REMARK CNNscore 0.440401256
REMARK CNNaffinity 6.49931145
REMARK  11 active torsions:
REMARK  status: ('A' for Active; 'I' for Inactive)
REMARK    1  A    between atoms: C12_13  and  O2_14 
REMARK    2  A    between atoms: C19_21  and  O3_22 
REMARK    3  A    between atoms: C19_21  and  C20_23 
REMARK    4  A    between atoms: C20_23  and  C21_25 
REMARK    5  A    between atoms: C21_25  and  O5_26 
REMARK    6  A    between atoms: O5_26  and  C22_27 
REMARK    7  A    between atoms: C22_27  and  C23_29 
REMARK    8  A    between atoms: C23_29  and  C24_30 
REMARK    9  A    between atoms: C24_30  and  C25_31 
REMARK       I    between atoms: C25_31  and  N1_33 
REMARK   10  A    between atoms: N1_33  and  C26_34 
REMARK   11  A    between atoms: C26_34  and  C27_35 
ROOT
HETATM    1  C1  UNL     1       3.336   8.569  11.238  1.00  0.00     0.020 C 
HETATM    2  C2  UNL     1       2.180   7.539  11.233  1.00  0.00    -0.014 C 
HETATM    3  C3  UNL     1       2.759   6.120  11.452  1.00  0.00     0.022 C 
HETATM    4  C4  UNL     1       3.620   5.629  10.292  1.00  0.00     0.084 C 
HETATM    5  C5  UNL     1       2.924   5.782   8.962  1.00  0.00     0.149 C 
HETATM    6  O1  UNL     1       3.257   5.130   7.975  1.00  0.00    -0.293 OA
HETATM    7  C6  UNL     1       1.836   6.779   8.835  1.00  0.00     0.053 C 
HETATM    8  C7  UNL     1       1.495   7.584   9.856  1.00  0.00    -0.068 C 
HETATM    9  C8  UNL     1       0.326   8.531   9.730  1.00  0.00     0.035 C 
HETATM   10  C9  UNL     1      -0.797   8.172  10.717  1.00  0.00     0.010 C 
HETATM   11  C10 UNL     1      -0.282   7.439  11.970  1.00  0.00    -0.002 C 
HETATM   12  C11 UNL     1       1.134   7.961  12.339  1.00  0.00     0.031 C 
HETATM   13  C12 UNL     1       1.495   7.673  13.813  1.00  0.00     0.124 C 
HETATM   14  C13 UNL     1       0.508   8.346  14.800  1.00  0.00     0.045 C 
HETATM   15  C14 UNL     1      -0.949   8.492  14.271  1.00  0.00     0.001 C 
HETATM   16  C15 UNL     1      -1.166   9.938  13.749  1.00  0.00     0.019 C 
HETATM   17  C16 UNL     1      -1.221   7.422  13.185  1.00  0.00     0.002 C 
HETATM   18  C17 UNL     1      -2.730   7.456  12.980  1.00  0.00     0.009 C 
HETATM   19  C18 UNL     1      -3.294   7.795  14.374  1.00  0.00     0.047 C 
HETATM   20  C19 UNL     1      -2.077   8.119  15.292  1.00  0.00     0.128 C 
ENDROOT
BRANCH  20  21
HETATM   21  O3  UNL     1      -1.737   6.893  15.951  1.00  0.00    -0.381 OA
HETATM   22  H27 UNL     1      -2.482   6.686  16.555  1.00  0.00     0.211 HD
ENDBRANCH  20  21
BRANCH  20  23
HETATM   23  C20 UNL     1      -2.405   9.230  16.324  1.00  0.00     0.185 C 
HETATM   24  O4  UNL     1      -3.374   9.983  16.173  1.00  0.00    -0.292 OA
BRANCH  23  25
HETATM   25  C21 UNL     1      -1.441   9.469  17.494  1.00  0.00     0.260 C 
BRANCH  25  26
HETATM   26  O5  UNL     1      -0.686  10.667  17.587  1.00  0.00    -0.314 OA
BRANCH  26  27
HETATM   27  C22 UNL     1      -1.105  11.540  18.540  1.00  0.00     0.259 C 
HETATM   28  O6  UNL     1      -2.277  11.847  18.725  1.00  0.00    -0.265 OA
BRANCH  27  29
HETATM   29  C23 UNL     1       0.021  11.989  19.441  1.00  0.00     0.120 C 
BRANCH  29  30
HETATM   30  C24 UNL     1       0.693  10.879  20.240  1.00  0.00     0.112 C 
BRANCH  30  31
HETATM   31  C25 UNL     1       2.135  10.666  19.829  1.00  0.00     0.218 C 
HETATM   32  O7  UNL     1       2.577   9.583  19.464  1.00  0.00    -0.274 OA
HETATM   33  N1  UNL     1       2.901  11.806  19.942  1.00  0.00    -0.357 N 
HETATM   34  H34 UNL     1       2.435  12.694  20.071  1.00  0.00     0.162 HD
BRANCH  33  35
HETATM   35  C26 UNL     1       4.280  11.836  19.510  1.00  0.00     0.161 C 
BRANCH  35  36
HETATM   36  C27 UNL     1       5.208  12.039  20.676  1.00  0.00    -0.038 A 
HETATM   37  C28 UNL     1       6.561  12.328  20.482  1.00  0.00     0.025 A 
HETATM   38  C29 UNL     1       7.374  12.483  21.595  1.00  0.00     0.088 A 
HETATM   39  N2  UNL     1       6.938  12.364  22.867  1.00  0.00    -0.375 N 
HETATM   40  C30 UNL     1       5.630  12.076  23.034  1.00  0.00     0.088 A 
ATOM     41  H2  UNL     1       7.566  12.486  23.661  1.00  0.00     0.164 HD
HETATM   42  C31 UNL     1       4.738  11.904  21.988  1.00  0.00     0.025 A 
ENDBRANCH  35  36
ENDBRANCH  33  35
ENDBRANCH  30  31
ENDBRANCH  29  30
ENDBRANCH  27  29
ENDBRANCH  26  27
ENDBRANCH  25  26
ENDBRANCH  23  25
ENDBRANCH  20  23
BRANCH  13  43
HETATM   43  O2  UNL     1       1.554   6.272  14.071  1.00  0.00    -0.395 OA
HETATM   44  H16 UNL     1       0.741   5.990  14.527  1.00  0.00     0.210 HD
ENDBRANCH  13  43
TORSDOF 11
ENDMDL
MODEL 4
REMARK minimizedAffinity -8.34568691
REMARK CNNscore 0.417865098
REMARK CNNaffinity 6.93234587
REMARK  11 active torsions:
REMARK  status: ('A' for Active; 'I' for Inactive)
REMARK    1  A    between atoms: C12_13  and  O2_14 
REMARK    2  A    between atoms: C19_21  and  O3_22 
REMARK    3  A    between atoms: C19_21  and  C20_23 
REMARK    4  A    between atoms: C20_23  and  C21_25 
REMARK    5  A    between atoms: C21_25  and  O5_26 
REMARK    6  A    between atoms: O5_26  and  C22_27 
REMARK    7  A    between atoms: C22_27  and  C23_29 
REMARK    8  A    between atoms: C23_29  and  C24_30 
REMARK    9  A    between atoms: C24_30  and  C25_31 
REMARK       I    between atoms: C25_31  and  N1_33 
REMARK   10  A    between atoms: N1_33  and  C26_34 
REMARK   11  A    between atoms: C26_34  and  C27_35 
ROOT
HETATM    1  C1  UNL     1       0.890  10.709  18.070  1.00  0.00     0.020 C 
HETATM    2  C2  UNL     1      -0.330  11.344  17.359  1.00  0.00    -0.014 C 
HETATM    3  C3  UNL     1       0.135  12.588  16.563  1.00  0.00     0.022 C 
HETATM    4  C4  UNL     1       0.612  13.735  17.450  1.00  0.00     0.084 C 
HETATM    5  C5  UNL     1      -0.383  14.067  18.534  1.00  0.00     0.149 C 
HETATM    6  O1  UNL     1      -0.385  15.157  19.103  1.00  0.00    -0.293 OA
HETATM    7  C6  UNL     1      -1.356  13.033  18.953  1.00  0.00     0.053 C 
HETATM    8  C7  UNL     1      -1.337  11.794  18.431  1.00  0.00    -0.068 C 
HETATM    9  C8  UNL     1      -2.393  10.784  18.810  1.00  0.00     0.035 C 
HETATM   10  C9  UNL     1      -3.256  10.391  17.599  1.00  0.00     0.010 C 
HETATM   11  C10 UNL     1      -2.515  10.553  16.258  1.00  0.00    -0.002 C 
HETATM   12  C11 UNL     1      -1.005  10.243  16.451  1.00  0.00     0.031 C 
HETATM   13  C12 UNL     1      -0.309   9.887  15.119  1.00  0.00     0.124 C 
HETATM   14  C13 UNL     1      -0.933   8.636  14.448  1.00  0.00     0.045 C 
HETATM   15  C14 UNL     1      -2.453   8.439  14.718  1.00  0.00     0.001 C 
HETATM   16  C15 UNL     1      -2.644   7.390  15.847  1.00  0.00     0.019 C 
HETATM   17  C16 UNL     1      -3.106   9.802  15.056  1.00  0.00     0.002 C 
HETATM   18  C17 UNL     1      -4.605   9.540  14.987  1.00  0.00     0.009 C 
HETATM   19  C18 UNL     1      -4.752   8.480  13.876  1.00  0.00     0.047 C 
HETATM   20  C19 UNL     1      -3.312   8.042  13.470  1.00  0.00     0.128 C 
ENDROOT
BRANCH  20  21
HETATM   21  O3  UNL     1      -2.945   8.864  12.356  1.00  0.00    -0.381 OA
HETATM   22  H27 UNL     1      -3.526   8.601  11.612  1.00  0.00     0.211 HD
ENDBRANCH  20  21
BRANCH  20  23
HETATM   23  C20 UNL     1      -3.246   6.538  13.094  1.00  0.00     0.185 C 
HETATM   24  O4  UNL     1      -4.215   5.789  13.263  1.00  0.00    -0.292 OA
BRANCH  23  25
HETATM   25  C21 UNL     1      -1.914   5.949  12.609  1.00  0.00     0.260 C 
BRANCH  25  26
HETATM   26  O5  UNL     1      -1.665   4.553  12.671  1.00  0.00    -0.314 OA
BRANCH  26  27
HETATM   27  C22 UNL     1      -1.372   3.967  11.482  1.00  0.00     0.259 C 
HETATM   28  O6  UNL     1      -0.339   4.163  10.853  1.00  0.00    -0.265 OA
BRANCH  27  29
HETATM   29  C23 UNL     1      -2.400   2.935  11.083  1.00  0.00     0.120 C 
BRANCH  29  30
HETATM   30  C24 UNL     1      -3.761   3.497  10.686  1.00  0.00     0.112 C 
BRANCH  30  31
HETATM   31  C25 UNL     1      -4.901   2.790  11.390  1.00  0.00     0.218 C 
HETATM   32  O7  UNL     1      -5.018   1.570  11.422  1.00  0.00    -0.274 OA
HETATM   33  N1  UNL     1      -5.806   3.660  11.958  1.00  0.00    -0.357 N 
HETATM   34  H34 UNL     1      -5.552   4.634  12.050  1.00  0.00     0.162 HD
BRANCH  33  35
HETATM   35  C26 UNL     1      -6.914   3.185  12.755  1.00  0.00     0.161 C 
BRANCH  35  36
HETATM   36  C27 UNL     1      -7.616   4.326  13.439  1.00  0.00    -0.038 A 
HETATM   37  C28 UNL     1      -8.555   5.108  12.761  1.00  0.00     0.025 A 
HETATM   38  C29 UNL     1      -9.154   6.162  13.437  1.00  0.00     0.088 A 
HETATM   39  N2  UNL     1      -8.881   6.486  14.718  1.00  0.00    -0.375 N 
HETATM   40  C30 UNL     1      -7.966   5.723  15.354  1.00  0.00     0.088 A 
ATOM     41  H2  UNL     1      -9.343   7.267  15.183  1.00  0.00     0.164 HD
HETATM   42  C31 UNL     1      -7.314   4.651  14.766  1.00  0.00     0.025 A 
ENDBRANCH  35  36
ENDBRANCH  33  35
ENDBRANCH  30  31
ENDBRANCH  29  30
ENDBRANCH  27  29
ENDBRANCH  26  27
ENDBRANCH  25  26
ENDBRANCH  23  25
ENDBRANCH  20  23
BRANCH  13  43
HETATM   43  O2  UNL     1      -0.333  10.984  14.209  1.00  0.00    -0.395 OA
HETATM   44  H16 UNL     1      -1.025  10.839  13.540  1.00  0.00     0.210 HD
ENDBRANCH  13  43
TORSDOF 11
ENDMDL
MODEL 5
REMARK minimizedAffinity -7.82486725
REMARK CNNscore 0.349669784
REMARK CNNaffinity 7.21631098
REMARK  11 active torsions:
REMARK  status: ('A' for Active; 'I' for Inactive)
REMARK    1  A    between atoms: C12_13  and  O2_14 
REMARK    2  A    between atoms: C19_21  and  O3_22 
REMARK    3  A    between atoms: C19_21  and  C20_23 
REMARK    4  A    between atoms: C20_23  and  C21_25 
REMARK    5  A    between atoms: C21_25  and  O5_26 
REMARK    6  A    between atoms: O5_26  and  C22_27 
REMARK    7  A    between atoms: C22_27  and  C23_29 
REMARK    8  A    between atoms: C23_29  and  C24_30 
REMARK    9  A    between atoms: C24_30  and  C25_31 
REMARK       I    between atoms: C25_31  and  N1_33 
REMARK   10  A    between atoms: N1_33  and  C26_34 
REMARK   11  A    between atoms: C26_34  and  C27_35 
ROOT
HETATM    1  C1  UNL     1      -1.742   5.731  11.033  1.00  0.00     0.020 C 
HETATM    2  C2  UNL     1      -2.399   4.657  11.934  1.00  0.00    -0.014 C 
HETATM    3  C3  UNL     1      -1.330   4.065  12.885  1.00  0.00     0.022 C 
HETATM    4  C4  UNL     1      -0.257   3.254  12.163  1.00  0.00     0.084 C 
HETATM    5  C5  UNL     1      -0.850   2.226  11.232  1.00  0.00     0.149 C 
HETATM    6  O1  UNL     1      -0.212   1.246  10.852  1.00  0.00    -0.293 OA
HETATM    7  C6  UNL     1      -2.228   2.430  10.728  1.00  0.00     0.053 C 
HETATM    8  C7  UNL     1      -2.936   3.530  11.035  1.00  0.00    -0.068 C 
HETATM    9  C8  UNL     1      -4.368   3.674  10.580  1.00  0.00     0.035 C 
HETATM   10  C9  UNL     1      -5.336   3.719  11.775  1.00  0.00     0.010 C 
HETATM   11  C10 UNL     1      -4.675   4.252  13.061  1.00  0.00    -0.002 C 
HETATM   12  C11 UNL     1      -3.609   5.323  12.699  1.00  0.00     0.031 C 
HETATM   13  C12 UNL     1      -3.281   6.245  13.894  1.00  0.00     0.124 C 
HETATM   14  C13 UNL     1      -4.528   7.017  14.398  1.00  0.00     0.045 C 
HETATM   15  C14 UNL     1      -5.879   6.265  14.221  1.00  0.00     0.001 C 
HETATM   16  C15 UNL     1      -6.602   6.794  12.953  1.00  0.00     0.019 C 
HETATM   17  C16 UNL     1      -5.624   4.738  14.165  1.00  0.00     0.002 C 
HETATM   18  C17 UNL     1      -7.005   4.111  14.310  1.00  0.00     0.009 C 
HETATM   19  C18 UNL     1      -7.764   5.080  15.239  1.00  0.00     0.047 C 
HETATM   20  C19 UNL     1      -6.847   6.322  15.451  1.00  0.00     0.128 C 
ENDROOT
BRANCH  20  21
HETATM   21  O3  UNL     1      -6.108   6.071  16.652  1.00  0.00    -0.381 OA
HETATM   22  H27 UNL     1      -6.757   6.087  17.387  1.00  0.00     0.211 HD
ENDBRANCH  20  21
BRANCH  20  23
HETATM   23  C20 UNL     1      -7.664   7.636  15.568  1.00  0.00     0.185 C 
HETATM   24  O4  UNL     1      -7.255   8.693  15.076  1.00  0.00    -0.292 OA
BRANCH  23  25
HETATM   25  C21 UNL     1      -8.948   7.642  16.409  1.00  0.00     0.260 C 
BRANCH  25  26
HETATM   26  O5  UNL     1     -10.017   8.526  16.107  1.00  0.00    -0.314 OA
BRANCH  26  27
HETATM   27  C22 UNL     1     -10.537   8.396  14.859  1.00  0.00     0.259 C 
HETATM   28  O6  UNL     1     -10.859   7.326  14.355  1.00  0.00    -0.265 OA
BRANCH  27  29
HETATM   29  C23 UNL     1     -10.807   9.732  14.208  1.00  0.00     0.120 C 
BRANCH  29  30
HETATM   30  C24 UNL     1     -12.278  10.116  14.103  1.00  0.00     0.112 C 
BRANCH  30  31
HETATM   31  C25 UNL     1     -13.002   9.330  13.029  1.00  0.00     0.218 C 
HETATM   32  O7  UNL     1     -12.876   9.556  11.831  1.00  0.00    -0.274 OA
HETATM   33  N1  UNL     1     -13.838   8.362  13.540  1.00  0.00    -0.357 N 
HETATM   34  H34 UNL     1     -13.753   8.112  14.516  1.00  0.00     0.162 HD
BRANCH  33  35
HETATM   35  C26 UNL     1     -14.547   7.443  12.679  1.00  0.00     0.161 C 
BRANCH  35  36
HETATM   36  C27 UNL     1     -15.399   6.497  13.480  1.00  0.00    -0.038 A 
HETATM   37  C28 UNL     1     -16.791   6.503  13.362  1.00  0.00     0.025 A 
HETATM   38  C29 UNL     1     -17.528   5.624  14.143  1.00  0.00     0.088 A 
HETATM   39  N2  UNL     1     -16.980   4.760  15.023  1.00  0.00    -0.375 N 
HETATM   40  C30 UNL     1     -15.634   4.775  15.129  1.00  0.00     0.088 A 
ATOM     41  H2  UNL     1     -17.553   4.127  15.580  1.00  0.00     0.164 HD
HETATM   42  C31 UNL     1     -14.812   5.614  14.393  1.00  0.00     0.025 A 
ENDBRANCH  35  36
ENDBRANCH  33  35
ENDBRANCH  30  31
ENDBRANCH  29  30
ENDBRANCH  27  29
ENDBRANCH  26  27
ENDBRANCH  25  26
ENDBRANCH  23  25
ENDBRANCH  20  23
BRANCH  13  43
HETATM   43  O2  UNL     1      -2.700   5.514  14.972  1.00  0.00    -0.395 OA
HETATM   44  H16 UNL     1      -3.370   5.359  15.660  1.00  0.00     0.210 HD
ENDBRANCH  13  43
TORSDOF 11
ENDMDL
MODEL 6
REMARK minimizedAffinity -9.16431046
REMARK CNNscore 0.344770491
REMARK CNNaffinity 6.6934123
REMARK  11 active torsions:
REMARK  status: ('A' for Active; 'I' for Inactive)
REMARK    1  A    between atoms: C12_13  and  O2_14 
REMARK    2  A    between atoms: C19_21  and  O3_22 
REMARK    3  A    between atoms: C19_21  and  C20_23 
REMARK    4  A    between atoms: C20_23  and  C21_25 
REMARK    5  A    between atoms: C21_25  and  O5_26 
REMARK    6  A    between atoms: O5_26  and  C22_27 
REMARK    7  A    between atoms: C22_27  and  C23_29 
REMARK    8  A    between atoms: C23_29  and  C24_30 
REMARK    9  A    between atoms: C24_30  and  C25_31 
REMARK       I    between atoms: C25_31  and  N1_33 
REMARK   10  A    between atoms: N1_33  and  C26_34 
REMARK   11  A    between atoms: C26_34  and  C27_35 
ROOT
HETATM    1  C1  UNL     1       3.906   9.830  12.771  1.00  0.00     0.020 C 
HETATM    2  C2  UNL     1       3.921   8.282  12.785  1.00  0.00    -0.014 C 
HETATM    3  C3  UNL     1       4.830   7.791  13.938  1.00  0.00     0.022 C 
HETATM    4  C4  UNL     1       6.306   8.117  13.730  1.00  0.00     0.084 C 
HETATM    5  C5  UNL     1       6.798   7.687  12.370  1.00  0.00     0.149 C 
HETATM    6  O1  UNL     1       7.992   7.510  12.136  1.00  0.00    -0.293 OA
HETATM    7  C6  UNL     1       5.815   7.517  11.276  1.00  0.00     0.053 C 
HETATM    8  C7  UNL     1       4.510   7.789  11.451  1.00  0.00    -0.068 C 
HETATM    9  C8  UNL     1       3.515   7.525  10.347  1.00  0.00     0.035 C 
HETATM   10  C9  UNL     1       2.499   6.444  10.752  1.00  0.00     0.010 C 
HETATM   11  C10 UNL     1       2.293   6.358  12.276  1.00  0.00    -0.002 C 
HETATM   12  C11 UNL     1       2.433   7.771  12.907  1.00  0.00     0.031 C 
HETATM   13  C12 UNL     1       1.756   7.859  14.293  1.00  0.00     0.124 C 
HETATM   14  C13 UNL     1       0.237   7.556  14.224  1.00  0.00     0.045 C 
HETATM   15  C14 UNL     1      -0.180   6.549  13.112  1.00  0.00     0.001 C 
HETATM   16  C15 UNL     1      -0.722   7.331  11.886  1.00  0.00     0.019 C 
HETATM   17  C16 UNL     1       1.021   5.640  12.753  1.00  0.00     0.002 C 
HETATM   18  C17 UNL     1       0.420   4.521  11.913  1.00  0.00     0.009 C 
HETATM   19  C18 UNL     1      -0.990   4.321  12.503  1.00  0.00     0.047 C 
HETATM   20  C19 UNL     1      -1.213   5.456  13.548  1.00  0.00     0.128 C 
ENDROOT
BRANCH  20  21
HETATM   21  O3  UNL     1      -0.826   4.911  14.816  1.00  0.00    -0.381 OA
HETATM   22  H27 UNL     1      -1.481   4.215  15.031  1.00  0.00     0.211 HD
ENDBRANCH  20  21
BRANCH  20  23
HETATM   23  C20 UNL     1      -2.687   5.937  13.579  1.00  0.00     0.185 C 
HETATM   24  O4  UNL     1      -3.130   6.593  14.528  1.00  0.00    -0.292 OA
BRANCH  23  25
HETATM   25  C21 UNL     1      -3.640   5.490  12.462  1.00  0.00     0.260 C 
BRANCH  25  26
HETATM   26  O5  UNL     1      -4.073   4.142  12.365  1.00  0.00    -0.314 OA
BRANCH  26  27
HETATM   27  C22 UNL     1      -4.218   3.672  11.099  1.00  0.00     0.259 C 
HETATM   28  O6  UNL     1      -3.322   3.660  10.262  1.00  0.00    -0.265 OA
BRANCH  27  29
HETATM   29  C23 UNL     1      -5.569   3.037  10.874  1.00  0.00     0.120 C 
BRANCH  29  30
HETATM   30  C24 UNL     1      -6.219   2.438  12.116  1.00  0.00     0.112 C 
BRANCH  30  31
HETATM   31  C25 UNL     1      -7.445   3.213  12.554  1.00  0.00     0.218 C 
HETATM   32  O7  UNL     1      -8.501   2.676  12.871  1.00  0.00    -0.274 OA
HETATM   33  N1  UNL     1      -7.258   4.577  12.527  1.00  0.00    -0.357 N 
HETATM   34  H34 UNL     1      -6.318   4.937  12.434  1.00  0.00     0.162 HD
BRANCH  33  35
HETATM   35  C26 UNL     1      -8.276   5.489  12.997  1.00  0.00     0.161 C 
BRANCH  35  36
HETATM   36  C27 UNL     1      -7.950   6.000  14.374  1.00  0.00    -0.038 A 
HETATM   37  C28 UNL     1      -8.838   6.825  15.068  1.00  0.00     0.025 A 
HETATM   38  C29 UNL     1      -8.474   7.285  16.326  1.00  0.00     0.088 A 
HETATM   39  N2  UNL     1      -7.302   6.988  16.925  1.00  0.00    -0.375 N 
HETATM   40  C30 UNL     1      -6.453   6.196  16.235  1.00  0.00     0.088 A 
ATOM     41  H2  UNL     1      -7.069   7.343  17.851  1.00  0.00     0.164 HD
HETATM   42  C31 UNL     1      -6.726   5.687  14.975  1.00  0.00     0.025 A 
ENDBRANCH  35  36
ENDBRANCH  33  35
ENDBRANCH  30  31
ENDBRANCH  29  30
ENDBRANCH  27  29
ENDBRANCH  26  27
ENDBRANCH  25  26
ENDBRANCH  23  25
ENDBRANCH  20  23
BRANCH  13  43
HETATM   43  O2  UNL     1       2.378   6.987  15.233  1.00  0.00    -0.395 OA
HETATM   44  H16 UNL     1       1.833   6.189  15.350  1.00  0.00     0.210 HD
ENDBRANCH  13  43
TORSDOF 11
ENDMDL
MODEL 7
REMARK minimizedAffinity -8.03240967
REMARK CNNscore 0.338127315
REMARK CNNaffinity 6.97385263
REMARK  11 active torsions:
REMARK  status: ('A' for Active; 'I' for Inactive)
REMARK    1  A    between atoms: C12_13  and  O2_14 
REMARK    2  A    between atoms: C19_21  and  O3_22 
REMARK    3  A    between atoms: C19_21  and  C20_23 
REMARK    4  A    between atoms: C20_23  and  C21_25 
REMARK    5  A    between atoms: C21_25  and  O5_26 
REMARK    6  A    between atoms: O5_26  and  C22_27 
REMARK    7  A    between atoms: C22_27  and  C23_29 
REMARK    8  A    between atoms: C23_29  and  C24_30 
REMARK    9  A    between atoms: C24_30  and  C25_31 
REMARK       I    between atoms: C25_31  and  N1_33 
REMARK   10  A    between atoms: N1_33  and  C26_34 
REMARK   11  A    between atoms: C26_34  and  C27_35 
ROOT
HETATM    1  C1  UNL     1     -12.015   9.653  12.841  1.00  0.00     0.020 C 
HETATM    2  C2  UNL     1     -11.613   9.116  14.236  1.00  0.00    -0.014 C 
HETATM    3  C3  UNL     1     -12.824   8.390  14.873  1.00  0.00     0.022 C 
HETATM    4  C4  UNL     1     -13.979   9.325  15.219  1.00  0.00     0.084 C 
HETATM    5  C5  UNL     1     -13.524  10.521  16.018  1.00  0.00     0.149 C 
HETATM    6  O1  UNL     1     -14.302  11.180  16.704  1.00  0.00    -0.293 OA
HETATM    7  C6  UNL     1     -12.105  10.937  15.935  1.00  0.00     0.053 C 
HETATM    8  C7  UNL     1     -11.232  10.311  15.127  1.00  0.00    -0.068 C 
HETATM    9  C8  UNL     1      -9.773  10.697  15.125  1.00  0.00     0.035 C 
HETATM   10  C9  UNL     1      -8.884   9.542  15.616  1.00  0.00     0.010 C 
HETATM   11  C10 UNL     1      -9.515   8.157  15.373  1.00  0.00    -0.002 C 
HETATM   12  C11 UNL     1     -10.351   8.183  14.064  1.00  0.00     0.031 C 
HETATM   13  C12 UNL     1     -10.580   6.766  13.492  1.00  0.00     0.124 C 
HETATM   14  C13 UNL     1      -9.248   6.050  13.150  1.00  0.00     0.045 C 
HETATM   15  C14 UNL     1      -8.043   6.442  14.055  1.00  0.00     0.001 C 
HETATM   16  C15 UNL     1      -7.164   7.489  13.319  1.00  0.00     0.019 C 
HETATM   17  C16 UNL     1      -8.560   6.955  15.421  1.00  0.00     0.002 C 
HETATM   18  C17 UNL     1      -7.324   7.002  16.309  1.00  0.00     0.009 C 
HETATM   19  C18 UNL     1      -6.460   5.823  15.818  1.00  0.00     0.047 C 
HETATM   20  C19 UNL     1      -7.154   5.249  14.545  1.00  0.00     0.128 C 
ENDROOT
BRANCH  20  21
HETATM   21  O3  UNL     1      -7.995   4.181  14.997  1.00  0.00    -0.381 OA
HETATM   22  H27 UNL     1      -7.397   3.474  15.320  1.00  0.00     0.211 HD
ENDBRANCH  20  21
BRANCH  20  23
HETATM   23  C20 UNL     1      -6.125   4.740  13.501  1.00  0.00     0.185 C 
HETATM   24  O4  UNL     1      -6.465   4.004  12.569  1.00  0.00    -0.292 OA
BRANCH  23  25
HETATM   25  C21 UNL     1      -4.638   5.067  13.700  1.00  0.00     0.260 C 
BRANCH  25  26
HETATM   26  O5  UNL     1      -3.819   5.446  12.605  1.00  0.00    -0.314 OA
BRANCH  26  27
HETATM   27  C22 UNL     1      -3.002   4.470  12.131  1.00  0.00     0.259 C 
HETATM   28  O6  UNL     1      -3.373   3.552  11.408  1.00  0.00    -0.265 OA
BRANCH  27  29
HETATM   29  C23 UNL     1      -1.554   4.714  12.481  1.00  0.00     0.120 C 
BRANCH  29  30
HETATM   30  C24 UNL     1      -0.808   5.650  11.537  1.00  0.00     0.112 C 
BRANCH  30  31
HETATM   31  C25 UNL     1       0.586   5.152  11.216  1.00  0.00     0.218 C 
HETATM   32  O7  UNL     1       0.875   3.962  11.149  1.00  0.00    -0.274 OA
HETATM   33  N1  UNL     1       1.496   6.171  11.042  1.00  0.00    -0.357 N 
HETATM   34  H34 UNL     1       1.153   7.115  10.931  1.00  0.00     0.162 HD
BRANCH  33  35
HETATM   35  C26 UNL     1       2.858   5.908  10.638  1.00  0.00     0.161 C 
BRANCH  35  36
HETATM   36  C27 UNL     1       3.783   6.997  11.109  1.00  0.00    -0.038 A 
HETATM   37  C28 UNL     1       3.857   7.347  12.460  1.00  0.00     0.025 A 
HETATM   38  C29 UNL     1       4.711   8.374  12.834  1.00  0.00     0.088 A 
HETATM   39  N2  UNL     1       5.477   9.069  11.967  1.00  0.00    -0.375 N 
HETATM   40  C30 UNL     1       5.385   8.721  10.665  1.00  0.00     0.088 A 
ATOM     41  H2  UNL     1       6.095   9.817  12.278  1.00  0.00     0.164 HD
HETATM   42  C31 UNL     1       4.564   7.710  10.193  1.00  0.00     0.025 A 
ENDBRANCH  35  36
ENDBRANCH  33  35
ENDBRANCH  30  31
ENDBRANCH  29  30
ENDBRANCH  27  29
ENDBRANCH  26  27
ENDBRANCH  25  26
ENDBRANCH  23  25
ENDBRANCH  20  23
BRANCH  13  43
HETATM   43  O2  UNL     1     -11.343   5.960  14.386  1.00  0.00    -0.395 OA
HETATM   44  H16 UNL     1     -10.753   5.348  14.860  1.00  0.00     0.210 HD
ENDBRANCH  13  43
TORSDOF 11
ENDMDL
MODEL 8
REMARK minimizedAffinity -7.97600412
REMARK CNNscore 0.317953765
REMARK CNNaffinity 6.2344451
REMARK  11 active torsions:
REMARK  status: ('A' for Active; 'I' for Inactive)
REMARK    1  A    between atoms: C12_13  and  O2_14 
REMARK    2  A    between atoms: C19_21  and  O3_22 
REMARK    3  A    between atoms: C19_21  and  C20_23 
REMARK    4  A    between atoms: C20_23  and  C21_25 
REMARK    5  A    between atoms: C21_25  and  O5_26 
REMARK    6  A    between atoms: O5_26  and  C22_27 
REMARK    7  A    between atoms: C22_27  and  C23_29 
REMARK    8  A    between atoms: C23_29  and  C24_30 
REMARK    9  A    between atoms: C24_30  and  C25_31 
REMARK       I    between atoms: C25_31  and  N1_33 
REMARK   10  A    between atoms: N1_33  and  C26_34 
REMARK   11  A    between atoms: C26_34  and  C27_35 
ROOT
HETATM    1  C1  UNL     1       1.911   7.216  12.858  1.00  0.00     0.020 C 
HETATM    2  C2  UNL     1       0.412   7.057  13.211  1.00  0.00    -0.014 C 
HETATM    3  C3  UNL     1       0.172   5.643  13.795  1.00  0.00     0.022 C 
HETATM    4  C4  UNL     1       0.375   4.523  12.777  1.00  0.00     0.084 C 
HETATM    5  C5  UNL     1      -0.389   4.769  11.500  1.00  0.00     0.149 C 
HETATM    6  O1  UNL     1      -0.668   3.859  10.723  1.00  0.00    -0.293 OA
HETATM    7  C6  UNL     1      -0.772   6.157  11.153  1.00  0.00     0.053 C 
HETATM    8  C7  UNL     1      -0.409   7.201  11.918  1.00  0.00    -0.068 C 
HETATM    9  C8  UNL     1      -0.886   8.596  11.591  1.00  0.00     0.035 C 
HETATM   10  C9  UNL     1      -1.794   9.155  12.699  1.00  0.00     0.010 C 
HETATM   11  C10 UNL     1      -1.505   8.534  14.079  1.00  0.00    -0.002 C 
HETATM   12  C11 UNL     1       0.010   8.215  14.206  1.00  0.00     0.031 C 
HETATM   13  C12 UNL     1       0.457   8.082  15.678  1.00  0.00     0.124 C 
HETATM   14  C13 UNL     1       0.212   9.384  16.484  1.00  0.00     0.045 C 
HETATM   15  C14 UNL     1      -1.012  10.224  16.016  1.00  0.00     0.001 C 
HETATM   16  C15 UNL     1      -0.523  11.390  15.115  1.00  0.00     0.019 C 
HETATM   17  C16 UNL     1      -2.032   9.306  15.298  1.00  0.00     0.002 C 
HETATM   18  C17 UNL     1      -3.292  10.152  15.175  1.00  0.00     0.009 C 
HETATM   19  C18 UNL     1      -3.284  11.030  16.442  1.00  0.00     0.047 C 
HETATM   20  C19 UNL     1      -1.924  10.780  17.162  1.00  0.00     0.128 C 
ENDROOT
BRANCH  20  21
HETATM   21  O3  UNL     1      -2.166   9.746  18.124  1.00  0.00    -0.381 OA
HETATM   22  H27 UNL     1      -2.762  10.131  18.801  1.00  0.00     0.211 HD
ENDBRANCH  20  21
BRANCH  20  23
HETATM   23  C20 UNL     1      -1.385  12.062  17.849  1.00  0.00     0.185 C 
HETATM   24  O4  UNL     1      -1.569  13.181  17.359  1.00  0.00    -0.292 OA
BRANCH  23  25
HETATM   25  C21 UNL     1      -0.509  11.923  19.102  1.00  0.00     0.260 C 
BRANCH  25  26
HETATM   26  O5  UNL     1       0.244  10.744  19.341  1.00  0.00    -0.314 OA
BRANCH  26  27
HETATM   27  C22 UNL     1       1.128  10.823  20.369  1.00  0.00     0.259 C 
HETATM   28  O6  UNL     1       1.436   9.877  21.086  1.00  0.00    -0.265 OA
BRANCH  27  29
HETATM   29  C23 UNL     1       1.796  12.174  20.450  1.00  0.00     0.120 C 
BRANCH  29  30
HETATM   30  C24 UNL     1       3.190  12.245  19.838  1.00  0.00     0.112 C 
BRANCH  30  31
HETATM   31  C25 UNL     1       4.232  11.564  20.702  1.00  0.00     0.218 C 
HETATM   32  O7  UNL     1       4.970  10.676  20.291  1.00  0.00    -0.274 OA
HETATM   33  N1  UNL     1       4.238  12.024  22.001  1.00  0.00    -0.357 N 
HETATM   34  H34 UNL     1       3.736  12.873  22.218  1.00  0.00     0.162 HD
BRANCH  33  35
HETATM   35  C26 UNL     1       5.220  11.568  22.959  1.00  0.00     0.161 C 
BRANCH  35  36
HETATM   36  C27 UNL     1       6.378  12.525  23.044  1.00  0.00    -0.038 A 
HETATM   37  C28 UNL     1       6.171  13.905  23.102  1.00  0.00     0.025 A 
HETATM   38  C29 UNL     1       7.278  14.741  23.156  1.00  0.00     0.088 A 
HETATM   39  N2  UNL     1       8.554  14.301  23.149  1.00  0.00    -0.375 N 
HETATM   40  C30 UNL     1       8.732  12.964  23.084  1.00  0.00     0.088 A 
ATOM     41  H2  UNL     1       9.342  14.945  23.191  1.00  0.00     0.164 HD
HETATM   42  C31 UNL     1       7.694  12.049  23.028  1.00  0.00     0.025 A 
ENDBRANCH  35  36
ENDBRANCH  33  35
ENDBRANCH  30  31
ENDBRANCH  29  30
ENDBRANCH  27  29
ENDBRANCH  26  27
ENDBRANCH  25  26
ENDBRANCH  23  25
ENDBRANCH  20  23
BRANCH  13  43
HETATM   43  O2  UNL     1      -0.192   6.988  16.323  1.00  0.00    -0.395 OA
HETATM   44  H16 UNL     1      -0.914   7.321  16.884  1.00  0.00     0.210 HD
ENDBRANCH  13  43
TORSDOF 11
ENDMDL
MODEL 9
REMARK minimizedAffinity -7.72918272
REMARK CNNscore 0.286740303
REMARK CNNaffinity 6.07013464
REMARK  11 active torsions:
REMARK  status: ('A' for Active; 'I' for Inactive)
REMARK    1  A    between atoms: C12_13  and  O2_14 
REMARK    2  A    between atoms: C19_21  and  O3_22 
REMARK    3  A    between atoms: C19_21  and  C20_23 
REMARK    4  A    between atoms: C20_23  and  C21_25 
REMARK    5  A    between atoms: C21_25  and  O5_26 
REMARK    6  A    between atoms: O5_26  and  C22_27 
REMARK    7  A    between atoms: C22_27  and  C23_29 
REMARK    8  A    between atoms: C23_29  and  C24_30 
REMARK    9  A    between atoms: C24_30  and  C25_31 
REMARK       I    between atoms: C25_31  and  N1_33 
REMARK   10  A    between atoms: N1_33  and  C26_34 
REMARK   11  A    between atoms: C26_34  and  C27_35 
ROOT
HETATM    1  C1  UNL     1      -5.781   5.738  15.911  1.00  0.00     0.020 C 
HETATM    2  C2  UNL     1      -5.480   6.273  14.490  1.00  0.00    -0.014 C 
HETATM    3  C3  UNL     1      -6.640   7.192  14.034  1.00  0.00     0.022 C 
HETATM    4  C4  UNL     1      -7.955   6.448  13.816  1.00  0.00     0.084 C 
HETATM    5  C5  UNL     1      -7.784   5.236  12.935  1.00  0.00     0.149 C 
HETATM    6  O1  UNL     1      -8.731   4.727  12.339  1.00  0.00    -0.293 OA
HETATM    7  C6  UNL     1      -6.444   4.617  12.823  1.00  0.00     0.053 C 
HETATM    8  C7  UNL     1      -5.394   5.075  13.527  1.00  0.00    -0.068 C 
HETATM    9  C8  UNL     1      -4.019   4.483  13.331  1.00  0.00     0.035 C 
HETATM   10  C9  UNL     1      -3.038   5.519  12.758  1.00  0.00     0.010 C 
HETATM   11  C10 UNL     1      -3.421   6.968  13.115  1.00  0.00    -0.002 C 
HETATM   12  C11 UNL     1      -4.082   7.006  14.521  1.00  0.00     0.031 C 
HETATM   13  C12 UNL     1      -4.026   8.414  15.153  1.00  0.00     0.124 C 
HETATM   14  C13 UNL     1      -2.571   8.916  15.338  1.00  0.00     0.045 C 
HETATM   15  C14 UNL     1      -1.559   8.395  14.275  1.00  0.00     0.001 C 
HETATM   16  C15 UNL     1      -0.760   7.201  14.865  1.00  0.00     0.019 C 
HETATM   17  C16 UNL     1      -2.312   8.022  12.975  1.00  0.00     0.002 C 
HETATM   18  C17 UNL     1      -1.216   7.837  11.933  1.00  0.00     0.009 C 
HETATM   19  C18 UNL     1      -0.133   8.857  12.339  1.00  0.00     0.047 C 
HETATM   20  C19 UNL     1      -0.571   9.468  13.704  1.00  0.00     0.128 C 
ENDROOT
BRANCH  20  21
HETATM   21  O3  UNL     1      -1.294  10.665  13.392  1.00  0.00    -0.381 OA
HETATM   22  H27 UNL     1      -0.643  11.292  13.012  1.00  0.00     0.211 HD
ENDBRANCH  20  21
BRANCH  20  23
HETATM   23  C20 UNL     1       0.644   9.777  14.619  1.00  0.00     0.185 C 
HETATM   24  O4  UNL     1       1.795   9.479  14.283  1.00  0.00    -0.292 OA
BRANCH  23  25
HETATM   25  C21 UNL     1       0.393  10.362  16.016  1.00  0.00     0.260 C 
BRANCH  25  26
HETATM   26  O5  UNL     1       1.335  11.232  16.625  1.00  0.00    -0.314 OA
BRANCH  26  27
HETATM   27  C22 UNL     1       2.284  10.620  17.378  1.00  0.00     0.259 C 
HETATM   28  O6  UNL     1       2.215   9.458  17.762  1.00  0.00    -0.265 OA
BRANCH  27  29
HETATM   29  C23 UNL     1       3.505  11.485  17.577  1.00  0.00     0.120 C 
BRANCH  29  30
HETATM   30  C24 UNL     1       4.721  11.091  16.746  1.00  0.00     0.112 C 
BRANCH  30  31
HETATM   31  C25 UNL     1       5.987  11.023  17.577  1.00  0.00     0.218 C 
HETATM   32  O7  UNL     1       6.947  10.320  17.282  1.00  0.00    -0.274 OA
HETATM   33  N1  UNL     1       5.931  11.805  18.710  1.00  0.00    -0.357 N 
HETATM   34  H34 UNL     1       5.192  12.490  18.791  1.00  0.00     0.162 HD
BRANCH  33  35
HETATM   35  C26 UNL     1       7.072  11.951  19.585  1.00  0.00     0.161 C 
BRANCH  35  36
HETATM   36  C27 UNL     1       6.725  12.778  20.792  1.00  0.00    -0.038 A 
HETATM   37  C28 UNL     1       6.915  14.162  20.799  1.00  0.00     0.025 A 
HETATM   38  C29 UNL     1       6.598  14.871  21.949  1.00  0.00     0.088 A 
HETATM   39  N2  UNL     1       6.120  14.302  23.075  1.00  0.00    -0.375 N 
HETATM   40  C30 UNL     1       5.951  12.962  23.052  1.00  0.00     0.088 A 
ATOM     41  H2  UNL     1       5.897  14.855  23.902  1.00  0.00     0.164 HD
HETATM   42  C31 UNL     1       6.237  12.168  21.953  1.00  0.00     0.025 A 
ENDBRANCH  35  36
ENDBRANCH  33  35
ENDBRANCH  30  31
ENDBRANCH  29  30
ENDBRANCH  27  29
ENDBRANCH  26  27
ENDBRANCH  25  26
ENDBRANCH  23  25
ENDBRANCH  20  23
BRANCH  13  43
HETATM   43  O2  UNL     1      -4.767   9.360  14.385  1.00  0.00    -0.395 OA
HETATM   44  H16 UNL     1      -4.156   9.901  13.855  1.00  0.00     0.210 HD
ENDBRANCH  13  43
TORSDOF 11
ENDMDL
