MODEL 1
REMARK minimizedAffinity -9.00467205
REMARK CNNscore 0.481590718
REMARK CNNaffinity 6.9902873
REMARK  13 active torsions:
REMARK  status: ('A' for Active; 'I' for Inactive)
REMARK    1  A    between atoms: C2_2  and  C4_4 
REMARK    2  A    between atoms: C5_6  and  C6_7 
REMARK    3  A    between atoms: C7_8  and  C8_9 
REMARK    4  A    between atoms: C9_10  and  C10_11 
REMARK    5  A    between atoms: C11_12  and  C12_13 
REMARK    6  A    between atoms: C12_13  and  C13_14 
REMARK    7  A    between atoms: C18_21  and  C19_22 
REMARK    8  A    between atoms: C19_22  and  O4_23 
REMARK    9  A    between atoms: C20_24  and  O5_25 
REMARK   10  A    between atoms: C21_26  and  O6_27 
REMARK   11  A    between atoms: C30_38  and  O9_39 
REMARK   12  A    between atoms: O9_39  and  C31_40 
REMARK   13  A    between atoms: C31_40  and  C32_41 
ROOT
HETATM    1  C4  UNL     1      -8.382  47.385 -28.447  1.00  0.00     0.142 C 
HETATM    2  O1  UNL     1      -7.331  48.320 -28.796  1.00  0.00    -0.308 OA
HETATM    3  C5  UNL     1      -6.335  47.520 -29.411  1.00  0.00     0.306 C 
HETATM    4  O2  UNL     1      -6.363  46.267 -28.755  1.00  0.00    -0.320 OA
HETATM    5  C15 UNL     1      -7.770  45.999 -28.765  1.00  0.00     0.179 C 
HETATM    6  C16 UNL     1      -8.066  45.491 -30.194  1.00  0.00     0.086 C 
HETATM    7  C17 UNL     1      -7.256  44.233 -30.446  1.00  0.00     0.172 A 
HETATM    8  O3  UNL     1      -6.216  44.312 -31.417  1.00  0.00    -0.363 OA
HETATM    9  C18 UNL     1      -7.283  43.391 -31.723  1.00  0.00     0.138 A 
HETATM   10  C20 UNL     1      -8.103  43.736 -32.960  1.00  0.00     0.200 C 
HETATM   11  C21 UNL     1      -8.646  45.173 -33.091  1.00  0.00     0.161 C 
HETATM   12  C22 UNL     1      -8.873  45.557 -34.552  1.00  0.00     0.192 C 
HETATM   13  O7  UNL     1      -9.377  44.855 -35.417  1.00  0.00    -0.289 OA
HETATM   14  C23 UNL     1      -8.452  46.949 -34.811  1.00  0.00    -0.016 C 
HETATM   15  C24 UNL     1      -8.692  47.644 -36.092  1.00  0.00     0.052 C 
HETATM   16  C25 UNL     1      -7.810  47.348 -33.709  1.00  0.00    -0.005 C 
HETATM   17  C26 UNL     1      -7.695  46.295 -32.633  1.00  0.00     0.090 C 
HETATM   18  C27 UNL     1      -7.863  46.727 -31.138  1.00  0.00     0.092 C 
HETATM   19  O8  UNL     1      -6.609  47.388 -30.808  1.00  0.00    -0.316 OA
HETATM   20  C28 UNL     1      -9.073  47.738 -30.890  1.00  0.00     0.050 C 
HETATM   21  C29 UNL     1      -8.805  49.202 -31.295  1.00  0.00     0.016 C 
HETATM   22  C30 UNL     1      -9.566  47.712 -29.397  1.00  0.00     0.170 C 
ENDROOT
BRANCH   3  23
HETATM   23  C6  UNL     1      -5.025  48.227 -29.279  1.00  0.00     0.074 C 
HETATM   24  C7  UNL     1      -4.293  48.587 -28.209  1.00  0.00     0.004 C 
BRANCH  24  25
HETATM   25  C8  UNL     1      -4.576  48.320 -26.818  1.00  0.00    -0.000 C 
HETATM   26  C9  UNL     1      -3.764  48.709 -25.823  1.00  0.00    -0.000 C 
BRANCH  26  27
HETATM   27  C10 UNL     1      -4.045  48.434 -24.431  1.00  0.00    -0.004 C 
HETATM   28  C11 UNL     1      -3.091  48.380 -23.491  1.00  0.00    -0.027 C 
BRANCH  28  29
HETATM   29  C12 UNL     1      -3.365  48.088 -22.042  1.00  0.00     0.027 C 
BRANCH  29  30
HETATM   30  C13 UNL     1      -2.308  47.189 -21.396  1.00  0.00    -0.001 C 
HETATM   31  C14 UNL     1      -1.060  47.937 -20.947  1.00  0.00     0.005 C 
ENDBRANCH  29  30
ENDBRANCH  28  29
ENDBRANCH  26  27
ENDBRANCH  24  25
ENDBRANCH   3  23
BRANCH   1  32
HETATM   32  C2  UNL     1      -8.728  47.608 -26.966  1.00  0.00    -0.054 C 
HETATM   33  C1  UNL     1      -8.339  46.769 -25.985  1.00  0.00     0.017 C 
HETATM   34  C3  UNL     1      -9.532  48.830 -26.603  1.00  0.00     0.046 C 
ENDBRANCH   1  32
BRANCH  22  35
HETATM   35  O9  UNL     1     -10.604  46.729 -29.240  1.00  0.00    -0.377 OA
BRANCH  35  36
HETATM   36  C31 UNL     1     -11.906  47.197 -29.605  1.00  0.00     0.207 C 
BRANCH  36  37
HETATM   37  C32 UNL     1     -12.921  46.817 -28.556  1.00  0.00    -0.035 A 
HETATM   38  C33 UNL     1     -13.988  45.963 -28.868  1.00  0.00     0.009 A 
HETATM   39  C34 UNL     1     -14.929  45.623 -27.895  1.00  0.00     0.001 A 
HETATM   40  C35 UNL     1     -14.813  46.132 -26.603  1.00  0.00     0.000 A 
HETATM   41  C36 UNL     1     -13.758  46.984 -26.283  1.00  0.00     0.001 A 
HETATM   42  C37 UNL     1     -12.816  47.325 -27.254  1.00  0.00     0.009 A 
ENDBRANCH  36  37
ENDBRANCH  35  36
ENDBRANCH  22  35
BRANCH  11  43
HETATM   43  O6  UNL     1      -9.945  45.257 -32.478  1.00  0.00    -0.378 OA
HETATM   44  H27 UNL     1     -10.372  44.408 -32.737  1.00  0.00     0.211 HD
ENDBRANCH  11  43
BRANCH   9  45
HETATM   45  C19 UNL     1      -6.769  41.970 -31.665  1.00  0.00     0.207 C 
BRANCH  45  46
HETATM   46  O4  UNL     1      -5.434  41.927 -32.160  1.00  0.00    -0.398 OA
HETATM   47  H24 UNL     1      -5.193  40.984 -32.218  1.00  0.00     0.209 HD
ENDBRANCH  45  46
ENDBRANCH   9  45
BRANCH  10  48
HETATM   48  O5  UNL     1      -9.269  42.877 -32.987  1.00  0.00    -0.389 OA
HETATM   49  H26 UNL     1      -8.993  42.001 -32.639  1.00  0.00     0.210 HD
ENDBRANCH  10  48
TORSDOF 13
ENDMDL
MODEL 2
REMARK minimizedAffinity -7.16354895
REMARK CNNscore 0.284709454
REMARK CNNaffinity 6.89425516
REMARK  13 active torsions:
REMARK  status: ('A' for Active; 'I' for Inactive)
REMARK    1  A    between atoms: C2_2  and  C4_4 
REMARK    2  A    between atoms: C5_6  and  C6_7 
REMARK    3  A    between atoms: C7_8  and  C8_9 
REMARK    4  A    between atoms: C9_10  and  C10_11 
REMARK    5  A    between atoms: C11_12  and  C12_13 
REMARK    6  A    between atoms: C12_13  and  C13_14 
REMARK    7  A    between atoms: C18_21  and  C19_22 
REMARK    8  A    between atoms: C19_22  and  O4_23 
REMARK    9  A    between atoms: C20_24  and  O5_25 
REMARK   10  A    between atoms: C21_26  and  O6_27 
REMARK   11  A    between atoms: C30_38  and  O9_39 
REMARK   12  A    between atoms: O9_39  and  C31_40 
REMARK   13  A    between atoms: C31_40  and  C32_41 
ROOT
HETATM    1  C4  UNL     1      -0.906  51.971 -10.868  1.00  0.00     0.142 C 
HETATM    2  O1  UNL     1      -1.082  52.988  -9.850  1.00  0.00    -0.308 OA
HETATM    3  C5  UNL     1      -0.559  52.401  -8.670  1.00  0.00     0.306 C 
HETATM    4  O2  UNL     1      -0.848  51.019  -8.743  1.00  0.00    -0.320 OA
HETATM    5  C15 UNL     1      -0.414  50.733 -10.079  1.00  0.00     0.179 C 
HETATM    6  C16 UNL     1       1.123  50.617  -9.979  1.00  0.00     0.086 C 
HETATM    7  C17 UNL     1       1.470  49.490  -9.024  1.00  0.00     0.172 A 
HETATM    8  O3  UNL     1       2.094  49.847  -7.794  1.00  0.00    -0.363 OA
HETATM    9  C18 UNL     1       2.882  49.017  -8.671  1.00  0.00     0.138 A 
HETATM   10  C20 UNL     1       4.158  49.662  -9.199  1.00  0.00     0.200 C 
HETATM   11  C21 UNL     1       4.056  51.070  -9.818  1.00  0.00     0.161 C 
HETATM   12  C22 UNL     1       5.381  51.824  -9.723  1.00  0.00     0.192 C 
HETATM   13  O7  UNL     1       6.494  51.367  -9.941  1.00  0.00    -0.289 OA
HETATM   14  C23 UNL     1       5.165  53.243  -9.376  1.00  0.00    -0.016 C 
HETATM   15  C24 UNL     1       6.247  54.248  -9.362  1.00  0.00     0.052 C 
HETATM   16  C25 UNL     1       3.873  53.348  -9.053  1.00  0.00    -0.005 C 
HETATM   17  C26 UNL     1       3.104  52.049  -9.107  1.00  0.00     0.090 C 
HETATM   18  C27 UNL     1       1.641  52.064  -9.664  1.00  0.00     0.092 C 
HETATM   19  O8  UNL     1       0.848  52.641  -8.589  1.00  0.00    -0.316 OA
HETATM   20  C28 UNL     1       1.462  52.947 -10.983  1.00  0.00     0.050 C 
HETATM   21  C29 UNL     1       1.403  54.471 -10.755  1.00  0.00     0.016 C 
HETATM   22  C30 UNL     1       0.199  52.513 -11.814  1.00  0.00     0.170 C 
ENDROOT
BRANCH   3  23
HETATM   23  C6  UNL     1      -1.193  53.076  -7.496  1.00  0.00     0.074 C 
HETATM   24  C7  UNL     1      -0.800  54.100  -6.718  1.00  0.00     0.004 C 
BRANCH  24  25
HETATM   25  C8  UNL     1       0.393  54.903  -6.855  1.00  0.00    -0.000 C 
HETATM   26  C9  UNL     1       0.359  56.234  -7.026  1.00  0.00    -0.000 C 
BRANCH  26  27
HETATM   27  C10 UNL     1       1.555  57.034  -7.170  1.00  0.00    -0.004 C 
HETATM   28  C11 UNL     1       2.591  56.666  -7.939  1.00  0.00    -0.027 C 
BRANCH  28  29
HETATM   29  C12 UNL     1       3.843  57.483  -8.095  1.00  0.00     0.027 C 
BRANCH  29  30
HETATM   30  C13 UNL     1       4.992  57.002  -7.206  1.00  0.00    -0.001 C 
HETATM   31  C14 UNL     1       4.991  57.624  -5.816  1.00  0.00     0.005 C 
ENDBRANCH  29  30
ENDBRANCH  28  29
ENDBRANCH  26  27
ENDBRANCH  24  25
ENDBRANCH   3  23
BRANCH   1  32
HETATM   32  C2  UNL     1      -2.257  51.784 -11.575  1.00  0.00    -0.054 C 
HETATM   33  C1  UNL     1      -2.635  50.623 -12.146  1.00  0.00     0.017 C 
HETATM   34  C3  UNL     1      -3.201  52.958 -11.619  1.00  0.00     0.046 C 
ENDBRANCH   1  32
BRANCH  22  35
HETATM   35  O9  UNL     1       0.564  51.502 -12.769  1.00  0.00    -0.377 OA
BRANCH  35  36
HETATM   36  C31 UNL     1       0.316  51.873 -14.129  1.00  0.00     0.207 C 
BRANCH  36  37
HETATM   37  C32 UNL     1       1.612  52.006 -14.888  1.00  0.00    -0.035 A 
HETATM   38  C33 UNL     1       2.812  51.520 -14.350  1.00  0.00     0.009 A 
HETATM   39  C34 UNL     1       4.009  51.655 -15.054  1.00  0.00     0.001 A 
HETATM   40  C35 UNL     1       4.019  52.277 -16.301  1.00  0.00     0.000 A 
HETATM   41  C36 UNL     1       2.834  52.767 -16.845  1.00  0.00     0.001 A 
HETATM   42  C37 UNL     1       1.635  52.632 -16.142  1.00  0.00     0.009 A 
ENDBRANCH  36  37
ENDBRANCH  35  36
ENDBRANCH  22  35
BRANCH  11  43
HETATM   43  O6  UNL     1       3.792  50.960 -11.229  1.00  0.00    -0.378 OA
HETATM   44  H27 UNL     1       4.357  50.201 -11.505  1.00  0.00     0.211 HD
ENDBRANCH  11  43
BRANCH   9  45
HETATM   45  C19 UNL     1       3.056  47.643  -8.064  1.00  0.00     0.207 C 
BRANCH  45  46
HETATM   46  O4  UNL     1       2.379  46.681  -8.865  1.00  0.00    -0.398 OA
HETATM   47  H24 UNL     1       2.415  45.840  -8.373  1.00  0.00     0.209 HD
ENDBRANCH  45  46
ENDBRANCH   9  45
BRANCH  10  48
HETATM   48  O5  UNL     1       4.696  48.816 -10.245  1.00  0.00    -0.389 OA
HETATM   49  H26 UNL     1       4.522  47.885  -9.984  1.00  0.00     0.210 HD
ENDBRANCH  10  48
TORSDOF 13
ENDMDL
MODEL 3
REMARK minimizedAffinity -9.20405483
REMARK CNNscore 0.284510642
REMARK CNNaffinity 7.20072174
REMARK  13 active torsions:
REMARK  status: ('A' for Active; 'I' for Inactive)
REMARK    1  A    between atoms: C2_2  and  C4_4 
REMARK    2  A    between atoms: C5_6  and  C6_7 
REMARK    3  A    between atoms: C7_8  and  C8_9 
REMARK    4  A    between atoms: C9_10  and  C10_11 
REMARK    5  A    between atoms: C11_12  and  C12_13 
REMARK    6  A    between atoms: C12_13  and  C13_14 
REMARK    7  A    between atoms: C18_21  and  C19_22 
REMARK    8  A    between atoms: C19_22  and  O4_23 
REMARK    9  A    between atoms: C20_24  and  O5_25 
REMARK   10  A    between atoms: C21_26  and  O6_27 
REMARK   11  A    between atoms: C30_38  and  O9_39 
REMARK   12  A    between atoms: O9_39  and  C31_40 
REMARK   13  A    between atoms: C31_40  and  C32_41 
ROOT
HETATM    1  C4  UNL     1      -3.335  50.192 -22.457  1.00  0.00     0.142 C 
HETATM    2  O1  UNL     1      -2.260  50.233 -21.486  1.00  0.00    -0.308 OA
HETATM    3  C5  UNL     1      -2.919  50.288 -20.231  1.00  0.00     0.306 C 
HETATM    4  O2  UNL     1      -4.099  51.042 -20.428  1.00  0.00    -0.320 OA
HETATM    5  C15 UNL     1      -4.612  50.418 -21.611  1.00  0.00     0.179 C 
HETATM    6  C16 UNL     1      -5.279  49.115 -21.115  1.00  0.00     0.086 C 
HETATM    7  C17 UNL     1      -6.389  49.471 -20.144  1.00  0.00     0.172 A 
HETATM    8  O3  UNL     1      -6.207  49.098 -18.780  1.00  0.00    -0.363 OA
HETATM    9  C18 UNL     1      -7.324  48.479 -19.449  1.00  0.00     0.138 A 
HETATM   10  C20 UNL     1      -7.231  46.964 -19.599  1.00  0.00     0.200 C 
HETATM   11  C21 UNL     1      -5.928  46.372 -20.172  1.00  0.00     0.161 C 
HETATM   12  C22 UNL     1      -5.710  44.935 -19.705  1.00  0.00     0.192 C 
HETATM   13  O7  UNL     1      -6.558  44.056 -19.638  1.00  0.00    -0.289 OA
HETATM   14  C23 UNL     1      -4.292  44.688 -19.376  1.00  0.00    -0.016 C 
HETATM   15  C24 UNL     1      -3.757  43.353 -19.042  1.00  0.00     0.052 C 
HETATM   16  C25 UNL     1      -3.698  45.885 -19.401  1.00  0.00    -0.005 C 
HETATM   17  C26 UNL     1      -4.623  47.040 -19.702  1.00  0.00     0.090 C 
HETATM   18  C27 UNL     1      -4.107  48.195 -20.623  1.00  0.00     0.092 C 
HETATM   19  O8  UNL     1      -3.210  48.965 -19.774  1.00  0.00    -0.316 OA
HETATM   20  C28 UNL     1      -3.309  47.688 -21.910  1.00  0.00     0.050 C 
HETATM   21  C29 UNL     1      -1.859  47.231 -21.651  1.00  0.00     0.016 C 
HETATM   22  C30 UNL     1      -3.301  48.761 -23.059  1.00  0.00     0.170 C 
ENDROOT
BRANCH   3  23
HETATM   23  C6  UNL     1      -1.982  50.904 -19.242  1.00  0.00     0.074 C 
HETATM   24  C7  UNL     1      -0.750  51.428 -19.366  1.00  0.00     0.004 C 
BRANCH  24  25
HETATM   25  C8  UNL     1       0.021  51.591 -20.577  1.00  0.00    -0.000 C 
HETATM   26  C9  UNL     1       0.045  52.736 -21.276  1.00  0.00    -0.000 C 
BRANCH  26  27
HETATM   27  C10 UNL     1       0.811  52.894 -22.493  1.00  0.00    -0.004 C 
HETATM   28  C11 UNL     1       0.258  52.848 -23.714  1.00  0.00    -0.027 C 
BRANCH  28  29
HETATM   29  C12 UNL     1       1.041  53.003 -24.987  1.00  0.00     0.027 C 
BRANCH  29  30
HETATM   30  C13 UNL     1       1.114  51.716 -25.812  1.00  0.00    -0.001 C 
HETATM   31  C14 UNL     1       2.448  51.519 -26.521  1.00  0.00     0.005 C 
ENDBRANCH  29  30
ENDBRANCH  28  29
ENDBRANCH  26  27
ENDBRANCH  24  25
ENDBRANCH   3  23
BRANCH   1  32
HETATM   32  C2  UNL     1      -3.058  51.284 -23.502  1.00  0.00    -0.054 C 
HETATM   33  C1  UNL     1      -3.506  52.550 -23.381  1.00  0.00     0.017 C 
HETATM   34  C3  UNL     1      -2.236  50.916 -24.710  1.00  0.00     0.046 C 
ENDBRANCH   1  32
BRANCH  22  35
HETATM   35  O9  UNL     1      -4.436  48.566 -23.920  1.00  0.00    -0.377 OA
BRANCH  35  36
HETATM   36  C31 UNL     1      -4.095  48.386 -25.298  1.00  0.00     0.207 C 
BRANCH  36  37
HETATM   37  C32 UNL     1      -5.321  48.053 -26.110  1.00  0.00    -0.035 A 
HETATM   38  C33 UNL     1      -5.263  48.010 -27.511  1.00  0.00     0.009 A 
HETATM   39  C34 UNL     1      -6.404  47.710 -28.256  1.00  0.00     0.001 A 
HETATM   40  C35 UNL     1      -7.612  47.451 -27.611  1.00  0.00     0.000 A 
HETATM   41  C36 UNL     1      -7.681  47.493 -26.221  1.00  0.00     0.001 A 
HETATM   42  C37 UNL     1      -6.541  47.793 -25.473  1.00  0.00     0.009 A 
ENDBRANCH  36  37
ENDBRANCH  35  36
ENDBRANCH  22  35
BRANCH  11  43
HETATM   43  O6  UNL     1      -6.026  46.286 -21.606  1.00  0.00    -0.378 OA
HETATM   44  H27 UNL     1      -6.956  45.994 -21.751  1.00  0.00     0.211 HD
ENDBRANCH  11  43
BRANCH   9  45
HETATM   45  C19 UNL     1      -8.622  48.991 -18.867  1.00  0.00     0.207 C 
BRANCH  45  46
HETATM   46  O4  UNL     1      -8.539  48.987 -17.445  1.00  0.00    -0.398 OA
HETATM   47  H24 UNL     1      -9.431  49.205 -17.117  1.00  0.00     0.209 HD
ENDBRANCH  45  46
ENDBRANCH   9  45
BRANCH  10  48
HETATM   48  O5  UNL     1      -8.283  46.531 -20.496  1.00  0.00    -0.389 OA
HETATM   49  H26 UNL     1      -9.064  47.100 -20.324  1.00  0.00     0.210 HD
ENDBRANCH  10  48
TORSDOF 13
ENDMDL
MODEL 4
REMARK minimizedAffinity -7.2705555
REMARK CNNscore 0.263291419
REMARK CNNaffinity 6.84963989
REMARK  13 active torsions:
REMARK  status: ('A' for Active; 'I' for Inactive)
REMARK    1  A    between atoms: C2_2  and  C4_4 
REMARK    2  A    between atoms: C5_6  and  C6_7 
REMARK    3  A    between atoms: C7_8  and  C8_9 
REMARK    4  A    between atoms: C9_10  and  C10_11 
REMARK    5  A    between atoms: C11_12  and  C12_13 
REMARK    6  A    between atoms: C12_13  and  C13_14 
REMARK    7  A    between atoms: C18_21  and  C19_22 
REMARK    8  A    between atoms: C19_22  and  O4_23 
REMARK    9  A    between atoms: C20_24  and  O5_25 
REMARK   10  A    between atoms: C21_26  and  O6_27 
REMARK   11  A    between atoms: C30_38  and  O9_39 
REMARK   12  A    between atoms: O9_39  and  C31_40 
REMARK   13  A    between atoms: C31_40  and  C32_41 
ROOT
HETATM    1  C4  UNL     1       2.738  51.363  -8.853  1.00  0.00     0.142 C 
HETATM    2  O1  UNL     1       4.114  51.725  -9.127  1.00  0.00    -0.308 OA
HETATM    3  C5  UNL     1       4.627  50.631  -9.869  1.00  0.00     0.306 C 
HETATM    4  O2  UNL     1       3.995  49.470  -9.366  1.00  0.00    -0.320 OA
HETATM    5  C15 UNL     1       2.628  49.902  -9.356  1.00  0.00     0.179 C 
HETATM    6  C16 UNL     1       2.161  49.773 -10.823  1.00  0.00     0.086 C 
HETATM    7  C17 UNL     1       2.287  48.323 -11.253  1.00  0.00     0.172 A 
HETATM    8  O3  UNL     1       3.262  48.020 -12.246  1.00  0.00    -0.363 OA
HETATM    9  C18 UNL     1       1.895  47.757 -12.619  1.00  0.00     0.138 A 
HETATM   10  C20 UNL     1       1.365  48.598 -13.775  1.00  0.00     0.200 C 
HETATM   11  C21 UNL     1       1.570  50.124 -13.715  1.00  0.00     0.161 C 
HETATM   12  C22 UNL     1       1.586  50.745 -15.109  1.00  0.00     0.192 C 
HETATM   13  O7  UNL     1       0.832  50.476 -16.033  1.00  0.00    -0.289 OA
HETATM   14  C23 UNL     1       2.621  51.793 -15.217  1.00  0.00    -0.016 C 
HETATM   15  C24 UNL     1       2.769  52.670 -16.396  1.00  0.00     0.052 C 
HETATM   16  C25 UNL     1       3.349  51.703 -14.100  1.00  0.00    -0.005 C 
HETATM   17  C26 UNL     1       2.927  50.598 -13.161  1.00  0.00     0.090 C 
HETATM   18  C27 UNL     1       2.948  50.872 -11.620  1.00  0.00     0.092 C 
HETATM   19  O8  UNL     1       4.357  50.817 -11.261  1.00  0.00    -0.316 OA
HETATM   20  C28 UNL     1       2.354  52.296 -11.209  1.00  0.00     0.050 C 
HETATM   21  C29 UNL     1       3.292  53.497 -11.447  1.00  0.00     0.016 C 
HETATM   22  C30 UNL     1       1.872  52.323  -9.713  1.00  0.00     0.170 C 
ENDROOT
BRANCH   3  23
HETATM   23  C6  UNL     1       6.113  50.614  -9.702  1.00  0.00     0.074 C 
HETATM   24  C7  UNL     1       6.980  51.517  -9.212  1.00  0.00     0.004 C 
BRANCH  24  25
HETATM   25  C8  UNL     1       6.677  52.805  -8.631  1.00  0.00    -0.000 C 
HETATM   26  C9  UNL     1       6.697  53.945  -9.338  1.00  0.00    -0.000 C 
BRANCH  26  27
HETATM   27  C10 UNL     1       6.401  55.234  -8.753  1.00  0.00    -0.004 C 
HETATM   28  C11 UNL     1       5.300  55.469  -8.024  1.00  0.00    -0.027 C 
BRANCH  28  29
HETATM   29  C12 UNL     1       4.974  56.803  -7.415  1.00  0.00     0.027 C 
BRANCH  29  30
HETATM   30  C13 UNL     1       3.731  57.458  -8.022  1.00  0.00    -0.001 C 
HETATM   31  C14 UNL     1       2.554  56.504  -8.182  1.00  0.00     0.005 C 
ENDBRANCH  29  30
ENDBRANCH  28  29
ENDBRANCH  26  27
ENDBRANCH  24  25
ENDBRANCH   3  23
BRANCH   1  32
HETATM   32  C2  UNL     1       2.503  51.539  -7.344  1.00  0.00    -0.054 C 
HETATM   33  C1  UNL     1       2.857  52.651  -6.669  1.00  0.00     0.017 C 
HETATM   34  C3  UNL     1       1.836  50.414  -6.595  1.00  0.00     0.046 C 
ENDBRANCH   1  32
BRANCH  22  35
HETATM   35  O9  UNL     1       0.489  51.936  -9.635  1.00  0.00    -0.377 OA
BRANCH  35  36
HETATM   36  C31 UNL     1      -0.386  52.991  -9.227  1.00  0.00     0.207 C 
BRANCH  36  37
HETATM   37  C32 UNL     1      -1.728  52.861  -9.903  1.00  0.00    -0.035 A 
HETATM   38  C33 UNL     1      -2.163  51.625 -10.400  1.00  0.00     0.009 A 
HETATM   39  C34 UNL     1      -3.402  51.514 -11.033  1.00  0.00     0.001 A 
HETATM   40  C35 UNL     1      -4.216  52.636 -11.176  1.00  0.00     0.000 A 
HETATM   41  C36 UNL     1      -3.792  53.870 -10.689  1.00  0.00     0.001 A 
HETATM   42  C37 UNL     1      -2.553  53.983 -10.055  1.00  0.00     0.009 A 
ENDBRANCH  36  37
ENDBRANCH  35  36
ENDBRANCH  22  35
BRANCH  11  43
HETATM   43  O6  UNL     1       0.451  50.736 -13.048  1.00  0.00    -0.378 OA
HETATM   44  H27 UNL     1      -0.321  50.228 -13.390  1.00  0.00     0.211 HD
ENDBRANCH  11  43
BRANCH   9  45
HETATM   45  C19 UNL     1       1.674  46.267 -12.750  1.00  0.00     0.207 C 
BRANCH  45  46
HETATM   46  O4  UNL     1       2.931  45.609 -12.867  1.00  0.00    -0.398 OA
HETATM   47  H24 UNL     1       2.735  44.676 -13.071  1.00  0.00     0.209 HD
ENDBRANCH  45  46
ENDBRANCH   9  45
BRANCH  10  48
HETATM   48  O5  UNL     1      -0.068  48.401 -13.861  1.00  0.00    -0.389 OA
HETATM   49  H26 UNL     1      -0.247  47.464 -13.630  1.00  0.00     0.210 HD
ENDBRANCH  10  48
TORSDOF 13
ENDMDL
MODEL 5
REMARK minimizedAffinity -7.1055069
REMARK CNNscore 0.258942008
REMARK CNNaffinity 6.70884275
REMARK  13 active torsions:
REMARK  status: ('A' for Active; 'I' for Inactive)
REMARK    1  A    between atoms: C2_2  and  C4_4 
REMARK    2  A    between atoms: C5_6  and  C6_7 
REMARK    3  A    between atoms: C7_8  and  C8_9 
REMARK    4  A    between atoms: C9_10  and  C10_11 
REMARK    5  A    between atoms: C11_12  and  C12_13 
REMARK    6  A    between atoms: C12_13  and  C13_14 
REMARK    7  A    between atoms: C18_21  and  C19_22 
REMARK    8  A    between atoms: C19_22  and  O4_23 
REMARK    9  A    between atoms: C20_24  and  O5_25 
REMARK   10  A    between atoms: C21_26  and  O6_27 
REMARK   11  A    between atoms: C30_38  and  O9_39 
REMARK   12  A    between atoms: O9_39  and  C31_40 
REMARK   13  A    between atoms: C31_40  and  C32_41 
ROOT
HETATM    1  C4  UNL     1       0.726  50.895  -9.728  1.00  0.00     0.142 C 
HETATM    2  O1  UNL     1       2.060  50.354  -9.560  1.00  0.00    -0.308 OA
HETATM    3  C5  UNL     1       2.123  49.277 -10.481  1.00  0.00     0.306 C 
HETATM    4  O2  UNL     1       0.828  48.711 -10.529  1.00  0.00    -0.320 OA
HETATM    5  C15 UNL     1       0.033  49.893 -10.683  1.00  0.00     0.179 C 
HETATM    6  C16 UNL     1       0.155  50.260 -12.180  1.00  0.00     0.086 C 
HETATM    7  C17 UNL     1      -0.383  49.111 -13.012  1.00  0.00     0.172 A 
HETATM    8  O3  UNL     1       0.552  48.389 -13.809  1.00  0.00    -0.363 OA
HETATM    9  C18 UNL     1      -0.481  49.080 -14.539  1.00  0.00     0.138 A 
HETATM   10  C20 UNL     1       0.007  50.199 -15.451  1.00  0.00     0.200 C 
HETATM   11  C21 UNL     1       0.972  51.246 -14.861  1.00  0.00     0.161 C 
HETATM   12  C22 UNL     1       1.840  51.885 -15.943  1.00  0.00     0.192 C 
HETATM   13  O7  UNL     1       1.468  52.257 -17.047  1.00  0.00    -0.289 OA
HETATM   14  C23 UNL     1       3.229  52.066 -15.477  1.00  0.00    -0.016 C 
HETATM   15  C24 UNL     1       4.256  52.794 -16.250  1.00  0.00     0.052 C 
HETATM   16  C25 UNL     1       3.314  51.410 -14.317  1.00  0.00    -0.005 C 
HETATM   17  C26 UNL     1       2.046  50.704 -13.900  1.00  0.00     0.090 C 
HETATM   18  C27 UNL     1       1.641  50.717 -12.388  1.00  0.00     0.092 C 
HETATM   19  O8  UNL     1       2.537  49.756 -11.763  1.00  0.00    -0.316 OA
HETATM   20  C28 UNL     1       1.819  52.139 -11.684  1.00  0.00     0.050 C 
HETATM   21  C29 UNL     1       3.268  52.515 -11.311  1.00  0.00     0.016 C 
HETATM   22  C30 UNL     1       0.918  52.280 -10.403  1.00  0.00     0.170 C 
ENDROOT
BRANCH   3  23
HETATM   23  C6  UNL     1       3.169  48.320 -10.004  1.00  0.00     0.074 C 
HETATM   24  C7  UNL     1       4.399  48.503  -9.494  1.00  0.00     0.004 C 
BRANCH  24  25
HETATM   25  C8  UNL     1       5.056  49.758  -9.206  1.00  0.00    -0.000 C 
HETATM   26  C9  UNL     1       6.173  50.155  -9.834  1.00  0.00    -0.000 C 
BRANCH  26  27
HETATM   27  C10 UNL     1       6.833  51.408  -9.538  1.00  0.00    -0.004 C 
HETATM   28  C11 UNL     1       6.168  52.558  -9.355  1.00  0.00    -0.027 C 
BRANCH  28  29
HETATM   29  C12 UNL     1       6.838  53.868  -9.053  1.00  0.00     0.027 C 
BRANCH  29  30
HETATM   30  C13 UNL     1       5.859  55.041  -8.960  1.00  0.00    -0.001 C 
HETATM   31  C14 UNL     1       5.271  55.453 -10.303  1.00  0.00     0.005 C 
ENDBRANCH  29  30
ENDBRANCH  28  29
ENDBRANCH  26  27
ENDBRANCH  24  25
ENDBRANCH   3  23
BRANCH   1  32
HETATM   32  C2  UNL     1       0.087  50.996  -8.333  1.00  0.00    -0.054 C 
HETATM   33  C1  UNL     1       0.724  51.520  -7.268  1.00  0.00     0.017 C 
HETATM   34  C3  UNL     1      -1.322  50.491  -8.162  1.00  0.00     0.046 C 
ENDBRANCH   1  32
BRANCH  22  35
HETATM   35  O9  UNL     1      -0.361  52.830 -10.762  1.00  0.00    -0.377 OA
BRANCH  35  36
HETATM   36  C31 UNL     1      -0.366  54.255 -10.885  1.00  0.00     0.207 C 
BRANCH  36  37
HETATM   37  C32 UNL     1       0.250  54.896  -9.667  1.00  0.00    -0.035 A 
HETATM   38  C33 UNL     1       1.545  55.432  -9.716  1.00  0.00     0.009 A 
HETATM   39  C34 UNL     1       2.112  56.015  -8.582  1.00  0.00     0.001 A 
HETATM   40  C35 UNL     1       1.392  56.069  -7.390  1.00  0.00     0.000 A 
HETATM   41  C36 UNL     1       0.106  55.537  -7.329  1.00  0.00     0.001 A 
HETATM   42  C37 UNL     1      -0.463  54.953  -8.462  1.00  0.00     0.009 A 
ENDBRANCH  36  37
ENDBRANCH  35  36
ENDBRANCH  22  35
BRANCH  11  43
HETATM   43  O6  UNL     1       0.218  52.335 -14.298  1.00  0.00    -0.378 OA
HETATM   44  H27 UNL     1      -0.513  52.463 -14.947  1.00  0.00     0.211 HD
ENDBRANCH  11  43
BRANCH   9  45
HETATM   45  C19 UNL     1      -1.412  48.080 -15.186  1.00  0.00     0.207 C 
BRANCH  45  46
HETATM   46  O4  UNL     1      -1.176  48.051 -16.590  1.00  0.00    -0.398 OA
HETATM   47  H24 UNL     1      -1.875  47.490 -16.974  1.00  0.00     0.209 HD
ENDBRANCH  45  46
ENDBRANCH   9  45
BRANCH  10  48
HETATM   48  O5  UNL     1      -1.145  50.948 -15.910  1.00  0.00    -0.389 OA
HETATM   49  H26 UNL     1      -1.877  50.305 -16.037  1.00  0.00     0.210 HD
ENDBRANCH  10  48
TORSDOF 13
ENDMDL
MODEL 6
REMARK minimizedAffinity -7.3213377
REMARK CNNscore 0.245522633
REMARK CNNaffinity 6.71309662
REMARK  13 active torsions:
REMARK  status: ('A' for Active; 'I' for Inactive)
REMARK    1  A    between atoms: C2_2  and  C4_4 
REMARK    2  A    between atoms: C5_6  and  C6_7 
REMARK    3  A    between atoms: C7_8  and  C8_9 
REMARK    4  A    between atoms: C9_10  and  C10_11 
REMARK    5  A    between atoms: C11_12  and  C12_13 
REMARK    6  A    between atoms: C12_13  and  C13_14 
REMARK    7  A    between atoms: C18_21  and  C19_22 
REMARK    8  A    between atoms: C19_22  and  O4_23 
REMARK    9  A    between atoms: C20_24  and  O5_25 
REMARK   10  A    between atoms: C21_26  and  O6_27 
REMARK   11  A    between atoms: C30_38  and  O9_39 
REMARK   12  A    between atoms: O9_39  and  C31_40 
REMARK   13  A    between atoms: C31_40  and  C32_41 
ROOT
HETATM    1  C4  UNL     1      -1.538  52.668 -10.934  1.00  0.00     0.142 C 
HETATM    2  O1  UNL     1      -2.552  51.824 -11.535  1.00  0.00    -0.308 OA
HETATM    3  C5  UNL     1      -1.974  51.391 -12.755  1.00  0.00     0.306 C 
HETATM    4  O2  UNL     1      -1.175  52.459 -13.225  1.00  0.00    -0.320 OA
HETATM    5  C15 UNL     1      -0.453  52.788 -12.032  1.00  0.00     0.179 C 
HETATM    6  C16 UNL     1       0.662  51.722 -11.938  1.00  0.00     0.086 C 
HETATM    7  C17 UNL     1       1.542  51.821 -13.170  1.00  0.00     0.172 A 
HETATM    8  O3  UNL     1       1.508  50.728 -14.084  1.00  0.00    -0.363 OA
HETATM    9  C18 UNL     1       2.783  50.972 -13.455  1.00  0.00     0.138 A 
HETATM   10  C20 UNL     1       3.282  49.853 -12.548  1.00  0.00     0.200 C 
HETATM   11  C21 UNL     1       2.314  49.292 -11.489  1.00  0.00     0.161 C 
HETATM   12  C22 UNL     1       2.665  47.855 -11.110  1.00  0.00     0.192 C 
HETATM   13  O7  UNL     1       3.785  47.410 -10.908  1.00  0.00    -0.289 OA
HETATM   14  C23 UNL     1       1.449  47.031 -10.955  1.00  0.00    -0.016 C 
HETATM   15  C24 UNL     1       1.469  45.644 -10.447  1.00  0.00     0.052 C 
HETATM   16  C25 UNL     1       0.439  47.780 -11.406  1.00  0.00    -0.005 C 
HETATM   17  C26 UNL     1       0.848  49.134 -11.935  1.00  0.00     0.090 C 
HETATM   18  C27 UNL     1      -0.067  50.367 -11.633  1.00  0.00     0.092 C 
HETATM   19  O8  UNL     1      -1.198  50.210 -12.536  1.00  0.00    -0.316 OA
HETATM   20  C28 UNL     1      -0.598  50.423 -10.128  1.00  0.00     0.050 C 
HETATM   21  C29 UNL     1      -1.761  49.465  -9.801  1.00  0.00     0.016 C 
HETATM   22  C30 UNL     1      -1.012  51.880  -9.704  1.00  0.00     0.170 C 
ENDROOT
BRANCH   3  23
HETATM   23  C6  UNL     1      -3.083  51.027 -13.690  1.00  0.00     0.074 C 
HETATM   24  C7  UNL     1      -3.136  50.902 -15.027  1.00  0.00     0.004 C 
BRANCH  24  25
HETATM   25  C8  UNL     1      -2.050  51.045 -15.970  1.00  0.00    -0.000 C 
HETATM   26  C9  UNL     1      -2.200  50.846 -17.288  1.00  0.00    -0.000 C 
BRANCH  26  27
HETATM   27  C10 UNL     1      -1.110  50.982 -18.229  1.00  0.00    -0.004 C 
HETATM   28  C11 UNL     1      -0.841  52.128 -18.872  1.00  0.00    -0.027 C 
BRANCH  28  29
HETATM   29  C12 UNL     1       0.284  52.285 -19.857  1.00  0.00     0.027 C 
BRANCH  29  30
HETATM   30  C13 UNL     1       0.822  53.716 -19.937  1.00  0.00    -0.001 C 
HETATM   31  C14 UNL     1       1.436  54.063 -21.287  1.00  0.00     0.005 C 
ENDBRANCH  29  30
ENDBRANCH  28  29
ENDBRANCH  26  27
ENDBRANCH  24  25
ENDBRANCH   3  23
BRANCH   1  32
HETATM   32  C2  UNL     1      -2.209  53.996 -10.549  1.00  0.00    -0.054 C 
HETATM   33  C1  UNL     1      -3.514  54.096 -10.229  1.00  0.00     0.017 C 
HETATM   34  C3  UNL     1      -1.355  55.237 -10.521  1.00  0.00     0.046 C 
ENDBRANCH   1  32
BRANCH  22  35
HETATM   35  O9  UNL     1       0.116  52.564  -9.131  1.00  0.00    -0.377 OA
BRANCH  35  36
HETATM   36  C31 UNL     1       1.107  52.949 -10.088  1.00  0.00     0.207 C 
BRANCH  36  37
HETATM   37  C32 UNL     1       1.815  54.204  -9.644  1.00  0.00    -0.035 A 
HETATM   38  C33 UNL     1       2.660  54.899 -10.521  1.00  0.00     0.009 A 
HETATM   39  C34 UNL     1       3.319  56.056 -10.100  1.00  0.00     0.001 A 
HETATM   40  C35 UNL     1       3.140  56.527  -8.802  1.00  0.00     0.000 A 
HETATM   41  C36 UNL     1       2.306  55.843  -7.921  1.00  0.00     0.001 A 
HETATM   42  C37 UNL     1       1.645  54.687  -8.339  1.00  0.00     0.009 A 
ENDBRANCH  36  37
ENDBRANCH  35  36
ENDBRANCH  22  35
BRANCH  11  43
HETATM   43  O6  UNL     1       2.447  50.042 -10.267  1.00  0.00    -0.378 OA
HETATM   44  H27 UNL     1       3.419  50.192 -10.200  1.00  0.00     0.211 HD
ENDBRANCH  11  43
BRANCH   9  45
HETATM   45  C19 UNL     1       3.778  51.465 -14.481  1.00  0.00     0.207 C 
BRANCH  45  46
HETATM   46  O4  UNL     1       4.811  50.498 -14.642  1.00  0.00    -0.398 OA
HETATM   47  H24 UNL     1       5.485  50.909 -15.214  1.00  0.00     0.209 HD
ENDBRANCH  45  46
ENDBRANCH   9  45
BRANCH  10  48
HETATM   48  O5  UNL     1       4.426  50.345 -11.807  1.00  0.00    -0.389 OA
HETATM   49  H26 UNL     1       4.926  50.941 -12.407  1.00  0.00     0.210 HD
ENDBRANCH  10  48
TORSDOF 13
ENDMDL
MODEL 7
REMARK minimizedAffinity -7.07325363
REMARK CNNscore 0.244142935
REMARK CNNaffinity 6.6546998
REMARK  13 active torsions:
REMARK  status: ('A' for Active; 'I' for Inactive)
REMARK    1  A    between atoms: C2_2  and  C4_4 
REMARK    2  A    between atoms: C5_6  and  C6_7 
REMARK    3  A    between atoms: C7_8  and  C8_9 
REMARK    4  A    between atoms: C9_10  and  C10_11 
REMARK    5  A    between atoms: C11_12  and  C12_13 
REMARK    6  A    between atoms: C12_13  and  C13_14 
REMARK    7  A    between atoms: C18_21  and  C19_22 
REMARK    8  A    between atoms: C19_22  and  O4_23 
REMARK    9  A    between atoms: C20_24  and  O5_25 
REMARK   10  A    between atoms: C21_26  and  O6_27 
REMARK   11  A    between atoms: C30_38  and  O9_39 
REMARK   12  A    between atoms: O9_39  and  C31_40 
REMARK   13  A    between atoms: C31_40  and  C32_41 
ROOT
HETATM    1  C4  UNL     1       2.045  54.102  -9.806  1.00  0.00     0.142 C 
HETATM    2  O1  UNL     1       1.494  54.756  -8.636  1.00  0.00    -0.308 OA
HETATM    3  C5  UNL     1       0.132  54.978  -8.964  1.00  0.00     0.306 C 
HETATM    4  O2  UNL     1       0.089  55.242 -10.353  1.00  0.00    -0.320 OA
HETATM    5  C15 UNL     1       0.900  54.168 -10.847  1.00  0.00     0.179 C 
HETATM    6  C16 UNL     1      -0.030  52.934 -10.841  1.00  0.00     0.086 C 
HETATM    7  C17 UNL     1      -1.212  53.207 -11.752  1.00  0.00     0.172 A 
HETATM    8  O3  UNL     1      -2.492  53.331 -11.139  1.00  0.00    -0.363 OA
HETATM    9  C18 UNL     1      -2.350  52.230 -12.059  1.00  0.00     0.138 A 
HETATM   10  C20 UNL     1      -2.481  50.845 -11.438  1.00  0.00     0.200 C 
HETATM   11  C21 UNL     1      -1.653  50.536 -10.175  1.00  0.00     0.161 C 
HETATM   12  C22 UNL     1      -2.302  49.441  -9.331  1.00  0.00     0.192 C 
HETATM   13  O7  UNL     1      -2.807  48.407  -9.746  1.00  0.00    -0.289 OA
HETATM   14  C23 UNL     1      -2.206  49.749  -7.890  1.00  0.00    -0.016 C 
HETATM   15  C24 UNL     1      -2.610  48.803  -6.830  1.00  0.00     0.052 C 
HETATM   16  C25 UNL     1      -1.757  51.005  -7.814  1.00  0.00    -0.005 C 
HETATM   17  C26 UNL     1      -1.543  51.678  -9.148  1.00  0.00     0.090 C 
HETATM   18  C27 UNL     1      -0.296  52.606  -9.330  1.00  0.00     0.092 C 
HETATM   19  O8  UNL     1      -0.646  53.829  -8.622  1.00  0.00    -0.316 OA
HETATM   20  C28 UNL     1       1.050  52.007  -8.714  1.00  0.00     0.050 C 
HETATM   21  C29 UNL     1       1.180  52.114  -7.181  1.00  0.00     0.016 C 
HETATM   22  C30 UNL     1       2.331  52.639  -9.372  1.00  0.00     0.170 C 
ENDROOT
BRANCH   3  23
HETATM   23  C6  UNL     1      -0.365  56.116  -8.131  1.00  0.00     0.074 C 
HETATM   24  C7  UNL     1       0.240  56.916  -7.236  1.00  0.00     0.004 C 
BRANCH  24  25
HETATM   25  C8  UNL     1       1.634  56.920  -6.859  1.00  0.00    -0.000 C 
HETATM   26  C9  UNL     1       2.490  57.879  -7.244  1.00  0.00    -0.000 C 
BRANCH  26  27
HETATM   27  C10 UNL     1       3.888  57.876  -6.872  1.00  0.00    -0.004 C 
HETATM   28  C11 UNL     1       4.712  56.852  -7.139  1.00  0.00    -0.027 C 
BRANCH  28  29
HETATM   29  C12 UNL     1       6.164  56.830  -6.753  1.00  0.00     0.027 C 
BRANCH  29  30
HETATM   30  C13 UNL     1       6.411  57.260  -5.304  1.00  0.00    -0.001 C 
HETATM   31  C14 UNL     1       7.126  58.598  -5.178  1.00  0.00     0.005 C 
ENDBRANCH  29  30
ENDBRANCH  28  29
ENDBRANCH  26  27
ENDBRANCH  24  25
ENDBRANCH   3  23
BRANCH   1  32
HETATM   32  C2  UNL     1       3.319  54.864 -10.206  1.00  0.00    -0.054 C 
HETATM   33  C1  UNL     1       3.298  56.024 -10.892  1.00  0.00     0.017 C 
HETATM   34  C3  UNL     1       4.648  54.283  -9.800  1.00  0.00     0.046 C 
ENDBRANCH   1  32
BRANCH  22  35
HETATM   35  O9  UNL     1       2.731  51.860 -10.513  1.00  0.00    -0.377 OA
BRANCH  35  36
HETATM   36  C31 UNL     1       3.163  50.536 -10.189  1.00  0.00     0.207 C 
BRANCH  36  37
HETATM   37  C32 UNL     1       4.551  50.559  -9.598  1.00  0.00    -0.035 A 
HETATM   38  C33 UNL     1       5.677  50.712 -10.419  1.00  0.00     0.009 A 
HETATM   39  C34 UNL     1       6.959  50.723  -9.866  1.00  0.00     0.001 A 
HETATM   40  C35 UNL     1       7.127  50.582  -8.491  1.00  0.00     0.000 A 
HETATM   41  C36 UNL     1       6.015  50.428  -7.665  1.00  0.00     0.001 A 
HETATM   42  C37 UNL     1       4.732  50.416  -8.216  1.00  0.00     0.009 A 
ENDBRANCH  36  37
ENDBRANCH  35  36
ENDBRANCH  22  35
BRANCH  11  43
HETATM   43  O6  UNL     1      -0.372  50.001 -10.556  1.00  0.00    -0.378 OA
HETATM   44  H27 UNL     1      -0.591  49.410 -11.313  1.00  0.00     0.211 HD
ENDBRANCH  11  43
BRANCH   9  45
HETATM   45  C19 UNL     1      -3.200  52.471 -13.286  1.00  0.00     0.207 C 
BRANCH  45  46
HETATM   46  O4  UNL     1      -4.144  53.502 -13.014  1.00  0.00    -0.398 OA
HETATM   47  H24 UNL     1      -4.743  53.536 -13.783  1.00  0.00     0.209 HD
ENDBRANCH  45  46
ENDBRANCH   9  45
BRANCH  10  48
HETATM   48  O5  UNL     1      -2.069  49.865 -12.423  1.00  0.00    -0.389 OA
HETATM   49  H26 UNL     1      -2.364  50.192 -13.300  1.00  0.00     0.210 HD
ENDBRANCH  10  48
TORSDOF 13
ENDMDL
MODEL 8
REMARK minimizedAffinity -6.82574129
REMARK CNNscore 0.241301805
REMARK CNNaffinity 6.9702487
REMARK  13 active torsions:
REMARK  status: ('A' for Active; 'I' for Inactive)
REMARK    1  A    between atoms: C2_2  and  C4_4 
REMARK    2  A    between atoms: C5_6  and  C6_7 
REMARK    3  A    between atoms: C7_8  and  C8_9 
REMARK    4  A    between atoms: C9_10  and  C10_11 
REMARK    5  A    between atoms: C11_12  and  C12_13 
REMARK    6  A    between atoms: C12_13  and  C13_14 
REMARK    7  A    between atoms: C18_21  and  C19_22 
REMARK    8  A    between atoms: C19_22  and  O4_23 
REMARK    9  A    between atoms: C20_24  and  O5_25 
REMARK   10  A    between atoms: C21_26  and  O6_27 
REMARK   11  A    between atoms: C30_38  and  O9_39 
REMARK   12  A    between atoms: O9_39  and  C31_40 
REMARK   13  A    between atoms: C31_40  and  C32_41 
ROOT
HETATM    1  C4  UNL     1      -1.523  51.797 -12.215  1.00  0.00     0.142 C 
HETATM    2  O1  UNL     1      -1.634  52.629 -11.033  1.00  0.00    -0.308 OA
HETATM    3  C5  UNL     1      -1.365  51.749  -9.955  1.00  0.00     0.306 C 
HETATM    4  O2  UNL     1      -1.885  50.487 -10.324  1.00  0.00    -0.320 OA
HETATM    5  C15 UNL     1      -1.356  50.365 -11.651  1.00  0.00     0.179 C 
HETATM    6  C16 UNL     1       0.114  49.933 -11.452  1.00  0.00     0.086 C 
HETATM    7  C17 UNL     1       0.140  48.606 -10.715  1.00  0.00     0.172 A 
HETATM    8  O3  UNL     1       0.670  48.606  -9.392  1.00  0.00    -0.363 OA
HETATM    9  C18 UNL     1       1.395  47.809 -10.350  1.00  0.00     0.138 A 
HETATM   10  C20 UNL     1       2.818  48.274 -10.635  1.00  0.00     0.200 C 
HETATM   11  C21 UNL     1       3.042  49.762 -10.968  1.00  0.00     0.161 C 
HETATM   12  C22 UNL     1       4.459  50.210 -10.619  1.00  0.00     0.192 C 
HETATM   13  O7  UNL     1       5.491  49.590 -10.832  1.00  0.00    -0.289 OA
HETATM   14  C23 UNL     1       4.460  51.558 -10.015  1.00  0.00    -0.016 C 
HETATM   15  C24 UNL     1       5.695  52.312  -9.715  1.00  0.00     0.052 C 
HETATM   16  C25 UNL     1       3.179  51.856  -9.784  1.00  0.00    -0.005 C 
HETATM   17  C26 UNL     1       2.202  50.766 -10.156  1.00  0.00     0.090 C 
HETATM   18  C27 UNL     1       0.841  51.169 -10.816  1.00  0.00     0.092 C 
HETATM   19  O8  UNL     1       0.043  51.688  -9.715  1.00  0.00    -0.316 OA
HETATM   20  C28 UNL     1       0.977  52.291 -11.943  1.00  0.00     0.050 C 
HETATM   21  C29 UNL     1       1.165  53.731 -11.423  1.00  0.00     0.016 C 
HETATM   22  C30 UNL     1      -0.236  52.272 -12.943  1.00  0.00     0.170 C 
ENDROOT
BRANCH   3  23
HETATM   23  C6  UNL     1      -2.002  52.314  -8.726  1.00  0.00     0.074 C 
HETATM   24  C7  UNL     1      -1.584  53.219  -7.823  1.00  0.00     0.004 C 
BRANCH  24  25
HETATM   25  C8  UNL     1      -0.350  53.971  -7.835  1.00  0.00    -0.000 C 
HETATM   26  C9  UNL     1      -0.284  55.254  -8.223  1.00  0.00    -0.000 C 
BRANCH  26  27
HETATM   27  C10 UNL     1       0.954  56.002  -8.241  1.00  0.00    -0.004 C 
HETATM   28  C11 UNL     1       2.024  55.624  -8.955  1.00  0.00    -0.027 C 
BRANCH  28  29
HETATM   29  C12 UNL     1       3.319  56.386  -8.981  1.00  0.00     0.027 C 
BRANCH  29  30
HETATM   30  C13 UNL     1       4.065  56.353  -7.644  1.00  0.00    -0.001 C 
HETATM   31  C14 UNL     1       5.381  55.587  -7.698  1.00  0.00     0.005 C 
ENDBRANCH  29  30
ENDBRANCH  28  29
ENDBRANCH  26  27
ENDBRANCH  24  25
ENDBRANCH   3  23
BRANCH   1  32
HETATM   32  C2  UNL     1      -2.794  52.010 -13.053  1.00  0.00    -0.054 C 
HETATM   33  C1  UNL     1      -3.043  51.342 -14.197  1.00  0.00     0.017 C 
HETATM   34  C3  UNL     1      -3.808  53.009 -12.558  1.00  0.00     0.046 C 
ENDBRANCH   1  32
BRANCH  22  35
HETATM   35  O9  UNL     1       0.052  51.397 -14.047  1.00  0.00    -0.377 OA
BRANCH  35  36
HETATM   36  C31 UNL     1       1.070  51.886 -14.925  1.00  0.00     0.207 C 
BRANCH  36  37
HETATM   37  C32 UNL     1       0.680  51.670 -16.365  1.00  0.00    -0.035 A 
HETATM   38  C33 UNL     1      -0.046  50.533 -16.748  1.00  0.00     0.009 A 
HETATM   39  C34 UNL     1      -0.395  50.334 -18.085  1.00  0.00     0.001 A 
HETATM   40  C35 UNL     1      -0.023  51.268 -19.050  1.00  0.00     0.000 A 
HETATM   41  C36 UNL     1       0.701  52.400 -18.681  1.00  0.00     0.001 A 
HETATM   42  C37 UNL     1       1.051  52.600 -17.345  1.00  0.00     0.009 A 
ENDBRANCH  36  37
ENDBRANCH  35  36
ENDBRANCH  22  35
BRANCH  11  43
HETATM   43  O6  UNL     1       2.929  49.961 -12.389  1.00  0.00    -0.378 OA
HETATM   44  H27 UNL     1       3.378  49.168 -12.764  1.00  0.00     0.211 HD
ENDBRANCH  11  43
BRANCH   9  45
HETATM   45  C19 UNL     1       1.249  46.342 -10.015  1.00  0.00     0.207 C 
BRANCH  45  46
HETATM   46  O4  UNL     1       1.525  45.561 -11.174  1.00  0.00    -0.398 OA
HETATM   47  H24 UNL     1       1.300  44.640 -10.944  1.00  0.00     0.209 HD
ENDBRANCH  45  46
ENDBRANCH   9  45
BRANCH  10  48
HETATM   48  O5  UNL     1       3.315  47.540 -11.781  1.00  0.00    -0.389 OA
HETATM   49  H26 UNL     1       2.949  46.631 -11.724  1.00  0.00     0.210 HD
ENDBRANCH  10  48
TORSDOF 13
ENDMDL
MODEL 9
REMARK minimizedAffinity -9.15800858
REMARK CNNscore 0.195545807
REMARK CNNaffinity 6.87723875
REMARK  13 active torsions:
REMARK  status: ('A' for Active; 'I' for Inactive)
REMARK    1  A    between atoms: C2_2  and  C4_4 
REMARK    2  A    between atoms: C5_6  and  C6_7 
REMARK    3  A    between atoms: C7_8  and  C8_9 
REMARK    4  A    between atoms: C9_10  and  C10_11 
REMARK    5  A    between atoms: C11_12  and  C12_13 
REMARK    6  A    between atoms: C12_13  and  C13_14 
REMARK    7  A    between atoms: C18_21  and  C19_22 
REMARK    8  A    between atoms: C19_22  and  O4_23 
REMARK    9  A    between atoms: C20_24  and  O5_25 
REMARK   10  A    between atoms: C21_26  and  O6_27 
REMARK   11  A    between atoms: C30_38  and  O9_39 
REMARK   12  A    between atoms: O9_39  and  C31_40 
REMARK   13  A    between atoms: C31_40  and  C32_41 
ROOT
HETATM    1  C4  UNL     1      -3.117  50.224 -21.912  1.00  0.00     0.142 C 
HETATM    2  O1  UNL     1      -2.123  50.199 -20.857  1.00  0.00    -0.308 OA
HETATM    3  C5  UNL     1      -2.879  50.176 -19.658  1.00  0.00     0.306 C 
HETATM    4  O2  UNL     1      -4.042  50.945 -19.899  1.00  0.00    -0.320 OA
HETATM    5  C15 UNL     1      -4.458  50.400 -21.157  1.00  0.00     0.179 C 
HETATM    6  C16 UNL     1      -5.160  49.071 -20.799  1.00  0.00     0.086 C 
HETATM    7  C17 UNL     1      -6.345  49.368 -19.899  1.00  0.00     0.172 A 
HETATM    8  O3  UNL     1      -6.271  48.909 -18.552  1.00  0.00    -0.363 OA
HETATM    9  C18 UNL     1      -7.330  48.337 -19.345  1.00  0.00     0.138 A 
HETATM   10  C20 UNL     1      -7.223  46.835 -19.583  1.00  0.00     0.200 C 
HETATM   11  C21 UNL     1      -5.878  46.276 -20.088  1.00  0.00     0.161 C 
HETATM   12  C22 UNL     1      -5.696  44.811 -19.697  1.00  0.00     0.192 C 
HETATM   13  O7  UNL     1      -6.545  43.933 -19.755  1.00  0.00    -0.289 OA
HETATM   14  C23 UNL     1      -4.308  44.539 -19.273  1.00  0.00    -0.016 C 
HETATM   15  C24 UNL     1      -3.799  43.183 -18.984  1.00  0.00     0.052 C 
HETATM   16  C25 UNL     1      -3.715  45.732 -19.175  1.00  0.00    -0.005 C 
HETATM   17  C26 UNL     1      -4.615  46.907 -19.474  1.00  0.00     0.090 C 
HETATM   18  C27 UNL     1      -4.030  48.117 -20.276  1.00  0.00     0.092 C 
HETATM   19  O8  UNL     1      -3.204  48.828 -19.311  1.00  0.00    -0.316 OA
HETATM   20  C28 UNL     1      -3.132  47.690 -21.525  1.00  0.00     0.050 C 
HETATM   21  C29 UNL     1      -1.706  47.212 -21.182  1.00  0.00     0.016 C 
HETATM   22  C30 UNL     1      -3.034  48.834 -22.599  1.00  0.00     0.170 C 
ENDROOT
BRANCH   3  23
HETATM   23  C6  UNL     1      -2.025  50.725 -18.561  1.00  0.00     0.074 C 
HETATM   24  C7  UNL     1      -1.026  51.625 -18.554  1.00  0.00     0.004 C 
BRANCH  24  25
HETATM   25  C8  UNL     1      -0.519  52.387 -19.672  1.00  0.00    -0.000 C 
HETATM   26  C9  UNL     1       0.655  53.037 -19.637  1.00  0.00    -0.000 C 
BRANCH  26  27
HETATM   27  C10 UNL     1       1.156  53.805 -20.754  1.00  0.00    -0.004 C 
HETATM   28  C11 UNL     1       0.792  53.570 -22.024  1.00  0.00    -0.027 C 
BRANCH  28  29
HETATM   29  C12 UNL     1       1.309  54.355 -23.197  1.00  0.00     0.027 C 
BRANCH  29  30
HETATM   30  C13 UNL     1       0.658  53.956 -24.524  1.00  0.00    -0.001 C 
HETATM   31  C14 UNL     1       1.119  52.602 -25.047  1.00  0.00     0.005 C 
ENDBRANCH  29  30
ENDBRANCH  28  29
ENDBRANCH  26  27
ENDBRANCH  24  25
ENDBRANCH   3  23
BRANCH   1  32
HETATM   32  C2  UNL     1      -2.760  51.380 -22.859  1.00  0.00    -0.054 C 
HETATM   33  C1  UNL     1      -1.583  51.460 -23.511  1.00  0.00     0.017 C 
HETATM   34  C3  UNL     1      -3.784  52.465 -23.070  1.00  0.00     0.046 C 
ENDBRANCH   1  32
BRANCH  22  35
HETATM   35  O9  UNL     1      -4.097  48.699 -23.558  1.00  0.00    -0.377 OA
BRANCH  35  36
HETATM   36  C31 UNL     1      -3.654  48.707 -24.919  1.00  0.00     0.207 C 
BRANCH  36  37
HETATM   37  C32 UNL     1      -4.769  48.286 -25.843  1.00  0.00    -0.035 A 
HETATM   38  C33 UNL     1      -4.575  48.251 -27.231  1.00  0.00     0.009 A 
HETATM   39  C34 UNL     1      -5.614  47.868 -28.081  1.00  0.00     0.001 A 
HETATM   40  C35 UNL     1      -6.855  47.518 -27.553  1.00  0.00     0.000 A 
HETATM   41  C36 UNL     1      -7.060  47.551 -26.175  1.00  0.00     0.001 A 
HETATM   42  C37 UNL     1      -6.022  47.933 -25.323  1.00  0.00     0.009 A 
ENDBRANCH  36  37
ENDBRANCH  35  36
ENDBRANCH  22  35
BRANCH  11  43
HETATM   43  O6  UNL     1      -5.862  46.282 -21.527  1.00  0.00    -0.378 OA
HETATM   44  H27 UNL     1      -6.777  46.003 -21.764  1.00  0.00     0.211 HD
ENDBRANCH  11  43
BRANCH   9  45
HETATM   45  C19 UNL     1      -8.671  48.816 -18.836  1.00  0.00     0.207 C 
BRANCH  45  46
HETATM   46  O4  UNL     1      -8.563  49.150 -17.456  1.00  0.00    -0.398 OA
HETATM   47  H24 UNL     1      -9.469  49.333 -17.146  1.00  0.00     0.209 HD
ENDBRANCH  45  46
ENDBRANCH   9  45
BRANCH  10  48
HETATM   48  O5  UNL     1      -8.200  46.464 -20.587  1.00  0.00    -0.389 OA
HETATM   49  H26 UNL     1      -8.993  47.023 -20.441  1.00  0.00     0.210 HD
ENDBRANCH  10  48
TORSDOF 13
ENDMDL
