MODEL 1
REMARK minimizedAffinity -8.47467995
REMARK CNNscore 0.502192557
REMARK CNNaffinity 7.56768656
REMARK  9 active torsions:
REMARK  status: ('A' for Active; 'I' for Inactive)
REMARK    1  A    between atoms: O1_2  and  C2_3 
REMARK    2  A    between atoms: C2_3  and  C3_4 
REMARK    3  A    between atoms: C3_4  and  C4_5 
REMARK    4  A    between atoms: C4_5  and  O2_6 
REMARK    5  A    between atoms: O2_6  and  C5_7 
REMARK    6  A    between atoms: C23_29  and  O5_30 
REMARK    7  A    between atoms: C34_42  and  O7_43 
REMARK    8  A    between atoms: C35_44  and  O8_46 
REMARK    9  A    between atoms: C42_52  and  O9_53 
ROOT
HETATM    1  C5  UNL     1      -2.288  51.352 -22.381  1.00  0.00     0.122 C 
HETATM    2  C6  UNL     1      -1.919  50.151 -23.285  1.00  0.00     0.033 C 
HETATM    3  C7  UNL     1      -2.724  48.884 -22.971  1.00  0.00     0.014 C 
HETATM    4  C8  UNL     1      -2.553  48.395 -21.486  1.00  0.00    -0.010 C 
HETATM    5  C9  UNL     1      -1.364  47.376 -21.492  1.00  0.00     0.018 C 
HETATM    6  C10 UNL     1      -2.047  49.581 -20.618  1.00  0.00     0.073 C 
HETATM    7  C11 UNL     1      -2.721  50.901 -20.973  1.00  0.00     0.045 C 
HETATM    8  C12 UNL     1      -2.049  49.318 -19.128  1.00  0.00     0.161 C 
HETATM    9  O3  UNL     1      -1.283  49.935 -18.385  1.00  0.00    -0.292 OA
HETATM   10  C13 UNL     1      -3.003  48.332 -18.550  1.00  0.00    -0.005 C 
HETATM   11  C14 UNL     1      -3.919  47.724 -19.326  1.00  0.00    -0.014 C 
HETATM   12  C15 UNL     1      -3.913  47.745 -20.877  1.00  0.00     0.058 C 
HETATM   13  C16 UNL     1      -5.103  48.538 -21.345  1.00  0.00    -0.091 C 
HETATM   14  C17 UNL     1      -6.055  49.158 -21.751  1.00  0.00    -0.104 C 
HETATM   15  C18 UNL     1      -7.187  49.990 -22.176  1.00  0.00     0.115 C 
HETATM   16  C19 UNL     1      -8.019  49.275 -23.202  1.00  0.00     0.090 A 
HETATM   17  C20 UNL     1      -7.474  48.841 -24.533  1.00  0.00     0.120 A 
HETATM   18  N1  UNL     1      -7.845  47.898 -23.529  1.00  0.00    -0.243 NA
HETATM   19  C21 UNL     1      -8.957  47.049 -23.639  1.00  0.00     0.234 C 
HETATM   20  O4  UNL     1      -9.836  47.139 -24.488  1.00  0.00    -0.277 OA
HETATM   21  C22 UNL     1      -8.941  46.044 -22.470  1.00  0.00     0.318 C 
HETATM   22  N2  UNL     1     -10.078  46.308 -21.551  1.00  0.00     0.128 N 
HETATM   23  C23 UNL     1     -10.087  45.421 -20.398  1.00  0.00     0.384 C 
HETATM   24  C24 UNL     1      -8.746  44.673 -20.210  1.00  0.00     0.186 C 
HETATM   25  O6  UNL     1      -8.720  43.783 -19.083  1.00  0.00    -0.373 OA
HETATM   26  C25 UNL     1      -8.200  42.517 -19.525  1.00  0.00     0.158 C 
HETATM   27  C26 UNL     1      -8.639  42.452 -21.009  1.00  0.00     0.021 C 
HETATM   28  C27 UNL     1      -8.047  41.322 -21.832  1.00  0.00     0.013 C 
HETATM   29  C28 UNL     1      -8.328  43.877 -21.462  1.00  0.00     0.036 C 
HETATM   30  C29 UNL     1      -8.838  44.517 -22.798  1.00  0.00     0.005 C 
HETATM   31  C30 UNL     1     -10.180  43.956 -23.344  1.00  0.00     0.012 C 
HETATM   32  C31 UNL     1      -9.867  43.281 -24.678  1.00  0.00     0.001 C 
HETATM   33  C32 UNL     1      -8.645  44.015 -25.190  1.00  0.00     0.001 C 
HETATM   34  C33 UNL     1      -7.821  44.229 -23.933  1.00  0.00     0.012 C 
HETATM   35  C34 UNL     1      -6.683  42.323 -19.162  1.00  0.00     0.181 C 
HETATM   36  C35 UNL     1      -6.065  43.118 -17.951  1.00  0.00     0.087 C 
HETATM   37  C36 UNL     1      -6.893  42.798 -16.691  1.00  0.00     0.049 C 
HETATM   38  C37 UNL     1      -5.863  44.672 -18.127  1.00  0.00     0.034 C 
HETATM   39  C38 UNL     1      -5.480  45.386 -16.785  1.00  0.00     0.016 C 
HETATM   40  C39 UNL     1      -5.127  46.847 -17.147  1.00  0.00     0.026 C 
HETATM   41  C40 UNL     1      -4.020  47.485 -16.319  1.00  0.00     0.013 C 
HETATM   42  C41 UNL     1      -2.813  48.021 -17.089  1.00  0.00     0.043 C 
HETATM   43  C42 UNL     1      -4.968  46.851 -18.675  1.00  0.00     0.095 C 
HETATM   44  C43 UNL     1      -4.807  45.351 -19.100  1.00  0.00    -0.002 C 
HETATM   45  C44 UNL     1      -3.374  44.806 -18.837  1.00  0.00     0.019 C 
HETATM   46  C45 UNL     1      -5.059  45.346 -20.628  1.00  0.00     0.015 C 
HETATM   47  C46 UNL     1      -4.102  46.274 -21.415  1.00  0.00     0.029 C 
HETATM   48  H27 UNL     1     -10.082  47.278 -21.251  1.00  0.00     0.320 HD
ENDROOT
BRANCH   1  49
HETATM   49  O2  UNL     1      -1.128  52.193 -22.386  1.00  0.00    -0.386 OA
BRANCH  49  50
HETATM   50  C4  UNL     1      -0.062  51.884 -21.484  1.00  0.00     0.170 C 
BRANCH  50  51
HETATM   51  C3  UNL     1       1.019  52.961 -21.404  1.00  0.00     0.052 C 
BRANCH  51  52
HETATM   52  C2  UNL     1       1.267  53.412 -19.972  1.00  0.00     0.169 C 
BRANCH  52  53
HETATM   53  O1  UNL     1       0.431  52.651 -19.102  1.00  0.00    -0.396 OA
HETATM   54  C1  UNL     1       0.980  52.541 -17.799  1.00  0.00     0.201 C 
ENDBRANCH  52  53
ENDBRANCH  51  52
ENDBRANCH  50  51
ENDBRANCH  49  50
ENDBRANCH   1  49
BRANCH  43  55
HETATM   55  O9  UNL     1      -6.240  47.354 -19.158  1.00  0.00    -0.384 OA
HETATM   56  H59 UNL     1      -6.952  47.057 -18.577  1.00  0.00     0.211 HD
ENDBRANCH  43  55
BRANCH  36  57
HETATM   57  O8  UNL     1      -4.756  42.546 -17.742  1.00  0.00    -0.387 OA
HETATM   58  H50 UNL     1      -4.862  41.693 -17.279  1.00  0.00     0.210 HD
ENDBRANCH  36  57
BRANCH  35  59
HETATM   59  O7  UNL     1      -5.804  42.445 -20.277  1.00  0.00    -0.390 OA
HETATM   60  H46 UNL     1      -4.900  42.368 -19.907  1.00  0.00     0.210 HD
ENDBRANCH  35  59
BRANCH  23  61
HETATM   61  O5  UNL     1     -10.381  46.213 -19.257  1.00  0.00    -0.366 OA
HETATM   62  H29 UNL     1      -9.647  46.840 -19.154  1.00  0.00     0.212 HD
ENDBRANCH  23  61
TORSDOF 9
ENDMDL
MODEL 2
REMARK minimizedAffinity -7.14309502
REMARK CNNscore 0.307960212
REMARK CNNaffinity 6.57471848
REMARK  9 active torsions:
REMARK  status: ('A' for Active; 'I' for Inactive)
REMARK    1  A    between atoms: O1_2  and  C2_3 
REMARK    2  A    between atoms: C2_3  and  C3_4 
REMARK    3  A    between atoms: C3_4  and  C4_5 
REMARK    4  A    between atoms: C4_5  and  O2_6 
REMARK    5  A    between atoms: O2_6  and  C5_7 
REMARK    6  A    between atoms: C23_29  and  O5_30 
REMARK    7  A    between atoms: C34_42  and  O7_43 
REMARK    8  A    between atoms: C35_44  and  O8_46 
REMARK    9  A    between atoms: C42_52  and  O9_53 
ROOT
HETATM    1  C5  UNL     1     -16.673  40.449 -26.951  1.00  0.00     0.122 C 
HETATM    2  C6  UNL     1     -17.026  41.329 -28.175  1.00  0.00     0.033 C 
HETATM    3  C7  UNL     1     -15.937  42.351 -28.522  1.00  0.00     0.014 C 
HETATM    4  C8  UNL     1     -15.614  43.337 -27.340  1.00  0.00    -0.010 C 
HETATM    5  C9  UNL     1     -16.542  44.582 -27.540  1.00  0.00     0.018 C 
HETATM    6  C10 UNL     1     -16.096  42.701 -26.006  1.00  0.00     0.073 C 
HETATM    7  C11 UNL     1     -15.808  41.207 -25.927  1.00  0.00     0.045 C 
HETATM    8  C12 UNL     1     -15.652  43.437 -24.761  1.00  0.00     0.161 C 
HETATM    9  O3  UNL     1     -16.302  43.344 -23.716  1.00  0.00    -0.292 OA
HETATM   10  C13 UNL     1     -14.408  44.253 -24.784  1.00  0.00    -0.005 C 
HETATM   11  C14 UNL     1     -13.627  44.285 -25.880  1.00  0.00    -0.014 C 
HETATM   12  C15 UNL     1     -14.043  43.748 -27.275  1.00  0.00     0.058 C 
HETATM   13  C16 UNL     1     -13.195  42.546 -27.592  1.00  0.00    -0.091 C 
HETATM   14  C17 UNL     1     -12.521  41.588 -27.880  1.00  0.00    -0.104 C 
HETATM   15  C18 UNL     1     -11.724  40.382 -28.133  1.00  0.00     0.115 C 
HETATM   16  C19 UNL     1     -11.068  40.450 -29.482  1.00  0.00     0.090 A 
HETATM   17  C20 UNL     1     -11.847  40.545 -30.763  1.00  0.00     0.120 A 
HETATM   18  N1  UNL     1     -11.050  41.628 -30.286  1.00  0.00    -0.243 NA
HETATM   19  C21 UNL     1      -9.863  42.046 -30.907  1.00  0.00     0.234 C 
HETATM   20  O4  UNL     1      -9.272  41.436 -31.789  1.00  0.00    -0.277 OA
HETATM   21  C22 UNL     1      -9.376  43.348 -30.237  1.00  0.00     0.318 C 
HETATM   22  N2  UNL     1      -8.112  43.102 -29.497  1.00  0.00     0.128 N 
HETATM   23  C23 UNL     1      -7.630  44.285 -28.801  1.00  0.00     0.384 C 
HETATM   24  C24 UNL     1      -8.703  45.395 -28.694  1.00  0.00     0.186 C 
HETATM   25  O6  UNL     1      -8.259  46.580 -28.016  1.00  0.00    -0.373 OA
HETATM   26  C25 UNL     1      -8.621  47.717 -28.822  1.00  0.00     0.158 C 
HETATM   27  C26 UNL     1      -8.582  47.155 -30.265  1.00  0.00     0.021 C 
HETATM   28  C27 UNL     1      -9.138  48.061 -31.349  1.00  0.00     0.013 C 
HETATM   29  C28 UNL     1      -9.271  45.807 -30.066  1.00  0.00     0.036 C 
HETATM   30  C29 UNL     1      -9.264  44.641 -31.112  1.00  0.00     0.005 C 
HETATM   31  C30 UNL     1      -8.029  44.589 -32.054  1.00  0.00     0.012 C 
HETATM   32  C31 UNL     1      -8.543  44.836 -33.471  1.00  0.00     0.001 C 
HETATM   33  C32 UNL     1      -9.976  44.343 -33.439  1.00  0.00     0.001 C 
HETATM   34  C33 UNL     1     -10.466  44.802 -32.078  1.00  0.00     0.012 C 
HETATM   35  C34 UNL     1      -9.922  48.434 -28.310  1.00  0.00     0.181 C 
HETATM   36  C35 UNL     1     -10.343  48.297 -26.799  1.00  0.00     0.087 C 
HETATM   37  C36 UNL     1      -9.168  48.777 -25.924  1.00  0.00     0.049 C 
HETATM   38  C37 UNL     1     -10.882  46.895 -26.317  1.00  0.00     0.034 C 
HETATM   39  C38 UNL     1     -11.031  46.809 -24.759  1.00  0.00     0.016 C 
HETATM   40  C39 UNL     1     -11.744  45.471 -24.457  1.00  0.00     0.026 C 
HETATM   41  C40 UNL     1     -12.697  45.482 -23.270  1.00  0.00     0.013 C 
HETATM   42  C41 UNL     1     -14.144  45.077 -23.552  1.00  0.00     0.043 C 
HETATM   43  C42 UNL     1     -12.295  44.999 -25.811  1.00  0.00     0.095 C 
HETATM   44  C43 UNL     1     -12.268  46.251 -26.753  1.00  0.00    -0.002 C 
HETATM   45  C44 UNL     1     -13.447  47.228 -26.483  1.00  0.00     0.019 C 
HETATM   46  C45 UNL     1     -12.428  45.673 -28.181  1.00  0.00     0.015 C 
HETATM   47  C46 UNL     1     -13.720  44.839 -28.367  1.00  0.00     0.029 C 
HETATM   48  H27 UNL     1      -8.219  42.329 -28.848  1.00  0.00     0.320 HD
ENDROOT
BRANCH   1  49
HETATM   49  O2  UNL     1     -17.935  40.012 -26.430  1.00  0.00    -0.386 OA
BRANCH  49  50
HETATM   50  C4  UNL     1     -19.041  40.916 -26.486  1.00  0.00     0.170 C 
BRANCH  50  51
HETATM   51  C3  UNL     1     -20.405  40.242 -26.343  1.00  0.00     0.052 C 
BRANCH  51  52
HETATM   52  C2  UNL     1     -21.232  40.864 -25.227  1.00  0.00     0.169 C 
BRANCH  52  53
HETATM   53  O1  UNL     1     -22.554  40.333 -25.288  1.00  0.00    -0.396 OA
HETATM   54  C1  UNL     1     -23.111  40.442 -26.589  1.00  0.00     0.201 C 
ENDBRANCH  52  53
ENDBRANCH  51  52
ENDBRANCH  50  51
ENDBRANCH  49  50
ENDBRANCH   1  49
BRANCH  43  55
HETATM   55  O9  UNL     1     -11.316  44.030 -26.269  1.00  0.00    -0.384 OA
HETATM   56  H59 UNL     1     -10.434  44.295 -25.980  1.00  0.00     0.211 HD
ENDBRANCH  43  55
BRANCH  36  57
HETATM   57  O8  UNL     1     -11.415  49.246 -26.609  1.00  0.00    -0.387 OA
HETATM   58  H50 UNL     1     -11.028  50.139 -26.541  1.00  0.00     0.210 HD
ENDBRANCH  36  57
BRANCH  35  59
HETATM   59  O7  UNL     1     -11.069  48.194 -29.121  1.00  0.00    -0.390 OA
HETATM   60  H46 UNL     1     -11.812  48.640 -28.662  1.00  0.00     0.210 HD
ENDBRANCH  35  59
BRANCH  23  61
HETATM   61  O5  UNL     1      -7.207  43.873 -27.510  1.00  0.00    -0.366 OA
HETATM   62  H29 UNL     1      -7.995  43.548 -27.047  1.00  0.00     0.212 HD
ENDBRANCH  23  61
TORSDOF 9
ENDMDL
MODEL 3
REMARK minimizedAffinity -8.62089634
REMARK CNNscore 0.304734021
REMARK CNNaffinity 7.06021452
REMARK  9 active torsions:
REMARK  status: ('A' for Active; 'I' for Inactive)
REMARK    1  A    between atoms: O1_2  and  C2_3 
REMARK    2  A    between atoms: C2_3  and  C3_4 
REMARK    3  A    between atoms: C3_4  and  C4_5 
REMARK    4  A    between atoms: C4_5  and  O2_6 
REMARK    5  A    between atoms: O2_6  and  C5_7 
REMARK    6  A    between atoms: C23_29  and  O5_30 
REMARK    7  A    between atoms: C34_42  and  O7_43 
REMARK    8  A    between atoms: C35_44  and  O8_46 
REMARK    9  A    between atoms: C42_52  and  O9_53 
ROOT
HETATM    1  C5  UNL     1       3.078  55.338 -10.274  1.00  0.00     0.122 C 
HETATM    2  C6  UNL     1       3.406  54.286  -9.187  1.00  0.00     0.033 C 
HETATM    3  C7  UNL     1       2.642  52.968  -9.367  1.00  0.00     0.014 C 
HETATM    4  C8  UNL     1       1.080  53.152  -9.355  1.00  0.00    -0.010 C 
HETATM    5  C9  UNL     1       0.626  52.961  -7.869  1.00  0.00     0.018 C 
HETATM    6  C10 UNL     1       0.743  54.635  -9.678  1.00  0.00     0.073 C 
HETATM    7  C11 UNL     1       1.627  55.215 -10.776  1.00  0.00     0.045 C 
HETATM    8  C12 UNL     1      -0.725  54.909  -9.919  1.00  0.00     0.161 C 
HETATM    9  O3  UNL     1      -1.189  56.036  -9.729  1.00  0.00    -0.292 OA
HETATM   10  C13 UNL     1      -1.611  53.823 -10.420  1.00  0.00    -0.005 C 
HETATM   11  C14 UNL     1      -1.108  52.615 -10.735  1.00  0.00    -0.014 C 
HETATM   12  C15 UNL     1       0.319  52.130 -10.365  1.00  0.00     0.058 C 
HETATM   13  C16 UNL     1       1.116  51.990 -11.633  1.00  0.00    -0.091 C 
HETATM   14  C17 UNL     1       1.776  51.854 -12.633  1.00  0.00    -0.104 C 
HETATM   15  C18 UNL     1       2.547  51.788 -13.881  1.00  0.00     0.115 C 
HETATM   16  C19 UNL     1       3.232  50.458 -14.014  1.00  0.00     0.090 A 
HETATM   17  C20 UNL     1       4.252  49.965 -13.027  1.00  0.00     0.120 A 
HETATM   18  N1  UNL     1       2.969  49.352 -13.152  1.00  0.00    -0.243 NA
HETATM   19  C21 UNL     1       2.775  48.068 -13.685  1.00  0.00     0.234 C 
HETATM   20  O4  UNL     1       3.624  47.409 -14.271  1.00  0.00    -0.277 OA
HETATM   21  C22 UNL     1       1.300  47.661 -13.491  1.00  0.00     0.318 C 
HETATM   22  N2  UNL     1       0.614  47.579 -14.806  1.00  0.00     0.128 N 
HETATM   23  C23 UNL     1      -0.798  47.248 -14.684  1.00  0.00     0.384 C 
HETATM   24  C24 UNL     1      -1.327  47.412 -13.239  1.00  0.00     0.186 C 
HETATM   25  O6  UNL     1      -2.717  47.088 -13.080  1.00  0.00    -0.373 OA
HETATM   26  C25 UNL     1      -2.844  46.211 -11.946  1.00  0.00     0.158 C 
HETATM   27  C26 UNL     1      -1.495  45.451 -11.932  1.00  0.00     0.021 C 
HETATM   28  C27 UNL     1      -1.222  44.597 -10.707  1.00  0.00     0.013 C 
HETATM   29  C28 UNL     1      -0.520  46.593 -12.213  1.00  0.00     0.036 C 
HETATM   30  C29 UNL     1       0.981  46.401 -12.620  1.00  0.00     0.005 C 
HETATM   31  C30 UNL     1       1.310  45.084 -13.377  1.00  0.00     0.012 C 
HETATM   32  C31 UNL     1       2.245  44.279 -12.476  1.00  0.00     0.001 C 
HETATM   33  C32 UNL     1       2.958  45.327 -11.646  1.00  0.00     0.001 C 
HETATM   34  C33 UNL     1       1.860  46.331 -11.345  1.00  0.00     0.012 C 
HETATM   35  C34 UNL     1      -3.318  46.963 -10.649  1.00  0.00     0.181 C 
HETATM   36  C35 UNL     1      -4.130  48.305 -10.780  1.00  0.00     0.087 C 
HETATM   37  C36 UNL     1      -5.377  48.032 -11.645  1.00  0.00     0.049 C 
HETATM   38  C37 UNL     1      -3.352  49.582 -11.281  1.00  0.00     0.034 C 
HETATM   39  C38 UNL     1      -4.308  50.781 -11.607  1.00  0.00     0.016 C 
HETATM   40  C39 UNL     1      -3.403  52.002 -11.890  1.00  0.00     0.026 C 
HETATM   41  C40 UNL     1      -3.950  53.350 -11.438  1.00  0.00     0.013 C 
HETATM   42  C41 UNL     1      -3.080  54.149 -10.468  1.00  0.00     0.043 C 
HETATM   43  C42 UNL     1      -2.011  51.592 -11.386  1.00  0.00     0.095 C 
HETATM   44  C43 UNL     1      -2.233  50.351 -10.455  1.00  0.00    -0.002 C 
HETATM   45  C44 UNL     1      -2.754  50.747  -9.045  1.00  0.00     0.019 C 
HETATM   46  C45 UNL     1      -0.827  49.720 -10.299  1.00  0.00     0.015 C 
HETATM   47  C46 UNL     1       0.226  50.695  -9.719  1.00  0.00     0.029 C 
HETATM   48  H27 UNL     1       0.730  48.442 -15.328  1.00  0.00     0.320 HD
ENDROOT
BRANCH   1  49
HETATM   49  O2  UNL     1       3.373  56.604  -9.669  1.00  0.00    -0.386 OA
BRANCH  49  50
HETATM   50  C4  UNL     1       3.220  56.730  -8.253  1.00  0.00     0.170 C 
BRANCH  50  51
HETATM   51  C3  UNL     1       4.367  57.471  -7.566  1.00  0.00     0.052 C 
BRANCH  51  52
HETATM   52  C2  UNL     1       5.067  56.600  -6.532  1.00  0.00     0.169 C 
BRANCH  52  53
HETATM   53  O1  UNL     1       6.453  56.529  -6.860  1.00  0.00    -0.396 OA
HETATM   54  C1  UNL     1       6.706  55.595  -7.897  1.00  0.00     0.201 C 
ENDBRANCH  52  53
ENDBRANCH  51  52
ENDBRANCH  50  51
ENDBRANCH  49  50
ENDBRANCH   1  49
BRANCH  43  55
HETATM   55  O9  UNL     1      -1.314  51.173 -12.588  1.00  0.00    -0.384 OA
HETATM   56  H59 UNL     1      -1.935  50.759 -13.200  1.00  0.00     0.211 HD
ENDBRANCH  43  55
BRANCH  36  57
HETATM   57  O8  UNL     1      -4.607  48.599  -9.449  1.00  0.00    -0.387 OA
HETATM   58  H50 UNL     1      -5.369  48.019  -9.259  1.00  0.00     0.210 HD
ENDBRANCH  36  57
BRANCH  35  59
HETATM   59  O7  UNL     1      -2.285  47.153  -9.685  1.00  0.00    -0.390 OA
HETATM   60  H46 UNL     1      -2.693  47.681  -8.966  1.00  0.00     0.210 HD
ENDBRANCH  35  59
BRANCH  23  61
HETATM   61  O5  UNL     1      -1.509  48.093 -15.575  1.00  0.00    -0.366 OA
HETATM   62  H29 UNL     1      -1.382  49.002 -15.262  1.00  0.00     0.212 HD
ENDBRANCH  23  61
TORSDOF 9
ENDMDL
MODEL 4
REMARK minimizedAffinity -7.05791616
REMARK CNNscore 0.285925061
REMARK CNNaffinity 6.46459055
REMARK  9 active torsions:
REMARK  status: ('A' for Active; 'I' for Inactive)
REMARK    1  A    between atoms: O1_2  and  C2_3 
REMARK    2  A    between atoms: C2_3  and  C3_4 
REMARK    3  A    between atoms: C3_4  and  C4_5 
REMARK    4  A    between atoms: C4_5  and  O2_6 
REMARK    5  A    between atoms: O2_6  and  C5_7 
REMARK    6  A    between atoms: C23_29  and  O5_30 
REMARK    7  A    between atoms: C34_42  and  O7_43 
REMARK    8  A    between atoms: C35_44  and  O8_46 
REMARK    9  A    between atoms: C42_52  and  O9_53 
ROOT
HETATM    1  C5  UNL     1     -17.705  41.956 -27.835  1.00  0.00     0.122 C 
HETATM    2  C6  UNL     1     -16.293  42.454 -28.229  1.00  0.00     0.033 C 
HETATM    3  C7  UNL     1     -15.474  42.963 -27.036  1.00  0.00     0.014 C 
HETATM    4  C8  UNL     1     -16.168  44.148 -26.270  1.00  0.00    -0.010 C 
HETATM    5  C9  UNL     1     -15.634  45.468 -26.923  1.00  0.00     0.018 C 
HETATM    6  C10 UNL     1     -17.688  44.139 -26.596  1.00  0.00     0.073 C 
HETATM    7  C11 UNL     1     -18.275  42.733 -26.633  1.00  0.00     0.045 C 
HETATM    8  C12 UNL     1     -18.518  45.085 -25.756  1.00  0.00     0.161 C 
HETATM    9  O3  UNL     1     -19.591  45.520 -26.182  1.00  0.00    -0.292 OA
HETATM   10  C13 UNL     1     -18.056  45.470 -24.394  1.00  0.00    -0.005 C 
HETATM   11  C14 UNL     1     -16.943  44.927 -23.867  1.00  0.00    -0.014 C 
HETATM   12  C15 UNL     1     -15.898  44.105 -24.667  1.00  0.00     0.058 C 
HETATM   13  C16 UNL     1     -15.949  42.680 -24.188  1.00  0.00    -0.091 C 
HETATM   14  C17 UNL     1     -15.956  41.533 -23.815  1.00  0.00    -0.104 C 
HETATM   15  C18 UNL     1     -16.073  40.138 -23.371  1.00  0.00     0.115 C 
HETATM   16  C19 UNL     1     -14.727  39.581 -23.006  1.00  0.00     0.090 A 
HETATM   17  C20 UNL     1     -13.598  39.468 -23.991  1.00  0.00     0.120 A 
HETATM   18  N1  UNL     1     -13.551  40.381 -22.895  1.00  0.00    -0.243 NA
HETATM   19  C21 UNL     1     -12.689  40.228 -21.798  1.00  0.00     0.234 C 
HETATM   20  O4  UNL     1     -12.031  39.227 -21.550  1.00  0.00    -0.277 OA
HETATM   21  C22 UNL     1     -12.776  41.487 -20.911  1.00  0.00     0.318 C 
HETATM   22  N2  UNL     1     -13.405  41.153 -19.608  1.00  0.00     0.128 N 
HETATM   23  C23 UNL     1     -13.561  42.315 -18.745  1.00  0.00     0.384 C 
HETATM   24  C24 UNL     1     -13.376  43.651 -19.504  1.00  0.00     0.186 C 
HETATM   25  O6  UNL     1     -13.517  44.819 -18.681  1.00  0.00    -0.373 OA
HETATM   26  C25 UNL     1     -12.398  45.687 -18.941  1.00  0.00     0.158 C 
HETATM   27  C26 UNL     1     -11.267  44.701 -19.323  1.00  0.00     0.021 C 
HETATM   28  C27 UNL     1      -9.998  45.323 -19.877  1.00  0.00     0.013 C 
HETATM   29  C28 UNL     1     -12.023  43.737 -20.236  1.00  0.00     0.036 C 
HETATM   30  C29 UNL     1     -11.482  42.341 -20.699  1.00  0.00     0.005 C 
HETATM   31  C30 UNL     1     -10.490  41.647 -19.726  1.00  0.00     0.012 C 
HETATM   32  C31 UNL     1      -9.150  41.554 -20.453  1.00  0.00     0.001 C 
HETATM   33  C32 UNL     1      -9.523  41.516 -21.921  1.00  0.00     0.001 C 
HETATM   34  C33 UNL     1     -10.668  42.508 -22.009  1.00  0.00     0.012 C 
HETATM   35  C34 UNL     1     -12.758  46.863 -19.920  1.00  0.00     0.181 C 
HETATM   36  C35 UNL     1     -14.251  47.345 -20.043  1.00  0.00     0.087 C 
HETATM   37  C36 UNL     1     -14.749  47.736 -18.637  1.00  0.00     0.049 C 
HETATM   38  C37 UNL     1     -15.271  46.383 -20.765  1.00  0.00     0.034 C 
HETATM   39  C38 UNL     1     -16.759  46.851 -20.607  1.00  0.00     0.016 C 
HETATM   40  C39 UNL     1     -17.608  45.937 -21.519  1.00  0.00     0.026 C 
HETATM   41  C40 UNL     1     -18.810  46.596 -22.182  1.00  0.00     0.013 C 
HETATM   42  C41 UNL     1     -18.863  46.540 -23.710  1.00  0.00     0.043 C 
HETATM   43  C42 UNL     1     -16.594  45.225 -22.426  1.00  0.00     0.095 C 
HETATM   44  C43 UNL     1     -15.262  46.044 -22.318  1.00  0.00    -0.002 C 
HETATM   45  C44 UNL     1     -15.289  47.343 -23.172  1.00  0.00     0.019 C 
HETATM   46  C45 UNL     1     -14.174  45.103 -22.891  1.00  0.00     0.015 C 
HETATM   47  C46 UNL     1     -14.454  44.648 -24.344  1.00  0.00     0.029 C 
HETATM   48  H27 UNL     1     -14.300  40.694 -19.746  1.00  0.00     0.320 HD
ENDROOT
BRANCH   1  49
HETATM   49  O2  UNL     1     -18.491  42.081 -29.027  1.00  0.00    -0.386 OA
BRANCH  49  50
HETATM   50  C4  UNL     1     -18.063  43.010 -30.027  1.00  0.00     0.170 C 
BRANCH  50  51
HETATM   51  C3  UNL     1     -18.836  42.911 -31.340  1.00  0.00     0.052 C 
BRANCH  51  52
HETATM   52  C2  UNL     1     -19.927  43.968 -31.439  1.00  0.00     0.169 C 
BRANCH  52  53
HETATM   53  O1  UNL     1     -21.188  43.313 -31.559  1.00  0.00    -0.396 OA
HETATM   54  C1  UNL     1     -21.635  43.262 -32.904  1.00  0.00     0.201 C 
ENDBRANCH  52  53
ENDBRANCH  51  52
ENDBRANCH  50  51
ENDBRANCH  49  50
ENDBRANCH   1  49
BRANCH  43  55
HETATM   55  O9  UNL     1     -16.413  43.929 -21.799  1.00  0.00    -0.384 OA
HETATM   56  H59 UNL     1     -16.483  44.016 -20.840  1.00  0.00     0.211 HD
ENDBRANCH  43  55
BRANCH  36  57
HETATM   57  O8  UNL     1     -14.202  48.563 -20.818  1.00  0.00    -0.387 OA
HETATM   58  H50 UNL     1     -13.893  49.285 -20.238  1.00  0.00     0.210 HD
ENDBRANCH  36  57
BRANCH  35  59
HETATM   59  O7  UNL     1     -12.227  46.702 -21.233  1.00  0.00    -0.390 OA
HETATM   60  H46 UNL     1     -12.573  47.459 -21.750  1.00  0.00     0.210 HD
ENDBRANCH  35  59
BRANCH  23  61
HETATM   61  O5  UNL     1     -14.855  42.243 -18.168  1.00  0.00    -0.366 OA
HETATM   62  H29 UNL     1     -15.492  42.317 -18.896  1.00  0.00     0.212 HD
ENDBRANCH  23  61
TORSDOF 9
ENDMDL
MODEL 5
REMARK minimizedAffinity -6.84287548
REMARK CNNscore 0.214427084
REMARK CNNaffinity 6.35271502
REMARK  9 active torsions:
REMARK  status: ('A' for Active; 'I' for Inactive)
REMARK    1  A    between atoms: O1_2  and  C2_3 
REMARK    2  A    between atoms: C2_3  and  C3_4 
REMARK    3  A    between atoms: C3_4  and  C4_5 
REMARK    4  A    between atoms: C4_5  and  O2_6 
REMARK    5  A    between atoms: O2_6  and  C5_7 
REMARK    6  A    between atoms: C23_29  and  O5_30 
REMARK    7  A    between atoms: C34_42  and  O7_43 
REMARK    8  A    between atoms: C35_44  and  O8_46 
REMARK    9  A    between atoms: C42_52  and  O9_53 
ROOT
HETATM    1  C5  UNL     1       7.439  55.493  -4.326  1.00  0.00     0.122 C 
HETATM    2  C6  UNL     1       7.019  54.165  -3.651  1.00  0.00     0.033 C 
HETATM    3  C7  UNL     1       5.904  53.428  -4.404  1.00  0.00     0.014 C 
HETATM    4  C8  UNL     1       4.594  54.284  -4.563  1.00  0.00    -0.010 C 
HETATM    5  C9  UNL     1       3.691  53.941  -3.330  1.00  0.00     0.018 C 
HETATM    6  C10 UNL     1       4.947  55.787  -4.382  1.00  0.00     0.073 C 
HETATM    7  C11 UNL     1       6.261  56.169  -5.053  1.00  0.00     0.045 C 
HETATM    8  C12 UNL     1       3.827  56.743  -4.728  1.00  0.00     0.161 C 
HETATM    9  O3  UNL     1       3.786  57.866  -4.219  1.00  0.00    -0.292 OA
HETATM   10  C13 UNL     1       2.785  56.342  -5.711  1.00  0.00    -0.005 C 
HETATM   11  C14 UNL     1       2.866  55.164  -6.357  1.00  0.00    -0.014 C 
HETATM   12  C15 UNL     1       3.833  54.013  -5.974  1.00  0.00     0.058 C 
HETATM   13  C16 UNL     1       4.850  53.862  -7.072  1.00  0.00    -0.091 C 
HETATM   14  C17 UNL     1       5.670  53.708  -7.943  1.00  0.00    -0.104 C 
HETATM   15  C18 UNL     1       6.686  53.627  -9.000  1.00  0.00     0.115 C 
HETATM   16  C19 UNL     1       6.829  52.216  -9.495  1.00  0.00     0.090 A 
HETATM   17  C20 UNL     1       7.256  51.081  -8.608  1.00  0.00     0.120 A 
HETATM   18  N1  UNL     1       5.933  51.165  -9.136  1.00  0.00    -0.243 NA
HETATM   19  C21 UNL     1       5.434  50.292 -10.115  1.00  0.00     0.234 C 
HETATM   20  O4  UNL     1       6.105  49.499 -10.763  1.00  0.00    -0.277 OA
HETATM   21  C22 UNL     1       3.927  50.557 -10.305  1.00  0.00     0.318 C 
HETATM   22  N2  UNL     1       3.673  51.134 -11.650  1.00  0.00     0.128 N 
HETATM   23  C23 UNL     1       2.271  51.454 -11.869  1.00  0.00     0.384 C 
HETATM   24  C24 UNL     1       1.448  51.458 -10.559  1.00  0.00     0.186 C 
HETATM   25  O6  UNL     1       0.056  51.764 -10.739  1.00  0.00    -0.373 OA
HETATM   26  C25 UNL     1      -0.713  50.779 -10.025  1.00  0.00     0.158 C 
HETATM   27  C26 UNL     1       0.185  49.519 -10.081  1.00  0.00     0.021 C 
HETATM   28  C27 UNL     1      -0.250  48.350  -9.216  1.00  0.00     0.013 C 
HETATM   29  C28 UNL     1       1.554  50.130  -9.785  1.00  0.00     0.036 C 
HETATM   30  C29 UNL     1       2.921  49.397 -10.002  1.00  0.00     0.005 C 
HETATM   31  C30 UNL     1       2.937  48.318 -11.120  1.00  0.00     0.012 C 
HETATM   32  C31 UNL     1       3.197  46.977 -10.436  1.00  0.00     0.001 C 
HETATM   33  C32 UNL     1       3.977  47.339  -9.189  1.00  0.00     0.001 C 
HETATM   34  C33 UNL     1       3.299  48.613  -8.718  1.00  0.00     0.012 C 
HETATM   35  C34 UNL     1      -1.224  51.300  -8.633  1.00  0.00     0.181 C 
HETATM   36  C35 UNL     1      -1.399  52.846  -8.397  1.00  0.00     0.087 C 
HETATM   37  C36 UNL     1      -2.348  53.397  -9.480  1.00  0.00     0.049 C 
HETATM   38  C37 UNL     1      -0.090  53.719  -8.284  1.00  0.00     0.034 C 
HETATM   39  C38 UNL     1      -0.387  55.258  -8.300  1.00  0.00     0.016 C 
HETATM   40  C39 UNL     1       0.950  55.969  -7.987  1.00  0.00     0.026 C 
HETATM   41  C40 UNL     1       0.843  57.250  -7.172  1.00  0.00     0.013 C 
HETATM   42  C41 UNL     1       1.627  57.293  -5.860  1.00  0.00     0.043 C 
HETATM   43  C42 UNL     1       1.876  54.862  -7.460  1.00  0.00     0.095 C 
HETATM   44  C43 UNL     1       0.945  53.660  -7.079  1.00  0.00    -0.002 C 
HETATM   45  C44 UNL     1       0.226  53.869  -5.716  1.00  0.00     0.019 C 
HETATM   46  C45 UNL     1       1.901  52.449  -6.949  1.00  0.00     0.015 C 
HETATM   47  C46 UNL     1       3.026  52.660  -5.906  1.00  0.00     0.029 C 
HETATM   48  H27 UNL     1       4.250  51.955 -11.805  1.00  0.00     0.320 HD
ENDROOT
BRANCH   1  49
HETATM   49  O2  UNL     1       7.998  56.287  -3.272  1.00  0.00    -0.386 OA
BRANCH  49  50
HETATM   50  C4  UNL     1       9.414  56.253  -3.076  1.00  0.00     0.170 C 
BRANCH  50  51
HETATM   51  C3  UNL     1      10.122  57.565  -3.413  1.00  0.00     0.052 C 
BRANCH  51  52
HETATM   52  C2  UNL     1      10.449  57.670  -4.896  1.00  0.00     0.169 C 
BRANCH  52  53
HETATM   53  O1  UNL     1      10.432  59.046  -5.271  1.00  0.00    -0.396 OA
HETATM   54  C1  UNL     1      11.204  59.846  -4.391  1.00  0.00     0.201 C 
ENDBRANCH  52  53
ENDBRANCH  51  52
ENDBRANCH  50  51
ENDBRANCH  49  50
ENDBRANCH   1  49
BRANCH  43  55
HETATM   55  O9  UNL     1       2.681  54.501  -8.612  1.00  0.00    -0.384 OA
HETATM   56  H59 UNL     1       2.156  54.584  -9.418  1.00  0.00     0.211 HD
ENDBRANCH  43  55
BRANCH  36  57
HETATM   57  O8  UNL     1      -2.094  52.968  -7.137  1.00  0.00    -0.387 OA
HETATM   58  H50 UNL     1      -3.037  52.766  -7.284  1.00  0.00     0.210 HD
ENDBRANCH  36  57
BRANCH  35  59
HETATM   59  O7  UNL     1      -0.524  50.749  -7.521  1.00  0.00    -0.390 OA
HETATM   60  H46 UNL     1      -0.893  51.199  -6.731  1.00  0.00     0.210 HD
ENDBRANCH  35  59
BRANCH  23  61
HETATM   61  O5  UNL     1       2.219  52.726 -12.496  1.00  0.00    -0.366 OA
HETATM   62  H29 UNL     1       2.582  53.365 -11.863  1.00  0.00     0.212 HD
ENDBRANCH  23  61
TORSDOF 9
ENDMDL
MODEL 6
REMARK minimizedAffinity -7.04899549
REMARK CNNscore 0.183673397
REMARK CNNaffinity 6.19101524
REMARK  9 active torsions:
REMARK  status: ('A' for Active; 'I' for Inactive)
REMARK    1  A    between atoms: O1_2  and  C2_3 
REMARK    2  A    between atoms: C2_3  and  C3_4 
REMARK    3  A    between atoms: C3_4  and  C4_5 
REMARK    4  A    between atoms: C4_5  and  O2_6 
REMARK    5  A    between atoms: O2_6  and  C5_7 
REMARK    6  A    between atoms: C23_29  and  O5_30 
REMARK    7  A    between atoms: C34_42  and  O7_43 
REMARK    8  A    between atoms: C35_44  and  O8_46 
REMARK    9  A    between atoms: C42_52  and  O9_53 
ROOT
HETATM    1  C5  UNL     1      -8.149  45.835 -18.786  1.00  0.00     0.122 C 
HETATM    2  C6  UNL     1      -8.189  44.374 -19.298  1.00  0.00     0.033 C 
HETATM    3  C7  UNL     1      -9.131  44.176 -20.492  1.00  0.00     0.014 C 
HETATM    4  C8  UNL     1     -10.618  44.583 -20.182  1.00  0.00    -0.010 C 
HETATM    5  C9  UNL     1     -11.335  43.284 -19.678  1.00  0.00     0.018 C 
HETATM    6  C10 UNL     1     -10.636  45.538 -18.955  1.00  0.00     0.073 C 
HETATM    7  C11 UNL     1      -9.498  46.552 -18.982  1.00  0.00     0.045 C 
HETATM    8  C12 UNL     1     -11.975  46.186 -18.680  1.00  0.00     0.161 C 
HETATM    9  O3  UNL     1     -12.260  46.569 -17.543  1.00  0.00    -0.292 OA
HETATM   10  C13 UNL     1     -12.943  46.392 -19.792  1.00  0.00    -0.005 C 
HETATM   11  C14 UNL     1     -12.613  46.077 -21.058  1.00  0.00    -0.014 C 
HETATM   12  C15 UNL     1     -11.372  45.239 -21.464  1.00  0.00     0.058 C 
HETATM   13  C16 UNL     1     -10.416  46.136 -22.203  1.00  0.00    -0.091 C 
HETATM   14  C17 UNL     1      -9.636  46.826 -22.812  1.00  0.00    -0.104 C 
HETATM   15  C18 UNL     1      -8.695  47.739 -23.473  1.00  0.00     0.115 C 
HETATM   16  C19 UNL     1      -8.240  47.174 -24.788  1.00  0.00     0.090 A 
HETATM   17  C20 UNL     1      -7.495  45.874 -24.902  1.00  0.00     0.120 A 
HETATM   18  N1  UNL     1      -8.827  46.023 -25.392  1.00  0.00    -0.243 NA
HETATM   19  C21 UNL     1      -9.152  46.025 -26.757  1.00  0.00     0.234 C 
HETATM   20  O4  UNL     1      -8.347  46.096 -27.676  1.00  0.00    -0.277 OA
HETATM   21  C22 UNL     1     -10.687  46.015 -26.908  1.00  0.00     0.318 C 
HETATM   22  N2  UNL     1     -11.154  47.303 -27.483  1.00  0.00     0.128 N 
HETATM   23  C23 UNL     1     -12.603  47.373 -27.602  1.00  0.00     0.384 C 
HETATM   24  C24 UNL     1     -13.322  46.270 -26.790  1.00  0.00     0.186 C 
HETATM   25  O6  UNL     1     -14.755  46.305 -26.890  1.00  0.00    -0.373 OA
HETATM   26  C25 UNL     1     -15.215  44.973 -27.182  1.00  0.00     0.158 C 
HETATM   27  C26 UNL     1     -14.039  44.360 -27.982  1.00  0.00     0.021 C 
HETATM   28  C27 UNL     1     -14.121  42.868 -28.251  1.00  0.00     0.013 C 
HETATM   29  C28 UNL     1     -12.848  44.852 -27.162  1.00  0.00     0.036 C 
HETATM   30  C29 UNL     1     -11.357  44.807 -27.642  1.00  0.00     0.005 C 
HETATM   31  C30 UNL     1     -11.143  44.880 -29.180  1.00  0.00     0.012 C 
HETATM   32  C31 UNL     1     -10.521  43.550 -29.603  1.00  0.00     0.001 C 
HETATM   33  C32 UNL     1      -9.782  43.074 -28.369  1.00  0.00     0.001 C 
HETATM   34  C33 UNL     1     -10.723  43.450 -27.239  1.00  0.00     0.012 C 
HETATM   35  C34 UNL     1     -15.755  44.225 -25.909  1.00  0.00     0.181 C 
HETATM   36  C35 UNL     1     -16.290  45.058 -24.686  1.00  0.00     0.087 C 
HETATM   37  C36 UNL     1     -17.408  45.992 -25.189  1.00  0.00     0.049 C 
HETATM   38  C37 UNL     1     -15.231  45.843 -23.820  1.00  0.00     0.034 C 
HETATM   39  C38 UNL     1     -15.898  46.824 -22.794  1.00  0.00     0.016 C 
HETATM   40  C39 UNL     1     -14.761  47.365 -21.897  1.00  0.00     0.026 C 
HETATM   41  C40 UNL     1     -15.131  47.623 -20.444  1.00  0.00     0.013 C 
HETATM   42  C41 UNL     1     -14.305  46.888 -19.387  1.00  0.00     0.043 C 
HETATM   43  C42 UNL     1     -13.562  46.446 -22.177  1.00  0.00     0.095 C 
HETATM   44  C43 UNL     1     -14.144  45.170 -22.876  1.00  0.00    -0.002 C 
HETATM   45  C44 UNL     1     -14.810  44.188 -21.870  1.00  0.00     0.019 C 
HETATM   46  C45 UNL     1     -12.914  44.469 -23.503  1.00  0.00     0.015 C 
HETATM   47  C46 UNL     1     -11.816  44.111 -22.472  1.00  0.00     0.029 C 
HETATM   48  H27 UNL     1     -10.807  48.087 -26.939  1.00  0.00     0.320 HD
ENDROOT
BRANCH   1  49
HETATM   49  O2  UNL     1      -7.741  45.738 -17.416  1.00  0.00    -0.386 OA
BRANCH  49  50
HETATM   50  C4  UNL     1      -7.012  46.829 -16.846  1.00  0.00     0.170 C 
BRANCH  50  51
HETATM   51  C3  UNL     1      -5.800  47.265 -17.667  1.00  0.00     0.052 C 
BRANCH  51  52
HETATM   52  C2  UNL     1      -6.090  48.512 -18.492  1.00  0.00     0.169 C 
BRANCH  52  53
HETATM   53  O1  UNL     1      -4.852  49.136 -18.826  1.00  0.00    -0.396 OA
HETATM   54  C1  UNL     1      -3.785  48.203 -18.884  1.00  0.00     0.201 C 
ENDBRANCH  52  53
ENDBRANCH  51  52
ENDBRANCH  50  51
ENDBRANCH  49  50
ENDBRANCH   1  49
BRANCH  43  55
HETATM   55  O9  UNL     1     -12.762  47.193 -23.129  1.00  0.00    -0.384 OA
HETATM   56  H59 UNL     1     -13.338  47.709 -23.708  1.00  0.00     0.211 HD
ENDBRANCH  43  55
BRANCH  36  57
HETATM   57  O8  UNL     1     -16.918  44.096 -23.810  1.00  0.00    -0.387 OA
HETATM   58  H50 UNL     1     -17.789  43.863 -24.182  1.00  0.00     0.210 HD
ENDBRANCH  36  57
BRANCH  35  59
HETATM   59  O7  UNL     1     -14.876  43.216 -25.420  1.00  0.00    -0.390 OA
HETATM   60  H46 UNL     1     -15.297  42.878 -24.601  1.00  0.00     0.210 HD
ENDBRANCH  35  59
BRANCH  23  61
HETATM   61  O5  UNL     1     -13.002  48.661 -27.159  1.00  0.00    -0.366 OA
HETATM   62  H29 UNL     1     -12.772  48.719 -26.219  1.00  0.00     0.212 HD
ENDBRANCH  23  61
TORSDOF 9
ENDMDL
MODEL 7
REMARK minimizedAffinity -6.68230677
REMARK CNNscore 0.176095992
REMARK CNNaffinity 6.14080477
REMARK  9 active torsions:
REMARK  status: ('A' for Active; 'I' for Inactive)
REMARK    1  A    between atoms: O1_2  and  C2_3 
REMARK    2  A    between atoms: C2_3  and  C3_4 
REMARK    3  A    between atoms: C3_4  and  C4_5 
REMARK    4  A    between atoms: C4_5  and  O2_6 
REMARK    5  A    between atoms: O2_6  and  C5_7 
REMARK    6  A    between atoms: C23_29  and  O5_30 
REMARK    7  A    between atoms: C34_42  and  O7_43 
REMARK    8  A    between atoms: C35_44  and  O8_46 
REMARK    9  A    between atoms: C42_52  and  O9_53 
ROOT
HETATM    1  C5  UNL     1      -7.876  45.031 -19.222  1.00  0.00     0.122 C 
HETATM    2  C6  UNL     1      -8.381  43.576 -19.374  1.00  0.00     0.033 C 
HETATM    3  C7  UNL     1      -9.813  43.484 -19.914  1.00  0.00     0.014 C 
HETATM    4  C8  UNL     1     -10.864  44.230 -19.013  1.00  0.00    -0.010 C 
HETATM    5  C9  UNL     1     -11.410  43.168 -18.000  1.00  0.00     0.018 C 
HETATM    6  C10 UNL     1     -10.122  45.270 -18.127  1.00  0.00     0.073 C 
HETATM    7  C11 UNL     1      -9.019  46.005 -18.879  1.00  0.00     0.045 C 
HETATM    8  C12 UNL     1     -11.030  46.215 -17.371  1.00  0.00     0.161 C 
HETATM    9  O3  UNL     1     -10.644  46.749 -16.328  1.00  0.00    -0.292 OA
HETATM   10  C13 UNL     1     -12.384  46.529 -17.903  1.00  0.00    -0.005 C 
HETATM   11  C14 UNL     1     -12.786  46.041 -19.091  1.00  0.00    -0.014 C 
HETATM   12  C15 UNL     1     -12.056  44.921 -19.877  1.00  0.00     0.058 C 
HETATM   13  C16 UNL     1     -11.484  45.519 -21.133  1.00  0.00    -0.091 C 
HETATM   14  C17 UNL     1     -11.025  45.967 -22.155  1.00  0.00    -0.104 C 
HETATM   15  C18 UNL     1     -10.424  46.592 -23.340  1.00  0.00     0.115 C 
HETATM   16  C19 UNL     1     -10.781  45.829 -24.584  1.00  0.00     0.090 A 
HETATM   17  C20 UNL     1     -10.394  44.393 -24.797  1.00  0.00     0.120 A 
HETATM   18  N1  UNL     1     -11.753  44.785 -24.611  1.00  0.00    -0.243 NA
HETATM   19  C21 UNL     1     -12.717  44.739 -25.629  1.00  0.00     0.234 C 
HETATM   20  O4  UNL     1     -12.484  44.553 -26.817  1.00  0.00    -0.277 OA
HETATM   21  C22 UNL     1     -14.102  45.051 -25.026  1.00  0.00     0.318 C 
HETATM   22  N2  UNL     1     -14.601  46.354 -25.534  1.00  0.00     0.128 N 
HETATM   23  C23 UNL     1     -15.884  46.728 -24.958  1.00  0.00     0.384 C 
HETATM   24  C24 UNL     1     -16.249  45.883 -23.714  1.00  0.00     0.186 C 
HETATM   25  O6  UNL     1     -17.514  46.221 -23.124  1.00  0.00    -0.373 OA
HETATM   26  C25 UNL     1     -18.247  45.001 -22.910  1.00  0.00     0.158 C 
HETATM   27  C26 UNL     1     -17.738  44.078 -24.045  1.00  0.00     0.021 C 
HETATM   28  C27 UNL     1     -18.161  42.622 -23.963  1.00  0.00     0.013 C 
HETATM   29  C28 UNL     1     -16.238  44.369 -23.999  1.00  0.00     0.036 C 
HETATM   30  C29 UNL     1     -15.218  43.958 -25.115  1.00  0.00     0.005 C 
HETATM   31  C30 UNL     1     -15.800  43.848 -26.552  1.00  0.00     0.012 C 
HETATM   32  C31 UNL     1     -15.676  42.383 -26.967  1.00  0.00     0.001 C 
HETATM   33  C32 UNL     1     -14.495  41.867 -26.172  1.00  0.00     0.001 C 
HETATM   34  C33 UNL     1     -14.672  42.536 -24.821  1.00  0.00     0.012 C 
HETATM   35  C34 UNL     1     -18.175  44.502 -21.421  1.00  0.00     0.181 C 
HETATM   36  C35 UNL     1     -17.893  45.535 -20.268  1.00  0.00     0.087 C 
HETATM   37  C36 UNL     1     -18.962  46.643 -20.339  1.00  0.00     0.049 C 
HETATM   38  C37 UNL     1     -16.441  46.143 -20.173  1.00  0.00     0.034 C 
HETATM   39  C38 UNL     1     -16.349  47.331 -19.154  1.00  0.00     0.016 C 
HETATM   40  C39 UNL     1     -14.851  47.687 -19.025  1.00  0.00     0.026 C 
HETATM   41  C40 UNL     1     -14.396  48.146 -17.646  1.00  0.00     0.013 C 
HETATM   42  C41 UNL     1     -13.268  47.344 -16.997  1.00  0.00     0.043 C 
HETATM   43  C42 UNL     1     -14.104  46.509 -19.667  1.00  0.00     0.095 C 
HETATM   44  C43 UNL     1     -15.138  45.334 -19.756  1.00  0.00    -0.002 C 
HETATM   45  C44 UNL     1     -15.341  44.613 -18.393  1.00  0.00     0.019 C 
HETATM   46  C45 UNL     1     -14.508  44.330 -20.752  1.00  0.00     0.015 C 
HETATM   47  C46 UNL     1     -13.106  43.833 -20.324  1.00  0.00     0.029 C 
HETATM   48  H27 UNL     1     -13.917  47.089 -25.377  1.00  0.00     0.320 HD
ENDROOT
BRANCH   1  49
HETATM   49  O2  UNL     1      -6.852  44.968 -18.221  1.00  0.00    -0.386 OA
BRANCH  49  50
HETATM   50  C4  UNL     1      -5.998  46.102 -18.051  1.00  0.00     0.170 C 
BRANCH  50  51
HETATM   51  C3  UNL     1      -5.194  46.469 -19.297  1.00  0.00     0.052 C 
BRANCH  51  52
HETATM   52  C2  UNL     1      -4.188  45.388 -19.664  1.00  0.00     0.169 C 
BRANCH  52  53
HETATM   53  O1  UNL     1      -3.741  45.614 -20.999  1.00  0.00    -0.396 OA
HETATM   54  C1  UNL     1      -3.890  46.971 -21.386  1.00  0.00     0.201 C 
ENDBRANCH  52  53
ENDBRANCH  51  52
ENDBRANCH  50  51
ENDBRANCH  49  50
ENDBRANCH   1  49
BRANCH  43  55
HETATM   55  O9  UNL     1     -13.794  46.978 -21.005  1.00  0.00    -0.384 OA
HETATM   56  H59 UNL     1     -14.501  47.554 -21.322  1.00  0.00     0.211 HD
ENDBRANCH  43  55
BRANCH  36  57
HETATM   57  O8  UNL     1     -18.126  44.813 -19.038  1.00  0.00    -0.387 OA
HETATM   58  H50 UNL     1     -19.090  44.744 -18.900  1.00  0.00     0.210 HD
ENDBRANCH  36  57
BRANCH  35  59
HETATM   59  O7  UNL     1     -17.327  43.372 -21.234  1.00  0.00    -0.390 OA
HETATM   60  H46 UNL     1     -17.322  43.207 -20.267  1.00  0.00     0.210 HD
ENDBRANCH  35  59
BRANCH  23  61
HETATM   61  O5  UNL     1     -15.814  48.105 -24.624  1.00  0.00    -0.366 OA
HETATM   62  H29 UNL     1     -15.136  48.193 -23.937  1.00  0.00     0.212 HD
ENDBRANCH  23  61
TORSDOF 9
ENDMDL
MODEL 8
REMARK minimizedAffinity -7.1140008
REMARK CNNscore 0.17605792
REMARK CNNaffinity 6.64897203
REMARK  9 active torsions:
REMARK  status: ('A' for Active; 'I' for Inactive)
REMARK    1  A    between atoms: O1_2  and  C2_3 
REMARK    2  A    between atoms: C2_3  and  C3_4 
REMARK    3  A    between atoms: C3_4  and  C4_5 
REMARK    4  A    between atoms: C4_5  and  O2_6 
REMARK    5  A    between atoms: O2_6  and  C5_7 
REMARK    6  A    between atoms: C23_29  and  O5_30 
REMARK    7  A    between atoms: C34_42  and  O7_43 
REMARK    8  A    between atoms: C35_44  and  O8_46 
REMARK    9  A    between atoms: C42_52  and  O9_53 
ROOT
HETATM    1  C5  UNL     1      -4.574  48.838  -9.790  1.00  0.00     0.122 C 
HETATM    2  C6  UNL     1      -3.519  48.127 -10.671  1.00  0.00     0.033 C 
HETATM    3  C7  UNL     1      -2.100  48.677 -10.482  1.00  0.00     0.014 C 
HETATM    4  C8  UNL     1      -1.984  50.214 -10.797  1.00  0.00    -0.010 C 
HETATM    5  C9  UNL     1      -1.592  50.325 -12.309  1.00  0.00     0.018 C 
HETATM    6  C10 UNL     1      -3.398  50.855 -10.712  1.00  0.00     0.073 C 
HETATM    7  C11 UNL     1      -4.220  50.318  -9.547  1.00  0.00     0.045 C 
HETATM    8  C12 UNL     1      -3.409  52.366 -10.773  1.00  0.00     0.161 C 
HETATM    9  O3  UNL     1      -4.409  52.967 -11.173  1.00  0.00    -0.292 OA
HETATM   10  C13 UNL     1      -2.219  53.137 -10.319  1.00  0.00    -0.005 C 
HETATM   11  C14 UNL     1      -1.157  52.509  -9.782  1.00  0.00    -0.014 C 
HETATM   12  C15 UNL     1      -0.921  50.976  -9.831  1.00  0.00     0.058 C 
HETATM   13  C16 UNL     1      -1.036  50.434  -8.432  1.00  0.00    -0.091 C 
HETATM   14  C17 UNL     1      -1.108  49.972  -7.320  1.00  0.00    -0.104 C 
HETATM   15  C18 UNL     1      -1.289  49.464  -5.955  1.00  0.00     0.115 C 
HETATM   16  C19 UNL     1      -0.127  48.604  -5.548  1.00  0.00     0.090 A 
HETATM   17  C20 UNL     1       0.243  47.340  -6.271  1.00  0.00     0.120 A 
HETATM   18  N1  UNL     1       1.075  48.499  -6.310  1.00  0.00    -0.243 NA
HETATM   19  C21 UNL     1       2.325  48.575  -5.677  1.00  0.00     0.234 C 
HETATM   20  O4  UNL     1       2.763  47.760  -4.875  1.00  0.00    -0.277 OA
HETATM   21  C22 UNL     1       3.017  49.891  -6.086  1.00  0.00     0.318 C 
HETATM   22  N2  UNL     1       3.121  50.800  -4.916  1.00  0.00     0.128 N 
HETATM   23  C23 UNL     1       3.721  52.082  -5.252  1.00  0.00     0.384 C 
HETATM   24  C24 UNL     1       3.776  52.334  -6.778  1.00  0.00     0.186 C 
HETATM   25  O6  UNL     1       4.368  53.589  -7.146  1.00  0.00    -0.373 OA
HETATM   26  C25 UNL     1       5.341  53.339  -8.177  1.00  0.00     0.158 C 
HETATM   27  C26 UNL     1       5.832  51.905  -7.859  1.00  0.00     0.021 C 
HETATM   28  C27 UNL     1       6.715  51.253  -8.909  1.00  0.00     0.013 C 
HETATM   29  C28 UNL     1       4.508  51.213  -7.540  1.00  0.00     0.036 C 
HETATM   30  C29 UNL     1       4.381  49.812  -6.849  1.00  0.00     0.005 C 
HETATM   31  C30 UNL     1       5.547  49.421  -5.899  1.00  0.00     0.012 C 
HETATM   32  C31 UNL     1       6.231  48.203  -6.518  1.00  0.00     0.001 C 
HETATM   33  C32 UNL     1       5.137  47.528  -7.321  1.00  0.00     0.001 C 
HETATM   34  C33 UNL     1       4.386  48.699  -7.928  1.00  0.00     0.012 C 
HETATM   35  C34 UNL     1       4.799  53.666  -9.616  1.00  0.00     0.181 C 
HETATM   36  C35 UNL     1       3.628  54.704  -9.788  1.00  0.00     0.087 C 
HETATM   37  C36 UNL     1       4.061  56.033  -9.138  1.00  0.00     0.049 C 
HETATM   38  C37 UNL     1       2.191  54.269  -9.306  1.00  0.00     0.034 C 
HETATM   39  C38 UNL     1       1.171  55.460  -9.297  1.00  0.00     0.016 C 
HETATM   40  C39 UNL     1      -0.217  54.849  -8.998  1.00  0.00     0.026 C 
HETATM   41  C40 UNL     1      -1.397  55.516  -9.693  1.00  0.00     0.013 C 
HETATM   42  C41 UNL     1      -2.265  54.619 -10.576  1.00  0.00     0.043 C 
HETATM   43  C42 UNL     1      -0.037  53.336  -9.191  1.00  0.00     0.095 C 
HETATM   44  C43 UNL     1       1.294  53.155  -9.998  1.00  0.00    -0.002 C 
HETATM   45  C44 UNL     1       1.117  53.445 -11.516  1.00  0.00     0.019 C 
HETATM   46  C45 UNL     1       1.659  51.660  -9.824  1.00  0.00     0.015 C 
HETATM   47  C46 UNL     1       0.553  50.694 -10.313  1.00  0.00     0.029 C 
HETATM   48  H27 UNL     1       2.212  50.938  -4.484  1.00  0.00     0.320 HD
ENDROOT
BRANCH   1  49
HETATM   49  O2  UNL     1      -5.820  48.648 -10.473  1.00  0.00    -0.386 OA
BRANCH  49  50
HETATM   50  C4  UNL     1      -6.854  49.617 -10.280  1.00  0.00     0.170 C 
BRANCH  50  51
HETATM   51  C3  UNL     1      -8.184  49.248 -10.935  1.00  0.00     0.052 C 
BRANCH  51  52
HETATM   52  C2  UNL     1      -8.761  47.960 -10.365  1.00  0.00     0.169 C 
BRANCH  52  53
HETATM   53  O1  UNL     1     -10.181  48.004 -10.486  1.00  0.00    -0.396 OA
HETATM   54  C1  UNL     1     -10.818  48.151  -9.227  1.00  0.00     0.201 C 
ENDBRANCH  52  53
ENDBRANCH  51  52
ENDBRANCH  50  51
ENDBRANCH  49  50
ENDBRANCH   1  49
BRANCH  43  55
HETATM   55  O9  UNL     1       0.144  52.830  -7.844  1.00  0.00    -0.384 OA
HETATM   56  H59 UNL     1       0.618  53.481  -7.311  1.00  0.00     0.211 HD
ENDBRANCH  43  55
BRANCH  36  57
HETATM   57  O8  UNL     1       3.537  54.950 -11.209  1.00  0.00    -0.387 OA
HETATM   58  H50 UNL     1       4.263  55.549 -11.465  1.00  0.00     0.210 HD
ENDBRANCH  36  57
BRANCH  35  59
HETATM   59  O7  UNL     1       4.496  52.510 -10.393  1.00  0.00    -0.390 OA
HETATM   60  H46 UNL     1       4.114  52.851 -11.229  1.00  0.00     0.210 HD
ENDBRANCH  35  59
BRANCH  23  61
HETATM   61  O5  UNL     1       2.957  53.089  -4.607  1.00  0.00    -0.366 OA
HETATM   62  H29 UNL     1       2.068  53.059  -4.994  1.00  0.00     0.212 HD
ENDBRANCH  23  61
TORSDOF 9
ENDMDL
MODEL 9
REMARK minimizedAffinity -6.91247034
REMARK CNNscore 0.171075881
REMARK CNNaffinity 6.59037447
REMARK  9 active torsions:
REMARK  status: ('A' for Active; 'I' for Inactive)
REMARK    1  A    between atoms: O1_2  and  C2_3 
REMARK    2  A    between atoms: C2_3  and  C3_4 
REMARK    3  A    between atoms: C3_4  and  C4_5 
REMARK    4  A    between atoms: C4_5  and  O2_6 
REMARK    5  A    between atoms: O2_6  and  C5_7 
REMARK    6  A    between atoms: C23_29  and  O5_30 
REMARK    7  A    between atoms: C34_42  and  O7_43 
REMARK    8  A    between atoms: C35_44  and  O8_46 
REMARK    9  A    between atoms: C42_52  and  O9_53 
ROOT
HETATM    1  C5  UNL     1       1.987  44.461 -13.522  1.00  0.00     0.122 C 
HETATM    2  C6  UNL     1       2.819  45.625 -14.113  1.00  0.00     0.033 C 
HETATM    3  C7  UNL     1       2.434  46.996 -13.544  1.00  0.00     0.014 C 
HETATM    4  C8  UNL     1       0.922  47.361 -13.781  1.00  0.00    -0.010 C 
HETATM    5  C9  UNL     1       0.866  48.148 -15.134  1.00  0.00     0.018 C 
HETATM    6  C10 UNL     1       0.124  46.056 -14.055  1.00  0.00     0.073 C 
HETATM    7  C11 UNL     1       0.556  44.901 -13.160  1.00  0.00     0.045 C 
HETATM    8  C12 UNL     1      -1.379  46.230 -14.081  1.00  0.00     0.161 C 
HETATM    9  O3  UNL     1      -2.087  45.443 -14.715  1.00  0.00    -0.292 OA
HETATM   10  C13 UNL     1      -2.012  47.336 -13.313  1.00  0.00    -0.005 C 
HETATM   11  C14 UNL     1      -1.270  48.142 -12.531  1.00  0.00    -0.014 C 
HETATM   12  C15 UNL     1       0.280  48.210 -12.552  1.00  0.00     0.058 C 
HETATM   13  C16 UNL     1       0.796  47.671 -11.246  1.00  0.00    -0.091 C 
HETATM   14  C17 UNL     1       1.239  47.258 -10.203  1.00  0.00    -0.104 C 
HETATM   15  C18 UNL     1       1.714  46.668  -8.946  1.00  0.00     0.115 C 
HETATM   16  C19 UNL     1       2.699  47.579  -8.269  1.00  0.00     0.090 A 
HETATM   17  C20 UNL     1       4.001  47.983  -8.899  1.00  0.00     0.120 A 
HETATM   18  N1  UNL     1       2.945  48.919  -8.691  1.00  0.00    -0.243 NA
HETATM   19  C21 UNL     1       3.008  49.959  -7.751  1.00  0.00     0.234 C 
HETATM   20  O4  UNL     1       3.862  50.076  -6.882  1.00  0.00    -0.277 OA
HETATM   21  C22 UNL     1       1.781  50.876  -7.932  1.00  0.00     0.318 C 
HETATM   22  N2  UNL     1       0.883  50.769  -6.755  1.00  0.00     0.128 N 
HETATM   23  C23 UNL     1      -0.321  51.576  -6.891  1.00  0.00     0.384 C 
HETATM   24  C24 UNL     1      -0.555  52.059  -8.342  1.00  0.00     0.186 C 
HETATM   25  O6  UNL     1      -1.732  52.863  -8.512  1.00  0.00    -0.373 OA
HETATM   26  C25 UNL     1      -1.365  54.039  -9.257  1.00  0.00     0.158 C 
HETATM   27  C26 UNL     1       0.113  54.266  -8.856  1.00  0.00     0.021 C 
HETATM   28  C27 UNL     1       0.867  55.316  -9.652  1.00  0.00     0.013 C 
HETATM   29  C28 UNL     1       0.648  52.836  -8.912  1.00  0.00     0.036 C 
HETATM   30  C29 UNL     1       2.020  52.375  -8.312  1.00  0.00     0.005 C 
HETATM   31  C30 UNL     1       2.535  53.199  -7.100  1.00  0.00     0.012 C 
HETATM   32  C31 UNL     1       3.827  53.881  -7.546  1.00  0.00     0.001 C 
HETATM   33  C32 UNL     1       4.378  52.970  -8.623  1.00  0.00     0.001 C 
HETATM   34  C33 UNL     1       3.134  52.540  -9.379  1.00  0.00     0.012 C 
HETATM   35  C34 UNL     1      -1.743  53.935 -10.780  1.00  0.00     0.181 C 
HETATM   36  C35 UNL     1      -2.906  52.974 -11.229  1.00  0.00     0.087 C 
HETATM   37  C36 UNL     1      -4.181  53.365 -10.456  1.00  0.00     0.049 C 
HETATM   38  C37 UNL     1      -2.641  51.422 -11.151  1.00  0.00     0.034 C 
HETATM   39  C38 UNL     1      -3.940  50.575 -11.382  1.00  0.00     0.016 C 
HETATM   40  C39 UNL     1      -3.494  49.097 -11.472  1.00  0.00     0.026 C 
HETATM   41  C40 UNL     1      -4.286  48.225 -12.436  1.00  0.00     0.013 C 
HETATM   42  C41 UNL     1      -3.488  47.525 -13.537  1.00  0.00     0.043 C 
HETATM   43  C42 UNL     1      -1.969  49.152 -11.647  1.00  0.00     0.095 C 
HETATM   44  C43 UNL     1      -1.632  50.620 -12.081  1.00  0.00    -0.002 C 
HETATM   45  C44 UNL     1      -1.930  50.883 -13.584  1.00  0.00     0.019 C 
HETATM   46  C45 UNL     1      -0.106  50.757 -11.853  1.00  0.00     0.015 C 
HETATM   47  C46 UNL     1       0.731  49.718 -12.638  1.00  0.00     0.029 C 
HETATM   48  H27 UNL     1       0.639  49.800  -6.573  1.00  0.00     0.320 HD
ENDROOT
BRANCH   1  49
HETATM   49  O2  UNL     1       2.039  43.426 -14.512  1.00  0.00    -0.386 OA
BRANCH  49  50
HETATM   50  C4  UNL     1       2.374  42.101 -14.092  1.00  0.00     0.170 C 
BRANCH  50  51
HETATM   51  C3  UNL     1       2.924  41.213 -15.207  1.00  0.00     0.052 C 
BRANCH  51  52
HETATM   52  C2  UNL     1       1.834  40.777 -16.176  1.00  0.00     0.169 C 
BRANCH  52  53
HETATM   53  O1  UNL     1       1.874  41.627 -17.321  1.00  0.00    -0.396 OA
HETATM   54  C1  UNL     1       1.026  41.162 -18.358  1.00  0.00     0.201 C 
ENDBRANCH  52  53
ENDBRANCH  51  52
ENDBRANCH  50  51
ENDBRANCH  49  50
ENDBRANCH   1  49
BRANCH  43  55
HETATM   55  O9  UNL     1      -1.454  48.915 -10.312  1.00  0.00    -0.384 OA
HETATM   56  H59 UNL     1      -2.050  49.301  -9.658  1.00  0.00     0.211 HD
ENDBRANCH  43  55
BRANCH  36  57
HETATM   57  O8  UNL     1      -3.152  53.288 -12.617  1.00  0.00    -0.387 OA
HETATM   58  H50 UNL     1      -3.663  54.119 -12.660  1.00  0.00     0.210 HD
ENDBRANCH  36  57
BRANCH  35  59
HETATM   59  O7  UNL     1      -0.624  53.720 -11.636  1.00  0.00    -0.390 OA
HETATM   60  H46 UNL     1      -1.001  53.612 -12.535  1.00  0.00     0.210 HD
ENDBRANCH  35  59
BRANCH  23  61
HETATM   61  O5  UNL     1      -1.412  50.786  -6.445  1.00  0.00    -0.366 OA
HETATM   62  H29 UNL     1      -1.481  50.033  -7.052  1.00  0.00     0.212 HD
ENDBRANCH  23  61
TORSDOF 9
ENDMDL
