MODEL 1
REMARK minimizedAffinity -9.70351791
REMARK  7 active torsions:
REMARK  status: ('A' for Active; 'I' for Inactive)
REMARK    1  A    between atoms: C2_2  and  C30_33 
REMARK    2  A    between atoms: C3_3  and  C4_4 
REMARK    3  A    between atoms: C4_4  and  C5_5 
REMARK    4  A    between atoms: C5_5  and  C6_6 
REMARK    5  A    between atoms: C6_6  and  C8_8 
REMARK    6  A    between atoms: C15_15  and  O1_16 
REMARK    7  A    between atoms: C30_33  and  O5_35 
ROOT
HETATM    1  C8  UNL     1       1.026   7.044  13.444  1.00  0.00    -0.002 C 
HETATM    2  C9  UNL     1       0.137   8.184  14.003  1.00  0.00     0.007 C 
HETATM    3  C10 UNL     1      -1.326   7.714  13.946  1.00  0.00     0.015 C 
HETATM    4  C11 UNL     1      -1.255   6.197  13.701  1.00  0.00    -0.005 C 
HETATM    5  C12 UNL     1      -1.037   5.520  15.089  1.00  0.00     0.021 C 
HETATM    6  C13 UNL     1      -2.443   5.463  13.085  1.00  0.00     0.002 C 
HETATM    7  C14 UNL     1      -2.274   4.337  12.339  1.00  0.00    -0.032 C 
HETATM    8  C15 UNL     1      -0.851   3.790  12.100  1.00  0.00     0.149 C 
HETATM    9  C16 UNL     1       0.351   4.653  12.559  1.00  0.00     0.047 C 
HETATM   10  C17 UNL     1      -0.022   6.136  12.718  1.00  0.00    -0.026 C 
HETATM   11  C18 UNL     1      -0.334   6.749  11.315  1.00  0.00     0.016 C 
HETATM   12  C19 UNL     1      -3.474   3.517  11.761  1.00  0.00    -0.012 C 
HETATM   13  C20 UNL     1      -3.635   3.875  10.262  1.00  0.00     0.021 C 
HETATM   14  C21 UNL     1      -3.212   1.992  11.914  1.00  0.00     0.021 C 
HETATM   15  C22 UNL     1      -4.432   1.076  11.872  1.00  0.00     0.080 C 
HETATM   16  C23 UNL     1      -5.696   1.752  11.414  1.00  0.00     0.135 C 
HETATM   17  O2  UNL     1      -6.440   1.190  10.607  1.00  0.00    -0.297 OA
HETATM   18  C24 UNL     1      -6.071   3.083  12.078  1.00  0.00     0.018 C 
HETATM   19  C25 UNL     1      -6.952   2.734  13.297  1.00  0.00     0.023 C 
HETATM   20  C26 UNL     1      -6.941   3.901  11.097  1.00  0.00     0.023 C 
HETATM   21  C27 UNL     1      -4.781   3.831  12.568  1.00  0.00     0.020 C 
HETATM   22  C28 UNL     1      -4.990   5.339  12.703  1.00  0.00     0.090 C 
HETATM   23  C29 UNL     1      -3.816   5.982  13.383  1.00  0.00     0.157 C 
HETATM   24  O3  UNL     1      -3.993   6.932  14.143  1.00  0.00    -0.293 OA
ENDROOT
BRANCH   1  25
HETATM   25  C6  UNL     1       2.267   7.574  12.656  1.00  0.00    -0.014 C 
HETATM   26  C7  UNL     1       1.923   8.817  11.822  1.00  0.00     0.010 C 
BRANCH  25  27
HETATM   27  C5  UNL     1       2.867   6.519  11.680  1.00  0.00     0.008 C 
BRANCH  27  28
HETATM   28  C4  UNL     1       3.556   7.028  10.403  1.00  0.00     0.028 C 
BRANCH  28  29
HETATM   29  C3  UNL     1       3.098   6.381   9.123  1.00  0.00    -0.013 C 
HETATM   30  C2  UNL     1       2.637   6.968   7.999  1.00  0.00     0.008 C 
HETATM   31  C1  UNL     1       2.255   6.166   6.791  1.00  0.00     0.055 C 
BRANCH  30  32
HETATM   32  C30 UNL     1       2.460   8.437   7.908  1.00  0.00     0.171 C 
HETATM   33  O4  UNL     1       3.275   9.257   7.529  1.00  0.00    -0.646 OA
BRANCH  32  34
HETATM   34  O5  UNL     1       1.238   8.808   8.326  1.00  0.00    -0.773 OA
HETATM   35  H44 UNL     1       1.248   9.782   8.216  1.00  0.00     0.167 HD
ENDBRANCH  32  34
ENDBRANCH  30  32
ENDBRANCH  28  29
ENDBRANCH  27  28
ENDBRANCH  25  27
ENDBRANCH   1  25
BRANCH   8  36
HETATM   36  O1  UNL     1      -0.671   3.503  10.717  1.00  0.00    -0.391 OA
HETATM   37  H22 UNL     1      -0.594   4.347  10.243  1.00  0.00     0.210 HD
ENDBRANCH   8  36
TORSDOF 7
ENDMDL
MODEL 2
REMARK minimizedAffinity -9.59443283
REMARK  7 active torsions:
REMARK  status: ('A' for Active; 'I' for Inactive)
REMARK    1  A    between atoms: C2_2  and  C30_33 
REMARK    2  A    between atoms: C3_3  and  C4_4 
REMARK    3  A    between atoms: C4_4  and  C5_5 
REMARK    4  A    between atoms: C5_5  and  C6_6 
REMARK    5  A    between atoms: C6_6  and  C8_8 
REMARK    6  A    between atoms: C15_15  and  O1_16 
REMARK    7  A    between atoms: C30_33  and  O5_35 
ROOT
HETATM    1  C8  UNL     1      -4.208   6.990  14.849  1.00  0.00    -0.002 C 
HETATM    2  C9  UNL     1      -4.479   5.553  14.335  1.00  0.00     0.007 C 
HETATM    3  C10 UNL     1      -3.307   5.147  13.426  1.00  0.00     0.015 C 
HETATM    4  C11 UNL     1      -2.204   6.184  13.698  1.00  0.00    -0.005 C 
HETATM    5  C12 UNL     1      -1.443   5.716  14.976  1.00  0.00     0.021 C 
HETATM    6  C13 UNL     1      -1.115   6.437  12.659  1.00  0.00     0.002 C 
HETATM    7  C14 UNL     1      -0.502   7.648  12.552  1.00  0.00    -0.032 C 
HETATM    8  C15 UNL     1      -0.918   8.796  13.494  1.00  0.00     0.149 C 
HETATM    9  C16 UNL     1      -2.157   8.587  14.401  1.00  0.00     0.047 C 
HETATM   10  C17 UNL     1      -3.086   7.481  13.873  1.00  0.00    -0.026 C 
HETATM   11  C18 UNL     1      -3.748   7.949  12.538  1.00  0.00     0.016 C 
HETATM   12  C19 UNL     1       0.671   7.916  11.554  1.00  0.00    -0.012 C 
HETATM   13  C20 UNL     1       0.105   8.663  10.321  1.00  0.00     0.021 C 
HETATM   14  C21 UNL     1       1.774   8.778  12.232  1.00  0.00     0.021 C 
HETATM   15  C22 UNL     1       3.167   8.725  11.613  1.00  0.00     0.080 C 
HETATM   16  C23 UNL     1       3.220   8.056  10.266  1.00  0.00     0.135 C 
HETATM   17  O2  UNL     1       3.878   8.558   9.352  1.00  0.00    -0.297 OA
HETATM   18  C24 UNL     1       2.538   6.689  10.124  1.00  0.00     0.018 C 
HETATM   19  C25 UNL     1       3.608   5.627  10.456  1.00  0.00     0.023 C 
HETATM   20  C26 UNL     1       2.129   6.489   8.647  1.00  0.00     0.023 C 
HETATM   21  C27 UNL     1       1.350   6.563  11.141  1.00  0.00     0.020 C 
HETATM   22  C28 UNL     1       0.303   5.540  10.702  1.00  0.00     0.090 C 
HETATM   23  C29 UNL     1      -0.689   5.287  11.799  1.00  0.00     0.157 C 
HETATM   24  O3  UNL     1      -1.155   4.161  11.956  1.00  0.00    -0.293 OA
ENDROOT
BRANCH   1  25
HETATM   25  C6  UNL     1      -5.515   7.832  15.011  1.00  0.00    -0.014 C 
HETATM   26  C7  UNL     1      -5.247   9.169  15.718  1.00  0.00     0.010 C 
BRANCH  25  27
HETATM   27  C5  UNL     1      -6.619   7.095  15.827  1.00  0.00     0.008 C 
BRANCH  27  28
HETATM   28  C4  UNL     1      -7.367   5.938  15.146  1.00  0.00     0.028 C 
BRANCH  28  29
HETATM   29  C3  UNL     1      -8.014   6.276  13.829  1.00  0.00    -0.013 C 
HETATM   30  C2  UNL     1      -8.221   5.477  12.762  1.00  0.00     0.008 C 
HETATM   31  C1  UNL     1      -8.921   5.973  11.531  1.00  0.00     0.055 C 
BRANCH  30  32
HETATM   32  C30 UNL     1      -7.744   4.074  12.739  1.00  0.00     0.171 C 
HETATM   33  O4  UNL     1      -6.639   3.675  12.423  1.00  0.00    -0.646 OA
BRANCH  32  34
HETATM   34  O5  UNL     1      -8.715   3.223  13.111  1.00  0.00    -0.773 OA
HETATM   35  H44 UNL     1      -8.280   2.346  13.058  1.00  0.00     0.167 HD
ENDBRANCH  32  34
ENDBRANCH  30  32
ENDBRANCH  28  29
ENDBRANCH  27  28
ENDBRANCH  25  27
ENDBRANCH   1  25
BRANCH   8  36
HETATM   36  O1  UNL     1      -1.135   9.984  12.739  1.00  0.00    -0.391 OA
HETATM   37  H22 UNL     1      -1.965   9.880  12.247  1.00  0.00     0.210 HD
ENDBRANCH   8  36
TORSDOF 7
ENDMDL
MODEL 3
REMARK minimizedAffinity -9.48931885
REMARK  7 active torsions:
REMARK  status: ('A' for Active; 'I' for Inactive)
REMARK    1  A    between atoms: C2_2  and  C30_33 
REMARK    2  A    between atoms: C3_3  and  C4_4 
REMARK    3  A    between atoms: C4_4  and  C5_5 
REMARK    4  A    between atoms: C5_5  and  C6_6 
REMARK    5  A    between atoms: C6_6  and  C8_8 
REMARK    6  A    between atoms: C15_15  and  O1_16 
REMARK    7  A    between atoms: C30_33  and  O5_35 
ROOT
HETATM    1  C8  UNL     1      -2.206   6.006  13.579  1.00  0.00    -0.002 C 
HETATM    2  C9  UNL     1      -2.307   5.470  12.127  1.00  0.00     0.007 C 
HETATM    3  C10 UNL     1      -0.926   5.628  11.468  1.00  0.00     0.015 C 
HETATM    4  C11 UNL     1       0.046   5.911  12.626  1.00  0.00    -0.005 C 
HETATM    5  C12 UNL     1       0.439   4.532  13.240  1.00  0.00     0.021 C 
HETATM    6  C13 UNL     1       1.372   6.618  12.359  1.00  0.00     0.002 C 
HETATM    7  C14 UNL     1       1.973   7.384  13.310  1.00  0.00    -0.032 C 
HETATM    8  C15 UNL     1       1.300   7.552  14.688  1.00  0.00     0.149 C 
HETATM    9  C16 UNL     1      -0.135   6.998  14.875  1.00  0.00     0.047 C 
HETATM   10  C17 UNL     1      -0.870   6.820  13.536  1.00  0.00    -0.026 C 
HETATM   11  C18 UNL     1      -1.152   8.220  12.905  1.00  0.00     0.016 C 
HETATM   12  C19 UNL     1       3.369   8.056  13.097  1.00  0.00    -0.012 C 
HETATM   13  C20 UNL     1       3.147   9.551  12.757  1.00  0.00     0.021 C 
HETATM   14  C21 UNL     1       4.234   7.931  14.384  1.00  0.00     0.021 C 
HETATM   15  C22 UNL     1       5.743   8.072  14.215  1.00  0.00     0.080 C 
HETATM   16  C23 UNL     1       6.169   8.586  12.866  1.00  0.00     0.135 C 
HETATM   17  O2  UNL     1       7.043   9.452  12.783  1.00  0.00    -0.297 OA
HETATM   18  C24 UNL     1       5.572   7.909  11.627  1.00  0.00     0.018 C 
HETATM   19  C25 UNL     1       6.528   6.755  11.252  1.00  0.00     0.023 C 
HETATM   20  C26 UNL     1       5.581   8.917  10.456  1.00  0.00     0.023 C 
HETATM   21  C27 UNL     1       4.154   7.321  11.956  1.00  0.00     0.020 C 
HETATM   22  C28 UNL     1       3.281   7.156  10.712  1.00  0.00     0.090 C 
HETATM   23  C29 UNL     1       2.032   6.389  11.035  1.00  0.00     0.157 C 
HETATM   24  O3  UNL     1       1.558   5.614  10.206  1.00  0.00    -0.293 OA
ENDROOT
BRANCH   1  25
HETATM   25  C6  UNL     1      -3.520   6.702  14.059  1.00  0.00    -0.014 C 
HETATM   26  C7  UNL     1      -3.878   6.311  15.501  1.00  0.00     0.010 C 
BRANCH  25  27
HETATM   27  C5  UNL     1      -4.754   6.357  13.172  1.00  0.00     0.008 C 
BRANCH  27  28
HETATM   28  C4  UNL     1      -5.558   5.093  13.517  1.00  0.00     0.028 C 
BRANCH  28  29
HETATM   29  C3  UNL     1      -5.350   3.925  12.591  1.00  0.00    -0.013 C 
HETATM   30  C2  UNL     1      -6.208   2.930  12.282  1.00  0.00     0.008 C 
HETATM   31  C1  UNL     1      -5.846   1.854  11.302  1.00  0.00     0.055 C 
BRANCH  30  32
HETATM   32  C30 UNL     1      -7.544   2.834  12.916  1.00  0.00     0.171 C 
HETATM   33  O4  UNL     1      -8.062   3.635  13.671  1.00  0.00    -0.646 OA
BRANCH  32  34
HETATM   34  O5  UNL     1      -8.168   1.695  12.570  1.00  0.00    -0.773 OA
HETATM   35  H44 UNL     1      -9.024   1.754  13.043  1.00  0.00     0.167 HD
ENDBRANCH  32  34
ENDBRANCH  30  32
ENDBRANCH  28  29
ENDBRANCH  27  28
ENDBRANCH  25  27
ENDBRANCH   1  25
BRANCH   8  36
HETATM   36  O1  UNL     1       1.279   8.929  15.050  1.00  0.00    -0.391 OA
HETATM   37  H22 UNL     1       0.615   9.374  14.498  1.00  0.00     0.210 HD
ENDBRANCH   8  36
TORSDOF 7
ENDMDL
MODEL 4
REMARK minimizedAffinity -9.39506149
REMARK  7 active torsions:
REMARK  status: ('A' for Active; 'I' for Inactive)
REMARK    1  A    between atoms: C2_2  and  C30_33 
REMARK    2  A    between atoms: C3_3  and  C4_4 
REMARK    3  A    between atoms: C4_4  and  C5_5 
REMARK    4  A    between atoms: C5_5  and  C6_6 
REMARK    5  A    between atoms: C6_6  and  C8_8 
REMARK    6  A    between atoms: C15_15  and  O1_16 
REMARK    7  A    between atoms: C30_33  and  O5_35 
ROOT
HETATM    1  C8  UNL     1      -1.386   6.065  12.235  1.00  0.00    -0.002 C 
HETATM    2  C9  UNL     1      -1.867   6.960  13.406  1.00  0.00     0.007 C 
HETATM    3  C10 UNL     1      -0.767   7.996  13.692  1.00  0.00     0.015 C 
HETATM    4  C11 UNL     1       0.173   7.936  12.476  1.00  0.00    -0.005 C 
HETATM    5  C12 UNL     1      -0.457   8.834  11.368  1.00  0.00     0.021 C 
HETATM    6  C13 UNL     1       1.617   8.413  12.599  1.00  0.00     0.002 C 
HETATM    7  C14 UNL     1       2.607   7.889  11.825  1.00  0.00    -0.032 C 
HETATM    8  C15 UNL     1       2.269   6.782  10.805  1.00  0.00     0.149 C 
HETATM    9  C16 UNL     1       0.845   6.170  10.834  1.00  0.00     0.047 C 
HETATM   10  C17 UNL     1       0.145   6.385  12.186  1.00  0.00    -0.026 C 
HETATM   11  C18 UNL     1       0.871   5.549  13.288  1.00  0.00     0.016 C 
HETATM   12  C19 UNL     1       4.081   8.410  11.869  1.00  0.00    -0.012 C 
HETATM   13  C20 UNL     1       4.923   7.429  12.722  1.00  0.00     0.021 C 
HETATM   14  C21 UNL     1       4.668   8.498  10.432  1.00  0.00     0.021 C 
HETATM   15  C22 UNL     1       5.866   9.421  10.233  1.00  0.00     0.080 C 
HETATM   16  C23 UNL     1       6.487   9.912  11.513  1.00  0.00     0.135 C 
HETATM   17  O2  UNL     1       7.714   9.925  11.640  1.00  0.00    -0.297 OA
HETATM   18  C24 UNL     1       5.552  10.501  12.577  1.00  0.00     0.018 C 
HETATM   19  C25 UNL     1       5.458  12.016  12.290  1.00  0.00     0.023 C 
HETATM   20  C26 UNL     1       6.208  10.331  13.965  1.00  0.00     0.023 C 
HETATM   21  C27 UNL     1       4.123   9.863  12.461  1.00  0.00     0.020 C 
HETATM   22  C28 UNL     1       3.333   9.942  13.767  1.00  0.00     0.090 C 
HETATM   23  C29 UNL     1       1.906   9.530  13.554  1.00  0.00     0.157 C 
HETATM   24  O3  UNL     1       1.007  10.088  14.180  1.00  0.00    -0.293 OA
ENDROOT
BRANCH   1  25
HETATM   25  C6  UNL     1      -1.862   4.582  12.371  1.00  0.00    -0.014 C 
HETATM   26  C7  UNL     1      -2.124   3.941  11.001  1.00  0.00     0.010 C 
BRANCH  25  27
HETATM   27  C5  UNL     1      -3.172   4.436  13.203  1.00  0.00     0.008 C 
BRANCH  27  28
HETATM   28  C4  UNL     1      -4.505   4.369  12.442  1.00  0.00     0.028 C 
BRANCH  28  29
HETATM   29  C3  UNL     1      -4.836   3.030  11.839  1.00  0.00    -0.013 C 
HETATM   30  C2  UNL     1      -6.030   2.403  11.782  1.00  0.00     0.008 C 
HETATM   31  C1  UNL     1      -6.190   1.075  11.104  1.00  0.00     0.055 C 
BRANCH  30  32
HETATM   32  C30 UNL     1      -7.241   2.983  12.409  1.00  0.00     0.171 C 
HETATM   33  O4  UNL     1      -7.481   4.160  12.603  1.00  0.00    -0.646 OA
BRANCH  32  34
HETATM   34  O5  UNL     1      -8.105   2.023  12.782  1.00  0.00    -0.773 OA
HETATM   35  H44 UNL     1      -8.849   2.528  13.172  1.00  0.00     0.167 HD
ENDBRANCH  32  34
ENDBRANCH  30  32
ENDBRANCH  28  29
ENDBRANCH  27  28
ENDBRANCH  25  27
ENDBRANCH   1  25
BRANCH   8  36
HETATM   36  O1  UNL     1       3.199   5.711  10.930  1.00  0.00    -0.391 OA
HETATM   37  H22 UNL     1       2.998   5.232  11.750  1.00  0.00     0.210 HD
ENDBRANCH   8  36
TORSDOF 7
ENDMDL
MODEL 5
REMARK minimizedAffinity -9.35888004
REMARK  7 active torsions:
REMARK  status: ('A' for Active; 'I' for Inactive)
REMARK    1  A    between atoms: C2_2  and  C30_33 
REMARK    2  A    between atoms: C3_3  and  C4_4 
REMARK    3  A    between atoms: C4_4  and  C5_5 
REMARK    4  A    between atoms: C5_5  and  C6_6 
REMARK    5  A    between atoms: C6_6  and  C8_8 
REMARK    6  A    between atoms: C15_15  and  O1_16 
REMARK    7  A    between atoms: C30_33  and  O5_35 
ROOT
HETATM    1  C8  UNL     1      -1.863   5.396  12.430  1.00  0.00    -0.002 C 
HETATM    2  C9  UNL     1      -1.782   5.578  13.967  1.00  0.00     0.007 C 
HETATM    3  C10 UNL     1      -0.463   6.299  14.290  1.00  0.00     0.015 C 
HETATM    4  C11 UNL     1       0.039   6.849  12.944  1.00  0.00    -0.005 C 
HETATM    5  C12 UNL     1      -0.701   8.200  12.699  1.00  0.00     0.021 C 
HETATM    6  C13 UNL     1       1.518   7.166  12.749  1.00  0.00     0.002 C 
HETATM    7  C14 UNL     1       2.106   7.090  11.523  1.00  0.00    -0.032 C 
HETATM    8  C15 UNL     1       1.264   6.667  10.301  1.00  0.00     0.149 C 
HETATM    9  C16 UNL     1      -0.178   6.156  10.548  1.00  0.00     0.047 C 
HETATM   10  C17 UNL     1      -0.384   5.665  11.990  1.00  0.00    -0.026 C 
HETATM   11  C18 UNL     1       0.455   4.368  12.225  1.00  0.00     0.016 C 
HETATM   12  C19 UNL     1       3.598   7.485  11.274  1.00  0.00    -0.012 C 
HETATM   13  C20 UNL     1       4.442   6.189  11.197  1.00  0.00     0.021 C 
HETATM   14  C21 UNL     1       3.734   8.283   9.946  1.00  0.00     0.021 C 
HETATM   15  C22 UNL     1       4.977   9.153   9.789  1.00  0.00     0.080 C 
HETATM   16  C23 UNL     1       6.038   8.908  10.829  1.00  0.00     0.135 C 
HETATM   17  O2  UNL     1       7.223   8.829  10.496  1.00  0.00    -0.297 OA
HETATM   18  C24 UNL     1       5.601   8.891  12.299  1.00  0.00     0.018 C 
HETATM   19  C25 UNL     1       5.731  10.340  12.815  1.00  0.00     0.023 C 
HETATM   20  C26 UNL     1       6.594   8.022  13.103  1.00  0.00     0.023 C 
HETATM   21  C27 UNL     1       4.105   8.431  12.419  1.00  0.00     0.020 C 
HETATM   22  C28 UNL     1       3.775   7.849  13.793  1.00  0.00     0.090 C 
HETATM   23  C29 UNL     1       2.297   7.633  13.940  1.00  0.00     0.157 C 
HETATM   24  O3  UNL     1       1.758   7.811  15.030  1.00  0.00    -0.293 OA
ENDROOT
BRANCH   1  25
HETATM   25  C6  UNL     1      -2.563   4.063  12.013  1.00  0.00    -0.014 C 
HETATM   26  C7  UNL     1      -2.050   3.549  10.660  1.00  0.00     0.010 C 
BRANCH  25  27
HETATM   27  C5  UNL     1      -4.111   4.197  11.895  1.00  0.00     0.008 C 
BRANCH  27  28
HETATM   28  C4  UNL     1      -4.899   4.583  13.157  1.00  0.00     0.028 C 
BRANCH  28  29
HETATM   29  C3  UNL     1      -6.183   5.330  12.911  1.00  0.00    -0.013 C 
HETATM   30  C2  UNL     1      -7.451   4.919  13.123  1.00  0.00     0.008 C 
HETATM   31  C1  UNL     1      -8.624   5.816  12.855  1.00  0.00     0.055 C 
BRANCH  30  32
HETATM   32  C30 UNL     1      -7.752   3.552  13.608  1.00  0.00     0.171 C 
HETATM   33  O4  UNL     1      -8.000   2.568  12.936  1.00  0.00    -0.646 OA
BRANCH  32  34
HETATM   34  O5  UNL     1      -7.742   3.496  14.950  1.00  0.00    -0.773 OA
HETATM   35  H44 UNL     1      -7.949   2.557  15.139  1.00  0.00     0.167 HD
ENDBRANCH  32  34
ENDBRANCH  30  32
ENDBRANCH  28  29
ENDBRANCH  27  28
ENDBRANCH  25  27
ENDBRANCH   1  25
BRANCH   8  36
HETATM   36  O1  UNL     1       1.954   5.664   9.564  1.00  0.00    -0.391 OA
HETATM   37  H22 UNL     1       1.916   4.837  10.072  1.00  0.00     0.210 HD
ENDBRANCH   8  36
TORSDOF 7
ENDMDL
MODEL 6
REMARK minimizedAffinity -9.14156628
REMARK  7 active torsions:
REMARK  status: ('A' for Active; 'I' for Inactive)
REMARK    1  A    between atoms: C2_2  and  C30_33 
REMARK    2  A    between atoms: C3_3  and  C4_4 
REMARK    3  A    between atoms: C4_4  and  C5_5 
REMARK    4  A    between atoms: C5_5  and  C6_6 
REMARK    5  A    between atoms: C6_6  and  C8_8 
REMARK    6  A    between atoms: C15_15  and  O1_16 
REMARK    7  A    between atoms: C30_33  and  O5_35 
ROOT
HETATM    1  C8  UNL     1      -2.186   7.968  13.865  1.00  0.00    -0.002 C 
HETATM    2  C9  UNL     1      -2.039   7.463  15.324  1.00  0.00     0.007 C 
HETATM    3  C10 UNL     1      -0.545   7.506  15.691  1.00  0.00     0.015 C 
HETATM    4  C11 UNL     1       0.117   8.360  14.596  1.00  0.00    -0.005 C 
HETATM    5  C12 UNL     1      -0.079   9.853  15.002  1.00  0.00     0.021 C 
HETATM    6  C13 UNL     1       1.609   8.219  14.312  1.00  0.00     0.002 C 
HETATM    7  C14 UNL     1       2.124   8.463  13.075  1.00  0.00    -0.032 C 
HETATM    8  C15 UNL     1       1.180   8.885  11.930  1.00  0.00     0.149 C 
HETATM    9  C16 UNL     1      -0.348   8.828  12.181  1.00  0.00     0.047 C 
HETATM   10  C17 UNL     1      -0.713   7.886  13.340  1.00  0.00    -0.026 C 
HETATM   11  C18 UNL     1      -0.405   6.411  12.931  1.00  0.00     0.016 C 
HETATM   12  C19 UNL     1       3.656   8.406  12.770  1.00  0.00    -0.012 C 
HETATM   13  C20 UNL     1       3.968   7.057  12.076  1.00  0.00     0.021 C 
HETATM   14  C21 UNL     1       4.069   9.584  11.842  1.00  0.00     0.021 C 
HETATM   15  C22 UNL     1       5.544   9.976  11.841  1.00  0.00     0.080 C 
HETATM   16  C23 UNL     1       6.445   8.989  12.533  1.00  0.00     0.135 C 
HETATM   17  O2  UNL     1       7.518   8.665  12.018  1.00  0.00    -0.297 OA
HETATM   18  C24 UNL     1       6.038   8.514  13.933  1.00  0.00     0.018 C 
HETATM   19  C25 UNL     1       6.691   9.490  14.936  1.00  0.00     0.023 C 
HETATM   20  C26 UNL     1       6.648   7.117  14.182  1.00  0.00     0.023 C 
HETATM   21  C27 UNL     1       4.478   8.571  14.096  1.00  0.00     0.020 C 
HETATM   22  C28 UNL     1       3.963   7.621  15.177  1.00  0.00     0.090 C 
HETATM   23  C29 UNL     1       2.509   7.867  15.456  1.00  0.00     0.157 C 
HETATM   24  O3  UNL     1       2.077   7.749  16.601  1.00  0.00    -0.293 OA
ENDROOT
BRANCH   1  25
HETATM   25  C6  UNL     1      -3.327   7.239  13.085  1.00  0.00    -0.014 C 
HETATM   26  C7  UNL     1      -4.626   8.058  13.079  1.00  0.00     0.010 C 
BRANCH  25  27
HETATM   27  C5  UNL     1      -3.671   5.838  13.674  1.00  0.00     0.008 C 
BRANCH  27  28
HETATM   28  C4  UNL     1      -5.121   5.343  13.553  1.00  0.00     0.028 C 
BRANCH  28  29
HETATM   29  C3  UNL     1      -5.290   4.001  12.893  1.00  0.00    -0.013 C 
HETATM   30  C2  UNL     1      -6.421   3.420  12.440  1.00  0.00     0.008 C 
HETATM   31  C1  UNL     1      -6.403   2.079  11.767  1.00  0.00     0.055 C 
BRANCH  30  32
HETATM   32  C30 UNL     1      -7.744   4.066  12.607  1.00  0.00     0.171 C 
HETATM   33  O4  UNL     1      -8.089   5.159  12.199  1.00  0.00    -0.646 OA
BRANCH  32  34
HETATM   34  O5  UNL     1      -8.583   3.287  13.311  1.00  0.00    -0.773 OA
HETATM   35  H44 UNL     1      -9.407   3.816  13.348  1.00  0.00     0.167 HD
ENDBRANCH  32  34
ENDBRANCH  30  32
ENDBRANCH  28  29
ENDBRANCH  27  28
ENDBRANCH  25  27
ENDBRANCH   1  25
BRANCH   8  36
HETATM   36  O1  UNL     1       1.454   8.107  10.769  1.00  0.00    -0.391 OA
HETATM   37  H22 UNL     1       1.118   7.210  10.923  1.00  0.00     0.210 HD
ENDBRANCH   8  36
TORSDOF 7
ENDMDL
MODEL 7
REMARK minimizedAffinity -8.94559765
REMARK  7 active torsions:
REMARK  status: ('A' for Active; 'I' for Inactive)
REMARK    1  A    between atoms: C2_2  and  C30_33 
REMARK    2  A    between atoms: C3_3  and  C4_4 
REMARK    3  A    between atoms: C4_4  and  C5_5 
REMARK    4  A    between atoms: C5_5  and  C6_6 
REMARK    5  A    between atoms: C6_6  and  C8_8 
REMARK    6  A    between atoms: C15_15  and  O1_16 
REMARK    7  A    between atoms: C30_33  and  O5_35 
ROOT
HETATM    1  C8  UNL     1       2.653   8.739  12.830  1.00  0.00    -0.002 C 
HETATM    2  C9  UNL     1       3.364   7.664  11.969  1.00  0.00     0.007 C 
HETATM    3  C10 UNL     1       2.322   6.598  11.588  1.00  0.00     0.015 C 
HETATM    4  C11 UNL     1       0.958   7.231  11.915  1.00  0.00    -0.005 C 
HETATM    5  C12 UNL     1       0.567   8.123  10.697  1.00  0.00     0.021 C 
HETATM    6  C13 UNL     1      -0.259   6.343  12.162  1.00  0.00     0.002 C 
HETATM    7  C14 UNL     1      -1.275   6.742  12.976  1.00  0.00    -0.032 C 
HETATM    8  C15 UNL     1      -1.197   8.116  13.672  1.00  0.00     0.149 C 
HETATM    9  C16 UNL     1       0.129   8.913  13.572  1.00  0.00     0.047 C 
HETATM   10  C17 UNL     1       1.328   8.012  13.235  1.00  0.00    -0.026 C 
HETATM   11  C18 UNL     1       1.621   7.062  14.439  1.00  0.00     0.016 C 
HETATM   12  C19 UNL     1      -2.571   5.893  13.188  1.00  0.00    -0.012 C 
HETATM   13  C20 UNL     1      -2.454   5.151  14.543  1.00  0.00     0.021 C 
HETATM   14  C21 UNL     1      -3.826   6.811  13.196  1.00  0.00     0.021 C 
HETATM   15  C22 UNL     1      -5.167   6.148  12.898  1.00  0.00     0.080 C 
HETATM   16  C23 UNL     1      -5.127   4.643  12.907  1.00  0.00     0.135 C 
HETATM   17  O2  UNL     1      -6.021   4.005  13.467  1.00  0.00    -0.297 OA
HETATM   18  C24 UNL     1      -4.019   3.957  12.097  1.00  0.00     0.018 C 
HETATM   19  C25 UNL     1      -4.590   3.722  10.682  1.00  0.00     0.023 C 
HETATM   20  C26 UNL     1      -3.735   2.571  12.718  1.00  0.00     0.023 C 
HETATM   21  C27 UNL     1      -2.759   4.887  11.999  1.00  0.00     0.020 C 
HETATM   22  C28 UNL     1      -1.471   4.108  11.736  1.00  0.00     0.090 C 
HETATM   23  C29 UNL     1      -0.336   5.042  11.427  1.00  0.00     0.157 C 
HETATM   24  O3  UNL     1       0.519   4.715  10.606  1.00  0.00    -0.293 OA
ENDROOT
BRANCH   1  25
HETATM   25  C6  UNL     1       3.578   9.334  13.940  1.00  0.00    -0.014 C 
HETATM   26  C7  UNL     1       3.259  10.811  14.216  1.00  0.00     0.010 C 
BRANCH  25  27
HETATM   27  C5  UNL     1       5.093   9.252  13.582  1.00  0.00     0.008 C 
BRANCH  27  28
HETATM   28  C4  UNL     1       6.004   8.416  14.494  1.00  0.00     0.028 C 
BRANCH  28  29
HETATM   29  C3  UNL     1       7.448   8.347  14.072  1.00  0.00    -0.013 C 
HETATM   30  C2  UNL     1       8.546   8.213  14.844  1.00  0.00     0.008 C 
HETATM   31  C1  UNL     1       9.921   8.123  14.249  1.00  0.00     0.055 C 
BRANCH  30  32
HETATM   32  C30 UNL     1       8.455   8.174  16.323  1.00  0.00     0.171 C 
HETATM   33  O4  UNL     1       9.356   8.344  17.123  1.00  0.00    -0.646 OA
BRANCH  32  34
HETATM   34  O5  UNL     1       7.203   7.900  16.728  1.00  0.00    -0.773 OA
HETATM   35  H44 UNL     1       7.275   7.905  17.705  1.00  0.00     0.167 HD
ENDBRANCH  32  34
ENDBRANCH  30  32
ENDBRANCH  28  29
ENDBRANCH  27  28
ENDBRANCH  25  27
ENDBRANCH   1  25
BRANCH   8  36
HETATM   36  O1  UNL     1      -1.509   7.975  15.054  1.00  0.00    -0.391 OA
HETATM   37  H22 UNL     1      -0.759   7.539  15.489  1.00  0.00     0.210 HD
ENDBRANCH   8  36
TORSDOF 7
ENDMDL
MODEL 8
REMARK minimizedAffinity -8.91393375
REMARK  7 active torsions:
REMARK  status: ('A' for Active; 'I' for Inactive)
REMARK    1  A    between atoms: C2_2  and  C30_33 
REMARK    2  A    between atoms: C3_3  and  C4_4 
REMARK    3  A    between atoms: C4_4  and  C5_5 
REMARK    4  A    between atoms: C5_5  and  C6_6 
REMARK    5  A    between atoms: C6_6  and  C8_8 
REMARK    6  A    between atoms: C15_15  and  O1_16 
REMARK    7  A    between atoms: C30_33  and  O5_35 
ROOT
HETATM    1  C8  UNL     1      -3.418   5.836  12.723  1.00  0.00    -0.002 C 
HETATM    2  C9  UNL     1      -4.446   6.740  13.451  1.00  0.00     0.007 C 
HETATM    3  C10 UNL     1      -3.668   7.851  14.177  1.00  0.00     0.015 C 
HETATM    4  C11 UNL     1      -2.250   7.806  13.584  1.00  0.00    -0.005 C 
HETATM    5  C12 UNL     1      -2.284   8.625  12.257  1.00  0.00     0.021 C 
HETATM    6  C13 UNL     1      -1.072   8.376  14.370  1.00  0.00     0.002 C 
HETATM    7  C14 UNL     1       0.189   7.887  14.214  1.00  0.00    -0.032 C 
HETATM    8  C15 UNL     1       0.438   6.726  13.228  1.00  0.00     0.149 C 
HETATM    9  C16 UNL     1      -0.792   6.029  12.593  1.00  0.00     0.047 C 
HETATM   10  C17 UNL     1      -2.074   6.248  13.412  1.00  0.00    -0.026 C 
HETATM   11  C18 UNL     1      -1.956   5.497  14.777  1.00  0.00     0.016 C 
HETATM   12  C19 UNL     1       1.430   8.499  14.943  1.00  0.00    -0.012 C 
HETATM   13  C20 UNL     1       1.777   7.601  16.157  1.00  0.00     0.021 C 
HETATM   14  C21 UNL     1       2.645   8.573  13.976  1.00  0.00     0.021 C 
HETATM   15  C22 UNL     1       3.751   9.561  14.334  1.00  0.00     0.080 C 
HETATM   16  C23 UNL     1       3.642  10.133  15.722  1.00  0.00     0.135 C 
HETATM   17  O2  UNL     1       4.646  10.226  16.433  1.00  0.00    -0.297 OA
HETATM   18  C24 UNL     1       2.284  10.700  16.153  1.00  0.00     0.018 C 
HETATM   19  C25 UNL     1       2.288  12.195  15.766  1.00  0.00     0.023 C 
HETATM   20  C26 UNL     1       2.176  10.619  17.692  1.00  0.00     0.023 C 
HETATM   21  C27 UNL     1       1.122   9.971  15.390  1.00  0.00     0.020 C 
HETATM   22  C28 UNL     1      -0.211  10.047  16.134  1.00  0.00     0.090 C 
HETATM   23  C29 UNL     1      -1.332   9.541  15.273  1.00  0.00     0.157 C 
HETATM   24  O3  UNL     1      -2.442  10.064  15.344  1.00  0.00    -0.293 OA
ENDROOT
BRANCH   1  25
HETATM   25  C6  UNL     1      -3.845   4.333  12.698  1.00  0.00    -0.014 C 
HETATM   26  C7  UNL     1      -2.913   3.491  11.814  1.00  0.00     0.010 C 
BRANCH  25  27
HETATM   27  C5  UNL     1      -5.295   4.119  12.167  1.00  0.00     0.008 C 
BRANCH  27  28
HETATM   28  C4  UNL     1      -6.410   3.875  13.196  1.00  0.00     0.028 C 
BRANCH  28  29
HETATM   29  C3  UNL     1      -7.513   4.899  13.205  1.00  0.00    -0.013 C 
HETATM   30  C2  UNL     1      -8.008   5.597  14.248  1.00  0.00     0.008 C 
HETATM   31  C1  UNL     1      -9.095   6.615  14.070  1.00  0.00     0.055 C 
BRANCH  30  32
HETATM   32  C30 UNL     1      -7.521   5.376  15.630  1.00  0.00     0.171 C 
HETATM   33  O4  UNL     1      -6.671   6.013  16.225  1.00  0.00    -0.646 OA
BRANCH  32  34
HETATM   34  O5  UNL     1      -8.134   4.325  16.202  1.00  0.00    -0.773 OA
HETATM   35  H44 UNL     1      -7.733   4.288  17.095  1.00  0.00     0.167 HD
ENDBRANCH  32  34
ENDBRANCH  30  32
ENDBRANCH  28  29
ENDBRANCH  27  28
ENDBRANCH  25  27
ENDBRANCH   1  25
BRANCH   8  36
HETATM   36  O1  UNL     1       1.224   5.720  13.858  1.00  0.00    -0.391 OA
HETATM   37  H22 UNL     1       0.663   5.258  14.501  1.00  0.00     0.210 HD
ENDBRANCH   8  36
TORSDOF 7
ENDMDL
MODEL 9
REMARK minimizedAffinity -8.89140987
REMARK  7 active torsions:
REMARK  status: ('A' for Active; 'I' for Inactive)
REMARK    1  A    between atoms: C2_2  and  C30_33 
REMARK    2  A    between atoms: C3_3  and  C4_4 
REMARK    3  A    between atoms: C4_4  and  C5_5 
REMARK    4  A    between atoms: C5_5  and  C6_6 
REMARK    5  A    between atoms: C6_6  and  C8_8 
REMARK    6  A    between atoms: C15_15  and  O1_16 
REMARK    7  A    between atoms: C30_33  and  O5_35 
ROOT
HETATM    1  C8  UNL     1       1.145   6.754  12.470  1.00  0.00    -0.002 C 
HETATM    2  C9  UNL     1       1.015   5.425  11.683  1.00  0.00     0.007 C 
HETATM    3  C10 UNL     1      -0.461   4.994  11.721  1.00  0.00     0.015 C 
HETATM    4  C11 UNL     1      -1.232   6.233  12.208  1.00  0.00    -0.005 C 
HETATM    5  C12 UNL     1      -1.474   7.138  10.961  1.00  0.00     0.021 C 
HETATM    6  C13 UNL     1      -2.605   6.076  12.856  1.00  0.00     0.002 C 
HETATM    7  C14 UNL     1      -3.060   6.966  13.781  1.00  0.00    -0.032 C 
HETATM    8  C15 UNL     1      -2.170   8.157  14.192  1.00  0.00     0.149 C 
HETATM    9  C16 UNL     1      -0.708   8.190  13.679  1.00  0.00     0.047 C 
HETATM   10  C17 UNL     1      -0.204   6.798  13.264  1.00  0.00    -0.026 C 
HETATM   11  C18 UNL     1      -0.075   5.891  14.529  1.00  0.00     0.016 C 
HETATM   12  C19 UNL     1      -4.492   6.880  14.404  1.00  0.00    -0.012 C 
HETATM   13  C20 UNL     1      -4.375   6.248  15.814  1.00  0.00     0.021 C 
HETATM   14  C21 UNL     1      -5.123   8.297  14.511  1.00  0.00     0.021 C 
HETATM   15  C22 UNL     1      -6.643   8.367  14.621  1.00  0.00     0.080 C 
HETATM   16  C23 UNL     1      -7.305   7.041  14.885  1.00  0.00     0.135 C 
HETATM   17  O2  UNL     1      -8.207   6.957  15.723  1.00  0.00    -0.297 OA
HETATM   18  C24 UNL     1      -6.905   5.857  13.996  1.00  0.00     0.018 C 
HETATM   19  C25 UNL     1      -7.875   5.861  12.795  1.00  0.00     0.023 C 
HETATM   20  C26 UNL     1      -7.141   4.546  14.779  1.00  0.00     0.023 C 
HETATM   21  C27 UNL     1      -5.435   6.037  13.476  1.00  0.00     0.020 C 
HETATM   22  C28 UNL     1      -4.780   4.712  13.091  1.00  0.00     0.090 C 
HETATM   23  C29 UNL     1      -3.471   4.946  12.393  1.00  0.00     0.157 C 
HETATM   24  O3  UNL     1      -3.120   4.199  11.483  1.00  0.00    -0.293 OA
ENDROOT
BRANCH   1  25
HETATM   25  C6  UNL     1       2.499   6.872  13.241  1.00  0.00    -0.014 C 
HETATM   26  C7  UNL     1       2.380   7.795  14.463  1.00  0.00     0.010 C 
BRANCH  25  27
HETATM   27  C5  UNL     1       3.657   7.428  12.359  1.00  0.00     0.008 C 
BRANCH  27  28
HETATM   28  C4  UNL     1       4.250   6.503  11.284  1.00  0.00     0.028 C 
BRANCH  28  29
HETATM   29  C3  UNL     1       3.600   6.590   9.929  1.00  0.00    -0.013 C 
HETATM   30  C2  UNL     1       3.412   5.611   9.019  1.00  0.00     0.008 C 
HETATM   31  C1  UNL     1       2.704   5.868   7.722  1.00  0.00     0.055 C 
BRANCH  30  32
HETATM   32  C30 UNL     1       3.918   4.237   9.243  1.00  0.00     0.171 C 
HETATM   33  O4  UNL     1       5.006   3.790   8.930  1.00  0.00    -0.646 OA
BRANCH  32  34
HETATM   34  O5  UNL     1       2.998   3.471   9.853  1.00  0.00    -0.773 OA
HETATM   35  H44 UNL     1       3.448   2.605   9.945  1.00  0.00     0.167 HD
ENDBRANCH  32  34
ENDBRANCH  30  32
ENDBRANCH  28  29
ENDBRANCH  27  28
ENDBRANCH  25  27
ENDBRANCH   1  25
BRANCH   8  36
HETATM   36  O1  UNL     1      -2.130   8.260  15.612  1.00  0.00    -0.391 OA
HETATM   37  H22 UNL     1      -1.582   7.534  15.950  1.00  0.00     0.210 HD
ENDBRANCH   8  36
TORSDOF 7
ENDMDL
