MODEL 1
REMARK minimizedAffinity -8.68296909
REMARK CNNscore 0.702032328
REMARK CNNaffinity 7.67828751
REMARK  5 active torsions:
REMARK  status: ('A' for Active; 'I' for Inactive)
REMARK    1  A    between atoms: C2_2  and  C3_3 
REMARK    2  A    between atoms: C3_3  and  N1_4 
REMARK    3  A    between atoms: C4_5  and  S1_6 
REMARK    4  A    between atoms: S1_6  and  C5_7 
REMARK    5  A    between atoms: C21_31  and  C22_32 
ROOT
HETATM    1  C5  UNL     1      -0.534  50.482 -17.530  1.00  0.00     0.093 A 
HETATM    2  C6  UNL     1      -1.212  50.684 -18.696  1.00  0.00    -0.016 A 
HETATM    3  C7  UNL     1      -2.466  49.902 -19.061  1.00  0.00     0.042 C 
HETATM    4  C8  UNL     1      -2.876  49.942 -20.527  1.00  0.00     0.005 C 
HETATM    5  C9  UNL     1      -2.883  51.374 -21.016  1.00  0.00     0.005 C 
HETATM    6  C10 UNL     1      -1.473  51.942 -20.946  1.00  0.00     0.041 C 
HETATM    7  C11 UNL     1      -0.757  51.754 -19.616  1.00  0.00    -0.025 A 
HETATM    8  C12 UNL     1       0.303  52.539 -19.291  1.00  0.00     0.096 A 
HETATM    9  C13 UNL     1       0.777  53.565 -20.171  1.00  0.00     0.104 C 
HETATM   10  N2  UNL     1       1.123  54.373 -20.931  1.00  0.00    -0.191 NA
HETATM   11  C14 UNL     1       1.009  52.323 -18.073  1.00  0.00     0.135 A 
HETATM   12  N3  UNL     1       2.048  52.972 -17.595  1.00  0.00    -0.339 N 
ATOM     13  H3  UNL     1       2.518  53.776 -18.013  1.00  0.00     0.167 HD
HETATM   14  C15 UNL     1       2.367  52.349 -16.429  1.00  0.00     0.061 A 
HETATM   15  C16 UNL     1       3.413  52.657 -15.543  1.00  0.00     0.032 A 
HETATM   16  C17 UNL     1       3.597  51.869 -14.407  1.00  0.00     0.002 A 
HETATM   17  C18 UNL     1       2.759  50.788 -14.161  1.00  0.00     0.002 A 
HETATM   18  C19 UNL     1       1.711  50.469 -15.034  1.00  0.00     0.032 A 
HETATM   19  C20 UNL     1       1.514  51.276 -16.171  1.00  0.00     0.068 A 
HETATM   20  N4  UNL     1       0.598  51.285 -17.232  1.00  0.00    -0.287 N 
ENDROOT
BRANCH   1  21
HETATM   21  S1  UNL     1      -1.084  49.286 -16.375  1.00  0.00    -0.033 SA
BRANCH  21  22
HETATM   22  C4  UNL     1      -2.056  50.332 -15.387  1.00  0.00     0.169 A 
HETATM   23  N1  UNL     1      -1.772  50.631 -14.081  1.00  0.00    -0.307 N 
HETATM   24  C21 UNL     1      -2.776  51.486 -13.670  1.00  0.00     0.135 A 
HETATM   25  N6  UNL     1      -3.626  51.642 -14.668  1.00  0.00    -0.283 N 
HETATM   26  N5  UNL     1      -3.165  50.934 -15.748  1.00  0.00    -0.278 N 
ATOM     27  H6  UNL     1      -4.481  52.197 -14.641  1.00  0.00     0.188 HD
ATOM     28  H5  UNL     1      -3.605  50.883 -16.667  1.00  0.00     0.189 HD
BRANCH  23  29
HETATM   29  C3  UNL     1      -0.725  50.065 -13.248  1.00  0.00     0.159 C 
BRANCH  29  30
HETATM   30  C2  UNL     1      -1.105  48.731 -12.669  1.00  0.00    -0.017 C 
HETATM   31  C1  UNL     1      -0.649  47.554 -13.117  1.00  0.00     0.008 C 
ENDBRANCH  29  30
ENDBRANCH  23  29
BRANCH  24  32
HETATM   32  C22 UNL     1      -2.916  52.074 -12.344  1.00  0.00     0.009 A 
HETATM   33  C23 UNL     1      -2.079  51.649 -11.304  1.00  0.00     0.015 A 
HETATM   34  C24 UNL     1      -2.196  52.208 -10.030  1.00  0.00     0.001 A 
HETATM   35  C25 UNL     1      -3.156  53.187  -9.782  1.00  0.00     0.000 A 
HETATM   36  C26 UNL     1      -4.008  53.601 -10.806  1.00  0.00     0.001 A 
HETATM   37  C27 UNL     1      -3.892  53.043 -12.080  1.00  0.00     0.015 A 
ENDBRANCH  24  32
ENDBRANCH  21  22
ENDBRANCH   1  21
TORSDOF 5
ENDMDL
MODEL 2
REMARK minimizedAffinity -9.02374077
REMARK CNNscore 0.67668438
REMARK CNNaffinity 7.87249517
REMARK  5 active torsions:
REMARK  status: ('A' for Active; 'I' for Inactive)
REMARK    1  A    between atoms: C2_2  and  C3_3 
REMARK    2  A    between atoms: C3_3  and  N1_4 
REMARK    3  A    between atoms: C4_5  and  S1_6 
REMARK    4  A    between atoms: S1_6  and  C5_7 
REMARK    5  A    between atoms: C21_31  and  C22_32 
ROOT
HETATM    1  C5  UNL     1      -1.309  49.884 -20.719  1.00  0.00     0.093 A 
HETATM    2  C6  UNL     1      -0.758  50.487 -19.628  1.00  0.00    -0.016 A 
HETATM    3  C7  UNL     1      -0.838  49.884 -18.231  1.00  0.00     0.042 C 
HETATM    4  C8  UNL     1      -0.542  50.831 -17.077  1.00  0.00     0.005 C 
HETATM    5  C9  UNL     1       0.744  51.580 -17.347  1.00  0.00     0.005 C 
HETATM    6  C10 UNL     1       0.576  52.448 -18.586  1.00  0.00     0.041 C 
HETATM    7  C11 UNL     1       0.012  51.740 -19.810  1.00  0.00    -0.025 A 
HETATM    8  C12 UNL     1       0.188  52.268 -21.049  1.00  0.00     0.096 A 
HETATM    9  C13 UNL     1       0.908  53.490 -21.251  1.00  0.00     0.104 C 
HETATM   10  N2  UNL     1       1.491  54.490 -21.351  1.00  0.00    -0.191 NA
HETATM   11  C14 UNL     1      -0.392  51.636 -22.187  1.00  0.00     0.135 A 
HETATM   12  N3  UNL     1      -0.332  51.997 -23.450  1.00  0.00    -0.339 N 
ATOM     13  H3  UNL     1       0.173  52.792 -23.841  1.00  0.00     0.167 HD
HETATM   14  C15 UNL     1      -1.085  51.089 -24.127  1.00  0.00     0.061 A 
HETATM   15  C16 UNL     1      -1.348  51.042 -25.507  1.00  0.00     0.032 A 
HETATM   16  C17 UNL     1      -2.181  50.041 -26.008  1.00  0.00     0.002 A 
HETATM   17  C18 UNL     1      -2.748  49.107 -25.149  1.00  0.00     0.002 A 
HETATM   18  C19 UNL     1      -2.494  49.140 -23.771  1.00  0.00     0.032 A 
HETATM   19  C20 UNL     1      -1.639  50.139 -23.269  1.00  0.00     0.068 A 
HETATM   20  N4  UNL     1      -1.150  50.477 -21.999  1.00  0.00    -0.287 N 
ENDROOT
BRANCH   1  21
HETATM   21  S1  UNL     1      -2.156  48.359 -20.564  1.00  0.00    -0.033 SA
BRANCH  21  22
HETATM   22  C4  UNL     1      -3.757  48.992 -20.343  1.00  0.00     0.169 A 
HETATM   23  N1  UNL     1      -4.829  48.237 -19.946  1.00  0.00    -0.307 N 
HETATM   24  C21 UNL     1      -5.898  49.111 -19.891  1.00  0.00     0.135 A 
HETATM   25  N6  UNL     1      -5.482  50.302 -20.277  1.00  0.00    -0.283 N 
HETATM   26  N5  UNL     1      -4.138  50.231 -20.544  1.00  0.00    -0.278 N 
ATOM     27  H6  UNL     1      -6.063  51.137 -20.363  1.00  0.00     0.188 HD
ATOM     28  H5  UNL     1      -3.542  51.003 -20.844  1.00  0.00     0.189 HD
BRANCH  23  29
HETATM   29  C3  UNL     1      -4.881  46.796 -19.760  1.00  0.00     0.159 C 
BRANCH  29  30
HETATM   30  C2  UNL     1      -5.067  46.054 -21.053  1.00  0.00    -0.017 C 
HETATM   31  C1  UNL     1      -6.195  45.425 -21.408  1.00  0.00     0.008 C 
ENDBRANCH  29  30
ENDBRANCH  23  29
BRANCH  24  32
HETATM   32  C22 UNL     1      -7.267  48.773 -19.525  1.00  0.00     0.009 A 
HETATM   33  C23 UNL     1      -8.176  48.386 -20.518  1.00  0.00     0.015 A 
HETATM   34  C24 UNL     1      -9.489  48.054 -20.183  1.00  0.00     0.001 A 
HETATM   35  C25 UNL     1      -9.908  48.115 -18.856  1.00  0.00     0.000 A 
HETATM   36  C26 UNL     1      -9.017  48.520 -17.862  1.00  0.00     0.001 A 
HETATM   37  C27 UNL     1      -7.703  48.853 -18.196  1.00  0.00     0.015 A 
ENDBRANCH  24  32
ENDBRANCH  21  22
ENDBRANCH   1  21
TORSDOF 5
ENDMDL
MODEL 3
REMARK minimizedAffinity -8.87391853
REMARK CNNscore 0.660933912
REMARK CNNaffinity 7.74663687
REMARK  5 active torsions:
REMARK  status: ('A' for Active; 'I' for Inactive)
REMARK    1  A    between atoms: C2_2  and  C3_3 
REMARK    2  A    between atoms: C3_3  and  N1_4 
REMARK    3  A    between atoms: C4_5  and  S1_6 
REMARK    4  A    between atoms: S1_6  and  C5_7 
REMARK    5  A    between atoms: C21_31  and  C22_32 
ROOT
HETATM    1  C5  UNL     1      -0.718  50.381 -20.212  1.00  0.00     0.093 A 
HETATM    2  C6  UNL     1      -0.772  50.783 -21.513  1.00  0.00    -0.016 A 
HETATM    3  C7  UNL     1      -1.544  50.014 -22.577  1.00  0.00     0.042 C 
HETATM    4  C8  UNL     1      -1.196  50.341 -24.022  1.00  0.00     0.005 C 
HETATM    5  C9  UNL     1      -1.204  51.840 -24.224  1.00  0.00     0.005 C 
HETATM    6  C10 UNL     1      -0.120  52.474 -23.364  1.00  0.00     0.041 C 
HETATM    7  C11 UNL     1      -0.114  52.054 -21.901  1.00  0.00    -0.025 A 
HETATM    8  C12 UNL     1       0.510  52.820 -20.970  1.00  0.00     0.096 A 
HETATM    9  C13 UNL     1       1.172  54.041 -21.322  1.00  0.00     0.104 C 
HETATM   10  N2  UNL     1       1.702  55.014 -21.669  1.00  0.00    -0.191 NA
HETATM   11  C14 UNL     1       0.565  52.395 -19.611  1.00  0.00     0.135 A 
HETATM   12  N3  UNL     1       1.121  52.996 -18.582  1.00  0.00    -0.339 N 
ATOM     13  H3  UNL     1       1.593  53.900 -18.576  1.00  0.00     0.167 HD
HETATM   14  C15 UNL     1       0.936  52.159 -17.525  1.00  0.00     0.061 A 
HETATM   15  C16 UNL     1       1.357  52.339 -16.197  1.00  0.00     0.032 A 
HETATM   16  C17 UNL     1       1.098  51.340 -15.258  1.00  0.00     0.002 A 
HETATM   17  C18 UNL     1       0.438  50.177 -15.638  1.00  0.00     0.002 A 
HETATM   18  C19 UNL     1       0.011  49.984 -16.959  1.00  0.00     0.032 A 
HETATM   19  C20 UNL     1       0.256  51.000 -17.901  1.00  0.00     0.068 A 
HETATM   20  N4  UNL     1      -0.022  51.176 -19.264  1.00  0.00    -0.287 N 
ENDROOT
BRANCH   1  21
HETATM   21  S1  UNL     1      -1.550  48.930 -19.691  1.00  0.00    -0.033 SA
BRANCH  21  22
HETATM   22  C4  UNL     1      -3.165  49.416 -20.103  1.00  0.00     0.169 A 
HETATM   23  N1  UNL     1      -4.025  48.652 -20.846  1.00  0.00    -0.307 N 
HETATM   24  C21 UNL     1      -5.189  49.391 -20.941  1.00  0.00     0.135 A 
HETATM   25  N6  UNL     1      -5.003  50.543 -20.324  1.00  0.00    -0.283 N 
HETATM   26  N5  UNL     1      -3.741  50.550 -19.786  1.00  0.00    -0.278 N 
ATOM     27  H6  UNL     1      -5.683  51.300 -20.259  1.00  0.00     0.188 HD
ATOM     28  H5  UNL     1      -3.325  51.303 -19.236  1.00  0.00     0.189 HD
BRANCH  23  29
HETATM   29  C3  UNL     1      -3.743  47.396 -21.521  1.00  0.00     0.159 C 
BRANCH  29  30
HETATM   30  C2  UNL     1      -4.191  46.201 -20.727  1.00  0.00    -0.017 C 
HETATM   31  C1  UNL     1      -5.121  45.328 -21.135  1.00  0.00     0.008 C 
ENDBRANCH  29  30
ENDBRANCH  23  29
BRANCH  24  32
HETATM   32  C22 UNL     1      -6.402  48.999 -21.647  1.00  0.00     0.009 A 
HETATM   33  C23 UNL     1      -7.380  48.249 -20.982  1.00  0.00     0.015 A 
HETATM   34  C24 UNL     1      -8.551  47.872 -21.643  1.00  0.00     0.001 A 
HETATM   35  C25 UNL     1      -8.749  48.232 -22.974  1.00  0.00     0.000 A 
HETATM   36  C26 UNL     1      -7.771  48.961 -23.651  1.00  0.00     0.001 A 
HETATM   37  C27 UNL     1      -6.600  49.339 -22.991  1.00  0.00     0.015 A 
ENDBRANCH  24  32
ENDBRANCH  21  22
ENDBRANCH   1  21
TORSDOF 5
ENDMDL
MODEL 4
REMARK minimizedAffinity -8.58409882
REMARK CNNscore 0.617284238
REMARK CNNaffinity 7.59811783
REMARK  5 active torsions:
REMARK  status: ('A' for Active; 'I' for Inactive)
REMARK    1  A    between atoms: C2_2  and  C3_3 
REMARK    2  A    between atoms: C3_3  and  N1_4 
REMARK    3  A    between atoms: C4_5  and  S1_6 
REMARK    4  A    between atoms: S1_6  and  C5_7 
REMARK    5  A    between atoms: C21_31  and  C22_32 
ROOT
HETATM    1  C5  UNL     1      -0.525  50.698 -17.263  1.00  0.00     0.093 A 
HETATM    2  C6  UNL     1       0.645  51.314 -16.933  1.00  0.00    -0.016 A 
HETATM    3  C7  UNL     1       1.410  50.989 -15.657  1.00  0.00     0.042 C 
HETATM    4  C8  UNL     1       2.456  52.008 -15.227  1.00  0.00     0.005 C 
HETATM    5  C9  UNL     1       3.344  52.356 -16.402  1.00  0.00     0.005 C 
HETATM    6  C10 UNL     1       2.512  53.022 -17.487  1.00  0.00     0.041 C 
HETATM    7  C11 UNL     1       1.238  52.287 -17.881  1.00  0.00    -0.025 A 
HETATM    8  C12 UNL     1       0.639  52.543 -19.073  1.00  0.00     0.096 A 
HETATM    9  C13 UNL     1       1.179  53.495 -19.997  1.00  0.00     0.104 C 
HETATM   10  N2  UNL     1       1.657  54.286 -20.700  1.00  0.00    -0.191 NA
HETATM   11  C14 UNL     1      -0.585  51.898 -19.413  1.00  0.00     0.135 A 
HETATM   12  N3  UNL     1      -1.304  52.019 -20.507  1.00  0.00    -0.339 N 
ATOM     13  H3  UNL     1      -1.089  52.587 -21.326  1.00  0.00     0.167 HD
HETATM   14  C15 UNL     1      -2.396  51.230 -20.318  1.00  0.00     0.061 A 
HETATM   15  C16 UNL     1      -3.475  51.025 -21.194  1.00  0.00     0.032 A 
HETATM   16  C17 UNL     1      -4.525  50.196 -20.799  1.00  0.00     0.002 A 
HETATM   17  C18 UNL     1      -4.505  49.588 -19.548  1.00  0.00     0.002 A 
HETATM   18  C19 UNL     1      -3.436  49.783 -18.664  1.00  0.00     0.032 A 
HETATM   19  C20 UNL     1      -2.368  50.604 -19.071  1.00  0.00     0.068 A 
HETATM   20  N4  UNL     1      -1.157  51.013 -18.495  1.00  0.00    -0.287 N 
ENDROOT
BRANCH   1  21
HETATM   21  S1  UNL     1      -1.220  49.480 -16.213  1.00  0.00    -0.033 SA
BRANCH  21  22
HETATM   22  C4  UNL     1      -2.152  50.537 -15.200  1.00  0.00     0.169 A 
HETATM   23  N1  UNL     1      -1.749  50.959 -13.961  1.00  0.00    -0.307 N 
HETATM   24  C21 UNL     1      -2.763  51.776 -13.500  1.00  0.00     0.135 A 
HETATM   25  N6  UNL     1      -3.727  51.795 -14.402  1.00  0.00    -0.283 N 
HETATM   26  N5  UNL     1      -3.336  51.033 -15.474  1.00  0.00    -0.278 N 
ATOM     27  H6  UNL     1      -4.613  52.294 -14.318  1.00  0.00     0.188 HD
ATOM     28  H5  UNL     1      -3.869  50.879 -16.330  1.00  0.00     0.189 HD
BRANCH  23  29
HETATM   29  C3  UNL     1      -0.578  50.532 -13.215  1.00  0.00     0.159 C 
BRANCH  29  30
HETATM   30  C2  UNL     1      -0.819  49.272 -12.432  1.00  0.00    -0.017 C 
HETATM   31  C1  UNL     1       0.073  48.714 -11.603  1.00  0.00     0.008 C 
ENDBRANCH  29  30
ENDBRANCH  23  29
BRANCH  24  32
HETATM   32  C22 UNL     1      -2.800  52.461 -12.214  1.00  0.00     0.009 A 
HETATM   33  C23 UNL     1      -1.603  52.741 -11.543  1.00  0.00     0.015 A 
HETATM   34  C24 UNL     1      -1.620  53.401 -10.313  1.00  0.00     0.001 A 
HETATM   35  C25 UNL     1      -2.833  53.777  -9.740  1.00  0.00     0.000 A 
HETATM   36  C26 UNL     1      -4.032  53.484 -10.390  1.00  0.00     0.001 A 
HETATM   37  C27 UNL     1      -4.015  52.824 -11.620  1.00  0.00     0.015 A 
ENDBRANCH  24  32
ENDBRANCH  21  22
ENDBRANCH   1  21
TORSDOF 5
ENDMDL
MODEL 5
REMARK minimizedAffinity -9.35991478
REMARK CNNscore 0.532161415
REMARK CNNaffinity 7.79396296
REMARK  5 active torsions:
REMARK  status: ('A' for Active; 'I' for Inactive)
REMARK    1  A    between atoms: C2_2  and  C3_3 
REMARK    2  A    between atoms: C3_3  and  N1_4 
REMARK    3  A    between atoms: C4_5  and  S1_6 
REMARK    4  A    between atoms: S1_6  and  C5_7 
REMARK    5  A    between atoms: C21_31  and  C22_32 
ROOT
HETATM    1  C5  UNL     1      -1.471  50.835 -23.164  1.00  0.00     0.093 A 
HETATM    2  C6  UNL     1      -1.188  50.774 -21.832  1.00  0.00    -0.016 A 
HETATM    3  C7  UNL     1      -1.740  49.681 -20.927  1.00  0.00     0.042 C 
HETATM    4  C8  UNL     1      -1.676  49.956 -19.431  1.00  0.00     0.005 C 
HETATM    5  C9  UNL     1      -0.285  50.418 -19.055  1.00  0.00     0.005 C 
HETATM    6  C10 UNL     1       0.017  51.736 -19.751  1.00  0.00     0.041 C 
HETATM    7  C11 UNL     1      -0.252  51.764 -21.249  1.00  0.00    -0.025 A 
HETATM    8  C12 UNL     1       0.337  52.704 -22.034  1.00  0.00     0.096 A 
HETATM    9  C13 UNL     1       1.227  53.686 -21.493  1.00  0.00     0.104 C 
HETATM   10  N2  UNL     1       1.931  54.464 -20.995  1.00  0.00    -0.191 NA
HETATM   11  C14 UNL     1       0.037  52.765 -23.426  1.00  0.00     0.135 A 
HETATM   12  N3  UNL     1       0.501  53.595 -24.333  1.00  0.00    -0.339 N 
ATOM     13  H3  UNL     1       1.191  54.335 -24.197  1.00  0.00     0.167 HD
HETATM   14  C15 UNL     1      -0.130  53.264 -25.492  1.00  0.00     0.061 A 
HETATM   15  C16 UNL     1       0.012  53.863 -26.755  1.00  0.00     0.032 A 
HETATM   16  C17 UNL     1      -0.756  53.395 -27.821  1.00  0.00     0.002 A 
HETATM   17  C18 UNL     1      -1.657  52.353 -27.631  1.00  0.00     0.002 A 
HETATM   18  C19 UNL     1      -1.808  51.744 -26.378  1.00  0.00     0.032 A 
HETATM   19  C20 UNL     1      -1.019  52.205 -25.307  1.00  0.00     0.068 A 
HETATM   20  N4  UNL     1      -0.879  51.852 -23.958  1.00  0.00    -0.287 N 
ENDROOT
BRANCH   1  21
HETATM   21  S1  UNL     1      -2.505  49.636 -23.913  1.00  0.00    -0.033 SA
BRANCH  21  22
HETATM   22  C4  UNL     1      -3.978  50.035 -23.085  1.00  0.00     0.169 A 
HETATM   23  N1  UNL     1      -4.782  49.113 -22.468  1.00  0.00    -0.307 N 
HETATM   24  C21 UNL     1      -5.833  49.834 -21.936  1.00  0.00     0.135 A 
HETATM   25  N6  UNL     1      -5.674  51.104 -22.261  1.00  0.00    -0.283 N 
HETATM   26  N5  UNL     1      -4.504  51.231 -22.966  1.00  0.00    -0.278 N 
ATOM     27  H6  UNL     1      -6.314  51.863 -22.028  1.00  0.00     0.188 HD
ATOM     28  H5  UNL     1      -4.113  52.100 -23.331  1.00  0.00     0.189 HD
BRANCH  23  29
HETATM   29  C3  UNL     1      -4.649  47.666 -22.487  1.00  0.00     0.159 C 
BRANCH  29  30
HETATM   30  C2  UNL     1      -4.369  47.095 -21.125  1.00  0.00    -0.017 C 
HETATM   31  C1  UNL     1      -3.333  46.295 -20.839  1.00  0.00     0.008 C 
ENDBRANCH  29  30
ENDBRANCH  23  29
BRANCH  24  32
HETATM   32  C22 UNL     1      -6.960  49.290 -21.190  1.00  0.00     0.009 A 
HETATM   33  C23 UNL     1      -7.067  49.539 -19.815  1.00  0.00     0.015 A 
HETATM   34  C24 UNL     1      -8.144  49.030 -19.087  1.00  0.00     0.001 A 
HETATM   35  C25 UNL     1      -9.116  48.261 -19.724  1.00  0.00     0.000 A 
HETATM   36  C26 UNL     1      -9.006  47.990 -21.088  1.00  0.00     0.001 A 
HETATM   37  C27 UNL     1      -7.930  48.498 -21.817  1.00  0.00     0.015 A 
ENDBRANCH  24  32
ENDBRANCH  21  22
ENDBRANCH   1  21
TORSDOF 5
ENDMDL
MODEL 6
REMARK minimizedAffinity -8.83443546
REMARK CNNscore 0.450301111
REMARK CNNaffinity 7.61352348
REMARK  5 active torsions:
REMARK  status: ('A' for Active; 'I' for Inactive)
REMARK    1  A    between atoms: C2_2  and  C3_3 
REMARK    2  A    between atoms: C3_3  and  N1_4 
REMARK    3  A    between atoms: C4_5  and  S1_6 
REMARK    4  A    between atoms: S1_6  and  C5_7 
REMARK    5  A    between atoms: C21_31  and  C22_32 
ROOT
HETATM    1  C5  UNL     1      -1.325  50.272 -22.429  1.00  0.00     0.093 A 
HETATM    2  C6  UNL     1      -0.986  51.099 -23.459  1.00  0.00    -0.016 A 
HETATM    3  C7  UNL     1      -1.482  50.882 -24.882  1.00  0.00     0.042 C 
HETATM    4  C8  UNL     1      -0.724  51.622 -25.975  1.00  0.00     0.005 C 
HETATM    5  C9  UNL     1      -0.574  53.079 -25.595  1.00  0.00     0.005 C 
HETATM    6  C10 UNL     1       0.268  53.191 -24.333  1.00  0.00     0.041 C 
HETATM    7  C11 UNL     1      -0.162  52.299 -23.176  1.00  0.00    -0.025 A 
HETATM    8  C12 UNL     1       0.229  52.585 -21.907  1.00  0.00     0.096 A 
HETATM    9  C13 UNL     1       1.044  53.724 -21.610  1.00  0.00     0.104 C 
HETATM   10  N2  UNL     1       1.714  54.656 -21.433  1.00  0.00    -0.191 NA
HETATM   11  C14 UNL     1      -0.125  51.716 -20.835  1.00  0.00     0.135 A 
HETATM   12  N3  UNL     1       0.161  51.826 -19.556  1.00  0.00    -0.339 N 
ATOM     13  H3  UNL     1       0.673  52.582 -19.102  1.00  0.00     0.167 HD
HETATM   14  C15 UNL     1      -0.367  50.720 -18.965  1.00  0.00     0.061 A 
HETATM   15  C16 UNL     1      -0.321  50.361 -17.608  1.00  0.00     0.032 A 
HETATM   16  C17 UNL     1      -0.899  49.158 -17.202  1.00  0.00     0.002 A 
HETATM   17  C18 UNL     1      -1.504  48.322 -18.133  1.00  0.00     0.002 A 
HETATM   18  C19 UNL     1      -1.559  48.667 -19.490  1.00  0.00     0.032 A 
HETATM   19  C20 UNL     1      -0.993  49.890 -19.896  1.00  0.00     0.068 A 
HETATM   20  N4  UNL     1      -0.867  50.566 -21.118  1.00  0.00    -0.287 N 
ENDROOT
BRANCH   1  21
HETATM   21  S1  UNL     1      -2.365  48.889 -22.701  1.00  0.00    -0.033 SA
BRANCH  21  22
HETATM   22  C4  UNL     1      -3.756  49.459 -21.832  1.00  0.00     0.169 A 
HETATM   23  N1  UNL     1      -4.649  48.637 -21.196  1.00  0.00    -0.307 N 
HETATM   24  C21 UNL     1      -5.591  49.478 -20.635  1.00  0.00     0.135 A 
HETATM   25  N6  UNL     1      -5.289  50.721 -20.963  1.00  0.00    -0.283 N 
HETATM   26  N5  UNL     1      -4.131  50.709 -21.698  1.00  0.00    -0.278 N 
ATOM     27  H6  UNL     1      -5.826  51.550 -20.711  1.00  0.00     0.188 HD
ATOM     28  H5  UNL     1      -3.648  51.526 -22.073  1.00  0.00     0.189 HD
BRANCH  23  29
HETATM   29  C3  UNL     1      -4.692  47.185 -21.220  1.00  0.00     0.159 C 
BRANCH  29  30
HETATM   30  C2  UNL     1      -5.837  46.655 -22.038  1.00  0.00    -0.017 C 
HETATM   31  C1  UNL     1      -6.285  47.221 -23.167  1.00  0.00     0.008 C 
ENDBRANCH  29  30
ENDBRANCH  23  29
BRANCH  24  32
HETATM   32  C22 UNL     1      -6.755  49.070 -19.860  1.00  0.00     0.009 A 
HETATM   33  C23 UNL     1      -8.002  48.959 -20.488  1.00  0.00     0.015 A 
HETATM   34  C24 UNL     1      -9.126  48.563 -19.760  1.00  0.00     0.001 A 
HETATM   35  C25 UNL     1      -9.015  48.285 -18.399  1.00  0.00     0.000 A 
HETATM   36  C26 UNL     1      -7.782  48.413 -17.761  1.00  0.00     0.001 A 
HETATM   37  C27 UNL     1      -6.657  48.809 -18.487  1.00  0.00     0.015 A 
ENDBRANCH  24  32
ENDBRANCH  21  22
ENDBRANCH   1  21
TORSDOF 5
ENDMDL
MODEL 7
REMARK minimizedAffinity -6.52414703
REMARK CNNscore 0.181567863
REMARK CNNaffinity 5.27241659
REMARK  5 active torsions:
REMARK  status: ('A' for Active; 'I' for Inactive)
REMARK    1  A    between atoms: C2_2  and  C3_3 
REMARK    2  A    between atoms: C3_3  and  N1_4 
REMARK    3  A    between atoms: C4_5  and  S1_6 
REMARK    4  A    between atoms: S1_6  and  C5_7 
REMARK    5  A    between atoms: C21_31  and  C22_32 
ROOT
HETATM    1  C5  UNL     1       1.354  51.084 -10.896  1.00  0.00     0.093 A 
HETATM    2  C6  UNL     1       0.319  51.042 -10.010  1.00  0.00    -0.016 A 
HETATM    3  C7  UNL     1       0.505  50.647  -8.551  1.00  0.00     0.042 C 
HETATM    4  C8  UNL     1      -0.760  50.262  -7.797  1.00  0.00     0.005 C 
HETATM    5  C9  UNL     1      -1.825  51.315  -8.015  1.00  0.00     0.005 C 
HETATM    6  C10 UNL     1      -2.198  51.362  -9.489  1.00  0.00     0.041 C 
HETATM    7  C11 UNL     1      -1.029  51.465 -10.459  1.00  0.00    -0.025 A 
HETATM    8  C12 UNL     1      -1.227  51.912 -11.726  1.00  0.00     0.096 A 
HETATM    9  C13 UNL     1      -2.523  52.306 -12.191  1.00  0.00     0.104 C 
HETATM   10  N2  UNL     1      -3.599  52.599 -12.515  1.00  0.00    -0.191 NA
HETATM   11  C14 UNL     1      -0.142  51.952 -12.649  1.00  0.00     0.135 A 
HETATM   12  N3  UNL     1      -0.142  52.347 -13.904  1.00  0.00    -0.339 N 
ATOM     13  H3  UNL     1      -0.928  52.726 -14.431  1.00  0.00     0.167 HD
HETATM   14  C15 UNL     1       1.127  52.145 -14.352  1.00  0.00     0.061 A 
HETATM   15  C16 UNL     1       1.640  52.398 -15.635  1.00  0.00     0.032 A 
HETATM   16  C17 UNL     1       2.972  52.088 -15.909  1.00  0.00     0.002 A 
HETATM   17  C18 UNL     1       3.778  51.528 -14.924  1.00  0.00     0.002 A 
HETATM   18  C19 UNL     1       3.280  51.271 -13.639  1.00  0.00     0.032 A 
HETATM   19  C20 UNL     1       1.941  51.601 -13.358  1.00  0.00     0.068 A 
HETATM   20  N4  UNL     1       1.116  51.513 -12.229  1.00  0.00    -0.287 N 
ENDROOT
BRANCH   1  21
HETATM   21  S1  UNL     1       2.980  50.674 -10.390  1.00  0.00    -0.033 SA
BRANCH  21  22
HETATM   22  C4  UNL     1       3.134  51.834  -9.108  1.00  0.00     0.169 A 
HETATM   23  N1  UNL     1       3.359  53.170  -9.309  1.00  0.00    -0.307 N 
HETATM   24  C21 UNL     1       3.413  53.731  -8.048  1.00  0.00     0.135 A 
HETATM   25  N6  UNL     1       3.271  52.768  -7.157  1.00  0.00    -0.283 N 
HETATM   26  N5  UNL     1       3.079  51.583  -7.821  1.00  0.00    -0.278 N 
ATOM     27  H6  UNL     1       3.299  52.884  -6.143  1.00  0.00     0.188 HD
ATOM     28  H5  UNL     1       2.923  50.670  -7.392  1.00  0.00     0.189 HD
BRANCH  23  29
HETATM   29  C3  UNL     1       3.631  53.845 -10.567  1.00  0.00     0.159 C 
BRANCH  29  30
HETATM   30  C2  UNL     1       2.772  55.062 -10.767  1.00  0.00    -0.017 C 
HETATM   31  C1  UNL     1       3.241  56.274 -11.090  1.00  0.00     0.008 C 
ENDBRANCH  29  30
ENDBRANCH  23  29
BRANCH  24  32
HETATM   32  C22 UNL     1       3.643  55.136  -7.740  1.00  0.00     0.009 A 
HETATM   33  C23 UNL     1       2.554  55.977  -7.478  1.00  0.00     0.015 A 
HETATM   34  C24 UNL     1       2.758  57.324  -7.175  1.00  0.00     0.001 A 
HETATM   35  C25 UNL     1       4.050  57.844  -7.142  1.00  0.00     0.000 A 
HETATM   36  C26 UNL     1       5.140  57.020  -7.423  1.00  0.00     0.001 A 
HETATM   37  C27 UNL     1       4.937  55.673  -7.726  1.00  0.00     0.015 A 
ENDBRANCH  24  32
ENDBRANCH  21  22
ENDBRANCH   1  21
TORSDOF 5
ENDMDL
MODEL 8
REMARK minimizedAffinity -9.10992813
REMARK CNNscore 0.142663583
REMARK CNNaffinity 6.74152422
REMARK  5 active torsions:
REMARK  status: ('A' for Active; 'I' for Inactive)
REMARK    1  A    between atoms: C2_2  and  C3_3 
REMARK    2  A    between atoms: C3_3  and  N1_4 
REMARK    3  A    between atoms: C4_5  and  S1_6 
REMARK    4  A    between atoms: S1_6  and  C5_7 
REMARK    5  A    between atoms: C21_31  and  C22_32 
ROOT
HETATM    1  C5  UNL     1      -1.468  50.711 -23.444  1.00  0.00     0.093 A 
HETATM    2  C6  UNL     1      -2.053  50.239 -24.582  1.00  0.00    -0.016 A 
HETATM    3  C7  UNL     1      -2.967  49.021 -24.589  1.00  0.00     0.042 C 
HETATM    4  C8  UNL     1      -3.219  48.382 -25.948  1.00  0.00     0.005 C 
HETATM    5  C9  UNL     1      -3.610  49.447 -26.949  1.00  0.00     0.005 C 
HETATM    6  C10 UNL     1      -2.454  50.419 -27.135  1.00  0.00     0.041 C 
HETATM    7  C11 UNL     1      -1.853  50.977 -25.853  1.00  0.00    -0.025 A 
HETATM    8  C12 UNL     1      -1.120  52.120 -25.880  1.00  0.00     0.096 A 
HETATM    9  C13 UNL     1      -0.892  52.839 -27.097  1.00  0.00     0.104 C 
HETATM   10  N2  UNL     1      -0.733  53.372 -28.116  1.00  0.00    -0.191 NA
HETATM   11  C14 UNL     1      -0.509  52.608 -24.688  1.00  0.00     0.135 A 
HETATM   12  N3  UNL     1       0.230  53.683 -24.522  1.00  0.00    -0.339 N 
ATOM     13  H3  UNL     1       0.473  54.379 -25.226  1.00  0.00     0.167 HD
HETATM   14  C15 UNL     1       0.603  53.673 -23.213  1.00  0.00     0.061 A 
HETATM   15  C16 UNL     1       1.411  54.603 -22.539  1.00  0.00     0.032 A 
HETATM   16  C17 UNL     1       1.708  54.397 -21.191  1.00  0.00     0.002 A 
HETATM   17  C18 UNL     1       1.217  53.277 -20.530  1.00  0.00     0.002 A 
HETATM   18  C19 UNL     1       0.409  52.341 -21.189  1.00  0.00     0.032 A 
HETATM   19  C20 UNL     1       0.094  52.560 -22.543  1.00  0.00     0.068 A 
HETATM   20  N4  UNL     1      -0.670  51.883 -23.504  1.00  0.00    -0.287 N 
ENDROOT
BRANCH   1  21
HETATM   21  S1  UNL     1      -1.744  49.921 -21.906  1.00  0.00    -0.033 SA
BRANCH  21  22
HETATM   22  C4  UNL     1      -3.457  50.183 -21.802  1.00  0.00     0.169 A 
HETATM   23  N1  UNL     1      -4.308  49.394 -21.075  1.00  0.00    -0.307 N 
HETATM   24  C21 UNL     1      -5.564  49.939 -21.255  1.00  0.00     0.135 A 
HETATM   25  N6  UNL     1      -5.459  50.965 -22.079  1.00  0.00    -0.283 N 
HETATM   26  N5  UNL     1      -4.137  51.127 -22.407  1.00  0.00    -0.278 N 
ATOM     27  H6  UNL     1      -6.231  51.541 -22.415  1.00  0.00     0.188 HD
ATOM     28  H5  UNL     1      -3.752  51.853 -23.013  1.00  0.00     0.189 HD
BRANCH  23  29
HETATM   29  C3  UNL     1      -3.995  48.159 -20.376  1.00  0.00     0.159 C 
BRANCH  29  30
HETATM   30  C2  UNL     1      -4.025  46.960 -21.282  1.00  0.00    -0.017 C 
HETATM   31  C1  UNL     1      -2.946  46.242 -21.622  1.00  0.00     0.008 C 
ENDBRANCH  29  30
ENDBRANCH  23  29
BRANCH  24  32
HETATM   32  C22 UNL     1      -6.809  49.441 -20.684  1.00  0.00     0.009 A 
HETATM   33  C23 UNL     1      -7.125  49.730 -19.350  1.00  0.00     0.015 A 
HETATM   34  C24 UNL     1      -8.316  49.266 -18.790  1.00  0.00     0.001 A 
HETATM   35  C25 UNL     1      -9.196  48.502 -19.554  1.00  0.00     0.000 A 
HETATM   36  C26 UNL     1      -8.880  48.191 -20.877  1.00  0.00     0.001 A 
HETATM   37  C27 UNL     1      -7.689  48.655 -21.438  1.00  0.00     0.015 A 
ENDBRANCH  24  32
ENDBRANCH  21  22
ENDBRANCH   1  21
TORSDOF 5
ENDMDL
MODEL 9
REMARK minimizedAffinity -9.36307716
REMARK CNNscore 0.136110738
REMARK CNNaffinity 6.97844553
REMARK  5 active torsions:
REMARK  status: ('A' for Active; 'I' for Inactive)
REMARK    1  A    between atoms: C2_2  and  C3_3 
REMARK    2  A    between atoms: C3_3  and  N1_4 
REMARK    3  A    between atoms: C4_5  and  S1_6 
REMARK    4  A    between atoms: S1_6  and  C5_7 
REMARK    5  A    between atoms: C21_31  and  C22_32 
ROOT
HETATM    1  C5  UNL     1      -1.848  49.868 -22.176  1.00  0.00     0.093 A 
HETATM    2  C6  UNL     1      -2.211  49.784 -23.487  1.00  0.00    -0.016 A 
HETATM    3  C7  UNL     1      -3.078  48.654 -24.027  1.00  0.00     0.042 C 
HETATM    4  C8  UNL     1      -3.069  48.469 -25.538  1.00  0.00     0.005 C 
HETATM    5  C9  UNL     1      -3.305  49.800 -26.218  1.00  0.00     0.005 C 
HETATM    6  C10 UNL     1      -2.159  50.746 -25.892  1.00  0.00     0.041 C 
HETATM    7  C11 UNL     1      -1.809  50.868 -24.416  1.00  0.00    -0.025 A 
HETATM    8  C12 UNL     1      -1.112  51.943 -23.963  1.00  0.00     0.096 A 
HETATM    9  C13 UNL     1      -0.692  52.992 -24.842  1.00  0.00     0.104 C 
HETATM   10  N2  UNL     1      -0.369  53.806 -25.605  1.00  0.00    -0.191 NA
HETATM   11  C14 UNL     1      -0.734  52.025 -22.592  1.00  0.00     0.135 A 
HETATM   12  N3  UNL     1      -0.064  52.975 -21.977  1.00  0.00    -0.339 N 
ATOM     13  H3  UNL     1       0.282  53.846 -22.381  1.00  0.00     0.167 HD
HETATM   14  C15 UNL     1       0.073  52.556 -20.691  1.00  0.00     0.061 A 
HETATM   15  C16 UNL     1       0.724  53.211 -19.633  1.00  0.00     0.032 A 
HETATM   16  C17 UNL     1       0.785  52.594 -18.383  1.00  0.00     0.002 A 
HETATM   17  C18 UNL     1       0.213  51.342 -18.192  1.00  0.00     0.002 A 
HETATM   18  C19 UNL     1      -0.441  50.676 -19.237  1.00  0.00     0.032 A 
HETATM   19  C20 UNL     1      -0.518  51.307 -20.493  1.00  0.00     0.068 A 
HETATM   20  N4  UNL     1      -1.082  50.979 -21.733  1.00  0.00    -0.287 N 
ENDROOT
BRANCH   1  21
HETATM   21  S1  UNL     1      -2.371  48.655 -21.026  1.00  0.00    -0.033 SA
BRANCH  21  22
HETATM   22  C4  UNL     1      -3.974  49.259 -20.748  1.00  0.00     0.169 A 
HETATM   23  N1  UNL     1      -5.004  48.498 -20.263  1.00  0.00    -0.307 N 
HETATM   24  C21 UNL     1      -6.091  49.348 -20.189  1.00  0.00     0.135 A 
HETATM   25  N6  UNL     1      -5.727  50.531 -20.648  1.00  0.00    -0.283 N 
HETATM   26  N5  UNL     1      -4.397  50.479 -20.982  1.00  0.00    -0.278 N 
ATOM     27  H6  UNL     1      -6.332  51.347 -20.739  1.00  0.00     0.188 HD
ATOM     28  H5  UNL     1      -3.838  51.251 -21.346  1.00  0.00     0.189 HD
BRANCH  23  29
HETATM   29  C3  UNL     1      -5.009  47.066 -20.013  1.00  0.00     0.159 C 
BRANCH  29  30
HETATM   30  C2  UNL     1      -5.062  46.259 -21.279  1.00  0.00    -0.017 C 
HETATM   31  C1  UNL     1      -6.179  45.722 -21.788  1.00  0.00     0.008 C 
ENDBRANCH  29  30
ENDBRANCH  23  29
BRANCH  24  32
HETATM   32  C22 UNL     1      -7.431  48.995 -19.737  1.00  0.00     0.009 A 
HETATM   33  C23 UNL     1      -8.345  48.443 -20.643  1.00  0.00     0.015 A 
HETATM   34  C24 UNL     1      -9.630  48.093 -20.224  1.00  0.00     0.001 A 
HETATM   35  C25 UNL     1     -10.014  48.302 -18.901  1.00  0.00     0.000 A 
HETATM   36  C26 UNL     1      -9.118  48.871 -17.997  1.00  0.00     0.001 A 
HETATM   37  C27 UNL     1      -7.832  49.221 -18.414  1.00  0.00     0.015 A 
ENDBRANCH  24  32
ENDBRANCH  21  22
ENDBRANCH   1  21
TORSDOF 5
ENDMDL
