MODEL 1
REMARK minimizedAffinity -8.42355537
REMARK  14 active torsions:
REMARK  status: ('A' for Active; 'I' for Inactive)
REMARK    1  A    between atoms: O1_2  and  C2_3 
REMARK    2  A    between atoms: C2_3  and  C3_4 
REMARK    3  A    between atoms: C2_3  and  C24_30 
REMARK    4  A    between atoms: C3_4  and  C5_6 
REMARK    5  A    between atoms: C6_8  and  C8_10 
REMARK    6  A    between atoms: C8_10  and  C9_11 
REMARK    7  A    between atoms: C9_11  and  O3_13 
REMARK    8  A    between atoms: C9_11  and  C11_14 
REMARK    9  A    between atoms: C12_15  and  C13_16 
REMARK   10  A    between atoms: C14_17  and  C16_19 
REMARK   11  A    between atoms: C17_21  and  C18_22 
REMARK   12  A    between atoms: C18_22  and  C19_23 
REMARK   13  A    between atoms: C19_23  and  O6_25 
REMARK   14  A    between atoms: C24_30  and  O7_32 
ROOT
HETATM    1  C9  UNL     1      -4.850   3.133  11.550  1.00  0.00     0.075 C 
HETATM    2  C10 UNL     1      -5.071   1.617  11.513  1.00  0.00     0.050 C 
ENDROOT
BRANCH   1   3
HETATM    3  C8  UNL     1      -5.309   3.775  12.884  1.00  0.00     0.082 C 
BRANCH   3   4
HETATM    4  C6  UNL     1      -6.811   3.902  13.059  1.00  0.00     0.087 A 
HETATM    5  C5  UNL     1      -7.426   5.299  13.077  1.00  0.00     0.163 A 
HETATM    6  O2  UNL     1      -7.183   4.571  14.282  1.00  0.00    -0.369 OA
HETATM    7  C7  UNL     1      -7.644   2.673  12.827  1.00  0.00     0.049 C 
BRANCH   5   8
HETATM    8  C3  UNL     1      -8.873   5.559  12.734  1.00  0.00     0.045 C 
HETATM    9  C4  UNL     1      -8.967   5.821  11.222  1.00  0.00     0.015 C 
BRANCH   8  10
HETATM   10  C2  UNL     1      -9.431   6.754  13.558  1.00  0.00     0.155 C 
BRANCH  10  11
HETATM   11  O1  UNL     1     -10.824   6.522  13.848  1.00  0.00    -0.388 OA
HETATM   12  C1  UNL     1     -11.686   7.484  13.259  1.00  0.00     0.202 C 
ENDBRANCH  10  11
BRANCH  10  13
HETATM   13  C24 UNL     1      -8.661   6.957  14.891  1.00  0.00     0.143 C 
HETATM   14  C25 UNL     1      -8.644   8.416  15.338  1.00  0.00     0.042 C 
BRANCH  13  15
HETATM   15  O7  UNL     1      -9.242   6.180  15.943  1.00  0.00    -0.393 OA
HETATM   16  H42 UNL     1      -8.674   6.281  16.725  1.00  0.00     0.210 HD
ENDBRANCH  13  15
ENDBRANCH  10  13
ENDBRANCH   8  10
ENDBRANCH   5   8
ENDBRANCH   3   4
ENDBRANCH   1   3
BRANCH   1  17
HETATM   17  O3  UNL     1      -5.617   3.693  10.475  1.00  0.00    -0.386 OA
HETATM   18  H18 UNL     1      -5.184   3.417   9.647  1.00  0.00     0.211 HD
ENDBRANCH   1  17
BRANCH   1  19
HETATM   19  C11 UNL     1      -3.418   3.558  11.279  1.00  0.00     0.010 C 
HETATM   20  C12 UNL     1      -2.698   4.485  11.935  1.00  0.00    -0.001 C 
BRANCH  20  21
HETATM   21  C13 UNL     1      -1.315   4.757  11.611  1.00  0.00     0.005 C 
HETATM   22  C14 UNL     1      -0.644   5.914  11.793  1.00  0.00    -0.055 C 
HETATM   23  C15 UNL     1      -1.241   7.183  12.343  1.00  0.00     0.046 C 
BRANCH  22  24
HETATM   24  C16 UNL     1       0.844   6.012  11.470  1.00  0.00     0.154 C 
HETATM   25  O4  UNL     1       0.959   6.453  10.106  1.00  0.00    -0.375 OA
HETATM   26  C17 UNL     1       2.310   6.431   9.623  1.00  0.00     0.132 C 
HETATM   27  C20 UNL     1       3.153   7.415  10.441  1.00  0.00     0.033 C 
HETATM   28  C21 UNL     1       3.081   7.076  11.926  1.00  0.00     0.009 C 
HETATM   29  C22 UNL     1       1.621   6.976  12.397  1.00  0.00     0.015 C 
HETATM   30  C23 UNL     1       1.575   6.565  13.867  1.00  0.00     0.012 C 
BRANCH  26  31
HETATM   31  C18 UNL     1       2.263   6.810   8.144  1.00  0.00     0.141 C 
BRANCH  31  32
HETATM   32  C19 UNL     1       2.216   8.296   7.949  1.00  0.00     0.141 C 
HETATM   33  O5  UNL     1       3.103   9.014   7.520  1.00  0.00    -0.650 OA
BRANCH  32  34
HETATM   34  O6  UNL     1       1.022   8.818   8.293  1.00  0.00    -0.776 OA
HETATM   35  H29 UNL     1       1.115   9.776   8.104  1.00  0.00     0.167 HD
ENDBRANCH  32  34
ENDBRANCH  31  32
ENDBRANCH  26  31
ENDBRANCH  22  24
ENDBRANCH  20  21
ENDBRANCH   1  19
TORSDOF 14
ENDMDL
MODEL 2
REMARK minimizedAffinity -8.40960979
REMARK  14 active torsions:
REMARK  status: ('A' for Active; 'I' for Inactive)
REMARK    1  A    between atoms: O1_2  and  C2_3 
REMARK    2  A    between atoms: C2_3  and  C3_4 
REMARK    3  A    between atoms: C2_3  and  C24_30 
REMARK    4  A    between atoms: C3_4  and  C5_6 
REMARK    5  A    between atoms: C6_8  and  C8_10 
REMARK    6  A    between atoms: C8_10  and  C9_11 
REMARK    7  A    between atoms: C9_11  and  O3_13 
REMARK    8  A    between atoms: C9_11  and  C11_14 
REMARK    9  A    between atoms: C12_15  and  C13_16 
REMARK   10  A    between atoms: C14_17  and  C16_19 
REMARK   11  A    between atoms: C17_21  and  C18_22 
REMARK   12  A    between atoms: C18_22  and  C19_23 
REMARK   13  A    between atoms: C19_23  and  O6_25 
REMARK   14  A    between atoms: C24_30  and  O7_32 
ROOT
HETATM    1  C9  UNL     1      -3.559   2.732  11.536  1.00  0.00     0.075 C 
HETATM    2  C10 UNL     1      -3.168   1.253  11.622  1.00  0.00     0.050 C 
ENDROOT
BRANCH   1   3
HETATM    3  C8  UNL     1      -4.032   3.309  12.894  1.00  0.00     0.082 C 
BRANCH   3   4
HETATM    4  C6  UNL     1      -5.116   4.368  12.806  1.00  0.00     0.087 A 
HETATM    5  C5  UNL     1      -6.516   4.019  13.304  1.00  0.00     0.163 A 
HETATM    6  O2  UNL     1      -6.189   4.005  11.913  1.00  0.00    -0.369 OA
HETATM    7  C7  UNL     1      -4.681   5.791  12.597  1.00  0.00     0.049 C 
BRANCH   5   8
HETATM    8  C3  UNL     1      -7.510   5.065  13.746  1.00  0.00     0.045 C 
HETATM    9  C4  UNL     1      -8.050   5.772  12.493  1.00  0.00     0.015 C 
BRANCH   8  10
HETATM   10  C2  UNL     1      -6.854   6.071  14.733  1.00  0.00     0.155 C 
BRANCH  10  11
HETATM   11  O1  UNL     1      -7.155   7.416  14.311  1.00  0.00    -0.388 OA
HETATM   12  C1  UNL     1      -6.057   8.306  14.452  1.00  0.00     0.202 C 
ENDBRANCH  10  11
BRANCH  10  13
HETATM   13  C24 UNL     1      -7.355   5.872  16.190  1.00  0.00     0.143 C 
HETATM   14  C25 UNL     1      -8.072   7.105  16.733  1.00  0.00     0.042 C 
BRANCH  13  15
HETATM   15  O7  UNL     1      -8.255   4.762  16.277  1.00  0.00    -0.393 OA
HETATM   16  H42 UNL     1      -8.469   4.636  17.216  1.00  0.00     0.210 HD
ENDBRANCH  13  15
ENDBRANCH  10  13
ENDBRANCH   8  10
ENDBRANCH   5   8
ENDBRANCH   3   4
ENDBRANCH   1   3
BRANCH   1  17
HETATM   17  O3  UNL     1      -4.634   2.825  10.590  1.00  0.00    -0.386 OA
HETATM   18  H18 UNL     1      -4.254   2.635   9.714  1.00  0.00     0.211 HD
ENDBRANCH   1  17
BRANCH   1  19
HETATM   19  C11 UNL     1      -2.467   3.631  10.985  1.00  0.00     0.010 C 
HETATM   20  C12 UNL     1      -1.623   4.418  11.676  1.00  0.00    -0.001 C 
BRANCH  20  21
HETATM   21  C13 UNL     1      -0.584   5.187  11.029  1.00  0.00     0.005 C 
HETATM   22  C14 UNL     1      -0.163   6.429  11.352  1.00  0.00    -0.055 C 
HETATM   23  C15 UNL     1      -0.745   7.281  12.450  1.00  0.00     0.046 C 
BRANCH  22  24
HETATM   24  C16 UNL     1       1.008   7.072  10.616  1.00  0.00     0.154 C 
HETATM   25  O4  UNL     1       2.049   6.085  10.519  1.00  0.00    -0.375 OA
HETATM   26  C17 UNL     1       3.273   6.612   9.989  1.00  0.00     0.132 C 
HETATM   27  C20 UNL     1       3.035   7.094   8.554  1.00  0.00     0.033 C 
HETATM   28  C21 UNL     1       1.914   8.127   8.516  1.00  0.00     0.009 C 
HETATM   29  C22 UNL     1       0.648   7.591   9.205  1.00  0.00     0.015 C 
HETATM   30  C23 UNL     1      -0.434   8.669   9.218  1.00  0.00     0.012 C 
BRANCH  26  31
HETATM   31  C18 UNL     1       4.309   5.491  10.051  1.00  0.00     0.141 C 
BRANCH  31  32
HETATM   32  C19 UNL     1       3.932   4.333   9.176  1.00  0.00     0.141 C 
HETATM   33  O5  UNL     1       3.440   4.377   8.062  1.00  0.00    -0.650 OA
BRANCH  32  34
HETATM   34  O6  UNL     1       4.215   3.147   9.751  1.00  0.00    -0.776 OA
HETATM   35  H29 UNL     1       3.942   2.483   9.081  1.00  0.00     0.167 HD
ENDBRANCH  32  34
ENDBRANCH  31  32
ENDBRANCH  26  31
ENDBRANCH  22  24
ENDBRANCH  20  21
ENDBRANCH   1  19
TORSDOF 14
ENDMDL
MODEL 3
REMARK minimizedAffinity -8.21018982
REMARK  14 active torsions:
REMARK  status: ('A' for Active; 'I' for Inactive)
REMARK    1  A    between atoms: O1_2  and  C2_3 
REMARK    2  A    between atoms: C2_3  and  C3_4 
REMARK    3  A    between atoms: C2_3  and  C24_30 
REMARK    4  A    between atoms: C3_4  and  C5_6 
REMARK    5  A    between atoms: C6_8  and  C8_10 
REMARK    6  A    between atoms: C8_10  and  C9_11 
REMARK    7  A    between atoms: C9_11  and  O3_13 
REMARK    8  A    between atoms: C9_11  and  C11_14 
REMARK    9  A    between atoms: C12_15  and  C13_16 
REMARK   10  A    between atoms: C14_17  and  C16_19 
REMARK   11  A    between atoms: C17_21  and  C18_22 
REMARK   12  A    between atoms: C18_22  and  C19_23 
REMARK   13  A    between atoms: C19_23  and  O6_25 
REMARK   14  A    between atoms: C24_30  and  O7_32 
ROOT
HETATM    1  C9  UNL     1      -4.738   3.264  11.755  1.00  0.00     0.075 C 
HETATM    2  C10 UNL     1      -4.457   1.762  11.645  1.00  0.00     0.050 C 
ENDROOT
BRANCH   1   3
HETATM    3  C8  UNL     1      -5.154   3.696  13.184  1.00  0.00     0.082 C 
BRANCH   3   4
HETATM    4  C6  UNL     1      -6.645   3.879  13.397  1.00  0.00     0.087 A 
HETATM    5  C5  UNL     1      -7.177   5.287  13.650  1.00  0.00     0.163 A 
HETATM    6  O2  UNL     1      -6.973   4.360  14.718  1.00  0.00    -0.369 OA
HETATM    7  C7  UNL     1      -7.550   2.754  12.980  1.00  0.00     0.049 C 
BRANCH   5   8
HETATM    8  C3  UNL     1      -8.607   5.683  13.373  1.00  0.00     0.045 C 
HETATM    9  C4  UNL     1      -8.779   5.824  11.852  1.00  0.00     0.015 C 
BRANCH   8  10
HETATM   10  C2  UNL     1      -8.971   7.000  14.115  1.00  0.00     0.155 C 
BRANCH  10  11
HETATM   11  O1  UNL     1     -10.242   7.481  13.634  1.00  0.00    -0.388 OA
HETATM   12  C1  UNL     1     -11.321   6.607  13.934  1.00  0.00     0.202 C 
ENDBRANCH  10  11
BRANCH  10  13
HETATM   13  C24 UNL     1      -9.051   6.803  15.654  1.00  0.00     0.143 C 
HETATM   14  C25 UNL     1      -7.754   7.189  16.358  1.00  0.00     0.042 C 
BRANCH  13  15
HETATM   15  O7  UNL     1     -10.110   7.583  16.217  1.00  0.00    -0.393 OA
HETATM   16  H42 UNL     1     -10.165   7.359  17.161  1.00  0.00     0.210 HD
ENDBRANCH  13  15
ENDBRANCH  10  13
ENDBRANCH   8  10
ENDBRANCH   5   8
ENDBRANCH   3   4
ENDBRANCH   1   3
BRANCH   1  17
HETATM   17  O3  UNL     1      -5.811   3.556  10.849  1.00  0.00    -0.386 OA
HETATM   18  H18 UNL     1      -5.455   3.453   9.948  1.00  0.00     0.211 HD
ENDBRANCH   1  17
BRANCH   1  19
HETATM   19  C11 UNL     1      -3.587   4.145  11.302  1.00  0.00     0.010 C 
HETATM   20  C12 UNL     1      -2.278   3.987  11.566  1.00  0.00    -0.001 C 
BRANCH  20  21
HETATM   21  C13 UNL     1      -1.270   4.871  11.024  1.00  0.00     0.005 C 
HETATM   22  C14 UNL     1      -0.194   5.376  11.664  1.00  0.00    -0.055 C 
HETATM   23  C15 UNL     1       0.140   5.138  13.114  1.00  0.00     0.046 C 
BRANCH  22  24
HETATM   24  C16 UNL     1       0.824   6.235  10.921  1.00  0.00     0.154 C 
HETATM   25  O4  UNL     1       1.458   5.397   9.939  1.00  0.00    -0.375 OA
HETATM   26  C17 UNL     1       2.555   6.043   9.278  1.00  0.00     0.132 C 
HETATM   27  C20 UNL     1       2.032   7.255   8.501  1.00  0.00     0.033 C 
HETATM   28  C21 UNL     1       1.295   8.211   9.432  1.00  0.00     0.009 C 
HETATM   29  C22 UNL     1       0.208   7.473  10.230  1.00  0.00     0.015 C 
HETATM   30  C23 UNL     1      -0.465   8.436  11.207  1.00  0.00     0.012 C 
BRANCH  26  31
HETATM   31  C18 UNL     1       3.196   5.006   8.357  1.00  0.00     0.141 C 
BRANCH  31  32
HETATM   32  C19 UNL     1       3.936   3.954   9.128  1.00  0.00     0.141 C 
HETATM   33  O5  UNL     1       5.127   3.702   9.079  1.00  0.00    -0.650 OA
BRANCH  32  34
HETATM   34  O6  UNL     1       3.126   3.266   9.956  1.00  0.00    -0.776 OA
HETATM   35  H29 UNL     1       3.724   2.633  10.408  1.00  0.00     0.167 HD
ENDBRANCH  32  34
ENDBRANCH  31  32
ENDBRANCH  26  31
ENDBRANCH  22  24
ENDBRANCH  20  21
ENDBRANCH   1  19
TORSDOF 14
ENDMDL
MODEL 4
REMARK minimizedAffinity -8.15573597
REMARK  14 active torsions:
REMARK  status: ('A' for Active; 'I' for Inactive)
REMARK    1  A    between atoms: O1_2  and  C2_3 
REMARK    2  A    between atoms: C2_3  and  C3_4 
REMARK    3  A    between atoms: C2_3  and  C24_30 
REMARK    4  A    between atoms: C3_4  and  C5_6 
REMARK    5  A    between atoms: C6_8  and  C8_10 
REMARK    6  A    between atoms: C8_10  and  C9_11 
REMARK    7  A    between atoms: C9_11  and  O3_13 
REMARK    8  A    between atoms: C9_11  and  C11_14 
REMARK    9  A    between atoms: C12_15  and  C13_16 
REMARK   10  A    between atoms: C14_17  and  C16_19 
REMARK   11  A    between atoms: C17_21  and  C18_22 
REMARK   12  A    between atoms: C18_22  and  C19_23 
REMARK   13  A    between atoms: C19_23  and  O6_25 
REMARK   14  A    between atoms: C24_30  and  O7_32 
ROOT
HETATM    1  C9  UNL     1      -1.102   9.662  14.105  1.00  0.00     0.075 C 
HETATM    2  C10 UNL     1      -1.021  10.521  15.371  1.00  0.00     0.050 C 
ENDROOT
BRANCH   1   3
HETATM    3  C8  UNL     1       0.221   8.913  13.801  1.00  0.00     0.082 C 
BRANCH   3   4
HETATM    4  C6  UNL     1       0.382   8.438  12.369  1.00  0.00     0.087 A 
HETATM    5  C5  UNL     1       1.444   7.385  12.066  1.00  0.00     0.163 A 
HETATM    6  O2  UNL     1       1.668   8.771  11.804  1.00  0.00    -0.369 OA
HETATM    7  C7  UNL     1      -0.735   8.735  11.409  1.00  0.00     0.049 C 
BRANCH   5   8
HETATM    8  C3  UNL     1       1.377   6.479  10.861  1.00  0.00     0.045 C 
HETATM    9  C4  UNL     1       1.315   5.026  11.356  1.00  0.00     0.015 C 
BRANCH   8  10
HETATM   10  C2  UNL     1       2.596   6.713   9.924  1.00  0.00     0.155 C 
BRANCH  10  11
HETATM   11  O1  UNL     1       3.713   5.933  10.394  1.00  0.00    -0.388 OA
HETATM   12  C1  UNL     1       4.856   6.719  10.698  1.00  0.00     0.202 C 
ENDBRANCH  10  11
BRANCH  10  13
HETATM   13  C24 UNL     1       2.286   6.323   8.452  1.00  0.00     0.143 C 
HETATM   14  C25 UNL     1       2.387   7.513   7.502  1.00  0.00     0.042 C 
BRANCH  13  15
HETATM   15  O7  UNL     1       3.185   5.310   7.990  1.00  0.00    -0.393 OA
HETATM   16  H42 UNL     1       2.894   5.050   7.100  1.00  0.00     0.210 HD
ENDBRANCH  13  15
ENDBRANCH  10  13
ENDBRANCH   8  10
ENDBRANCH   5   8
ENDBRANCH   3   4
ENDBRANCH   1   3
BRANCH   1  17
HETATM   17  O3  UNL     1      -1.396  10.549  13.016  1.00  0.00    -0.386 OA
HETATM   18  H18 UNL     1      -2.311  10.857  13.144  1.00  0.00     0.211 HD
ENDBRANCH   1  17
BRANCH   1  19
HETATM   19  C11 UNL     1      -2.235   8.653  14.112  1.00  0.00     0.010 C 
HETATM   20  C12 UNL     1      -3.473   8.803  13.607  1.00  0.00    -0.001 C 
BRANCH  20  21
HETATM   21  C13 UNL     1      -4.448   7.735  13.629  1.00  0.00     0.005 C 
HETATM   22  C14 UNL     1      -4.242   6.432  13.345  1.00  0.00    -0.055 C 
HETATM   23  C15 UNL     1      -2.930   5.841  12.899  1.00  0.00     0.046 C 
BRANCH  22  24
HETATM   24  C16 UNL     1      -5.368   5.413  13.494  1.00  0.00     0.154 C 
HETATM   25  O4  UNL     1      -6.609   6.111  13.293  1.00  0.00    -0.375 OA
HETATM   26  C17 UNL     1      -7.759   5.299  13.567  1.00  0.00     0.132 C 
HETATM   27  C20 UNL     1      -7.790   4.124  12.585  1.00  0.00     0.033 C 
HETATM   28  C21 UNL     1      -6.499   3.318  12.672  1.00  0.00     0.009 C 
HETATM   29  C22 UNL     1      -5.271   4.228  12.506  1.00  0.00     0.015 C 
HETATM   30  C23 UNL     1      -3.991   3.411  12.670  1.00  0.00     0.012 C 
BRANCH  26  31
HETATM   31  C18 UNL     1      -8.986   6.197  13.425  1.00  0.00     0.141 C 
BRANCH  31  32
HETATM   32  C19 UNL     1      -9.215   7.030  14.650  1.00  0.00     0.141 C 
HETATM   33  O5  UNL     1      -8.561   7.986  15.027  1.00  0.00    -0.650 OA
BRANCH  32  34
HETATM   34  O6  UNL     1     -10.293   6.623  15.349  1.00  0.00    -0.776 OA
HETATM   35  H29 UNL     1     -10.343   7.249  16.103  1.00  0.00     0.167 HD
ENDBRANCH  32  34
ENDBRANCH  31  32
ENDBRANCH  26  31
ENDBRANCH  22  24
ENDBRANCH  20  21
ENDBRANCH   1  19
TORSDOF 14
ENDMDL
MODEL 5
REMARK minimizedAffinity -8.1395607
REMARK  14 active torsions:
REMARK  status: ('A' for Active; 'I' for Inactive)
REMARK    1  A    between atoms: O1_2  and  C2_3 
REMARK    2  A    between atoms: C2_3  and  C3_4 
REMARK    3  A    between atoms: C2_3  and  C24_30 
REMARK    4  A    between atoms: C3_4  and  C5_6 
REMARK    5  A    between atoms: C6_8  and  C8_10 
REMARK    6  A    between atoms: C8_10  and  C9_11 
REMARK    7  A    between atoms: C9_11  and  O3_13 
REMARK    8  A    between atoms: C9_11  and  C11_14 
REMARK    9  A    between atoms: C12_15  and  C13_16 
REMARK   10  A    between atoms: C14_17  and  C16_19 
REMARK   11  A    between atoms: C17_21  and  C18_22 
REMARK   12  A    between atoms: C18_22  and  C19_23 
REMARK   13  A    between atoms: C19_23  and  O6_25 
REMARK   14  A    between atoms: C24_30  and  O7_32 
ROOT
HETATM    1  C9  UNL     1      -0.440   8.274  12.213  1.00  0.00     0.075 C 
HETATM    2  C10 UNL     1       0.822   7.650  12.818  1.00  0.00     0.050 C 
ENDROOT
BRANCH   1   3
HETATM    3  C8  UNL     1      -0.319   8.518  10.687  1.00  0.00     0.082 C 
BRANCH   3   4
HETATM    4  C6  UNL     1       0.688   7.639   9.969  1.00  0.00     0.087 A 
HETATM    5  C5  UNL     1       1.846   8.308   9.233  1.00  0.00     0.163 A 
HETATM    6  O2  UNL     1       0.690   7.834   8.539  1.00  0.00    -0.369 OA
HETATM    7  C7  UNL     1       0.714   6.179  10.326  1.00  0.00     0.049 C 
BRANCH   5   8
HETATM    8  C3  UNL     1       3.143   7.598   8.933  1.00  0.00     0.045 C 
HETATM    9  C4  UNL     1       2.826   6.123   8.642  1.00  0.00     0.015 C 
BRANCH   8  10
HETATM   10  C2  UNL     1       4.142   7.746  10.115  1.00  0.00     0.155 C 
BRANCH  10  11
HETATM   11  O1  UNL     1       3.581   8.631  11.104  1.00  0.00    -0.388 OA
HETATM   12  C1  UNL     1       4.534   9.526  11.660  1.00  0.00     0.202 C 
ENDBRANCH  10  11
BRANCH  10  13
HETATM   13  C24 UNL     1       4.467   6.381  10.782  1.00  0.00     0.143 C 
HETATM   14  C25 UNL     1       5.954   6.221  11.085  1.00  0.00     0.042 C 
BRANCH  13  15
HETATM   15  O7  UNL     1       3.747   6.223  12.008  1.00  0.00    -0.393 OA
HETATM   16  H42 UNL     1       3.924   5.326  12.335  1.00  0.00     0.210 HD
ENDBRANCH  13  15
ENDBRANCH  10  13
ENDBRANCH   8  10
ENDBRANCH   5   8
ENDBRANCH   3   4
ENDBRANCH   1   3
BRANCH   1  17
HETATM   17  O3  UNL     1      -0.639   9.533  12.872  1.00  0.00    -0.386 OA
HETATM   18  H18 UNL     1      -0.898   9.332  13.789  1.00  0.00     0.211 HD
ENDBRANCH   1  17
BRANCH   1  19
HETATM   19  C11 UNL     1      -1.709   7.484  12.475  1.00  0.00     0.010 C 
HETATM   20  C12 UNL     1      -1.813   6.201  12.862  1.00  0.00    -0.001 C 
BRANCH  20  21
HETATM   21  C13 UNL     1      -3.090   5.579  13.133  1.00  0.00     0.005 C 
HETATM   22  C14 UNL     1      -3.696   4.607  12.419  1.00  0.00    -0.055 C 
HETATM   23  C15 UNL     1      -3.157   4.005  11.147  1.00  0.00     0.046 C 
BRANCH  22  24
HETATM   24  C16 UNL     1      -5.014   3.999  12.888  1.00  0.00     0.154 C 
HETATM   25  O4  UNL     1      -5.930   5.084  13.120  1.00  0.00    -0.375 OA
HETATM   26  C17 UNL     1      -7.160   4.660  13.723  1.00  0.00     0.132 C 
HETATM   27  C20 UNL     1      -7.888   3.711  12.765  1.00  0.00     0.033 C 
HETATM   28  C21 UNL     1      -6.999   2.526  12.407  1.00  0.00     0.009 C 
HETATM   29  C22 UNL     1      -5.634   3.001  11.884  1.00  0.00     0.015 C 
HETATM   30  C23 UNL     1      -4.737   1.797  11.601  1.00  0.00     0.012 C 
BRANCH  26  31
HETATM   31  C18 UNL     1      -7.976   5.919  14.011  1.00  0.00     0.141 C 
BRANCH  31  32
HETATM   32  C19 UNL     1      -7.997   6.248  15.473  1.00  0.00     0.141 C 
HETATM   33  O5  UNL     1      -7.578   7.258  16.010  1.00  0.00    -0.650 OA
BRANCH  32  34
HETATM   34  O6  UNL     1      -8.577   5.277  16.206  1.00  0.00    -0.776 OA
HETATM   35  H29 UNL     1      -8.544   5.616  17.126  1.00  0.00     0.167 HD
ENDBRANCH  32  34
ENDBRANCH  31  32
ENDBRANCH  26  31
ENDBRANCH  22  24
ENDBRANCH  20  21
ENDBRANCH   1  19
TORSDOF 14
ENDMDL
MODEL 6
REMARK minimizedAffinity -8.11382008
REMARK  14 active torsions:
REMARK  status: ('A' for Active; 'I' for Inactive)
REMARK    1  A    between atoms: O1_2  and  C2_3 
REMARK    2  A    between atoms: C2_3  and  C3_4 
REMARK    3  A    between atoms: C2_3  and  C24_30 
REMARK    4  A    between atoms: C3_4  and  C5_6 
REMARK    5  A    between atoms: C6_8  and  C8_10 
REMARK    6  A    between atoms: C8_10  and  C9_11 
REMARK    7  A    between atoms: C9_11  and  O3_13 
REMARK    8  A    between atoms: C9_11  and  C11_14 
REMARK    9  A    between atoms: C12_15  and  C13_16 
REMARK   10  A    between atoms: C14_17  and  C16_19 
REMARK   11  A    between atoms: C17_21  and  C18_22 
REMARK   12  A    between atoms: C18_22  and  C19_23 
REMARK   13  A    between atoms: C19_23  and  O6_25 
REMARK   14  A    between atoms: C24_30  and  O7_32 
ROOT
HETATM    1  C9  UNL     1      -0.972   8.917  12.835  1.00  0.00     0.075 C 
HETATM    2  C10 UNL     1       0.104   8.558  13.864  1.00  0.00     0.050 C 
ENDROOT
BRANCH   1   3
HETATM    3  C8  UNL     1      -0.442   8.902  11.379  1.00  0.00     0.082 C 
BRANCH   3   4
HETATM    4  C6  UNL     1       1.001   8.462  11.219  1.00  0.00     0.087 A 
HETATM    5  C5  UNL     1       1.394   7.697   9.959  1.00  0.00     0.163 A 
HETATM    6  O2  UNL     1       1.155   7.027  11.198  1.00  0.00    -0.369 OA
HETATM    7  C7  UNL     1       2.028   9.114  12.102  1.00  0.00     0.049 C 
BRANCH   5   8
HETATM    8  C3  UNL     1       2.809   7.652   9.437  1.00  0.00     0.045 C 
HETATM    9  C4  UNL     1       2.756   7.704   7.902  1.00  0.00     0.015 C 
BRANCH   8  10
HETATM   10  C2  UNL     1       3.546   6.378   9.941  1.00  0.00     0.155 C 
BRANCH  10  11
HETATM   11  O1  UNL     1       3.716   5.462   8.842  1.00  0.00    -0.388 OA
HETATM   12  C1  UNL     1       3.780   4.103   9.250  1.00  0.00     0.202 C 
ENDBRANCH  10  11
BRANCH  10  13
HETATM   13  C24 UNL     1       4.937   6.708  10.548  1.00  0.00     0.143 C 
HETATM   14  C25 UNL     1       5.221   8.208  10.571  1.00  0.00     0.042 C 
BRANCH  13  15
HETATM   15  O7  UNL     1       5.041   6.218  11.889  1.00  0.00    -0.393 OA
HETATM   16  H42 UNL     1       5.952   6.379  12.186  1.00  0.00     0.210 HD
ENDBRANCH  13  15
ENDBRANCH  10  13
ENDBRANCH   8  10
ENDBRANCH   5   8
ENDBRANCH   3   4
ENDBRANCH   1   3
BRANCH   1  17
HETATM   17  O3  UNL     1      -1.428  10.240  13.152  1.00  0.00    -0.386 OA
HETATM   18  H18 UNL     1      -1.921  10.174  13.989  1.00  0.00     0.211 HD
ENDBRANCH   1  17
BRANCH   1  19
HETATM   19  C11 UNL     1      -2.212   8.044  12.904  1.00  0.00     0.010 C 
HETATM   20  C12 UNL     1      -2.306   6.784  13.365  1.00  0.00    -0.001 C 
BRANCH  20  21
HETATM   21  C13 UNL     1      -3.566   6.078  13.429  1.00  0.00     0.005 C 
HETATM   22  C14 UNL     1      -4.806   6.606  13.341  1.00  0.00    -0.055 C 
HETATM   23  C15 UNL     1      -5.112   8.075  13.200  1.00  0.00     0.046 C 
BRANCH  22  24
HETATM   24  C16 UNL     1      -6.039   5.708  13.346  1.00  0.00     0.154 C 
HETATM   25  O4  UNL     1      -5.673   4.472  12.709  1.00  0.00    -0.375 OA
HETATM   26  C17 UNL     1      -6.790   3.597  12.502  1.00  0.00     0.132 C 
HETATM   27  C20 UNL     1      -7.374   3.197  13.860  1.00  0.00     0.033 C 
HETATM   28  C21 UNL     1      -7.769   4.434  14.659  1.00  0.00     0.009 C 
HETATM   29  C22 UNL     1      -6.595   5.421  14.760  1.00  0.00     0.015 C 
HETATM   30  C23 UNL     1      -7.037   6.682  15.500  1.00  0.00     0.012 C 
BRANCH  26  31
HETATM   31  C18 UNL     1      -6.275   2.389  11.722  1.00  0.00     0.141 C 
BRANCH  31  32
HETATM   32  C19 UNL     1      -4.844   2.560  11.307  1.00  0.00     0.141 C 
HETATM   33  O5  UNL     1      -3.855   2.108  11.857  1.00  0.00    -0.650 OA
BRANCH  32  34
HETATM   34  O6  UNL     1      -4.724   3.292  10.182  1.00  0.00    -0.776 OA
HETATM   35  H29 UNL     1      -3.759   3.314  10.010  1.00  0.00     0.167 HD
ENDBRANCH  32  34
ENDBRANCH  31  32
ENDBRANCH  26  31
ENDBRANCH  22  24
ENDBRANCH  20  21
ENDBRANCH   1  19
TORSDOF 14
ENDMDL
MODEL 7
REMARK minimizedAffinity -8.08903503
REMARK  14 active torsions:
REMARK  status: ('A' for Active; 'I' for Inactive)
REMARK    1  A    between atoms: O1_2  and  C2_3 
REMARK    2  A    between atoms: C2_3  and  C3_4 
REMARK    3  A    between atoms: C2_3  and  C24_30 
REMARK    4  A    between atoms: C3_4  and  C5_6 
REMARK    5  A    between atoms: C6_8  and  C8_10 
REMARK    6  A    between atoms: C8_10  and  C9_11 
REMARK    7  A    between atoms: C9_11  and  O3_13 
REMARK    8  A    between atoms: C9_11  and  C11_14 
REMARK    9  A    between atoms: C12_15  and  C13_16 
REMARK   10  A    between atoms: C14_17  and  C16_19 
REMARK   11  A    between atoms: C17_21  and  C18_22 
REMARK   12  A    between atoms: C18_22  and  C19_23 
REMARK   13  A    between atoms: C19_23  and  O6_25 
REMARK   14  A    between atoms: C24_30  and  O7_32 
ROOT
HETATM    1  C9  UNL     1       0.825   5.689  11.384  1.00  0.00     0.075 C 
HETATM    2  C10 UNL     1       0.837   6.551  10.118  1.00  0.00     0.050 C 
ENDROOT
BRANCH   1   3
HETATM    3  C8  UNL     1       1.675   6.293  12.531  1.00  0.00     0.082 C 
BRANCH   3   4
HETATM    4  C6  UNL     1       2.508   7.504  12.151  1.00  0.00     0.087 A 
HETATM    5  C5  UNL     1       3.916   7.278  11.608  1.00  0.00     0.163 A 
HETATM    6  O2  UNL     1       3.688   7.657  12.967  1.00  0.00    -0.369 OA
HETATM    7  C7  UNL     1       1.790   8.812  11.971  1.00  0.00     0.049 C 
BRANCH   5   8
HETATM    8  C3  UNL     1       4.630   8.288  10.744  1.00  0.00     0.045 C 
HETATM    9  C4  UNL     1       3.982   8.271   9.351  1.00  0.00     0.015 C 
BRANCH   8  10
HETATM   10  C2  UNL     1       6.152   7.977  10.670  1.00  0.00     0.155 C 
BRANCH  10  11
HETATM   11  O1  UNL     1       6.895   9.128  11.117  1.00  0.00    -0.388 OA
HETATM   12  C1  UNL     1       6.073  10.254  11.389  1.00  0.00     0.202 C 
ENDBRANCH  10  11
BRANCH  10  13
HETATM   13  C24 UNL     1       6.542   6.751  11.541  1.00  0.00     0.143 C 
HETATM   14  C25 UNL     1       6.803   7.130  12.996  1.00  0.00     0.042 C 
BRANCH  13  15
HETATM   15  O7  UNL     1       5.510   5.759  11.522  1.00  0.00    -0.393 OA
HETATM   16  H42 UNL     1       5.841   4.988  12.012  1.00  0.00     0.210 HD
ENDBRANCH  13  15
ENDBRANCH  10  13
ENDBRANCH   8  10
ENDBRANCH   5   8
ENDBRANCH   3   4
ENDBRANCH   1   3
BRANCH   1  17
HETATM   17  O3  UNL     1       1.369   4.411  11.025  1.00  0.00    -0.386 OA
HETATM   18  H18 UNL     1       0.714   3.980  10.447  1.00  0.00     0.211 HD
ENDBRANCH   1  17
BRANCH   1  19
HETATM   19  C11 UNL     1      -0.564   5.393  11.920  1.00  0.00     0.010 C 
HETATM   20  C12 UNL     1      -1.283   4.268  11.762  1.00  0.00    -0.001 C 
BRANCH  20  21
HETATM   21  C13 UNL     1      -2.580   4.090  12.376  1.00  0.00     0.005 C 
HETATM   22  C14 UNL     1      -3.746   3.802  11.759  1.00  0.00    -0.055 C 
HETATM   23  C15 UNL     1      -3.922   3.651  10.271  1.00  0.00     0.046 C 
BRANCH  22  24
HETATM   24  C16 UNL     1      -5.019   3.566  12.566  1.00  0.00     0.154 C 
HETATM   25  O4  UNL     1      -5.532   4.855  12.946  1.00  0.00    -0.375 OA
HETATM   26  C17 UNL     1      -6.643   4.771  13.850  1.00  0.00     0.132 C 
HETATM   27  C20 UNL     1      -7.807   4.059  13.152  1.00  0.00     0.033 C 
HETATM   28  C21 UNL     1      -7.375   2.682  12.662  1.00  0.00     0.009 C 
HETATM   29  C22 UNL     1      -6.106   2.778  11.800  1.00  0.00     0.015 C 
HETATM   30  C23 UNL     1      -5.653   1.380  11.382  1.00  0.00     0.012 C 
BRANCH  26  31
HETATM   31  C18 UNL     1      -7.004   6.200  14.250  1.00  0.00     0.141 C 
BRANCH  31  32
HETATM   32  C19 UNL     1      -6.638   6.490  15.675  1.00  0.00     0.141 C 
HETATM   33  O5  UNL     1      -6.945   5.846  16.663  1.00  0.00    -0.650 OA
BRANCH  32  34
HETATM   34  O6  UNL     1      -5.871   7.593  15.790  1.00  0.00    -0.776 OA
HETATM   35  H29 UNL     1      -5.690   7.661  16.752  1.00  0.00     0.167 HD
ENDBRANCH  32  34
ENDBRANCH  31  32
ENDBRANCH  26  31
ENDBRANCH  22  24
ENDBRANCH  20  21
ENDBRANCH   1  19
TORSDOF 14
ENDMDL
MODEL 8
REMARK minimizedAffinity -8.07748508
REMARK  14 active torsions:
REMARK  status: ('A' for Active; 'I' for Inactive)
REMARK    1  A    between atoms: O1_2  and  C2_3 
REMARK    2  A    between atoms: C2_3  and  C3_4 
REMARK    3  A    between atoms: C2_3  and  C24_30 
REMARK    4  A    between atoms: C3_4  and  C5_6 
REMARK    5  A    between atoms: C6_8  and  C8_10 
REMARK    6  A    between atoms: C8_10  and  C9_11 
REMARK    7  A    between atoms: C9_11  and  O3_13 
REMARK    8  A    between atoms: C9_11  and  C11_14 
REMARK    9  A    between atoms: C12_15  and  C13_16 
REMARK   10  A    between atoms: C14_17  and  C16_19 
REMARK   11  A    between atoms: C17_21  and  C18_22 
REMARK   12  A    between atoms: C18_22  and  C19_23 
REMARK   13  A    between atoms: C19_23  and  O6_25 
REMARK   14  A    between atoms: C24_30  and  O7_32 
ROOT
HETATM    1  C9  UNL     1      -0.050   8.325  13.013  1.00  0.00     0.075 C 
HETATM    2  C10 UNL     1       0.164   9.092  14.321  1.00  0.00     0.050 C 
ENDROOT
BRANCH   1   3
HETATM    3  C8  UNL     1       1.197   7.511  12.582  1.00  0.00     0.082 C 
BRANCH   3   4
HETATM    4  C6  UNL     1       1.433   7.432  11.085  1.00  0.00     0.087 A 
HETATM    5  C5  UNL     1       2.822   7.767  10.548  1.00  0.00     0.163 A 
HETATM    6  O2  UNL     1       1.751   8.710  10.494  1.00  0.00    -0.369 OA
HETATM    7  C7  UNL     1       0.427   6.679  10.262  1.00  0.00     0.049 C 
BRANCH   5   8
HETATM    8  C3  UNL     1       3.331   7.257   9.222  1.00  0.00     0.045 C 
HETATM    9  C4  UNL     1       2.734   8.134   8.111  1.00  0.00     0.015 C 
BRANCH   8  10
HETATM   10  C2  UNL     1       2.965   5.758   9.027  1.00  0.00     0.155 C 
BRANCH  10  11
HETATM   11  O1  UNL     1       3.060   5.424   7.628  1.00  0.00    -0.388 OA
HETATM   12  C1  UNL     1       3.633   4.145   7.396  1.00  0.00     0.202 C 
ENDBRANCH  10  11
BRANCH  10  13
HETATM   13  C24 UNL     1       3.896   4.817   9.839  1.00  0.00     0.143 C 
HETATM   14  C25 UNL     1       4.188   3.512   9.104  1.00  0.00     0.042 C 
BRANCH  13  15
HETATM   15  O7  UNL     1       5.145   5.453  10.126  1.00  0.00    -0.393 OA
HETATM   16  H42 UNL     1       5.650   4.854  10.700  1.00  0.00     0.210 HD
ENDBRANCH  13  15
ENDBRANCH  10  13
ENDBRANCH   8  10
ENDBRANCH   5   8
ENDBRANCH   3   4
ENDBRANCH   1   3
BRANCH   1  17
HETATM   17  O3  UNL     1      -0.344   9.298  12.001  1.00  0.00    -0.386 OA
HETATM   18  H18 UNL     1      -1.226   9.657  12.205  1.00  0.00     0.211 HD
ENDBRANCH   1  17
BRANCH   1  19
HETATM   19  C11 UNL     1      -1.249   7.394  13.028  1.00  0.00     0.010 C 
HETATM   20  C12 UNL     1      -2.551   7.731  13.035  1.00  0.00    -0.001 C 
BRANCH  20  21
HETATM   21  C13 UNL     1      -3.603   6.741  12.992  1.00  0.00     0.005 C 
HETATM   22  C14 UNL     1      -4.248   6.184  14.040  1.00  0.00    -0.055 C 
HETATM   23  C15 UNL     1      -3.950   6.471  15.489  1.00  0.00     0.046 C 
BRANCH  22  24
HETATM   24  C16 UNL     1      -5.398   5.207  13.820  1.00  0.00     0.154 C 
HETATM   25  O4  UNL     1      -6.599   5.983  13.671  1.00  0.00    -0.375 OA
HETATM   26  C17 UNL     1      -7.784   5.176  13.620  1.00  0.00     0.132 C 
HETATM   27  C20 UNL     1      -7.726   4.275  12.382  1.00  0.00     0.033 C 
HETATM   28  C21 UNL     1      -6.464   3.421  12.400  1.00  0.00     0.009 C 
HETATM   29  C22 UNL     1      -5.212   4.293  12.587  1.00  0.00     0.015 C 
HETATM   30  C23 UNL     1      -3.969   3.408  12.676  1.00  0.00     0.012 C 
BRANCH  26  31
HETATM   31  C18 UNL     1      -8.975   6.131  13.577  1.00  0.00     0.141 C 
BRANCH  31  32
HETATM   32  C19 UNL     1      -9.072   6.961  14.822  1.00  0.00     0.141 C 
HETATM   33  O5  UNL     1      -8.886   8.161  14.927  1.00  0.00    -0.650 OA
BRANCH  32  34
HETATM   34  O6  UNL     1      -9.424   6.229  15.897  1.00  0.00    -0.776 OA
HETATM   35  H29 UNL     1      -9.469   6.881  16.628  1.00  0.00     0.167 HD
ENDBRANCH  32  34
ENDBRANCH  31  32
ENDBRANCH  26  31
ENDBRANCH  22  24
ENDBRANCH  20  21
ENDBRANCH   1  19
TORSDOF 14
ENDMDL
MODEL 9
REMARK minimizedAffinity -8.01192665
REMARK  14 active torsions:
REMARK  status: ('A' for Active; 'I' for Inactive)
REMARK    1  A    between atoms: O1_2  and  C2_3 
REMARK    2  A    between atoms: C2_3  and  C3_4 
REMARK    3  A    between atoms: C2_3  and  C24_30 
REMARK    4  A    between atoms: C3_4  and  C5_6 
REMARK    5  A    between atoms: C6_8  and  C8_10 
REMARK    6  A    between atoms: C8_10  and  C9_11 
REMARK    7  A    between atoms: C9_11  and  O3_13 
REMARK    8  A    between atoms: C9_11  and  C11_14 
REMARK    9  A    between atoms: C12_15  and  C13_16 
REMARK   10  A    between atoms: C14_17  and  C16_19 
REMARK   11  A    between atoms: C17_21  and  C18_22 
REMARK   12  A    between atoms: C18_22  and  C19_23 
REMARK   13  A    between atoms: C19_23  and  O6_25 
REMARK   14  A    between atoms: C24_30  and  O7_32 
ROOT
HETATM    1  C9  UNL     1       0.768   5.751  11.243  1.00  0.00     0.075 C 
HETATM    2  C10 UNL     1       0.698   6.668  10.017  1.00  0.00     0.050 C 
ENDROOT
BRANCH   1   3
HETATM    3  C8  UNL     1       1.690   6.307  12.357  1.00  0.00     0.082 C 
BRANCH   3   4
HETATM    4  C6  UNL     1       2.930   7.033  11.870  1.00  0.00     0.087 A 
HETATM    5  C5  UNL     1       3.531   8.123  12.754  1.00  0.00     0.163 A 
HETATM    6  O2  UNL     1       2.706   8.438  11.630  1.00  0.00    -0.369 OA
HETATM    7  C7  UNL     1       3.711   6.400  10.753  1.00  0.00     0.049 C 
BRANCH   5   8
HETATM    8  C3  UNL     1       4.976   8.547  12.661  1.00  0.00     0.045 C 
HETATM    9  C4  UNL     1       5.163   9.330  11.352  1.00  0.00     0.015 C 
BRANCH   8  10
HETATM   10  C2  UNL     1       5.921   7.314  12.730  1.00  0.00     0.155 C 
BRANCH  10  11
HETATM   11  O1  UNL     1       6.923   7.425  11.700  1.00  0.00    -0.388 OA
HETATM   12  C1  UNL     1       7.162   6.203  11.016  1.00  0.00     0.202 C 
ENDBRANCH  10  11
BRANCH  10  13
HETATM   13  C24 UNL     1       6.622   7.189  14.110  1.00  0.00     0.143 C 
HETATM   14  C25 UNL     1       7.374   8.460  14.497  1.00  0.00     0.042 C 
BRANCH  13  15
HETATM   15  O7  UNL     1       5.675   6.905  15.144  1.00  0.00    -0.393 OA
HETATM   16  H42 UNL     1       6.175   6.758  15.963  1.00  0.00     0.210 HD
ENDBRANCH  13  15
ENDBRANCH  10  13
ENDBRANCH   8  10
ENDBRANCH   5   8
ENDBRANCH   3   4
ENDBRANCH   1   3
BRANCH   1  17
HETATM   17  O3  UNL     1       1.287   4.492  10.793  1.00  0.00    -0.386 OA
HETATM   18  H18 UNL     1       0.596   4.085  10.240  1.00  0.00     0.211 HD
ENDBRANCH   1  17
BRANCH   1  19
HETATM   19  C11 UNL     1      -0.584   5.428  11.853  1.00  0.00     0.010 C 
HETATM   20  C12 UNL     1      -1.489   4.532  11.420  1.00  0.00    -0.001 C 
BRANCH  20  21
HETATM   21  C13 UNL     1      -2.722   4.279  12.130  1.00  0.00     0.005 C 
HETATM   22  C14 UNL     1      -3.901   3.878  11.607  1.00  0.00    -0.055 C 
HETATM   23  C15 UNL     1      -4.165   3.657  10.141  1.00  0.00     0.046 C 
BRANCH  22  24
HETATM   24  C16 UNL     1      -5.093   3.575  12.510  1.00  0.00     0.154 C 
HETATM   25  O4  UNL     1      -5.659   4.835  12.911  1.00  0.00    -0.375 OA
HETATM   26  C17 UNL     1      -6.692   4.696  13.897  1.00  0.00     0.132 C 
HETATM   27  C20 UNL     1      -7.855   3.900  13.297  1.00  0.00     0.033 C 
HETATM   28  C21 UNL     1      -7.373   2.545  12.793  1.00  0.00     0.009 C 
HETATM   29  C22 UNL     1      -6.180   2.706  11.837  1.00  0.00     0.015 C 
HETATM   30  C23 UNL     1      -5.670   1.333  11.404  1.00  0.00     0.012 C 
BRANCH  26  31
HETATM   31  C18 UNL     1      -7.114   6.106  14.306  1.00  0.00     0.141 C 
BRANCH  31  32
HETATM   32  C19 UNL     1      -7.582   6.159  15.729  1.00  0.00     0.141 C 
HETATM   33  O5  UNL     1      -8.678   5.844  16.159  1.00  0.00    -0.650 OA
BRANCH  32  34
HETATM   34  O6  UNL     1      -6.621   6.596  16.566  1.00  0.00    -0.776 OA
HETATM   35  H29 UNL     1      -7.042   6.567  17.452  1.00  0.00     0.167 HD
ENDBRANCH  32  34
ENDBRANCH  31  32
ENDBRANCH  26  31
ENDBRANCH  22  24
ENDBRANCH  20  21
ENDBRANCH   1  19
TORSDOF 14
ENDMDL
