MODEL 1
REMARK minimizedAffinity -9.54492378
REMARK  6 active torsions:
REMARK  status: ('A' for Active; 'I' for Inactive)
REMARK    1  A    between atoms: C2_2  and  C30_32 
REMARK    2  A    between atoms: C3_3  and  C4_4 
REMARK    3  A    between atoms: C4_4  and  C5_5 
REMARK    4  A    between atoms: C5_5  and  C6_6 
REMARK    5  A    between atoms: C6_6  and  C8_8 
REMARK    6  A    between atoms: C30_32  and  O4_34 
ROOT
HETATM    1  C8  UNL     1      -0.855  51.841 -21.104  1.00  0.00    -0.002 C 
HETATM    2  C9  UNL     1      -0.260  50.789 -20.125  1.00  0.00     0.007 C 
HETATM    3  C10 UNL     1      -1.382  49.780 -19.809  1.00  0.00     0.015 C 
HETATM    4  C11 UNL     1      -2.679  50.472 -20.266  1.00  0.00    -0.005 C 
HETATM    5  C12 UNL     1      -3.110  51.447 -19.125  1.00  0.00     0.021 C 
HETATM    6  C13 UNL     1      -3.926  49.651 -20.561  1.00  0.00    -0.000 C 
HETATM    7  C14 UNL     1      -4.840  50.065 -21.481  1.00  0.00    -0.060 C 
HETATM    8  C15 UNL     1      -4.607  51.329 -22.307  1.00  0.00     0.036 C 
HETATM    9  C16 UNL     1      -3.290  52.100 -22.076  1.00  0.00     0.015 C 
HETATM   10  C17 UNL     1      -2.170  51.167 -21.594  1.00  0.00    -0.028 C 
HETATM   11  C18 UNL     1      -1.858  50.149 -22.732  1.00  0.00     0.016 C 
HETATM   12  C19 UNL     1      -6.166  49.295 -21.691  1.00  0.00    -0.014 C 
HETATM   13  C20 UNL     1      -7.118  49.824 -20.586  1.00  0.00     0.020 C 
HETATM   14  C21 UNL     1      -6.888  49.530 -23.054  1.00  0.00     0.021 C 
HETATM   15  C22 UNL     1      -6.523  48.502 -24.114  1.00  0.00     0.080 C 
HETATM   16  C23 UNL     1      -7.000  47.135 -23.662  1.00  0.00     0.135 C 
HETATM   17  O1  UNL     1      -7.524  46.362 -24.465  1.00  0.00    -0.297 OA
HETATM   18  C24 UNL     1      -6.790  46.761 -22.181  1.00  0.00     0.018 C 
HETATM   19  C25 UNL     1      -8.160  46.730 -21.496  1.00  0.00     0.023 C 
HETATM   20  C26 UNL     1      -6.200  45.335 -22.149  1.00  0.00     0.023 C 
HETATM   21  C27 UNL     1      -5.778  47.779 -21.566  1.00  0.00     0.020 C 
HETATM   22  C28 UNL     1      -5.298  47.473 -20.146  1.00  0.00     0.090 C 
HETATM   23  C29 UNL     1      -4.192  48.426 -19.730  1.00  0.00     0.157 C 
HETATM   24  O2  UNL     1      -3.542  48.198 -18.711  1.00  0.00    -0.293 OA
ENDROOT
BRANCH   1  25
HETATM   25  C6  UNL     1       0.198  52.467 -22.068  1.00  0.00    -0.014 C 
HETATM   26  C7  UNL     1       1.676  52.243 -21.726  1.00  0.00     0.010 C 
BRANCH  25  27
HETATM   27  C5  UNL     1      -0.084  52.086 -23.539  1.00  0.00     0.008 C 
BRANCH  27  28
HETATM   28  C4  UNL     1       0.667  52.963 -24.547  1.00  0.00     0.028 C 
BRANCH  28  29
HETATM   29  C3  UNL     1       0.309  52.591 -25.962  1.00  0.00    -0.013 C 
HETATM   30  C2  UNL     1       1.065  51.953 -26.876  1.00  0.00     0.008 C 
HETATM   31  C1  UNL     1       0.518  51.575 -28.224  1.00  0.00     0.055 C 
BRANCH  30  32
HETATM   32  C30 UNL     1       2.472  51.539 -26.672  1.00  0.00     0.171 C 
HETATM   33  O3  UNL     1       2.839  50.636 -25.939  1.00  0.00    -0.646 OA
BRANCH  32  34
HETATM   34  O4  UNL     1       3.342  52.193 -27.457  1.00  0.00    -0.773 OA
HETATM   35  H44 UNL     1       4.202  51.782 -27.237  1.00  0.00     0.167 HD
ENDBRANCH  32  34
ENDBRANCH  30  32
ENDBRANCH  28  29
ENDBRANCH  27  28
ENDBRANCH  25  27
ENDBRANCH   1  25
TORSDOF 6
ENDMDL
MODEL 2
REMARK minimizedAffinity -9.47159004
REMARK  6 active torsions:
REMARK  status: ('A' for Active; 'I' for Inactive)
REMARK    1  A    between atoms: C2_2  and  C30_32 
REMARK    2  A    between atoms: C3_3  and  C4_4 
REMARK    3  A    between atoms: C4_4  and  C5_5 
REMARK    4  A    between atoms: C5_5  and  C6_6 
REMARK    5  A    between atoms: C6_6  and  C8_8 
REMARK    6  A    between atoms: C30_32  and  O4_34 
ROOT
HETATM    1  C8  UNL     1      -1.621  51.403 -23.134  1.00  0.00    -0.002 C 
HETATM    2  C9  UNL     1      -2.703  52.372 -23.688  1.00  0.00     0.007 C 
HETATM    3  C10 UNL     1      -4.075  51.725 -23.410  1.00  0.00     0.015 C 
HETATM    4  C11 UNL     1      -3.761  50.253 -23.084  1.00  0.00    -0.005 C 
HETATM    5  C12 UNL     1      -3.582  49.506 -24.443  1.00  0.00     0.021 C 
HETATM    6  C13 UNL     1      -4.761  49.408 -22.310  1.00  0.00    -0.000 C 
HETATM    7  C14 UNL     1      -4.348  48.387 -21.508  1.00  0.00    -0.060 C 
HETATM    8  C15 UNL     1      -2.862  48.106 -21.296  1.00  0.00     0.036 C 
HETATM    9  C16 UNL     1      -1.852  49.035 -22.004  1.00  0.00     0.015 C 
HETATM   10  C17 UNL     1      -2.440  50.435 -22.231  1.00  0.00    -0.028 C 
HETATM   11  C18 UNL     1      -2.699  51.089 -20.840  1.00  0.00     0.016 C 
HETATM   12  C19 UNL     1      -5.369  47.450 -20.819  1.00  0.00    -0.014 C 
HETATM   13  C20 UNL     1      -5.730  46.390 -21.892  1.00  0.00     0.020 C 
HETATM   14  C21 UNL     1      -4.851  46.667 -19.573  1.00  0.00     0.021 C 
HETATM   15  C22 UNL     1      -5.133  47.375 -18.257  1.00  0.00     0.080 C 
HETATM   16  C23 UNL     1      -6.633  47.463 -18.054  1.00  0.00     0.135 C 
HETATM   17  O1  UNL     1      -7.124  47.258 -16.943  1.00  0.00    -0.297 OA
HETATM   18  C24 UNL     1      -7.498  47.828 -19.276  1.00  0.00     0.018 C 
HETATM   19  C25 UNL     1      -8.297  46.586 -19.686  1.00  0.00     0.023 C 
HETATM   20  C26 UNL     1      -8.494  48.917 -18.824  1.00  0.00     0.023 C 
HETATM   21  C27 UNL     1      -6.551  48.388 -20.385  1.00  0.00     0.020 C 
HETATM   22  C28 UNL     1      -7.238  48.976 -21.620  1.00  0.00     0.090 C 
HETATM   23  C29 UNL     1      -6.229  49.644 -22.536  1.00  0.00     0.157 C 
HETATM   24  O2  UNL     1      -6.621  50.351 -23.463  1.00  0.00    -0.293 OA
ENDROOT
BRANCH   1  25
HETATM   25  C6  UNL     1      -0.320  52.120 -22.662  1.00  0.00    -0.014 C 
HETATM   26  C7  UNL     1       0.233  51.727 -21.287  1.00  0.00     0.010 C 
BRANCH  25  27
HETATM   27  C5  UNL     1       0.790  52.043 -23.736  1.00  0.00     0.008 C 
BRANCH  27  28
HETATM   28  C4  UNL     1       0.787  53.237 -24.698  1.00  0.00     0.028 C 
BRANCH  28  29
HETATM   29  C3  UNL     1       0.418  52.809 -26.093  1.00  0.00    -0.013 C 
HETATM   30  C2  UNL     1       1.148  52.092 -26.969  1.00  0.00     0.008 C 
HETATM   31  C1  UNL     1       0.591  51.669 -28.299  1.00  0.00     0.055 C 
BRANCH  30  32
HETATM   32  C30 UNL     1       2.535  51.629 -26.736  1.00  0.00     0.171 C 
HETATM   33  O3  UNL     1       2.851  50.677 -26.042  1.00  0.00    -0.646 OA
BRANCH  32  34
HETATM   34  O4  UNL     1       3.452  52.300 -27.450  1.00  0.00    -0.773 OA
HETATM   35  H44 UNL     1       4.292  51.854 -27.221  1.00  0.00     0.167 HD
ENDBRANCH  32  34
ENDBRANCH  30  32
ENDBRANCH  28  29
ENDBRANCH  27  28
ENDBRANCH  25  27
ENDBRANCH   1  25
TORSDOF 6
ENDMDL
MODEL 3
REMARK minimizedAffinity -9.2660799
REMARK  6 active torsions:
REMARK  status: ('A' for Active; 'I' for Inactive)
REMARK    1  A    between atoms: C2_2  and  C30_32 
REMARK    2  A    between atoms: C3_3  and  C4_4 
REMARK    3  A    between atoms: C4_4  and  C5_5 
REMARK    4  A    between atoms: C5_5  and  C6_6 
REMARK    5  A    between atoms: C6_6  and  C8_8 
REMARK    6  A    between atoms: C30_32  and  O4_34 
ROOT
HETATM    1  C8  UNL     1      -0.985  51.797 -21.048  1.00  0.00    -0.002 C 
HETATM    2  C9  UNL     1      -0.295  50.751 -20.128  1.00  0.00     0.007 C 
HETATM    3  C10 UNL     1      -1.358  49.694 -19.766  1.00  0.00     0.015 C 
HETATM    4  C11 UNL     1      -2.705  50.344 -20.133  1.00  0.00    -0.005 C 
HETATM    5  C12 UNL     1      -3.103  51.281 -18.949  1.00  0.00     0.021 C 
HETATM    6  C13 UNL     1      -3.935  49.482 -20.370  1.00  0.00    -0.000 C 
HETATM    7  C14 UNL     1      -4.917  49.877 -21.227  1.00  0.00    -0.060 C 
HETATM    8  C15 UNL     1      -4.781  51.163 -22.040  1.00  0.00     0.036 C 
HETATM    9  C16 UNL     1      -3.482  51.980 -21.870  1.00  0.00     0.015 C 
HETATM   10  C17 UNL     1      -2.301  51.081 -21.474  1.00  0.00    -0.028 C 
HETATM   11  C18 UNL     1      -2.020  50.097 -22.648  1.00  0.00     0.016 C 
HETATM   12  C19 UNL     1      -6.224  49.061 -21.375  1.00  0.00    -0.014 C 
HETATM   13  C20 UNL     1      -7.128  49.533 -20.206  1.00  0.00     0.020 C 
HETATM   14  C21 UNL     1      -7.034  49.292 -22.688  1.00  0.00     0.021 C 
HETATM   15  C22 UNL     1      -6.695  48.298 -23.788  1.00  0.00     0.080 C 
HETATM   16  C23 UNL     1      -7.093  46.906 -23.336  1.00  0.00     0.135 C 
HETATM   17  O1  UNL     1      -7.634  46.128 -24.123  1.00  0.00    -0.297 OA
HETATM   18  C24 UNL     1      -6.782  46.514 -21.879  1.00  0.00     0.018 C 
HETATM   19  C25 UNL     1      -8.107  46.418 -21.115  1.00  0.00     0.023 C 
HETATM   20  C26 UNL     1      -6.138  45.111 -21.909  1.00  0.00     0.023 C 
HETATM   21  C27 UNL     1      -5.773  47.559 -21.303  1.00  0.00     0.020 C 
HETATM   22  C28 UNL     1      -5.199  47.246 -19.920  1.00  0.00     0.090 C 
HETATM   23  C29 UNL     1      -4.107  48.232 -19.551  1.00  0.00     0.157 C 
HETATM   24  O2  UNL     1      -3.389  48.011 -18.576  1.00  0.00    -0.293 OA
ENDROOT
BRANCH   1  25
HETATM   25  C6  UNL     1      -0.016  52.480 -22.059  1.00  0.00    -0.014 C 
HETATM   26  C7  UNL     1       1.486  52.258 -21.843  1.00  0.00     0.010 C 
BRANCH  25  27
HETATM   27  C5  UNL     1      -0.407  52.164 -23.521  1.00  0.00     0.008 C 
BRANCH  27  28
HETATM   28  C4  UNL     1       0.309  53.051 -24.546  1.00  0.00     0.028 C 
BRANCH  28  29
HETATM   29  C3  UNL     1       0.668  52.271 -25.781  1.00  0.00    -0.013 C 
HETATM   30  C2  UNL     1       0.418  52.580 -27.069  1.00  0.00     0.008 C 
HETATM   31  C1  UNL     1       0.931  51.730 -28.197  1.00  0.00     0.055 C 
BRANCH  30  32
HETATM   32  C30 UNL     1      -0.351  53.761 -27.522  1.00  0.00     0.171 C 
HETATM   33  O3  UNL     1      -0.140  54.912 -27.175  1.00  0.00    -0.646 OA
BRANCH  32  34
HETATM   34  O4  UNL     1      -1.272  53.476 -28.455  1.00  0.00    -0.773 OA
HETATM   35  H44 UNL     1      -1.653  54.350 -28.675  1.00  0.00     0.167 HD
ENDBRANCH  32  34
ENDBRANCH  30  32
ENDBRANCH  28  29
ENDBRANCH  27  28
ENDBRANCH  25  27
ENDBRANCH   1  25
TORSDOF 6
ENDMDL
MODEL 4
REMARK minimizedAffinity -9.0690012
REMARK  6 active torsions:
REMARK  status: ('A' for Active; 'I' for Inactive)
REMARK    1  A    between atoms: C2_2  and  C30_32 
REMARK    2  A    between atoms: C3_3  and  C4_4 
REMARK    3  A    between atoms: C4_4  and  C5_5 
REMARK    4  A    between atoms: C5_5  and  C6_6 
REMARK    5  A    between atoms: C6_6  and  C8_8 
REMARK    6  A    between atoms: C30_32  and  O4_34 
ROOT
HETATM    1  C8  UNL     1      -1.454  51.316 -22.585  1.00  0.00    -0.002 C 
HETATM    2  C9  UNL     1      -2.784  51.914 -23.125  1.00  0.00     0.007 C 
HETATM    3  C10 UNL     1      -3.915  50.951 -22.711  1.00  0.00     0.015 C 
HETATM    4  C11 UNL     1      -3.199  49.647 -22.311  1.00  0.00    -0.005 C 
HETATM    5  C12 UNL     1      -2.893  48.866 -23.628  1.00  0.00     0.021 C 
HETATM    6  C13 UNL     1      -3.895  48.633 -21.415  1.00  0.00    -0.000 C 
HETATM    7  C14 UNL     1      -3.183  47.828 -20.579  1.00  0.00    -0.060 C 
HETATM    8  C15 UNL     1      -1.667  47.969 -20.453  1.00  0.00     0.036 C 
HETATM    9  C16 UNL     1      -0.981  49.072 -21.289  1.00  0.00     0.015 C 
HETATM   10  C17 UNL     1      -1.936  50.242 -21.566  1.00  0.00    -0.028 C 
HETATM   11  C18 UNL     1      -2.292  50.915 -20.206  1.00  0.00     0.016 C 
HETATM   12  C19 UNL     1      -3.878  46.713 -19.760  1.00  0.00    -0.014 C 
HETATM   13  C20 UNL     1      -3.992  45.511 -20.734  1.00  0.00     0.020 C 
HETATM   14  C21 UNL     1      -3.106  46.200 -18.505  1.00  0.00     0.021 C 
HETATM   15  C22 UNL     1      -3.504  46.913 -17.222  1.00  0.00     0.080 C 
HETATM   16  C23 UNL     1      -4.960  46.617 -16.921  1.00  0.00     0.135 C 
HETATM   17  O1  UNL     1      -5.321  46.380 -15.767  1.00  0.00    -0.297 OA
HETATM   18  C24 UNL     1      -5.950  46.638 -18.102  1.00  0.00     0.018 C 
HETATM   19  C25 UNL     1      -6.404  45.199 -18.372  1.00  0.00     0.023 C 
HETATM   20  C26 UNL     1      -7.180  47.456 -17.653  1.00  0.00     0.023 C 
HETATM   21  C27 UNL     1      -5.246  47.337 -19.308  1.00  0.00     0.020 C 
HETATM   22  C28 UNL     1      -6.126  47.617 -20.527  1.00  0.00     0.090 C 
HETATM   23  C29 UNL     1      -5.381  48.452 -21.553  1.00  0.00     0.157 C 
HETATM   24  O2  UNL     1      -5.995  48.951 -22.495  1.00  0.00    -0.293 OA
ENDROOT
BRANCH   1  25
HETATM   25  C6  UNL     1      -0.373  52.388 -22.253  1.00  0.00    -0.014 C 
HETATM   26  C7  UNL     1       0.190  52.392 -20.827  1.00  0.00     0.010 C 
BRANCH  25  27
HETATM   27  C5  UNL     1       0.774  52.375 -23.290  1.00  0.00     0.008 C 
BRANCH  27  28
HETATM   28  C4  UNL     1       0.478  53.225 -24.532  1.00  0.00     0.028 C 
BRANCH  28  29
HETATM   29  C3  UNL     1       0.711  52.441 -25.795  1.00  0.00    -0.013 C 
HETATM   30  C2  UNL     1       0.316  52.736 -27.049  1.00  0.00     0.008 C 
HETATM   31  C1  UNL     1       0.714  51.884 -28.221  1.00  0.00     0.055 C 
BRANCH  30  32
HETATM   32  C30 UNL     1      -0.514  53.904 -27.422  1.00  0.00     0.171 C 
HETATM   33  O3  UNL     1      -1.644  53.847 -27.876  1.00  0.00    -0.646 OA
BRANCH  32  34
HETATM   34  O4  UNL     1       0.053  55.083 -27.121  1.00  0.00    -0.773 OA
HETATM   35  H44 UNL     1      -0.625  55.737 -27.384  1.00  0.00     0.167 HD
ENDBRANCH  32  34
ENDBRANCH  30  32
ENDBRANCH  28  29
ENDBRANCH  27  28
ENDBRANCH  25  27
ENDBRANCH   1  25
TORSDOF 6
ENDMDL
MODEL 5
REMARK minimizedAffinity -9.00722313
REMARK  6 active torsions:
REMARK  status: ('A' for Active; 'I' for Inactive)
REMARK    1  A    between atoms: C2_2  and  C30_32 
REMARK    2  A    between atoms: C3_3  and  C4_4 
REMARK    3  A    between atoms: C4_4  and  C5_5 
REMARK    4  A    between atoms: C5_5  and  C6_6 
REMARK    5  A    between atoms: C6_6  and  C8_8 
REMARK    6  A    between atoms: C30_32  and  O4_34 
ROOT
HETATM    1  C8  UNL     1      -1.511  51.361 -22.229  1.00  0.00    -0.002 C 
HETATM    2  C9  UNL     1      -0.273  51.008 -21.356  1.00  0.00     0.007 C 
HETATM    3  C10 UNL     1      -0.734  49.966 -20.317  1.00  0.00     0.015 C 
HETATM    4  C11 UNL     1      -2.273  50.038 -20.338  1.00  0.00    -0.005 C 
HETATM    5  C12 UNL     1      -2.691  51.249 -19.445  1.00  0.00     0.021 C 
HETATM    6  C13 UNL     1      -3.103  48.874 -19.821  1.00  0.00    -0.000 C 
HETATM    7  C14 UNL     1      -4.340  48.611 -20.327  1.00  0.00    -0.060 C 
HETATM    8  C15 UNL     1      -4.904  49.428 -21.488  1.00  0.00     0.036 C 
HETATM    9  C16 UNL     1      -4.011  50.542 -22.077  1.00  0.00     0.015 C 
HETATM   10  C17 UNL     1      -2.520  50.224 -21.890  1.00  0.00    -0.028 C 
HETATM   11  C18 UNL     1      -2.186  48.946 -22.717  1.00  0.00     0.016 C 
HETATM   12  C19 UNL     1      -5.235  47.505 -19.717  1.00  0.00    -0.014 C 
HETATM   13  C20 UNL     1      -5.932  48.175 -18.505  1.00  0.00     0.020 C 
HETATM   14  C21 UNL     1      -6.367  46.953 -20.637  1.00  0.00     0.021 C 
HETATM   15  C22 UNL     1      -5.959  45.713 -21.416  1.00  0.00     0.080 C 
HETATM   16  C23 UNL     1      -5.678  44.586 -20.442  1.00  0.00     0.135 C 
HETATM   17  O1  UNL     1      -6.060  43.441 -20.687  1.00  0.00    -0.297 OA
HETATM   18  C24 UNL     1      -4.894  44.931 -19.160  1.00  0.00     0.018 C 
HETATM   19  C25 UNL     1      -5.853  44.829 -17.970  1.00  0.00     0.023 C 
HETATM   20  C26 UNL     1      -3.797  43.858 -18.992  1.00  0.00     0.023 C 
HETATM   21  C27 UNL     1      -4.247  46.339 -19.357  1.00  0.00     0.020 C 
HETATM   22  C28 UNL     1      -3.276  46.789 -18.263  1.00  0.00     0.090 C 
HETATM   23  C29 UNL     1      -2.583  48.082 -18.652  1.00  0.00     0.157 C 
HETATM   24  O2  UNL     1      -1.619  48.479 -17.998  1.00  0.00    -0.293 OA
ENDROOT
BRANCH   1  25
HETATM   25  C6  UNL     1      -1.152  51.781 -23.686  1.00  0.00    -0.014 C 
HETATM   26  C7  UNL     1      -1.981  52.910 -24.311  1.00  0.00     0.010 C 
BRANCH  25  27
HETATM   27  C5  UNL     1       0.359  52.070 -23.836  1.00  0.00     0.008 C 
BRANCH  27  28
HETATM   28  C4  UNL     1       0.666  53.189 -24.837  1.00  0.00     0.028 C 
BRANCH  28  29
HETATM   29  C3  UNL     1       0.383  52.749 -26.248  1.00  0.00    -0.013 C 
HETATM   30  C2  UNL     1       1.177  52.051 -27.083  1.00  0.00     0.008 C 
HETATM   31  C1  UNL     1       0.702  51.610 -28.439  1.00  0.00     0.055 C 
BRANCH  30  32
HETATM   32  C30 UNL     1       2.563  51.629 -26.777  1.00  0.00     0.171 C 
HETATM   33  O3  UNL     1       2.870  50.702 -26.045  1.00  0.00    -0.646 OA
BRANCH  32  34
HETATM   34  O4  UNL     1       3.494  52.305 -27.467  1.00  0.00    -0.773 OA
HETATM   35  H44 UNL     1       4.334  51.885 -27.190  1.00  0.00     0.167 HD
ENDBRANCH  32  34
ENDBRANCH  30  32
ENDBRANCH  28  29
ENDBRANCH  27  28
ENDBRANCH  25  27
ENDBRANCH   1  25
TORSDOF 6
ENDMDL
MODEL 6
REMARK minimizedAffinity -8.91066456
REMARK  6 active torsions:
REMARK  status: ('A' for Active; 'I' for Inactive)
REMARK    1  A    between atoms: C2_2  and  C30_32 
REMARK    2  A    between atoms: C3_3  and  C4_4 
REMARK    3  A    between atoms: C4_4  and  C5_5 
REMARK    4  A    between atoms: C5_5  and  C6_6 
REMARK    5  A    between atoms: C6_6  and  C8_8 
REMARK    6  A    between atoms: C30_32  and  O4_34 
ROOT
HETATM    1  C8  UNL     1      -2.789  50.587 -23.460  1.00  0.00    -0.002 C 
HETATM    2  C9  UNL     1      -1.778  49.642 -22.749  1.00  0.00     0.007 C 
HETATM    3  C10 UNL     1      -2.590  48.467 -22.167  1.00  0.00     0.015 C 
HETATM    4  C11 UNL     1      -4.054  48.945 -22.192  1.00  0.00    -0.005 C 
HETATM    5  C12 UNL     1      -4.270  49.839 -20.929  1.00  0.00     0.021 C 
HETATM    6  C13 UNL     1      -5.192  47.937 -22.148  1.00  0.00    -0.000 C 
HETATM    7  C14 UNL     1      -6.389  48.201 -22.740  1.00  0.00    -0.060 C 
HETATM    8  C15 UNL     1      -6.606  49.485 -23.538  1.00  0.00     0.036 C 
HETATM    9  C16 UNL     1      -5.412  50.456 -23.665  1.00  0.00     0.015 C 
HETATM   10  C17 UNL     1      -4.072  49.712 -23.576  1.00  0.00    -0.028 C 
HETATM   11  C18 UNL     1      -3.960  48.758 -24.802  1.00  0.00     0.016 C 
HETATM   12  C19 UNL     1      -7.586  47.230 -22.591  1.00  0.00    -0.014 C 
HETATM   13  C20 UNL     1      -8.237  47.600 -21.232  1.00  0.00     0.020 C 
HETATM   14  C21 UNL     1      -8.705  47.348 -23.671  1.00  0.00     0.021 C 
HETATM   15  C22 UNL     1      -8.519  46.391 -24.838  1.00  0.00     0.080 C 
HETATM   16  C23 UNL     1      -8.627  44.965 -24.332  1.00  0.00     0.135 C 
HETATM   17  O1  UNL     1      -9.242  44.119 -24.983  1.00  0.00    -0.297 OA
HETATM   18  C24 UNL     1      -7.935  44.629 -22.997  1.00  0.00     0.018 C 
HETATM   19  C25 UNL     1      -9.020  44.380 -21.944  1.00  0.00     0.023 C 
HETATM   20  C26 UNL     1      -7.153  43.314 -23.206  1.00  0.00     0.023 C 
HETATM   21  C27 UNL     1      -6.952  45.795 -22.657  1.00  0.00     0.020 C 
HETATM   22  C28 UNL     1      -6.033  45.568 -21.455  1.00  0.00     0.090 C 
HETATM   23  C29 UNL     1      -5.012  46.684 -21.335  1.00  0.00     0.157 C 
HETATM   24  O2  UNL     1      -4.062  46.562 -20.562  1.00  0.00    -0.293 OA
ENDROOT
BRANCH   1  25
HETATM   25  C6  UNL     1      -2.176  51.373 -24.658  1.00  0.00    -0.014 C 
HETATM   26  C7  UNL     1      -3.146  51.855 -25.744  1.00  0.00     0.010 C 
BRANCH  25  27
HETATM   27  C5  UNL     1      -1.280  52.536 -24.174  1.00  0.00     0.008 C 
BRANCH  27  28
HETATM   28  C4  UNL     1       0.216  52.275 -24.381  1.00  0.00     0.028 C 
BRANCH  28  29
HETATM   29  C3  UNL     1       0.498  51.819 -25.787  1.00  0.00    -0.013 C 
HETATM   30  C2  UNL     1       0.372  52.514 -26.934  1.00  0.00     0.008 C 
HETATM   31  C1  UNL     1       0.787  51.934 -28.257  1.00  0.00     0.055 C 
BRANCH  30  32
HETATM   32  C30 UNL     1      -0.153  53.895 -27.034  1.00  0.00     0.171 C 
HETATM   33  O3  UNL     1       0.303  54.864 -26.449  1.00  0.00    -0.646 OA
BRANCH  32  34
HETATM   34  O4  UNL     1      -1.148  54.028 -27.924  1.00  0.00    -0.773 OA
HETATM   35  H44 UNL     1      -1.348  54.985 -27.903  1.00  0.00     0.167 HD
ENDBRANCH  32  34
ENDBRANCH  30  32
ENDBRANCH  28  29
ENDBRANCH  27  28
ENDBRANCH  25  27
ENDBRANCH   1  25
TORSDOF 6
ENDMDL
MODEL 7
REMARK minimizedAffinity -8.65995502
REMARK  6 active torsions:
REMARK  status: ('A' for Active; 'I' for Inactive)
REMARK    1  A    between atoms: C2_2  and  C30_32 
REMARK    2  A    between atoms: C3_3  and  C4_4 
REMARK    3  A    between atoms: C4_4  and  C5_5 
REMARK    4  A    between atoms: C5_5  and  C6_6 
REMARK    5  A    between atoms: C6_6  and  C8_8 
REMARK    6  A    between atoms: C30_32  and  O4_34 
ROOT
HETATM    1  C8  UNL     1      -0.986  50.302 -18.114  1.00  0.00    -0.002 C 
HETATM    2  C9  UNL     1      -1.974  49.101 -18.098  1.00  0.00     0.007 C 
HETATM    3  C10 UNL     1      -2.693  49.088 -19.462  1.00  0.00     0.015 C 
HETATM    4  C11 UNL     1      -2.420  50.478 -20.068  1.00  0.00    -0.005 C 
HETATM    5  C12 UNL     1      -3.447  51.468 -19.434  1.00  0.00     0.021 C 
HETATM    6  C13 UNL     1      -2.547  50.700 -21.567  1.00  0.00    -0.000 C 
HETATM    7  C14 UNL     1      -1.792  51.636 -22.206  1.00  0.00    -0.060 C 
HETATM    8  C15 UNL     1      -0.734  52.441 -21.454  1.00  0.00     0.036 C 
HETATM    9  C16 UNL     1      -0.539  52.135 -19.953  1.00  0.00     0.015 C 
HETATM   10  C17 UNL     1      -0.916  50.683 -19.622  1.00  0.00    -0.028 C 
HETATM   11  C18 UNL     1       0.075  49.739 -20.368  1.00  0.00     0.016 C 
HETATM   12  C19 UNL     1      -2.009  51.949 -23.707  1.00  0.00    -0.014 C 
HETATM   13  C20 UNL     1      -3.189  52.954 -23.742  1.00  0.00     0.020 C 
HETATM   14  C21 UNL     1      -0.816  52.631 -24.446  1.00  0.00     0.021 C 
HETATM   15  C22 UNL     1       0.108  51.643 -25.139  1.00  0.00     0.080 C 
HETATM   16  C23 UNL     1      -0.661  50.931 -26.235  1.00  0.00     0.135 C 
HETATM   17  O1  UNL     1      -0.133  50.719 -27.328  1.00  0.00    -0.297 OA
HETATM   18  C24 UNL     1      -2.101  50.482 -25.919  1.00  0.00     0.018 C 
HETATM   19  C25 UNL     1      -3.064  51.357 -26.729  1.00  0.00     0.023 C 
HETATM   20  C26 UNL     1      -2.244  49.025 -26.408  1.00  0.00     0.023 C 
HETATM   21  C27 UNL     1      -2.300  50.556 -24.372  1.00  0.00     0.020 C 
HETATM   22  C28 UNL     1      -3.612  49.980 -23.836  1.00  0.00     0.090 C 
HETATM   23  C29 UNL     1      -3.610  49.946 -22.319  1.00  0.00     0.157 C 
HETATM   24  O2  UNL     1      -4.486  49.323 -21.721  1.00  0.00    -0.293 OA
ENDROOT
BRANCH   1  25
HETATM   25  C6  UNL     1       0.275  50.088 -17.224  1.00  0.00    -0.014 C 
HETATM   26  C7  UNL     1       1.001  51.345 -16.730  1.00  0.00     0.010 C 
BRANCH  25  27
HETATM   27  C5  UNL     1      -0.018  49.131 -16.046  1.00  0.00     0.008 C 
BRANCH  27  28
HETATM   28  C4  UNL     1       0.009  49.826 -14.680  1.00  0.00     0.028 C 
BRANCH  28  29
HETATM   29  C3  UNL     1      -1.155  49.395 -13.828  1.00  0.00    -0.013 C 
HETATM   30  C2  UNL     1      -2.341  50.011 -13.658  1.00  0.00     0.008 C 
HETATM   31  C1  UNL     1      -3.438  49.395 -12.837  1.00  0.00     0.055 C 
BRANCH  30  32
HETATM   32  C30 UNL     1      -2.709  51.317 -14.251  1.00  0.00     0.171 C 
HETATM   33  O3  UNL     1      -3.396  51.468 -15.247  1.00  0.00    -0.646 OA
BRANCH  32  34
HETATM   34  O4  UNL     1      -2.296  52.369 -13.528  1.00  0.00    -0.773 OA
HETATM   35  H44 UNL     1      -2.649  53.138 -14.020  1.00  0.00     0.167 HD
ENDBRANCH  32  34
ENDBRANCH  30  32
ENDBRANCH  28  29
ENDBRANCH  27  28
ENDBRANCH  25  27
ENDBRANCH   1  25
TORSDOF 6
ENDMDL
MODEL 8
REMARK minimizedAffinity -8.56201744
REMARK  6 active torsions:
REMARK  status: ('A' for Active; 'I' for Inactive)
REMARK    1  A    between atoms: C2_2  and  C30_32 
REMARK    2  A    between atoms: C3_3  and  C4_4 
REMARK    3  A    between atoms: C4_4  and  C5_5 
REMARK    4  A    between atoms: C5_5  and  C6_6 
REMARK    5  A    between atoms: C6_6  and  C8_8 
REMARK    6  A    between atoms: C30_32  and  O4_34 
ROOT
HETATM    1  C8  UNL     1      -0.611  52.235 -21.486  1.00  0.00    -0.002 C 
HETATM    2  C9  UNL     1       0.903  52.561 -21.344  1.00  0.00     0.007 C 
HETATM    3  C10 UNL     1       1.298  52.257 -19.885  1.00  0.00     0.015 C 
HETATM    4  C11 UNL     1      -0.038  52.157 -19.125  1.00  0.00    -0.005 C 
HETATM    5  C12 UNL     1      -0.492  53.614 -18.795  1.00  0.00     0.021 C 
HETATM    6  C13 UNL     1      -0.113  51.421 -17.796  1.00  0.00    -0.000 C 
HETATM    7  C14 UNL     1      -1.258  50.801 -17.399  1.00  0.00    -0.060 C 
HETATM    8  C15 UNL     1      -2.484  50.754 -18.309  1.00  0.00     0.036 C 
HETATM    9  C16 UNL     1      -2.365  51.415 -19.700  1.00  0.00     0.015 C 
HETATM   10  C17 UNL     1      -0.915  51.403 -20.205  1.00  0.00    -0.028 C 
HETATM   11  C18 UNL     1      -0.482  49.921 -20.414  1.00  0.00     0.016 C 
HETATM   12  C19 UNL     1      -1.373  50.158 -15.995  1.00  0.00    -0.014 C 
HETATM   13  C20 UNL     1      -1.741  51.329 -15.046  1.00  0.00     0.020 C 
HETATM   14  C21 UNL     1      -2.484  49.076 -15.823  1.00  0.00     0.021 C 
HETATM   15  C22 UNL     1      -1.983  47.659 -16.053  1.00  0.00     0.080 C 
HETATM   16  C23 UNL     1      -0.955  47.319 -14.992  1.00  0.00     0.135 C 
HETATM   17  O1  UNL     1      -0.952  46.208 -14.460  1.00  0.00    -0.297 OA
HETATM   18  C24 UNL     1       0.077  48.404 -14.626  1.00  0.00     0.018 C 
HETATM   19  C25 UNL     1      -0.237  48.907 -13.213  1.00  0.00     0.023 C 
HETATM   20  C26 UNL     1       1.464  47.728 -14.602  1.00  0.00     0.023 C 
HETATM   21  C27 UNL     1       0.031  49.505 -15.734  1.00  0.00     0.020 C 
HETATM   22  C28 UNL     1       1.109  50.587 -15.649  1.00  0.00     0.090 C 
HETATM   23  C29 UNL     1       1.070  51.488 -16.869  1.00  0.00     0.157 C 
HETATM   24  O2  UNL     1       1.992  52.276 -17.076  1.00  0.00    -0.293 OA
ENDROOT
BRANCH   1  25
HETATM   25  C6  UNL     1      -1.024  51.784 -22.919  1.00  0.00    -0.014 C 
HETATM   26  C7  UNL     1      -2.387  52.263 -23.434  1.00  0.00     0.010 C 
BRANCH  25  27
HETATM   27  C5  UNL     1       0.086  52.090 -23.951  1.00  0.00     0.008 C 
BRANCH  27  28
HETATM   28  C4  UNL     1      -0.185  53.354 -24.775  1.00  0.00     0.028 C 
BRANCH  28  29
HETATM   29  C3  UNL     1       0.337  53.209 -26.179  1.00  0.00    -0.013 C 
HETATM   30  C2  UNL     1      -0.327  52.816 -27.283  1.00  0.00     0.008 C 
HETATM   31  C1  UNL     1       0.326  52.814 -28.636  1.00  0.00     0.055 C 
BRANCH  30  32
HETATM   32  C30 UNL     1      -1.739  52.371 -27.307  1.00  0.00     0.171 C 
HETATM   33  O3  UNL     1      -2.682  53.000 -26.859  1.00  0.00    -0.646 OA
BRANCH  32  34
HETATM   34  O4  UNL     1      -1.927  51.220 -27.972  1.00  0.00    -0.773 OA
HETATM   35  H44 UNL     1      -2.896  51.090 -27.934  1.00  0.00     0.167 HD
ENDBRANCH  32  34
ENDBRANCH  30  32
ENDBRANCH  28  29
ENDBRANCH  27  28
ENDBRANCH  25  27
ENDBRANCH   1  25
TORSDOF 6
ENDMDL
MODEL 9
REMARK minimizedAffinity -8.41866493
REMARK  6 active torsions:
REMARK  status: ('A' for Active; 'I' for Inactive)
REMARK    1  A    between atoms: C2_2  and  C30_32 
REMARK    2  A    between atoms: C3_3  and  C4_4 
REMARK    3  A    between atoms: C4_4  and  C5_5 
REMARK    4  A    between atoms: C5_5  and  C6_6 
REMARK    5  A    between atoms: C6_6  and  C8_8 
REMARK    6  A    between atoms: C30_32  and  O4_34 
ROOT
HETATM    1  C8  UNL     1       6.617  63.125 -34.200  1.00  0.00    -0.002 C 
HETATM    2  C9  UNL     1       5.214  62.462 -34.111  1.00  0.00     0.007 C 
HETATM    3  C10 UNL     1       4.205  63.452 -34.728  1.00  0.00     0.015 C 
HETATM    4  C11 UNL     1       4.954  64.797 -34.787  1.00  0.00    -0.005 C 
HETATM    5  C12 UNL     1       4.857  65.441 -33.368  1.00  0.00     0.021 C 
HETATM    6  C13 UNL     1       4.495  65.891 -35.738  1.00  0.00    -0.000 C 
HETATM    7  C14 UNL     1       5.378  66.784 -36.262  1.00  0.00    -0.060 C 
HETATM    8  C15 UNL     1       6.875  66.671 -35.975  1.00  0.00     0.036 C 
HETATM    9  C16 UNL     1       7.345  65.495 -35.092  1.00  0.00     0.015 C 
HETATM   10  C17 UNL     1       6.395  64.294 -35.205  1.00  0.00    -0.028 C 
HETATM   11  C18 UNL     1       6.452  63.760 -36.668  1.00  0.00     0.016 C 
HETATM   12  C19 UNL     1       4.895  67.971 -37.130  1.00  0.00    -0.014 C 
HETATM   13  C20 UNL     1       4.471  69.065 -36.116  1.00  0.00     0.020 C 
HETATM   14  C21 UNL     1       5.962  68.617 -38.067  1.00  0.00     0.021 C 
HETATM   15  C22 UNL     1       5.960  68.036 -39.472  1.00  0.00     0.080 C 
HETATM   16  C23 UNL     1       4.633  68.348 -40.136  1.00  0.00     0.135 C 
HETATM   17  O1  UNL     1       4.595  68.699 -41.316  1.00  0.00    -0.297 OA
HETATM   18  C24 UNL     1       3.358  68.197 -39.284  1.00  0.00     0.018 C 
HETATM   19  C25 UNL     1       2.794  69.596 -39.013  1.00  0.00     0.023 C 
HETATM   20  C26 UNL     1       2.331  67.417 -40.133  1.00  0.00     0.023 C 
HETATM   21  C27 UNL     1       3.728  67.384 -38.003  1.00  0.00     0.020 C 
HETATM   22  C28 UNL     1       2.557  66.972 -37.109  1.00  0.00     0.090 C 
HETATM   23  C29 UNL     1       3.022  66.043 -36.001  1.00  0.00     0.157 C 
HETATM   24  O2  UNL     1       2.191  65.443 -35.320  1.00  0.00    -0.293 OA
ENDROOT
BRANCH   1  25
HETATM   25  C6  UNL     1       7.788  62.103 -34.320  1.00  0.00    -0.014 C 
HETATM   26  C7  UNL     1       7.411  60.638 -34.574  1.00  0.00     0.010 C 
BRANCH  25  27
HETATM   27  C5  UNL     1       8.850  62.576 -35.338  1.00  0.00     0.008 C 
BRANCH  27  28
HETATM   28  C4  UNL     1      10.263  62.654 -34.748  1.00  0.00     0.028 C 
BRANCH  28  29
HETATM   29  C3  UNL     1      10.421  61.706 -33.590  1.00  0.00    -0.013 C 
HETATM   30  C2  UNL     1      10.769  61.988 -32.319  1.00  0.00     0.008 C 
HETATM   31  C1  UNL     1      10.792  60.927 -31.255  1.00  0.00     0.055 C 
BRANCH  30  32
HETATM   32  C30 UNL     1      11.142  63.331 -31.822  1.00  0.00     0.171 C 
HETATM   33  O3  UNL     1      12.243  63.643 -31.398  1.00  0.00    -0.646 OA
BRANCH  32  34
HETATM   34  O4  UNL     1      10.171  64.245 -31.966  1.00  0.00    -0.773 OA
HETATM   35  H44 UNL     1      10.582  65.070 -31.638  1.00  0.00     0.167 HD
ENDBRANCH  32  34
ENDBRANCH  30  32
ENDBRANCH  28  29
ENDBRANCH  27  28
ENDBRANCH  25  27
ENDBRANCH   1  25
TORSDOF 6
ENDMDL
