MODEL 1
REMARK minimizedAffinity -7.51720667
REMARK CNNscore 0.759258032
REMARK CNNaffinity 7.14835978
REMARK  6 active torsions:
REMARK  status: ('A' for Active; 'I' for Inactive)
REMARK    1  A    between atoms: C2_2  and  C30_31 
REMARK    2  A    between atoms: C3_3  and  C4_4 
REMARK    3  A    between atoms: C4_4  and  C5_5 
REMARK    4  A    between atoms: C5_5  and  C6_6 
REMARK    5  A    between atoms: C6_6  and  C8_8 
REMARK    6  A    between atoms: C30_31  and  O3_33 
ROOT
HETATM    1  C8  UNL     1       4.830  55.379  -8.686  1.00  0.00    -0.002 C 
HETATM    2  C9  UNL     1       4.126  56.662  -8.173  1.00  0.00     0.007 C 
HETATM    3  C10 UNL     1       2.623  56.500  -8.498  1.00  0.00     0.015 C 
HETATM    4  C11 UNL     1       2.549  55.298  -9.469  1.00  0.00    -0.013 C 
HETATM    5  C12 UNL     1       2.857  55.876 -10.890  1.00  0.00     0.021 C 
HETATM    6  C13 UNL     1       1.234  54.543  -9.612  1.00  0.00    -0.070 C 
HETATM    7  C14 UNL     1       0.039  55.154  -9.505  1.00  0.00    -0.022 C 
HETATM    8  C15 UNL     1      -1.281  54.492  -9.787  1.00  0.00     0.034 C 
HETATM    9  C16 UNL     1      -1.193  52.962  -9.980  1.00  0.00     0.013 C 
HETATM   10  C17 UNL     1      -2.534  52.250 -10.405  1.00  0.00     0.018 C 
HETATM   11  C18 UNL     1      -3.013  51.330  -9.260  1.00  0.00     0.023 C 
HETATM   12  C19 UNL     1      -3.685  53.233 -10.707  1.00  0.00     0.023 C 
HETATM   13  C20 UNL     1      -2.352  51.338 -11.627  1.00  0.00     0.135 C 
HETATM   14  O1  UNL     1      -3.225  51.224 -12.492  1.00  0.00    -0.297 OA
HETATM   15  C21 UNL     1      -1.110  50.484 -11.722  1.00  0.00     0.080 C 
HETATM   16  C22 UNL     1       0.084  51.038 -10.962  1.00  0.00     0.017 C 
HETATM   17  C23 UNL     1       0.077  52.577 -10.822  1.00  0.00    -0.031 C 
HETATM   18  C24 UNL     1       0.079  53.233 -12.227  1.00  0.00     0.016 C 
HETATM   19  C25 UNL     1       1.331  53.056  -9.986  1.00  0.00     0.024 C 
HETATM   20  C26 UNL     1       2.705  52.659 -10.584  1.00  0.00     0.010 C 
HETATM   21  C27 UNL     1       3.954  53.214  -9.856  1.00  0.00     0.011 C 
HETATM   22  C28 UNL     1       3.657  54.364  -8.873  1.00  0.00    -0.029 C 
HETATM   23  C29 UNL     1       3.282  53.743  -7.495  1.00  0.00     0.016 C 
ENDROOT
BRANCH   1  24
HETATM   24  C6  UNL     1       6.106  54.919  -7.917  1.00  0.00    -0.014 C 
HETATM   25  C7  UNL     1       6.972  54.080  -8.878  1.00  0.00     0.010 C 
BRANCH  24  26
HETATM   26  C5  UNL     1       6.966  56.056  -7.309  1.00  0.00     0.008 C 
BRANCH  26  27
HETATM   27  C4  UNL     1       6.800  56.241  -5.792  1.00  0.00     0.028 C 
BRANCH  27  28
HETATM   28  C3  UNL     1       6.797  57.668  -5.322  1.00  0.00    -0.013 C 
HETATM   29  C2  UNL     1       7.848  58.436  -4.968  1.00  0.00     0.008 C 
HETATM   30  C1  UNL     1       7.652  59.865  -4.547  1.00  0.00     0.055 C 
BRANCH  29  31
HETATM   31  C30 UNL     1       9.237  57.910  -4.943  1.00  0.00     0.171 C 
HETATM   32  O2  UNL     1       9.608  56.802  -4.598  1.00  0.00    -0.646 OA
BRANCH  31  33
HETATM   33  O3  UNL     1      10.130  58.827  -5.358  1.00  0.00    -0.773 OA
HETATM   34  H46 UNL     1      10.983  58.350  -5.293  1.00  0.00     0.167 HD
ENDBRANCH  31  33
ENDBRANCH  29  31
ENDBRANCH  27  28
ENDBRANCH  26  27
ENDBRANCH  24  26
ENDBRANCH   1  24
TORSDOF 6
ENDMDL
MODEL 2
REMARK minimizedAffinity -7.70056343
REMARK CNNscore 0.723662913
REMARK CNNaffinity 7.19287825
REMARK  6 active torsions:
REMARK  status: ('A' for Active; 'I' for Inactive)
REMARK    1  A    between atoms: C2_2  and  C30_31 
REMARK    2  A    between atoms: C3_3  and  C4_4 
REMARK    3  A    between atoms: C4_4  and  C5_5 
REMARK    4  A    between atoms: C5_5  and  C6_6 
REMARK    5  A    between atoms: C6_6  and  C8_8 
REMARK    6  A    between atoms: C30_31  and  O3_33 
ROOT
HETATM    1  C8  UNL     1       5.107  55.237  -9.050  1.00  0.00    -0.002 C 
HETATM    2  C9  UNL     1       4.476  56.489  -8.389  1.00  0.00     0.007 C 
HETATM    3  C10 UNL     1       2.944  56.352  -8.558  1.00  0.00     0.015 C 
HETATM    4  C11 UNL     1       2.754  55.211  -9.584  1.00  0.00    -0.013 C 
HETATM    5  C12 UNL     1       2.913  55.872 -10.994  1.00  0.00     0.021 C 
HETATM    6  C13 UNL     1       1.424  54.471  -9.629  1.00  0.00    -0.070 C 
HETATM    7  C14 UNL     1       0.253  55.078  -9.357  1.00  0.00    -0.022 C 
HETATM    8  C15 UNL     1      -1.095  54.439  -9.532  1.00  0.00     0.034 C 
HETATM    9  C16 UNL     1      -1.044  52.923  -9.825  1.00  0.00     0.013 C 
HETATM   10  C17 UNL     1      -2.430  52.242 -10.143  1.00  0.00     0.018 C 
HETATM   11  C18 UNL     1      -2.792  51.257  -9.010  1.00  0.00     0.023 C 
HETATM   12  C19 UNL     1      -3.597  53.246 -10.260  1.00  0.00     0.023 C 
HETATM   13  C20 UNL     1      -2.390  51.405 -11.430  1.00  0.00     0.135 C 
HETATM   14  O1  UNL     1      -3.353  51.346 -12.200  1.00  0.00    -0.297 OA
HETATM   15  C21 UNL     1      -1.174  50.554 -11.710  1.00  0.00     0.080 C 
HETATM   16  C22 UNL     1       0.101  51.057 -11.051  1.00  0.00     0.017 C 
HETATM   17  C23 UNL     1       0.123  52.585 -10.821  1.00  0.00    -0.031 C 
HETATM   18  C24 UNL     1      -0.020  53.324 -12.176  1.00  0.00     0.016 C 
HETATM   19  C25 UNL     1       1.465  53.009 -10.098  1.00  0.00     0.024 C 
HETATM   20  C26 UNL     1       2.763  52.643 -10.864  1.00  0.00     0.010 C 
HETATM   21  C27 UNL     1       4.088  53.150 -10.245  1.00  0.00     0.011 C 
HETATM   22  C28 UNL     1       3.911  54.239  -9.169  1.00  0.00    -0.029 C 
HETATM   23  C29 UNL     1       3.680  53.538  -7.798  1.00  0.00     0.016 C 
ENDROOT
BRANCH   1  24
HETATM   24  C6  UNL     1       6.454  54.727  -8.452  1.00  0.00    -0.014 C 
HETATM   25  C7  UNL     1       6.848  55.660  -7.289  1.00  0.00     0.010 C 
BRANCH  24  26
HETATM   26  C5  UNL     1       6.452  53.259  -7.956  1.00  0.00     0.008 C 
BRANCH  26  27
HETATM   27  C4  UNL     1       7.053  52.249  -8.947  1.00  0.00     0.028 C 
BRANCH  27  28
HETATM   28  C3  UNL     1       7.349  50.893  -8.373  1.00  0.00    -0.013 C 
HETATM   29  C2  UNL     1       7.478  49.718  -9.021  1.00  0.00     0.008 C 
HETATM   30  C1  UNL     1       7.808  48.456  -8.274  1.00  0.00     0.055 C 
BRANCH  29  31
HETATM   31  C30 UNL     1       7.271  49.598 -10.488  1.00  0.00     0.171 C 
HETATM   32  O2  UNL     1       6.255  49.831 -11.118  1.00  0.00    -0.646 OA
BRANCH  31  33
HETATM   33  O3  UNL     1       8.380  49.172 -11.119  1.00  0.00    -0.773 OA
HETATM   34  H46 UNL     1       8.103  49.144 -12.058  1.00  0.00     0.167 HD
ENDBRANCH  31  33
ENDBRANCH  29  31
ENDBRANCH  27  28
ENDBRANCH  26  27
ENDBRANCH  24  26
ENDBRANCH   1  24
TORSDOF 6
ENDMDL
MODEL 3
REMARK minimizedAffinity -7.04646015
REMARK CNNscore 0.661416411
REMARK CNNaffinity 6.20014572
REMARK  6 active torsions:
REMARK  status: ('A' for Active; 'I' for Inactive)
REMARK    1  A    between atoms: C2_2  and  C30_31 
REMARK    2  A    between atoms: C3_3  and  C4_4 
REMARK    3  A    between atoms: C4_4  and  C5_5 
REMARK    4  A    between atoms: C5_5  and  C6_6 
REMARK    5  A    between atoms: C6_6  and  C8_8 
REMARK    6  A    between atoms: C30_31  and  O3_33 
ROOT
HETATM    1  C8  UNL     1     -13.313  45.452 -26.999  1.00  0.00    -0.002 C 
HETATM    2  C9  UNL     1     -12.967  46.669 -26.102  1.00  0.00     0.007 C 
HETATM    3  C10 UNL     1     -11.566  47.156 -26.542  1.00  0.00     0.015 C 
HETATM    4  C11 UNL     1     -11.010  46.024 -27.437  1.00  0.00    -0.013 C 
HETATM    5  C12 UNL     1     -10.403  44.964 -26.460  1.00  0.00     0.021 C 
HETATM    6  C13 UNL     1      -9.902  46.345 -28.431  1.00  0.00    -0.070 C 
HETATM    7  C14 UNL     1      -8.958  47.273 -28.181  1.00  0.00    -0.022 C 
HETATM    8  C15 UNL     1      -7.760  47.521 -29.054  1.00  0.00     0.034 C 
HETATM    9  C16 UNL     1      -7.806  46.790 -30.414  1.00  0.00     0.013 C 
HETATM   10  C17 UNL     1      -6.509  46.922 -31.302  1.00  0.00     0.018 C 
HETATM   11  C18 UNL     1      -6.836  47.739 -32.572  1.00  0.00     0.023 C 
HETATM   12  C19 UNL     1      -5.344  47.640 -30.589  1.00  0.00     0.023 C 
HETATM   13  C20 UNL     1      -5.999  45.561 -31.799  1.00  0.00     0.135 C 
HETATM   14  O1  UNL     1      -4.794  45.314 -31.902  1.00  0.00    -0.297 OA
HETATM   15  C21 UNL     1      -7.001  44.532 -32.268  1.00  0.00     0.080 C 
HETATM   16  C22 UNL     1      -8.381  44.683 -31.649  1.00  0.00     0.017 C 
HETATM   17  C23 UNL     1      -8.369  45.333 -30.247  1.00  0.00    -0.031 C 
HETATM   18  C24 UNL     1      -7.519  44.475 -29.276  1.00  0.00     0.016 C 
HETATM   19  C25 UNL     1      -9.847  45.485 -29.702  1.00  0.00     0.024 C 
HETATM   20  C26 UNL     1     -10.638  44.157 -29.583  1.00  0.00     0.010 C 
HETATM   21  C27 UNL     1     -12.044  44.254 -28.941  1.00  0.00     0.011 C 
HETATM   22  C28 UNL     1     -12.309  45.573 -28.189  1.00  0.00    -0.029 C 
HETATM   23  C29 UNL     1     -12.839  46.620 -29.212  1.00  0.00     0.016 C 
ENDROOT
BRANCH   1  24
HETATM   24  C6  UNL     1     -14.822  45.212 -27.310  1.00  0.00    -0.014 C 
HETATM   25  C7  UNL     1     -15.068  43.691 -27.354  1.00  0.00     0.010 C 
BRANCH  24  26
HETATM   26  C5  UNL     1     -15.820  45.866 -26.321  1.00  0.00     0.008 C 
BRANCH  26  27
HETATM   27  C4  UNL     1     -17.021  44.981 -25.947  1.00  0.00     0.028 C 
BRANCH  27  28
HETATM   28  C3  UNL     1     -17.417  45.027 -24.499  1.00  0.00    -0.013 C 
HETATM   29  C2  UNL     1     -18.447  45.689 -23.932  1.00  0.00     0.008 C 
HETATM   30  C1  UNL     1     -18.707  45.593 -22.455  1.00  0.00     0.055 C 
BRANCH  29  31
HETATM   31  C30 UNL     1     -19.350  46.568 -24.720  1.00  0.00     0.171 C 
HETATM   32  O2  UNL     1     -20.418  46.274 -25.227  1.00  0.00    -0.646 OA
BRANCH  31  33
HETATM   33  O3  UNL     1     -18.857  47.813 -24.846  1.00  0.00    -0.773 OA
HETATM   34  H46 UNL     1     -19.544  48.271 -25.373  1.00  0.00     0.167 HD
ENDBRANCH  31  33
ENDBRANCH  29  31
ENDBRANCH  27  28
ENDBRANCH  26  27
ENDBRANCH  24  26
ENDBRANCH   1  24
TORSDOF 6
ENDMDL
MODEL 4
REMARK minimizedAffinity -7.38645458
REMARK CNNscore 0.515485346
REMARK CNNaffinity 5.98027849
REMARK  6 active torsions:
REMARK  status: ('A' for Active; 'I' for Inactive)
REMARK    1  A    between atoms: C2_2  and  C30_31 
REMARK    2  A    between atoms: C3_3  and  C4_4 
REMARK    3  A    between atoms: C4_4  and  C5_5 
REMARK    4  A    between atoms: C5_5  and  C6_6 
REMARK    5  A    between atoms: C6_6  and  C8_8 
REMARK    6  A    between atoms: C30_31  and  O3_33 
ROOT
HETATM    1  C8  UNL     1     -13.070  45.273 -27.306  1.00  0.00    -0.002 C 
HETATM    2  C9  UNL     1     -12.217  44.477 -26.284  1.00  0.00     0.007 C 
HETATM    3  C10 UNL     1     -10.766  44.486 -26.819  1.00  0.00     0.015 C 
HETATM    4  C11 UNL     1     -10.878  44.994 -28.275  1.00  0.00    -0.013 C 
HETATM    5  C12 UNL     1     -11.253  43.744 -29.138  1.00  0.00     0.021 C 
HETATM    6  C13 UNL     1      -9.650  45.598 -28.945  1.00  0.00    -0.070 C 
HETATM    7  C14 UNL     1      -8.401  45.171 -28.675  1.00  0.00    -0.022 C 
HETATM    8  C15 UNL     1      -7.173  45.622 -29.413  1.00  0.00     0.034 C 
HETATM    9  C16 UNL     1      -7.409  46.816 -30.366  1.00  0.00     0.013 C 
HETATM   10  C17 UNL     1      -6.174  47.234 -31.253  1.00  0.00     0.018 C 
HETATM   11  C18 UNL     1      -5.682  48.634 -30.823  1.00  0.00     0.023 C 
HETATM   12  C19 UNL     1      -4.972  46.274 -31.129  1.00  0.00     0.023 C 
HETATM   13  C20 UNL     1      -6.536  47.355 -32.741  1.00  0.00     0.135 C 
HETATM   14  O1  UNL     1      -5.752  47.021 -33.633  1.00  0.00    -0.297 OA
HETATM   15  C21 UNL     1      -7.852  47.993 -33.122  1.00  0.00     0.080 C 
HETATM   16  C22 UNL     1      -8.925  47.891 -32.050  1.00  0.00     0.017 C 
HETATM   17  C23 UNL     1      -8.773  46.659 -31.130  1.00  0.00    -0.031 C 
HETATM   18  C24 UNL     1      -8.836  45.360 -31.973  1.00  0.00     0.016 C 
HETATM   19  C25 UNL     1      -9.906  46.658 -30.026  1.00  0.00     0.024 C 
HETATM   20  C26 UNL     1     -11.355  46.639 -30.578  1.00  0.00     0.010 C 
HETATM   21  C27 UNL     1     -12.485  46.516 -29.527  1.00  0.00     0.011 C 
HETATM   22  C28 UNL     1     -12.009  46.069 -28.131  1.00  0.00    -0.029 C 
HETATM   23  C29 UNL     1     -11.575  47.336 -27.336  1.00  0.00     0.016 C 
ENDROOT
BRANCH   1  24
HETATM   24  C6  UNL     1     -14.312  46.033 -26.747  1.00  0.00    -0.014 C 
HETATM   25  C7  UNL     1     -15.578  45.403 -27.361  1.00  0.00     0.010 C 
BRANCH  24  26
HETATM   26  C5  UNL     1     -14.444  46.052 -25.203  1.00  0.00     0.008 C 
BRANCH  26  27
HETATM   27  C4  UNL     1     -15.425  47.105 -24.660  1.00  0.00     0.028 C 
BRANCH  27  28
HETATM   28  C3  UNL     1     -16.327  46.625 -23.559  1.00  0.00    -0.013 C 
HETATM   29  C2  UNL     1     -17.650  46.369 -23.611  1.00  0.00     0.008 C 
HETATM   30  C1  UNL     1     -18.386  45.862 -22.402  1.00  0.00     0.055 C 
BRANCH  29  31
HETATM   31  C30 UNL     1     -18.451  46.601 -24.840  1.00  0.00     0.171 C 
HETATM   32  O2  UNL     1     -18.555  45.872 -25.810  1.00  0.00    -0.646 OA
BRANCH  31  33
HETATM   33  O3  UNL     1     -19.104  47.776 -24.800  1.00  0.00    -0.773 OA
HETATM   34  H46 UNL     1     -19.583  47.793 -25.655  1.00  0.00     0.167 HD
ENDBRANCH  31  33
ENDBRANCH  29  31
ENDBRANCH  27  28
ENDBRANCH  26  27
ENDBRANCH  24  26
ENDBRANCH   1  24
TORSDOF 6
ENDMDL
MODEL 5
REMARK minimizedAffinity -7.14356089
REMARK CNNscore 0.422492564
REMARK CNNaffinity 5.84228277
REMARK  6 active torsions:
REMARK  status: ('A' for Active; 'I' for Inactive)
REMARK    1  A    between atoms: C2_2  and  C30_31 
REMARK    2  A    between atoms: C3_3  and  C4_4 
REMARK    3  A    between atoms: C4_4  and  C5_5 
REMARK    4  A    between atoms: C5_5  and  C6_6 
REMARK    5  A    between atoms: C6_6  and  C8_8 
REMARK    6  A    between atoms: C30_31  and  O3_33 
ROOT
HETATM    1  C8  UNL     1     -13.401  46.392 -26.792  1.00  0.00    -0.002 C 
HETATM    2  C9  UNL     1     -14.222  46.046 -28.062  1.00  0.00     0.007 C 
HETATM    3  C10 UNL     1     -13.245  46.140 -29.257  1.00  0.00     0.015 C 
HETATM    4  C11 UNL     1     -11.990  46.848 -28.696  1.00  0.00    -0.013 C 
HETATM    5  C12 UNL     1     -12.302  48.380 -28.751  1.00  0.00     0.021 C 
HETATM    6  C13 UNL     1     -10.660  46.677 -29.417  1.00  0.00    -0.070 C 
HETATM    7  C14 UNL     1     -10.579  46.537 -30.754  1.00  0.00    -0.022 C 
HETATM    8  C15 UNL     1      -9.293  46.517 -31.529  1.00  0.00     0.034 C 
HETATM    9  C16 UNL     1      -8.025  46.426 -30.650  1.00  0.00     0.013 C 
HETATM   10  C17 UNL     1      -6.652  46.534 -31.419  1.00  0.00     0.018 C 
HETATM   11  C18 UNL     1      -5.907  45.184 -31.332  1.00  0.00     0.023 C 
HETATM   12  C19 UNL     1      -6.811  46.868 -32.918  1.00  0.00     0.023 C 
HETATM   13  C20 UNL     1      -5.711  47.575 -30.795  1.00  0.00     0.135 C 
HETATM   14  O1  UNL     1      -4.973  48.283 -31.485  1.00  0.00    -0.297 OA
HETATM   15  C21 UNL     1      -5.616  47.663 -29.290  1.00  0.00     0.080 C 
HETATM   16  C22 UNL     1      -6.860  47.180 -28.560  1.00  0.00     0.017 C 
HETATM   17  C23 UNL     1      -8.163  47.335 -29.376  1.00  0.00    -0.031 C 
HETATM   18  C24 UNL     1      -8.386  48.827 -29.732  1.00  0.00     0.016 C 
HETATM   19  C25 UNL     1      -9.392  46.771 -28.555  1.00  0.00     0.024 C 
HETATM   20  C26 UNL     1      -9.628  47.454 -27.183  1.00  0.00     0.010 C 
HETATM   21  C27 UNL     1     -10.893  47.009 -26.408  1.00  0.00     0.011 C 
HETATM   22  C28 UNL     1     -11.919  46.233 -27.257  1.00  0.00    -0.029 C 
HETATM   23  C29 UNL     1     -11.526  44.726 -27.237  1.00  0.00     0.016 C 
ENDROOT
BRANCH   1  24
HETATM   24  C6  UNL     1     -13.848  45.718 -25.459  1.00  0.00    -0.014 C 
HETATM   25  C7  UNL     1     -13.574  46.704 -24.306  1.00  0.00     0.010 C 
BRANCH  24  26
HETATM   26  C5  UNL     1     -15.328  45.261 -25.404  1.00  0.00     0.008 C 
BRANCH  26  27
HETATM   27  C4  UNL     1     -16.248  46.173 -24.577  1.00  0.00     0.028 C 
BRANCH  27  28
HETATM   28  C3  UNL     1     -17.685  46.190 -25.013  1.00  0.00    -0.013 C 
HETATM   29  C2  UNL     1     -18.788  45.952 -24.274  1.00  0.00     0.008 C 
HETATM   30  C1  UNL     1     -20.160  46.044 -24.882  1.00  0.00     0.055 C 
BRANCH  29  31
HETATM   31  C30 UNL     1     -18.710  45.559 -22.843  1.00  0.00     0.171 C 
HETATM   32  O2  UNL     1     -18.529  44.444 -22.387  1.00  0.00    -0.646 OA
BRANCH  31  33
HETATM   33  O3  UNL     1     -18.875  46.611 -22.022  1.00  0.00    -0.773 OA
HETATM   34  H46 UNL     1     -18.798  46.211 -21.131  1.00  0.00     0.167 HD
ENDBRANCH  31  33
ENDBRANCH  29  31
ENDBRANCH  27  28
ENDBRANCH  26  27
ENDBRANCH  24  26
ENDBRANCH   1  24
TORSDOF 6
ENDMDL
MODEL 6
REMARK minimizedAffinity -7.05124331
REMARK CNNscore 0.356370807
REMARK CNNaffinity 5.70811892
REMARK  6 active torsions:
REMARK  status: ('A' for Active; 'I' for Inactive)
REMARK    1  A    between atoms: C2_2  and  C30_31 
REMARK    2  A    between atoms: C3_3  and  C4_4 
REMARK    3  A    between atoms: C4_4  and  C5_5 
REMARK    4  A    between atoms: C5_5  and  C6_6 
REMARK    5  A    between atoms: C6_6  and  C8_8 
REMARK    6  A    between atoms: C30_31  and  O3_33 
ROOT
HETATM    1  C8  UNL     1     -13.786  46.058 -25.809  1.00  0.00    -0.002 C 
HETATM    2  C9  UNL     1     -13.272  44.660 -25.377  1.00  0.00     0.007 C 
HETATM    3  C10 UNL     1     -12.007  44.376 -26.221  1.00  0.00     0.015 C 
HETATM    4  C11 UNL     1     -12.015  45.452 -27.332  1.00  0.00    -0.013 C 
HETATM    5  C12 UNL     1     -12.960  44.905 -28.452  1.00  0.00     0.021 C 
HETATM    6  C13 UNL     1     -10.709  45.800 -28.034  1.00  0.00    -0.070 C 
HETATM    7  C14 UNL     1      -9.744  44.885 -28.252  1.00  0.00    -0.022 C 
HETATM    8  C15 UNL     1      -8.508  45.134 -29.069  1.00  0.00     0.034 C 
HETATM    9  C16 UNL     1      -8.292  46.614 -29.455  1.00  0.00     0.013 C 
HETATM   10  C17 UNL     1      -7.078  46.897 -30.421  1.00  0.00     0.018 C 
HETATM   11  C18 UNL     1      -6.000  47.708 -29.668  1.00  0.00     0.023 C 
HETATM   12  C19 UNL     1      -6.395  45.615 -30.944  1.00  0.00     0.023 C 
HETATM   13  C20 UNL     1      -7.479  47.752 -31.632  1.00  0.00     0.135 C 
HETATM   14  O1  UNL     1      -6.991  47.569 -32.750  1.00  0.00    -0.297 OA
HETATM   15  C21 UNL     1      -8.422  48.914 -31.424  1.00  0.00     0.080 C 
HETATM   16  C22 UNL     1      -9.341  48.760 -30.223  1.00  0.00     0.017 C 
HETATM   17  C23 UNL     1      -9.652  47.291 -29.858  1.00  0.00    -0.031 C 
HETATM   18  C24 UNL     1     -10.335  46.584 -31.056  1.00  0.00     0.016 C 
HETATM   19  C25 UNL     1     -10.578  47.230 -28.577  1.00  0.00     0.024 C 
HETATM   20  C26 UNL     1     -11.938  47.962 -28.720  1.00  0.00     0.010 C 
HETATM   21  C27 UNL     1     -12.918  47.821 -27.530  1.00  0.00     0.011 C 
HETATM   22  C28 UNL     1     -12.562  46.691 -26.543  1.00  0.00    -0.029 C 
HETATM   23  C29 UNL     1     -11.562  47.259 -25.493  1.00  0.00     0.016 C 
ENDROOT
BRANCH   1  24
HETATM   24  C6  UNL     1     -14.532  46.899 -24.729  1.00  0.00    -0.014 C 
HETATM   25  C7  UNL     1     -16.048  46.745 -24.960  1.00  0.00     0.010 C 
BRANCH  24  26
HETATM   26  C5  UNL     1     -14.197  46.545 -23.258  1.00  0.00     0.008 C 
BRANCH  26  27
HETATM   27  C4  UNL     1     -15.233  47.034 -22.232  1.00  0.00     0.028 C 
BRANCH  27  28
HETATM   28  C3  UNL     1     -14.657  47.695 -21.012  1.00  0.00    -0.013 C 
HETATM   29  C2  UNL     1     -15.103  47.642 -19.740  1.00  0.00     0.008 C 
HETATM   30  C1  UNL     1     -14.372  48.353 -18.636  1.00  0.00     0.055 C 
BRANCH  29  31
HETATM   31  C30 UNL     1     -16.345  46.916 -19.368  1.00  0.00     0.171 C 
HETATM   32  O2  UNL     1     -17.486  47.341 -19.373  1.00  0.00    -0.646 OA
BRANCH  31  33
HETATM   33  O3  UNL     1     -16.092  45.650 -18.988  1.00  0.00    -0.773 OA
HETATM   34  H46 UNL     1     -16.983  45.300 -18.780  1.00  0.00     0.167 HD
ENDBRANCH  31  33
ENDBRANCH  29  31
ENDBRANCH  27  28
ENDBRANCH  26  27
ENDBRANCH  24  26
ENDBRANCH   1  24
TORSDOF 6
ENDMDL
MODEL 7
REMARK minimizedAffinity -7.67745161
REMARK CNNscore 0.28043437
REMARK CNNaffinity 6.20550537
REMARK  6 active torsions:
REMARK  status: ('A' for Active; 'I' for Inactive)
REMARK    1  A    between atoms: C2_2  and  C30_31 
REMARK    2  A    between atoms: C3_3  and  C4_4 
REMARK    3  A    between atoms: C4_4  and  C5_5 
REMARK    4  A    between atoms: C5_5  and  C6_6 
REMARK    5  A    between atoms: C6_6  and  C8_8 
REMARK    6  A    between atoms: C30_31  and  O3_33 
ROOT
HETATM    1  C8  UNL     1      -6.298  47.723 -20.501  1.00  0.00    -0.002 C 
HETATM    2  C9  UNL     1      -6.290  47.466 -18.972  1.00  0.00     0.007 C 
HETATM    3  C10 UNL     1      -5.039  48.181 -18.411  1.00  0.00     0.015 C 
HETATM    4  C11 UNL     1      -4.194  48.546 -19.654  1.00  0.00    -0.013 C 
HETATM    5  C12 UNL     1      -3.376  47.261 -20.008  1.00  0.00     0.021 C 
HETATM    6  C13 UNL     1      -3.168  49.667 -19.548  1.00  0.00    -0.070 C 
HETATM    7  C14 UNL     1      -2.490  49.915 -18.411  1.00  0.00    -0.022 C 
HETATM    8  C15 UNL     1      -1.363  50.902 -18.294  1.00  0.00     0.034 C 
HETATM    9  C16 UNL     1      -1.185  51.810 -19.531  1.00  0.00     0.013 C 
HETATM   10  C17 UNL     1       0.066  52.769 -19.499  1.00  0.00     0.018 C 
HETATM   11  C18 UNL     1      -0.412  54.236 -19.417  1.00  0.00     0.023 C 
HETATM   12  C19 UNL     1       0.996  52.528 -18.291  1.00  0.00     0.023 C 
HETATM   13  C20 UNL     1       0.910  52.674 -20.778  1.00  0.00     0.135 C 
HETATM   14  O1  UNL     1       2.141  52.757 -20.756  1.00  0.00    -0.297 OA
HETATM   15  C21 UNL     1       0.207  52.575 -22.112  1.00  0.00     0.080 C 
HETATM   16  C22 UNL     1      -1.187  51.972 -22.035  1.00  0.00     0.017 C 
HETATM   17  C23 UNL     1      -1.378  50.990 -20.858  1.00  0.00    -0.031 C 
HETATM   18  C24 UNL     1      -0.373  49.816 -20.982  1.00  0.00     0.016 C 
HETATM   19  C25 UNL     1      -2.864  50.447 -20.836  1.00  0.00     0.024 C 
HETATM   20  C26 UNL     1      -3.308  49.707 -22.124  1.00  0.00     0.010 C 
HETATM   21  C27 UNL     1      -4.713  49.059 -22.090  1.00  0.00     0.011 C 
HETATM   22  C28 UNL     1      -5.318  48.926 -20.678  1.00  0.00    -0.029 C 
HETATM   23  C29 UNL     1      -6.057  50.253 -20.337  1.00  0.00     0.016 C 
ENDROOT
BRANCH   1  24
HETATM   24  C6  UNL     1      -7.691  47.779 -21.199  1.00  0.00    -0.014 C 
HETATM   25  C7  UNL     1      -8.736  48.220 -20.154  1.00  0.00     0.010 C 
BRANCH  24  26
HETATM   26  C5  UNL     1      -7.781  48.705 -22.438  1.00  0.00     0.008 C 
BRANCH  26  27
HETATM   27  C4  UNL     1      -7.859  47.966 -23.784  1.00  0.00     0.028 C 
BRANCH  27  28
HETATM   28  C3  UNL     1      -9.234  47.510 -24.180  1.00  0.00    -0.013 C 
HETATM   29  C2  UNL     1      -9.930  47.817 -25.294  1.00  0.00     0.008 C 
HETATM   30  C1  UNL     1     -11.296  47.237 -25.535  1.00  0.00     0.055 C 
BRANCH  29  31
HETATM   31  C30 UNL     1      -9.408  48.760 -26.317  1.00  0.00     0.171 C 
HETATM   32  O2  UNL     1      -8.792  48.490 -27.332  1.00  0.00    -0.646 OA
BRANCH  31  33
HETATM   33  O3  UNL     1      -9.685  50.040 -26.010  1.00  0.00    -0.773 OA
HETATM   34  H46 UNL     1      -9.293  50.537 -26.757  1.00  0.00     0.167 HD
ENDBRANCH  31  33
ENDBRANCH  29  31
ENDBRANCH  27  28
ENDBRANCH  26  27
ENDBRANCH  24  26
ENDBRANCH   1  24
TORSDOF 6
ENDMDL
MODEL 8
REMARK minimizedAffinity -7.35694265
REMARK CNNscore 0.271743923
REMARK CNNaffinity 5.90653372
REMARK  6 active torsions:
REMARK  status: ('A' for Active; 'I' for Inactive)
REMARK    1  A    between atoms: C2_2  and  C30_31 
REMARK    2  A    between atoms: C3_3  and  C4_4 
REMARK    3  A    between atoms: C4_4  and  C5_5 
REMARK    4  A    between atoms: C5_5  and  C6_6 
REMARK    5  A    between atoms: C6_6  and  C8_8 
REMARK    6  A    between atoms: C30_31  and  O3_33 
ROOT
HETATM    1  C8  UNL     1      -8.593  47.215 -20.579  1.00  0.00    -0.002 C 
HETATM    2  C9  UNL     1      -7.947  46.149 -19.655  1.00  0.00     0.007 C 
HETATM    3  C10 UNL     1      -6.430  46.449 -19.630  1.00  0.00     0.015 C 
HETATM    4  C11 UNL     1      -6.200  47.456 -20.781  1.00  0.00    -0.013 C 
HETATM    5  C12 UNL     1      -6.072  46.597 -22.083  1.00  0.00     0.021 C 
HETATM    6  C13 UNL     1      -4.961  48.341 -20.753  1.00  0.00    -0.070 C 
HETATM    7  C14 UNL     1      -3.791  47.923 -20.234  1.00  0.00    -0.022 C 
HETATM    8  C15 UNL     1      -2.503  48.693 -20.316  1.00  0.00     0.034 C 
HETATM    9  C16 UNL     1      -2.662  50.138 -20.839  1.00  0.00     0.013 C 
HETATM   10  C17 UNL     1      -1.319  50.934 -21.062  1.00  0.00     0.018 C 
HETATM   11  C18 UNL     1      -1.238  52.100 -20.052  1.00  0.00     0.023 C 
HETATM   12  C19 UNL     1      -0.053  50.074 -20.864  1.00  0.00     0.023 C 
HETATM   13  C20 UNL     1      -1.245  51.579 -22.454  1.00  0.00     0.135 C 
HETATM   14  O1  UNL     1      -0.186  51.652 -23.084  1.00  0.00    -0.297 OA
HETATM   15  C21 UNL     1      -2.483  52.230 -23.024  1.00  0.00     0.080 C 
HETATM   16  C22 UNL     1      -3.787  51.668 -22.479  1.00  0.00     0.017 C 
HETATM   17  C23 UNL     1      -3.690  50.194 -22.026  1.00  0.00    -0.031 C 
HETATM   18  C24 UNL     1      -3.266  49.302 -23.221  1.00  0.00     0.016 C 
HETATM   19  C25 UNL     1      -5.078  49.710 -21.439  1.00  0.00     0.024 C 
HETATM   20  C26 UNL     1      -6.272  49.808 -22.424  1.00  0.00     0.010 C 
HETATM   21  C27 UNL     1      -7.618  49.231 -21.923  1.00  0.00     0.011 C 
HETATM   22  C28 UNL     1      -7.500  48.326 -20.681  1.00  0.00    -0.029 C 
HETATM   23  C29 UNL     1      -7.555  49.228 -19.413  1.00  0.00     0.016 C 
ENDROOT
BRANCH   1  24
HETATM   24  C6  UNL     1     -10.060  47.631 -20.256  1.00  0.00    -0.014 C 
HETATM   25  C7  UNL     1     -11.005  46.789 -21.136  1.00  0.00     0.010 C 
BRANCH  24  26
HETATM   26  C5  UNL     1     -10.483  47.495 -18.771  1.00  0.00     0.008 C 
BRANCH  26  27
HETATM   27  C4  UNL     1     -11.842  46.809 -18.554  1.00  0.00     0.028 C 
BRANCH  27  28
HETATM   28  C3  UNL     1     -13.025  47.733 -18.541  1.00  0.00    -0.013 C 
HETATM   29  C2  UNL     1     -14.129  47.671 -17.768  1.00  0.00     0.008 C 
HETATM   30  C1  UNL     1     -15.207  48.713 -17.877  1.00  0.00     0.055 C 
BRANCH  29  31
HETATM   31  C30 UNL     1     -14.354  46.566 -16.801  1.00  0.00     0.171 C 
HETATM   32  O2  UNL     1     -14.205  46.593 -15.592  1.00  0.00    -0.646 OA
BRANCH  31  33
HETATM   33  O3  UNL     1     -14.764  45.440 -17.411  1.00  0.00    -0.773 OA
HETATM   34  H46 UNL     1     -14.873  44.812 -16.666  1.00  0.00     0.167 HD
ENDBRANCH  31  33
ENDBRANCH  29  31
ENDBRANCH  27  28
ENDBRANCH  26  27
ENDBRANCH  24  26
ENDBRANCH   1  24
TORSDOF 6
ENDMDL
MODEL 9
REMARK minimizedAffinity -8.50156403
REMARK CNNscore 0.245412797
REMARK CNNaffinity 6.35356712
REMARK  6 active torsions:
REMARK  status: ('A' for Active; 'I' for Inactive)
REMARK    1  A    between atoms: C2_2  and  C30_31 
REMARK    2  A    between atoms: C3_3  and  C4_4 
REMARK    3  A    between atoms: C4_4  and  C5_5 
REMARK    4  A    between atoms: C5_5  and  C6_6 
REMARK    5  A    between atoms: C6_6  and  C8_8 
REMARK    6  A    between atoms: C30_31  and  O3_33 
ROOT
HETATM    1  C8  UNL     1      -3.580  49.851 -23.466  1.00  0.00    -0.002 C 
HETATM    2  C9  UNL     1      -3.918  48.848 -24.600  1.00  0.00     0.007 C 
HETATM    3  C10 UNL     1      -5.132  48.023 -24.111  1.00  0.00     0.015 C 
HETATM    4  C11 UNL     1      -5.252  48.340 -22.602  1.00  0.00    -0.013 C 
HETATM    5  C12 UNL     1      -4.239  47.389 -21.883  1.00  0.00     0.021 C 
HETATM    6  C13 UNL     1      -6.587  48.117 -21.904  1.00  0.00    -0.070 C 
HETATM    7  C14 UNL     1      -7.428  47.128 -22.259  1.00  0.00    -0.022 C 
HETATM    8  C15 UNL     1      -8.680  46.768 -21.511  1.00  0.00     0.034 C 
HETATM    9  C16 UNL     1      -9.077  47.785 -20.417  1.00  0.00     0.013 C 
HETATM   10  C17 UNL     1     -10.311  47.377 -19.523  1.00  0.00     0.018 C 
HETATM   11  C18 UNL     1     -11.487  48.341 -19.799  1.00  0.00     0.023 C 
HETATM   12  C19 UNL     1     -10.825  45.948 -19.796  1.00  0.00     0.023 C 
HETATM   13  C20 UNL     1     -10.013  47.499 -18.022  1.00  0.00     0.135 C 
HETATM   14  O1  UNL     1     -10.467  46.698 -17.199  1.00  0.00    -0.297 OA
HETATM   15  C21 UNL     1      -9.223  48.688 -17.528  1.00  0.00     0.080 C 
HETATM   16  C22 UNL     1      -8.300  49.296 -18.572  1.00  0.00     0.017 C 
HETATM   17  C23 UNL     1      -7.810  48.289 -19.636  1.00  0.00    -0.031 C 
HETATM   18  C24 UNL     1      -7.037  47.134 -18.951  1.00  0.00     0.016 C 
HETATM   19  C25 UNL     1      -6.891  49.018 -20.697  1.00  0.00     0.024 C 
HETATM   20  C26 UNL     1      -5.633  49.706 -20.108  1.00  0.00     0.010 C 
HETATM   21  C27 UNL     1      -4.650  50.325 -21.132  1.00  0.00     0.011 C 
HETATM   22  C28 UNL     1      -4.869  49.859 -22.585  1.00  0.00    -0.029 C 
HETATM   23  C29 UNL     1      -5.939  50.785 -23.237  1.00  0.00     0.016 C 
ENDROOT
BRANCH   1  24
HETATM   24  C6  UNL     1      -2.952  51.212 -23.894  1.00  0.00    -0.014 C 
HETATM   25  C7  UNL     1      -3.040  52.180 -22.697  1.00  0.00     0.010 C 
BRANCH  24  26
HETATM   26  C5  UNL     1      -1.487  51.144 -24.394  1.00  0.00     0.008 C 
BRANCH  26  27
HETATM   27  C4  UNL     1      -1.339  50.929 -25.909  1.00  0.00     0.028 C 
BRANCH  27  28
HETATM   28  C3  UNL     1       0.075  50.922 -26.415  1.00  0.00    -0.013 C 
HETATM   29  C2  UNL     1       0.771  51.934 -26.973  1.00  0.00     0.008 C 
HETATM   30  C1  UNL     1       2.201  51.746 -27.397  1.00  0.00     0.055 C 
BRANCH  29  31
HETATM   31  C30 UNL     1       0.162  53.265 -27.228  1.00  0.00     0.171 C 
HETATM   32  O2  UNL     1       0.095  54.211 -26.465  1.00  0.00    -0.646 OA
BRANCH  31  33
HETATM   33  O3  UNL     1      -0.359  53.351 -28.465  1.00  0.00    -0.773 OA
HETATM   34  H46 UNL     1      -0.714  54.263 -28.493  1.00  0.00     0.167 HD
ENDBRANCH  31  33
ENDBRANCH  29  31
ENDBRANCH  27  28
ENDBRANCH  26  27
ENDBRANCH  24  26
ENDBRANCH   1  24
TORSDOF 6
ENDMDL
