MODEL 1
REMARK minimizedAffinity -7.19476032
REMARK  2 active torsions:
REMARK  status: ('A' for Active; 'I' for Inactive)
REMARK    1  A    between atoms: C2_2  and  C3_3 
REMARK    2  A    between atoms: C3_3  and  C4_4 
ROOT
HETATM    1  C3  UNL     1      -7.134   5.582  13.865  1.00  0.00     0.011 C 
HETATM    2  C7  UNL     1      -5.605   5.363  13.623  1.00  0.00     0.055 C 
HETATM    3  C8  UNL     1      -5.572   4.107  12.805  1.00  0.00    -0.051 A 
HETATM    4  C9  UNL     1      -4.524   3.611  12.045  1.00  0.00     0.011 A 
HETATM    5  C10 UNL     1      -4.704   2.390  11.391  1.00  0.00     0.043 A 
HETATM    6  C11 UNL     1      -5.911   1.694  11.522  1.00  0.00     0.117 A 
HETATM    7  F1  UNL     1      -6.059   0.521  10.891  1.00  0.00    -0.206 F 
HETATM    8  C12 UNL     1      -6.957   2.187  12.295  1.00  0.00     0.049 A 
HETATM    9  C13 UNL     1      -6.774   3.405  12.929  1.00  0.00    -0.048 A 
HETATM   10  C14 UNL     1      -7.723   4.128  13.835  1.00  0.00     0.055 C 
ENDROOT
BRANCH   1  11
HETATM   11  C2  UNL     1      -7.788   6.408  12.709  1.00  0.00     0.012 C 
HETATM   12  C1  UNL     1      -8.837   5.672  11.882  1.00  0.00     0.006 C 
ENDBRANCH   1  11
BRANCH   1  13
HETATM   13  C4  UNL     1      -7.429   6.232  15.196  1.00  0.00     0.035 A 
HETATM   14  C5  UNL     1      -6.742   6.166  16.393  1.00  0.00     0.114 A 
HETATM   15  N1  UNL     1      -7.440   6.963  17.258  1.00  0.00    -0.360 N 
HETATM   16  C6  UNL     1      -8.498   7.485  16.575  1.00  0.00     0.180 A 
HETATM   17  H7  UNL     1      -7.213   7.142  18.227  1.00  0.00     0.166 HD
HETATM   18  N2  UNL     1      -8.517   7.069  15.331  1.00  0.00    -0.354 N 
ATOM     19  H2  UNL     1      -9.197   7.313  14.611  1.00  0.00     0.166 HD
ENDBRANCH   1  13
TORSDOF 2
ENDMDL
MODEL 2
REMARK minimizedAffinity -7.09870291
REMARK  2 active torsions:
REMARK  status: ('A' for Active; 'I' for Inactive)
REMARK    1  A    between atoms: C2_2  and  C3_3 
REMARK    2  A    between atoms: C3_3  and  C4_4 
ROOT
HETATM    1  C3  UNL     1      -3.815   3.217  11.129  1.00  0.00     0.011 C 
HETATM    2  C7  UNL     1      -4.883   2.158  11.557  1.00  0.00     0.055 C 
HETATM    3  C8  UNL     1      -5.927   2.992  12.237  1.00  0.00    -0.051 A 
HETATM    4  C9  UNL     1      -7.235   2.643  12.539  1.00  0.00     0.011 A 
HETATM    5  C10 UNL     1      -8.025   3.573  13.218  1.00  0.00     0.043 A 
HETATM    6  C11 UNL     1      -7.491   4.813  13.587  1.00  0.00     0.117 A 
HETATM    7  F1  UNL     1      -8.266   5.687  14.244  1.00  0.00    -0.206 F 
HETATM    8  C12 UNL     1      -6.175   5.157  13.294  1.00  0.00     0.049 A 
HETATM    9  C13 UNL     1      -5.404   4.233  12.609  1.00  0.00    -0.048 A 
HETATM   10  C14 UNL     1      -3.964   4.347  12.207  1.00  0.00     0.055 C 
ENDROOT
BRANCH   1  11
HETATM   11  C2  UNL     1      -4.137   3.824   9.725  1.00  0.00     0.012 C 
HETATM   12  C1  UNL     1      -5.340   3.225   9.004  1.00  0.00     0.006 C 
ENDBRANCH   1  11
BRANCH   1  13
HETATM   13  C4  UNL     1      -2.408   2.668  11.146  1.00  0.00     0.035 A 
HETATM   14  C5  UNL     1      -1.218   3.275  11.493  1.00  0.00     0.114 A 
HETATM   15  N1  UNL     1      -0.259   2.312  11.344  1.00  0.00    -0.360 N 
HETATM   16  C6  UNL     1      -0.882   1.172  10.930  1.00  0.00     0.180 A 
HETATM   17  H7  UNL     1       0.732   2.417  11.515  1.00  0.00     0.166 HD
HETATM   18  N2  UNL     1      -2.176   1.352  10.805  1.00  0.00    -0.354 N 
ATOM     19  H2  UNL     1      -2.868   0.661  10.516  1.00  0.00     0.166 HD
ENDBRANCH   1  13
TORSDOF 2
ENDMDL
MODEL 3
REMARK minimizedAffinity -6.90075588
REMARK  2 active torsions:
REMARK  status: ('A' for Active; 'I' for Inactive)
REMARK    1  A    between atoms: C2_2  and  C3_3 
REMARK    2  A    between atoms: C3_3  and  C4_4 
ROOT
HETATM    1  C3  UNL     1      -7.788   5.540  14.071  1.00  0.00     0.011 C 
HETATM    2  C7  UNL     1      -7.555   4.360  13.072  1.00  0.00     0.055 C 
HETATM    3  C8  UNL     1      -6.073   4.397  12.850  1.00  0.00    -0.051 A 
HETATM    4  C9  UNL     1      -5.266   3.407  12.310  1.00  0.00     0.011 A 
HETATM    5  C10 UNL     1      -3.903   3.676  12.159  1.00  0.00     0.043 A 
HETATM    6  C11 UNL     1      -3.387   4.922  12.534  1.00  0.00     0.117 A 
HETATM    7  F1  UNL     1      -2.079   5.161  12.374  1.00  0.00    -0.206 F 
HETATM    8  C12 UNL     1      -4.201   5.919  13.065  1.00  0.00     0.049 A 
HETATM    9  C13 UNL     1      -5.547   5.637  13.223  1.00  0.00    -0.048 A 
HETATM   10  C14 UNL     1      -6.628   6.541  13.735  1.00  0.00     0.055 C 
ENDROOT
BRANCH   1  11
HETATM   11  C2  UNL     1      -7.630   5.076  15.556  1.00  0.00     0.012 C 
HETATM   12  C1  UNL     1      -6.792   5.987  16.448  1.00  0.00     0.006 C 
ENDBRANCH   1  11
BRANCH   1  13
HETATM   13  C4  UNL     1      -9.126   6.214  13.879  1.00  0.00     0.035 A 
HETATM   14  C5  UNL     1      -9.790   6.563  12.720  1.00  0.00     0.114 A 
HETATM   15  N1  UNL     1     -10.968   7.124  13.129  1.00  0.00    -0.360 N 
HETATM   16  C6  UNL     1     -10.988   7.089  14.493  1.00  0.00     0.180 A 
HETATM   17  H7  UNL     1     -11.698   7.493  12.535  1.00  0.00     0.166 HD
HETATM   18  N2  UNL     1      -9.896   6.544  14.974  1.00  0.00    -0.354 N 
ATOM     19  H2  UNL     1      -9.665   6.394  15.955  1.00  0.00     0.166 HD
ENDBRANCH   1  13
TORSDOF 2
ENDMDL
MODEL 4
REMARK minimizedAffinity -6.88567686
REMARK  2 active torsions:
REMARK  status: ('A' for Active; 'I' for Inactive)
REMARK    1  A    between atoms: C2_2  and  C3_3 
REMARK    2  A    between atoms: C3_3  and  C4_4 
ROOT
HETATM    1  C3  UNL     1      -3.301   6.370  13.751  1.00  0.00     0.011 C 
HETATM    2  C7  UNL     1      -3.125   5.079  12.887  1.00  0.00     0.055 C 
HETATM    3  C8  UNL     1      -4.527   4.564  12.763  1.00  0.00    -0.051 A 
HETATM    4  C9  UNL     1      -5.018   3.633  11.860  1.00  0.00     0.011 A 
HETATM    5  C10 UNL     1      -6.363   3.270  11.954  1.00  0.00     0.043 A 
HETATM    6  C11 UNL     1      -7.175   3.830  12.948  1.00  0.00     0.117 A 
HETATM    7  F1  UNL     1      -8.461   3.461  13.024  1.00  0.00    -0.206 F 
HETATM    8  C12 UNL     1      -6.677   4.755  13.861  1.00  0.00     0.049 A 
HETATM    9  C13 UNL     1      -5.346   5.119  13.751  1.00  0.00    -0.048 A 
HETATM   10  C14 UNL     1      -4.569   6.059  14.621  1.00  0.00     0.055 C 
ENDROOT
BRANCH   1  11
HETATM   11  C2  UNL     1      -3.602   7.621  12.863  1.00  0.00     0.012 C 
HETATM   12  C1  UNL     1      -4.804   8.460  13.285  1.00  0.00     0.006 C 
ENDBRANCH   1  11
BRANCH   1  13
HETATM   13  C4  UNL     1      -2.114   6.643  14.644  1.00  0.00     0.035 A 
HETATM   14  C5  UNL     1      -0.927   5.951  14.787  1.00  0.00     0.114 A 
HETATM   15  N1  UNL     1      -0.207   6.650  15.715  1.00  0.00    -0.360 N 
HETATM   16  C6  UNL     1      -0.955   7.727  16.091  1.00  0.00     0.180 A 
HETATM   17  H7  UNL     1       0.717   6.421  16.058  1.00  0.00     0.166 HD
HETATM   18  N2  UNL     1      -2.106   7.753  15.462  1.00  0.00    -0.354 N 
ATOM     19  H2  UNL     1      -2.843   8.451  15.558  1.00  0.00     0.166 HD
ENDBRANCH   1  13
TORSDOF 2
ENDMDL
MODEL 5
REMARK minimizedAffinity -6.72715282
REMARK  2 active torsions:
REMARK  status: ('A' for Active; 'I' for Inactive)
REMARK    1  A    between atoms: C2_2  and  C3_3 
REMARK    2  A    between atoms: C3_3  and  C4_4 
ROOT
HETATM    1  C3  UNL     1      -3.615   6.467  13.527  1.00  0.00     0.011 C 
HETATM    2  C7  UNL     1      -5.060   7.061  13.484  1.00  0.00     0.055 C 
HETATM    3  C8  UNL     1      -5.921   5.839  13.363  1.00  0.00    -0.051 A 
HETATM    4  C9  UNL     1      -7.284   5.729  13.593  1.00  0.00     0.011 A 
HETATM    5  C10 UNL     1      -7.890   4.489  13.378  1.00  0.00     0.043 A 
HETATM    6  C11 UNL     1      -7.130   3.403  12.930  1.00  0.00     0.117 A 
HETATM    7  F1  UNL     1      -7.734   2.225  12.724  1.00  0.00    -0.206 F 
HETATM    8  C12 UNL     1      -5.764   3.519  12.688  1.00  0.00     0.049 A 
HETATM    9  C13 UNL     1      -5.170   4.748  12.917  1.00  0.00    -0.048 A 
HETATM   10  C14 UNL     1      -3.738   5.137  12.704  1.00  0.00     0.055 C 
ENDROOT
BRANCH   1  11
HETATM   11  C2  UNL     1      -3.181   6.110  14.986  1.00  0.00     0.012 C 
HETATM   12  C1  UNL     1      -2.898   7.297  15.902  1.00  0.00     0.006 C 
ENDBRANCH   1  11
BRANCH   1  13
HETATM   13  C4  UNL     1      -2.590   7.376  12.891  1.00  0.00     0.035 A 
HETATM   14  C5  UNL     1      -2.668   8.715  12.559  1.00  0.00     0.114 A 
HETATM   15  N1  UNL     1      -1.447   9.032  12.032  1.00  0.00    -0.360 N 
HETATM   16  C6  UNL     1      -0.678   7.906  12.068  1.00  0.00     0.180 A 
HETATM   17  H7  UNL     1      -1.158   9.936  11.683  1.00  0.00     0.166 HD
HETATM   18  N2  UNL     1      -1.335   6.894  12.583  1.00  0.00    -0.354 N 
ATOM     19  H2  UNL     1      -0.989   5.946  12.727  1.00  0.00     0.166 HD
ENDBRANCH   1  13
TORSDOF 2
ENDMDL
MODEL 6
REMARK minimizedAffinity -6.51043463
REMARK  2 active torsions:
REMARK  status: ('A' for Active; 'I' for Inactive)
REMARK    1  A    between atoms: C2_2  and  C3_3 
REMARK    2  A    between atoms: C3_3  and  C4_4 
ROOT
HETATM    1  C3  UNL     1      -5.329   6.000  13.813  1.00  0.00     0.011 C 
HETATM    2  C7  UNL     1      -3.890   5.754  14.372  1.00  0.00     0.055 C 
HETATM    3  C8  UNL     1      -3.203   5.059  13.235  1.00  0.00    -0.051 A 
HETATM    4  C9  UNL     1      -1.842   4.878  13.041  1.00  0.00     0.011 A 
HETATM    5  C10 UNL     1      -1.425   4.158  11.919  1.00  0.00     0.043 A 
HETATM    6  C11 UNL     1      -2.370   3.628  11.034  1.00  0.00     0.117 A 
HETATM    7  F1  UNL     1      -1.948   2.934   9.968  1.00  0.00    -0.206 F 
HETATM    8  C12 UNL     1      -3.737   3.799  11.236  1.00  0.00     0.049 A 
HETATM    9  C13 UNL     1      -4.139   4.526  12.343  1.00  0.00    -0.048 A 
HETATM   10  C14 UNL     1      -5.536   4.822  12.798  1.00  0.00     0.055 C 
ENDROOT
BRANCH   1  11
HETATM   11  C2  UNL     1      -5.420   7.351  13.031  1.00  0.00     0.012 C 
HETATM   12  C1  UNL     1      -4.371   8.398  13.393  1.00  0.00     0.006 C 
ENDBRANCH   1  11
BRANCH   1  13
HETATM   13  C4  UNL     1      -6.390   5.952  14.887  1.00  0.00     0.035 A 
HETATM   14  C5  UNL     1      -7.473   5.108  15.033  1.00  0.00     0.114 A 
HETATM   15  N1  UNL     1      -8.085   5.497  16.192  1.00  0.00    -0.360 N 
HETATM   16  C6  UNL     1      -7.366   6.534  16.709  1.00  0.00     0.180 A 
HETATM   17  H7  UNL     1      -8.915   5.090  16.601  1.00  0.00     0.166 HD
HETATM   18  N2  UNL     1      -6.337   6.829  15.950  1.00  0.00    -0.354 N 
ATOM     19  H2  UNL     1      -5.642   7.557  16.112  1.00  0.00     0.166 HD
ENDBRANCH   1  13
TORSDOF 2
ENDMDL
MODEL 7
REMARK minimizedAffinity -6.497787
REMARK  2 active torsions:
REMARK  status: ('A' for Active; 'I' for Inactive)
REMARK    1  A    between atoms: C2_2  and  C3_3 
REMARK    2  A    between atoms: C3_3  and  C4_4 
ROOT
HETATM    1  C3  UNL     1      -5.486   5.823  13.883  1.00  0.00     0.011 C 
HETATM    2  C7  UNL     1      -4.253   5.084  13.269  1.00  0.00     0.055 C 
HETATM    3  C8  UNL     1      -3.273   6.196  13.045  1.00  0.00    -0.051 A 
HETATM    4  C9  UNL     1      -1.909   6.098  12.814  1.00  0.00     0.011 A 
HETATM    5  C10 UNL     1      -1.192   7.276  12.591  1.00  0.00     0.043 A 
HETATM    6  C11 UNL     1      -1.852   8.511  12.590  1.00  0.00     0.117 A 
HETATM    7  F1  UNL     1      -1.145   9.627  12.367  1.00  0.00    -0.206 F 
HETATM    8  C12 UNL     1      -3.223   8.606  12.809  1.00  0.00     0.049 A 
HETATM    9  C13 UNL     1      -3.922   7.434  13.043  1.00  0.00    -0.048 A 
HETATM   10  C14 UNL     1      -5.394   7.265  13.271  1.00  0.00     0.055 C 
ENDROOT
BRANCH   1  11
HETATM   11  C2  UNL     1      -5.373   5.935  15.439  1.00  0.00     0.012 C 
HETATM   12  C1  UNL     1      -6.667   6.272  16.174  1.00  0.00     0.006 C 
ENDBRANCH   1  11
BRANCH   1  13
HETATM   13  C4  UNL     1      -6.800   5.183  13.505  1.00  0.00     0.035 A 
HETATM   14  C5  UNL     1      -7.257   3.895  13.709  1.00  0.00     0.114 A 
HETATM   15  N1  UNL     1      -8.520   3.869  13.184  1.00  0.00    -0.360 N 
HETATM   16  C6  UNL     1      -8.790   5.114  12.698  1.00  0.00     0.180 A 
HETATM   17  H7  UNL     1      -9.147   3.076  13.164  1.00  0.00     0.166 HD
HETATM   18  N2  UNL     1      -7.777   5.929  12.880  1.00  0.00    -0.354 N 
ATOM     19  H2  UNL     1      -7.724   6.911  12.613  1.00  0.00     0.166 HD
ENDBRANCH   1  13
TORSDOF 2
ENDMDL
MODEL 8
REMARK minimizedAffinity -6.48698139
REMARK  2 active torsions:
REMARK  status: ('A' for Active; 'I' for Inactive)
REMARK    1  A    between atoms: C2_2  and  C3_3 
REMARK    2  A    between atoms: C3_3  and  C4_4 
ROOT
HETATM    1  C3  UNL     1      -7.306   5.756  14.726  1.00  0.00     0.011 C 
HETATM    2  C7  UNL     1      -6.626   6.137  13.371  1.00  0.00     0.055 C 
HETATM    3  C8  UNL     1      -5.166   6.107  13.707  1.00  0.00    -0.051 A 
HETATM    4  C9  UNL     1      -4.089   6.057  12.835  1.00  0.00     0.011 A 
HETATM    5  C10 UNL     1      -2.801   6.077  13.376  1.00  0.00     0.043 A 
HETATM    6  C11 UNL     1      -2.622   6.159  14.761  1.00  0.00     0.117 A 
HETATM    7  F1  UNL     1      -1.377   6.184  15.257  1.00  0.00    -0.206 F 
HETATM    8  C12 UNL     1      -3.704   6.221  15.635  1.00  0.00     0.049 A 
HETATM    9  C13 UNL     1      -4.976   6.187  15.090  1.00  0.00    -0.048 A 
HETATM   10  C14 UNL     1      -6.291   6.272  15.805  1.00  0.00     0.055 C 
ENDROOT
BRANCH   1  11
HETATM   11  C2  UNL     1      -7.451   4.206  14.881  1.00  0.00     0.012 C 
HETATM   12  C1  UNL     1      -7.541   3.415  13.580  1.00  0.00     0.006 C 
ENDBRANCH   1  11
BRANCH   1  13
HETATM   13  C4  UNL     1      -8.648   6.423  14.916  1.00  0.00     0.035 A 
HETATM   14  C5  UNL     1      -9.122   7.189  15.962  1.00  0.00     0.114 A 
HETATM   15  N1  UNL     1     -10.390   7.553  15.601  1.00  0.00    -0.360 N 
HETATM   16  C6  UNL     1     -10.638   7.019  14.371  1.00  0.00     0.180 A 
HETATM   17  H7  UNL     1     -11.030   8.122  16.140  1.00  0.00     0.166 HD
HETATM   18  N2  UNL     1      -9.608   6.337  13.929  1.00  0.00    -0.354 N 
ATOM     19  H2  UNL     1      -9.532   5.844  13.040  1.00  0.00     0.166 HD
ENDBRANCH   1  13
TORSDOF 2
ENDMDL
MODEL 9
REMARK minimizedAffinity -6.36276436
REMARK  2 active torsions:
REMARK  status: ('A' for Active; 'I' for Inactive)
REMARK    1  A    between atoms: C2_2  and  C3_3 
REMARK    2  A    between atoms: C3_3  and  C4_4 
ROOT
HETATM    1  C3  UNL     1      -4.856   6.248  14.551  1.00  0.00     0.011 C 
HETATM    2  C7  UNL     1      -6.326   5.772  14.791  1.00  0.00     0.055 C 
HETATM    3  C8  UNL     1      -6.450   4.593  13.873  1.00  0.00    -0.051 A 
HETATM    4  C9  UNL     1      -7.414   3.596  13.889  1.00  0.00     0.011 A 
HETATM    5  C10 UNL     1      -7.357   2.607  12.905  1.00  0.00     0.043 A 
HETATM    6  C11 UNL     1      -6.355   2.645  11.928  1.00  0.00     0.117 A 
HETATM    7  F1  UNL     1      -6.324   1.690  10.989  1.00  0.00    -0.206 F 
HETATM    8  C12 UNL     1      -5.395   3.653  11.906  1.00  0.00     0.049 A 
HETATM    9  C13 UNL     1      -5.453   4.621  12.894  1.00  0.00    -0.048 A 
HETATM   10  C14 UNL     1      -4.567   5.817  13.070  1.00  0.00     0.055 C 
ENDROOT
BRANCH   1  11
HETATM   11  C2  UNL     1      -3.850   5.506  15.491  1.00  0.00     0.012 C 
HETATM   12  C1  UNL     1      -2.407   5.444  14.999  1.00  0.00     0.006 C 
ENDBRANCH   1  11
BRANCH   1  13
HETATM   13  C4  UNL     1      -4.694   7.742  14.696  1.00  0.00     0.035 A 
HETATM   14  C5  UNL     1      -4.432   8.708  13.744  1.00  0.00     0.114 A 
HETATM   15  N1  UNL     1      -4.410   9.894  14.424  1.00  0.00    -0.360 N 
HETATM   16  C6  UNL     1      -4.665   9.621  15.736  1.00  0.00     0.180 A 
HETATM   17  H7  UNL     1      -4.244  10.811  14.031  1.00  0.00     0.166 HD
HETATM   18  N2  UNL     1      -4.845   8.337  15.932  1.00  0.00    -0.354 N 
ATOM     19  H2  UNL     1      -5.052   7.873  16.815  1.00  0.00     0.166 HD
ENDBRANCH   1  13
TORSDOF 2
ENDMDL
