MODEL 1
REMARK minimizedAffinity -7.76916361
REMARK CNNscore 0.671683133
REMARK CNNaffinity 7.54694796
REMARK  12 active torsions:
REMARK  status: ('A' for Active; 'I' for Inactive)
REMARK    1  A    between atoms: O1_2  and  C2_3 
REMARK    2  A    between atoms: C2_3  and  C5_6 
REMARK    3  A    between atoms: C6_7  and  C7_8 
REMARK    4  A    between atoms: C7_8  and  C8_9 
REMARK    5  A    between atoms: C8_9  and  C10_11 
REMARK    6  A    between atoms: C28_30  and  O3_31 
REMARK    7  A    between atoms: O3_31  and  C29_32 
REMARK    8  A    between atoms: C30_34  and  C31_35 
REMARK    9  A    between atoms: C31_35  and  O5_36 
REMARK   10  A    between atoms: C32_37  and  O6_38 
REMARK   11  A    between atoms: C33_39  and  O7_40 
REMARK   12  A    between atoms: C34_41  and  O8_42 
ROOT
HETATM    1  C10 UNL     1       3.009  55.754  -7.770  1.00  0.00    -0.002 C 
HETATM    2  C11 UNL     1       1.981  56.882  -7.419  1.00  0.00     0.006 C 
HETATM    3  C12 UNL     1       0.582  56.391  -7.862  1.00  0.00     0.011 C 
HETATM    4  C13 UNL     1       0.777  54.884  -8.105  1.00  0.00    -0.029 C 
HETATM    5  C14 UNL     1       0.763  54.241  -6.657  1.00  0.00     0.016 C 
HETATM    6  C15 UNL     1      -0.300  54.091  -8.933  1.00  0.00     0.028 C 
HETATM    7  C16 UNL     1      -1.462  54.765  -9.607  1.00  0.00    -0.021 C 
HETATM    8  C17 UNL     1      -2.153  54.100 -10.555  1.00  0.00     0.008 C 
HETATM    9  C18 UNL     1      -1.742  52.707 -11.066  1.00  0.00     0.092 C 
HETATM   10  O2  UNL     1      -0.760  53.017 -12.066  1.00  0.00    -0.374 OA
HETATM   11  C19 UNL     1       0.488  53.228 -11.353  1.00  0.00     0.179 C 
HETATM   12  C20 UNL     1       0.262  52.920  -9.830  1.00  0.00    -0.004 C 
HETATM   13  C21 UNL     1       1.543  52.351  -9.207  1.00  0.00     0.014 C 
HETATM   14  C22 UNL     1       2.659  53.396  -8.928  1.00  0.00     0.011 C 
HETATM   15  C23 UNL     1       2.194  54.868  -8.775  1.00  0.00    -0.032 C 
HETATM   16  C24 UNL     1       2.205  55.604 -10.149  1.00  0.00     0.016 C 
HETATM   17  C25 UNL     1      -0.891  51.909 -10.047  1.00  0.00     0.036 C 
HETATM   18  C26 UNL     1      -1.724  51.371  -8.884  1.00  0.00     0.011 C 
HETATM   19  C27 UNL     1      -2.884  50.524  -9.409  1.00  0.00     0.033 C 
HETATM   20  C28 UNL     1      -3.748  51.287 -10.433  1.00  0.00     0.136 C 
HETATM   21  C35 UNL     1      -2.907  51.829 -11.635  1.00  0.00     0.014 C 
HETATM   22  C36 UNL     1      -2.356  50.659 -12.496  1.00  0.00     0.021 C 
HETATM   23  C37 UNL     1      -3.828  52.629 -12.591  1.00  0.00     0.021 C 
ENDROOT
BRANCH  20  24
HETATM   24  O3  UNL     1      -4.808  50.464 -10.946  1.00  0.00    -0.352 OA
BRANCH  24  25
HETATM   25  C29 UNL     1      -5.571  49.792  -9.942  1.00  0.00     0.292 C 
HETATM   26  O4  UNL     1      -5.154  48.438  -9.804  1.00  0.00    -0.348 OA
HETATM   27  C30 UNL     1      -5.384  47.580 -10.938  1.00  0.00     0.179 C 
HETATM   28  C32 UNL     1      -6.618  47.975 -11.764  1.00  0.00     0.180 C 
HETATM   29  C33 UNL     1      -7.641  48.613 -10.836  1.00  0.00     0.183 C 
HETATM   30  C34 UNL     1      -7.076  49.926 -10.293  1.00  0.00     0.204 C 
BRANCH  27  31
HETATM   31  C31 UNL     1      -4.141  47.465 -11.832  1.00  0.00     0.198 C 
BRANCH  31  32
HETATM   32  O5  UNL     1      -4.483  47.691 -13.201  1.00  0.00    -0.398 OA
HETATM   33  H48 UNL     1      -3.656  47.649 -13.710  1.00  0.00     0.209 HD
ENDBRANCH  31  32
ENDBRANCH  27  31
BRANCH  28  34
HETATM   34  O6  UNL     1      -7.189  46.827 -12.408  1.00  0.00    -0.390 OA
HETATM   35  H50 UNL     1      -8.101  47.096 -12.639  1.00  0.00     0.210 HD
ENDBRANCH  28  34
BRANCH  29  36
HETATM   36  O7  UNL     1      -8.861  48.863 -11.558  1.00  0.00    -0.390 OA
HETATM   37  H52 UNL     1      -9.432  49.336 -10.922  1.00  0.00     0.210 HD
ENDBRANCH  29  36
BRANCH  30  38
HETATM   38  O8  UNL     1      -7.882  50.302  -9.156  1.00  0.00    -0.388 OA
HETATM   39  H54 UNL     1      -7.574  51.178  -8.861  1.00  0.00     0.210 HD
ENDBRANCH  30  38
ENDBRANCH  24  25
ENDBRANCH  20  24
BRANCH   1  40
HETATM   40  C8  UNL     1       4.404  56.334  -8.161  1.00  0.00    -0.010 C 
HETATM   41  C9  UNL     1       5.517  55.291  -8.030  1.00  0.00     0.010 C 
BRANCH  40  42
HETATM   42  C7  UNL     1       4.731  57.573  -7.280  1.00  0.00     0.031 C 
BRANCH  42  43
HETATM   43  C6  UNL     1       5.986  57.558  -6.439  1.00  0.00    -0.027 C 
HETATM   44  C5  UNL     1       6.094  57.846  -5.130  1.00  0.00     0.006 C 
BRANCH  44  45
HETATM   45  C2  UNL     1       7.350  57.830  -4.276  1.00  0.00     0.070 C 
HETATM   46  C3  UNL     1       7.261  57.018  -2.977  1.00  0.00     0.050 C 
HETATM   47  C4  UNL     1       7.680  59.286  -3.906  1.00  0.00     0.050 C 
BRANCH  45  48
HETATM   48  O1  UNL     1       8.450  57.393  -5.094  1.00  0.00    -0.382 OA
HETATM   49  C1  UNL     1       9.644  58.155  -4.995  1.00  0.00     0.202 C 
ENDBRANCH  45  48
ENDBRANCH  44  45
ENDBRANCH  42  43
ENDBRANCH  40  42
ENDBRANCH   1  40
TORSDOF 12
ENDMDL
MODEL 2
REMARK minimizedAffinity -7.58627558
REMARK CNNscore 0.490843117
REMARK CNNaffinity 7.40092087
REMARK  12 active torsions:
REMARK  status: ('A' for Active; 'I' for Inactive)
REMARK    1  A    between atoms: O1_2  and  C2_3 
REMARK    2  A    between atoms: C2_3  and  C5_6 
REMARK    3  A    between atoms: C6_7  and  C7_8 
REMARK    4  A    between atoms: C7_8  and  C8_9 
REMARK    5  A    between atoms: C8_9  and  C10_11 
REMARK    6  A    between atoms: C28_30  and  O3_31 
REMARK    7  A    between atoms: O3_31  and  C29_32 
REMARK    8  A    between atoms: C30_34  and  C31_35 
REMARK    9  A    between atoms: C31_35  and  O5_36 
REMARK   10  A    between atoms: C32_37  and  O6_38 
REMARK   11  A    between atoms: C33_39  and  O7_40 
REMARK   12  A    between atoms: C34_41  and  O8_42 
ROOT
HETATM    1  C10 UNL     1      -1.845  52.514  -9.468  1.00  0.00    -0.002 C 
HETATM    2  C11 UNL     1      -3.108  53.375  -9.808  1.00  0.00     0.006 C 
HETATM    3  C12 UNL     1      -3.617  52.927 -11.198  1.00  0.00     0.011 C 
HETATM    4  C13 UNL     1      -2.883  51.599 -11.452  1.00  0.00    -0.029 C 
HETATM    5  C14 UNL     1      -3.681  50.531 -10.595  1.00  0.00     0.016 C 
HETATM    6  C15 UNL     1      -2.825  51.016 -12.912  1.00  0.00     0.028 C 
HETATM    7  C16 UNL     1      -3.357  51.761 -14.104  1.00  0.00    -0.021 C 
HETATM    8  C17 UNL     1      -2.994  51.372 -15.343  1.00  0.00     0.008 C 
HETATM    9  C18 UNL     1      -1.966  50.256 -15.600  1.00  0.00     0.092 C 
HETATM   10  O2  UNL     1      -0.714  50.953 -15.504  1.00  0.00    -0.374 OA
HETATM   11  C19 UNL     1      -0.409  51.039 -14.087  1.00  0.00     0.179 C 
HETATM   12  C20 UNL     1      -1.499  50.245 -13.282  1.00  0.00    -0.004 C 
HETATM   13  C21 UNL     1      -0.883  49.625 -12.022  1.00  0.00     0.014 C 
HETATM   14  C22 UNL     1      -0.616  50.624 -10.861  1.00  0.00     0.011 C 
HETATM   15  C23 UNL     1      -1.464  51.923 -10.869  1.00  0.00    -0.032 C 
HETATM   16  C24 UNL     1      -0.745  53.055 -11.665  1.00  0.00     0.016 C 
HETATM   17  C25 UNL     1      -1.842  49.256 -14.423  1.00  0.00     0.036 C 
HETATM   18  C26 UNL     1      -3.035  48.304 -14.338  1.00  0.00     0.011 C 
HETATM   19  C27 UNL     1      -3.223  47.567 -15.664  1.00  0.00     0.033 C 
HETATM   20  C28 UNL     1      -3.342  48.534 -16.859  1.00  0.00     0.136 C 
HETATM   21  C35 UNL     1      -2.118  49.503 -16.964  1.00  0.00     0.014 C 
HETATM   22  C36 UNL     1      -0.824  48.720 -17.319  1.00  0.00     0.021 C 
HETATM   23  C37 UNL     1      -2.333  50.478 -18.149  1.00  0.00     0.021 C 
ENDROOT
BRANCH  20  24
HETATM   24  O3  UNL     1      -3.477  47.825 -18.101  1.00  0.00    -0.352 OA
BRANCH  24  25
HETATM   25  C29 UNL     1      -4.815  47.432 -18.412  1.00  0.00     0.292 C 
HETATM   26  O4  UNL     1      -4.848  46.601 -19.567  1.00  0.00    -0.348 OA
HETATM   27  C30 UNL     1      -4.451  47.215 -20.808  1.00  0.00     0.179 C 
HETATM   28  C32 UNL     1      -4.762  48.718 -20.874  1.00  0.00     0.180 C 
HETATM   29  C33 UNL     1      -5.998  48.997 -20.032  1.00  0.00     0.183 C 
HETATM   30  C34 UNL     1      -5.682  48.711 -18.565  1.00  0.00     0.204 C 
BRANCH  27  31
HETATM   31  C31 UNL     1      -2.974  46.946 -21.133  1.00  0.00     0.198 C 
BRANCH  31  32
HETATM   32  O5  UNL     1      -2.264  48.174 -21.300  1.00  0.00    -0.398 OA
HETATM   33  H48 UNL     1      -1.334  47.944 -21.459  1.00  0.00     0.209 HD
ENDBRANCH  31  32
ENDBRANCH  27  31
BRANCH  28  34
HETATM   34  O6  UNL     1      -4.986  49.132 -22.229  1.00  0.00    -0.390 OA
HETATM   35  H50 UNL     1      -5.464  49.983 -22.155  1.00  0.00     0.210 HD
ENDBRANCH  28  34
BRANCH  29  36
HETATM   36  O7  UNL     1      -6.392  50.372 -20.191  1.00  0.00    -0.390 OA
HETATM   37  H52 UNL     1      -7.136  50.490 -19.570  1.00  0.00     0.210 HD
ENDBRANCH  29  36
BRANCH  30  38
HETATM   38  O8  UNL     1      -6.940  48.617 -17.865  1.00  0.00    -0.388 OA
HETATM   39  H54 UNL     1      -6.737  48.516 -16.917  1.00  0.00     0.210 HD
ENDBRANCH  30  38
ENDBRANCH  24  25
ENDBRANCH  20  24
BRANCH   1  40
HETATM   40  C8  UNL     1      -0.802  53.312  -8.623  1.00  0.00    -0.010 C 
HETATM   41  C9  UNL     1      -1.158  53.323  -7.134  1.00  0.00     0.010 C 
BRANCH  40  42
HETATM   42  C7  UNL     1      -0.691  54.769  -9.153  1.00  0.00     0.031 C 
BRANCH  42  43
HETATM   43  C6  UNL     1       0.667  55.299  -9.550  1.00  0.00    -0.027 C 
HETATM   44  C5  UNL     1       1.791  55.295  -8.812  1.00  0.00     0.006 C 
BRANCH  44  45
HETATM   45  C2  UNL     1       3.161  55.819  -9.204  1.00  0.00     0.070 C 
HETATM   46  C3  UNL     1       3.634  57.072  -8.453  1.00  0.00     0.050 C 
HETATM   47  C4  UNL     1       3.121  56.150 -10.705  1.00  0.00     0.050 C 
BRANCH  45  48
HETATM   48  O1  UNL     1       4.110  54.745  -9.082  1.00  0.00    -0.382 OA
HETATM   49  C1  UNL     1       4.057  53.997  -7.876  1.00  0.00     0.202 C 
ENDBRANCH  45  48
ENDBRANCH  44  45
ENDBRANCH  42  43
ENDBRANCH  40  42
ENDBRANCH   1  40
TORSDOF 12
ENDMDL
MODEL 3
REMARK minimizedAffinity -8.67080784
REMARK CNNscore 0.4481695
REMARK CNNaffinity 6.37013483
REMARK  12 active torsions:
REMARK  status: ('A' for Active; 'I' for Inactive)
REMARK    1  A    between atoms: O1_2  and  C2_3 
REMARK    2  A    between atoms: C2_3  and  C5_6 
REMARK    3  A    between atoms: C6_7  and  C7_8 
REMARK    4  A    between atoms: C7_8  and  C8_9 
REMARK    5  A    between atoms: C8_9  and  C10_11 
REMARK    6  A    between atoms: C28_30  and  O3_31 
REMARK    7  A    between atoms: O3_31  and  C29_32 
REMARK    8  A    between atoms: C30_34  and  C31_35 
REMARK    9  A    between atoms: C31_35  and  O5_36 
REMARK   10  A    between atoms: C32_37  and  O6_38 
REMARK   11  A    between atoms: C33_39  and  O7_40 
REMARK   12  A    between atoms: C34_41  and  O8_42 
ROOT
HETATM    1  C10 UNL     1      -8.111  46.849 -29.773  1.00  0.00    -0.002 C 
HETATM    2  C11 UNL     1      -7.660  45.417 -29.326  1.00  0.00     0.006 C 
HETATM    3  C12 UNL     1      -8.824  44.792 -28.522  1.00  0.00     0.011 C 
HETATM    4  C13 UNL     1     -10.024  45.701 -28.837  1.00  0.00    -0.029 C 
HETATM    5  C14 UNL     1     -10.506  45.241 -30.275  1.00  0.00     0.016 C 
HETATM    6  C15 UNL     1     -11.301  45.641 -27.920  1.00  0.00     0.028 C 
HETATM    7  C16 UNL     1     -11.360  44.813 -26.666  1.00  0.00    -0.021 C 
HETATM    8  C17 UNL     1     -12.333  45.049 -25.764  1.00  0.00     0.008 C 
HETATM    9  C18 UNL     1     -13.339  46.206 -25.902  1.00  0.00     0.092 C 
HETATM   10  O2  UNL     1     -12.618  47.316 -25.344  1.00  0.00    -0.374 OA
HETATM   11  C19 UNL     1     -11.756  47.811 -26.402  1.00  0.00     0.179 C 
HETATM   12  C20 UNL     1     -12.058  47.011 -27.720  1.00  0.00    -0.004 C 
HETATM   13  C21 UNL     1     -11.851  47.909 -28.947  1.00  0.00     0.014 C 
HETATM   14  C22 UNL     1     -10.367  48.167 -29.330  1.00  0.00     0.011 C 
HETATM   15  C23 UNL     1      -9.341  47.112 -28.837  1.00  0.00    -0.032 C 
HETATM   16  C24 UNL     1      -8.777  47.494 -27.434  1.00  0.00     0.016 C 
HETATM   17  C25 UNL     1     -13.528  46.679 -27.365  1.00  0.00     0.036 C 
HETATM   18  C26 UNL     1     -14.359  45.699 -28.193  1.00  0.00     0.011 C 
HETATM   19  C27 UNL     1     -15.709  45.447 -27.520  1.00  0.00     0.033 C 
HETATM   20  C28 UNL     1     -15.556  44.981 -26.059  1.00  0.00     0.136 C 
HETATM   21  C35 UNL     1     -14.719  45.986 -25.199  1.00  0.00     0.014 C 
HETATM   22  C36 UNL     1     -15.480  47.329 -25.025  1.00  0.00     0.021 C 
HETATM   23  C37 UNL     1     -14.561  45.428 -23.762  1.00  0.00     0.021 C 
ENDROOT
BRANCH  20  24
HETATM   24  O3  UNL     1     -16.833  44.788 -25.430  1.00  0.00    -0.352 OA
BRANCH  24  25
HETATM   25  C29 UNL     1     -17.886  44.437 -26.330  1.00  0.00     0.292 C 
HETATM   26  O4  UNL     1     -18.969  45.356 -26.232  1.00  0.00    -0.348 OA
HETATM   27  C30 UNL     1     -19.680  45.374 -24.979  1.00  0.00     0.179 C 
HETATM   28  C32 UNL     1     -19.693  44.015 -24.263  1.00  0.00     0.180 C 
HETATM   29  C33 UNL     1     -19.648  42.912 -25.310  1.00  0.00     0.183 C 
HETATM   30  C34 UNL     1     -18.310  42.972 -26.046  1.00  0.00     0.204 C 
BRANCH  27  31
HETATM   31  C31 UNL     1     -19.166  46.480 -24.045  1.00  0.00     0.198 C 
BRANCH  31  32
HETATM   32  O5  UNL     1     -18.972  47.698 -24.768  1.00  0.00    -0.398 OA
HETATM   33  H48 UNL     1     -18.690  48.367 -24.123  1.00  0.00     0.209 HD
ENDBRANCH  31  32
ENDBRANCH  27  31
BRANCH  28  34
HETATM   34  O6  UNL     1     -20.870  43.877 -23.455  1.00  0.00    -0.390 OA
HETATM   35  H50 UNL     1     -20.954  42.915 -23.295  1.00  0.00     0.210 HD
ENDBRANCH  28  34
BRANCH  29  36
HETATM   36  O7  UNL     1     -19.803  41.632 -24.672  1.00  0.00    -0.390 OA
HETATM   37  H52 UNL     1     -19.689  40.981 -25.392  1.00  0.00     0.210 HD
ENDBRANCH  29  36
BRANCH  30  38
HETATM   38  O8  UNL     1     -18.447  42.189 -27.250  1.00  0.00    -0.388 OA
HETATM   39  H54 UNL     1     -17.571  42.160 -27.677  1.00  0.00     0.210 HD
ENDBRANCH  30  38
ENDBRANCH  24  25
ENDBRANCH  20  24
BRANCH   1  40
HETATM   40  C8  UNL     1      -6.914  47.850 -29.827  1.00  0.00    -0.010 C 
HETATM   41  C9  UNL     1      -6.502  48.173 -31.266  1.00  0.00     0.010 C 
BRANCH  40  42
HETATM   42  C7  UNL     1      -5.702  47.272 -29.045  1.00  0.00     0.031 C 
BRANCH  42  43
HETATM   43  C6  UNL     1      -5.200  48.013 -27.827  1.00  0.00    -0.027 C 
HETATM   44  C5  UNL     1      -3.990  48.574 -27.655  1.00  0.00     0.006 C 
BRANCH  44  45
HETATM   45  C2  UNL     1      -3.478  49.325 -26.439  1.00  0.00     0.070 C 
HETATM   46  C3  UNL     1      -2.046  48.987 -26.001  1.00  0.00     0.050 C 
HETATM   47  C4  UNL     1      -4.422  49.009 -25.266  1.00  0.00     0.050 C 
BRANCH  45  48
HETATM   48  O1  UNL     1      -3.635  50.735 -26.677  1.00  0.00    -0.382 OA
HETATM   49  C1  UNL     1      -3.389  51.588 -25.568  1.00  0.00     0.202 C 
ENDBRANCH  45  48
ENDBRANCH  44  45
ENDBRANCH  42  43
ENDBRANCH  40  42
ENDBRANCH   1  40
TORSDOF 12
ENDMDL
MODEL 4
REMARK minimizedAffinity -8.30043411
REMARK CNNscore 0.383077949
REMARK CNNaffinity 7.3869338
REMARK  12 active torsions:
REMARK  status: ('A' for Active; 'I' for Inactive)
REMARK    1  A    between atoms: O1_2  and  C2_3 
REMARK    2  A    between atoms: C2_3  and  C5_6 
REMARK    3  A    between atoms: C6_7  and  C7_8 
REMARK    4  A    between atoms: C7_8  and  C8_9 
REMARK    5  A    between atoms: C8_9  and  C10_11 
REMARK    6  A    between atoms: C28_30  and  O3_31 
REMARK    7  A    between atoms: O3_31  and  C29_32 
REMARK    8  A    between atoms: C30_34  and  C31_35 
REMARK    9  A    between atoms: C31_35  and  O5_36 
REMARK   10  A    between atoms: C32_37  and  O6_38 
REMARK   11  A    between atoms: C33_39  and  O7_40 
REMARK   12  A    between atoms: C34_41  and  O8_42 
ROOT
HETATM    1  C10 UNL     1      -3.507  50.433 -24.808  1.00  0.00    -0.002 C 
HETATM    2  C11 UNL     1      -4.537  51.526 -24.366  1.00  0.00     0.006 C 
HETATM    3  C12 UNL     1      -4.787  51.345 -22.850  1.00  0.00     0.011 C 
HETATM    4  C13 UNL     1      -3.645  50.422 -22.393  1.00  0.00    -0.029 C 
HETATM    5  C14 UNL     1      -2.385  51.374 -22.273  1.00  0.00     0.016 C 
HETATM    6  C15 UNL     1      -3.756  49.685 -21.007  1.00  0.00     0.028 C 
HETATM    7  C16 UNL     1      -4.991  49.748 -20.152  1.00  0.00    -0.021 C 
HETATM    8  C17 UNL     1      -5.152  48.853 -19.157  1.00  0.00     0.008 C 
HETATM    9  C18 UNL     1      -4.175  47.689 -18.913  1.00  0.00     0.092 C 
HETATM   10  O2  UNL     1      -4.648  46.686 -19.827  1.00  0.00    -0.374 OA
HETATM   11  C19 UNL     1      -4.079  47.020 -21.120  1.00  0.00     0.179 C 
HETATM   12  C20 UNL     1      -3.111  48.245 -20.951  1.00  0.00    -0.004 C 
HETATM   13  C21 UNL     1      -1.952  48.150 -21.950  1.00  0.00     0.014 C 
HETATM   14  C22 UNL     1      -2.315  48.518 -23.416  1.00  0.00     0.011 C 
HETATM   15  C23 UNL     1      -3.557  49.430 -23.604  1.00  0.00    -0.032 C 
HETATM   16  C24 UNL     1      -4.854  48.581 -23.767  1.00  0.00     0.016 C 
HETATM   17  C25 UNL     1      -2.755  47.956 -19.472  1.00  0.00     0.036 C 
HETATM   18  C26 UNL     1      -1.970  48.952 -18.619  1.00  0.00     0.011 C 
HETATM   19  C27 UNL     1      -1.906  48.475 -17.168  1.00  0.00     0.033 C 
HETATM   20  C28 UNL     1      -3.304  48.192 -16.583  1.00  0.00     0.136 C 
HETATM   21  C35 UNL     1      -4.110  47.162 -17.441  1.00  0.00     0.014 C 
HETATM   22  C36 UNL     1      -3.451  45.756 -17.378  1.00  0.00     0.021 C 
HETATM   23  C37 UNL     1      -5.520  46.970 -16.826  1.00  0.00     0.021 C 
ENDROOT
BRANCH  20  24
HETATM   24  O3  UNL     1      -3.224  47.706 -15.234  1.00  0.00    -0.352 OA
BRANCH  24  25
HETATM   25  C29 UNL     1      -2.170  48.285 -14.461  1.00  0.00     0.292 C 
HETATM   26  O4  UNL     1      -1.751  47.402 -13.426  1.00  0.00    -0.348 OA
HETATM   27  C30 UNL     1      -2.719  47.121 -12.396  1.00  0.00     0.179 C 
HETATM   28  C32 UNL     1      -3.691  48.282 -12.137  1.00  0.00     0.180 C 
HETATM   29  C33 UNL     1      -2.976  49.592 -12.433  1.00  0.00     0.183 C 
HETATM   30  C34 UNL     1      -2.649  49.660 -13.924  1.00  0.00     0.204 C 
BRANCH  27  31
HETATM   31  C31 UNL     1      -3.482  45.817 -12.668  1.00  0.00     0.198 C 
BRANCH  31  32
HETATM   32  O5  UNL     1      -3.483  44.984 -11.507  1.00  0.00    -0.398 OA
HETATM   33  H48 UNL     1      -4.013  44.199 -11.723  1.00  0.00     0.209 HD
ENDBRANCH  31  32
ENDBRANCH  27  31
BRANCH  28  34
HETATM   34  O6  UNL     1      -4.149  48.269 -10.778  1.00  0.00    -0.390 OA
HETATM   35  H50 UNL     1      -4.493  49.171 -10.620  1.00  0.00     0.210 HD
ENDBRANCH  28  34
BRANCH  29  36
HETATM   36  O7  UNL     1      -3.819  50.698 -12.064  1.00  0.00    -0.390 OA
HETATM   37  H52 UNL     1      -3.327  51.491 -12.351  1.00  0.00     0.210 HD
ENDBRANCH  29  36
BRANCH  30  38
HETATM   38  O8  UNL     1      -1.664  50.700 -14.101  1.00  0.00    -0.388 OA
HETATM   39  H54 UNL     1      -1.517  50.798 -15.059  1.00  0.00     0.210 HD
ENDBRANCH  30  38
ENDBRANCH  24  25
ENDBRANCH  20  24
BRANCH   1  40
HETATM   40  C8  UNL     1      -3.760  49.946 -26.269  1.00  0.00    -0.010 C 
HETATM   41  C9  UNL     1      -3.402  48.468 -26.452  1.00  0.00     0.010 C 
BRANCH  40  42
HETATM   42  C7  UNL     1      -2.946  50.816 -27.268  1.00  0.00     0.031 C 
BRANCH  42  43
HETATM   43  C6  UNL     1      -1.604  51.358 -26.836  1.00  0.00    -0.027 C 
HETATM   44  C5  UNL     1      -0.526  51.579 -27.610  1.00  0.00     0.006 C 
BRANCH  44  45
HETATM   45  C2  UNL     1       0.825  52.128 -27.187  1.00  0.00     0.070 C 
HETATM   46  C3  UNL     1       1.989  51.844 -28.146  1.00  0.00     0.050 C 
HETATM   47  C4  UNL     1       1.171  51.510 -25.821  1.00  0.00     0.050 C 
BRANCH  45  48
HETATM   48  O1  UNL     1       0.684  53.537 -26.936  1.00  0.00    -0.382 OA
HETATM   49  C1  UNL     1      -0.230  54.233 -27.772  1.00  0.00     0.202 C 
ENDBRANCH  45  48
ENDBRANCH  44  45
ENDBRANCH  42  43
ENDBRANCH  40  42
ENDBRANCH   1  40
TORSDOF 12
ENDMDL
MODEL 5
REMARK minimizedAffinity -7.92644453
REMARK CNNscore 0.355599821
REMARK CNNaffinity 6.53212404
REMARK  12 active torsions:
REMARK  status: ('A' for Active; 'I' for Inactive)
REMARK    1  A    between atoms: O1_2  and  C2_3 
REMARK    2  A    between atoms: C2_3  and  C5_6 
REMARK    3  A    between atoms: C6_7  and  C7_8 
REMARK    4  A    between atoms: C7_8  and  C8_9 
REMARK    5  A    between atoms: C8_9  and  C10_11 
REMARK    6  A    between atoms: C28_30  and  O3_31 
REMARK    7  A    between atoms: O3_31  and  C29_32 
REMARK    8  A    between atoms: C30_34  and  C31_35 
REMARK    9  A    between atoms: C31_35  and  O5_36 
REMARK   10  A    between atoms: C32_37  and  O6_38 
REMARK   11  A    between atoms: C33_39  and  O7_40 
REMARK   12  A    between atoms: C34_41  and  O8_42 
ROOT
HETATM    1  C10 UNL     1      -6.348  47.353 -30.945  1.00  0.00    -0.002 C 
HETATM    2  C11 UNL     1      -6.951  48.780 -31.171  1.00  0.00     0.006 C 
HETATM    3  C12 UNL     1      -8.334  48.817 -30.479  1.00  0.00     0.011 C 
HETATM    4  C13 UNL     1      -8.331  47.571 -29.576  1.00  0.00    -0.029 C 
HETATM    5  C14 UNL     1      -7.467  47.994 -28.316  1.00  0.00     0.016 C 
HETATM    6  C15 UNL     1      -9.691  47.033 -28.999  1.00  0.00     0.028 C 
HETATM    7  C16 UNL     1     -11.023  47.613 -29.387  1.00  0.00    -0.021 C 
HETATM    8  C17 UNL     1     -12.148  46.918 -29.125  1.00  0.00     0.008 C 
HETATM    9  C18 UNL     1     -12.134  45.495 -28.538  1.00  0.00     0.092 C 
HETATM   10  O2  UNL     1     -11.956  44.676 -29.704  1.00  0.00    -0.374 OA
HETATM   11  C19 UNL     1     -10.531  44.678 -29.984  1.00  0.00     0.179 C 
HETATM   12  C20 UNL     1      -9.790  45.465 -28.845  1.00  0.00    -0.004 C 
HETATM   13  C21 UNL     1      -8.394  44.873 -28.610  1.00  0.00     0.014 C 
HETATM   14  C22 UNL     1      -7.334  45.240 -29.685  1.00  0.00     0.011 C 
HETATM   15  C23 UNL     1      -7.608  46.532 -30.500  1.00  0.00    -0.032 C 
HETATM   16  C24 UNL     1      -8.428  46.216 -31.788  1.00  0.00     0.016 C 
HETATM   17  C25 UNL     1     -10.842  45.174 -27.747  1.00  0.00     0.036 C 
HETATM   18  C26 UNL     1     -10.804  45.866 -26.385  1.00  0.00     0.011 C 
HETATM   19  C27 UNL     1     -12.047  45.507 -25.571  1.00  0.00     0.033 C 
HETATM   20  C28 UNL     1     -13.352  45.808 -26.334  1.00  0.00     0.136 C 
HETATM   21  C35 UNL     1     -13.408  45.092 -27.723  1.00  0.00     0.014 C 
HETATM   22  C36 UNL     1     -13.494  43.550 -27.546  1.00  0.00     0.021 C 
HETATM   23  C37 UNL     1     -14.718  45.483 -28.454  1.00  0.00     0.021 C 
ENDROOT
BRANCH  20  24
HETATM   24  O3  UNL     1     -14.509  45.428 -25.572  1.00  0.00    -0.352 OA
BRANCH  24  25
HETATM   25  C29 UNL     1     -15.585  46.368 -25.625  1.00  0.00     0.292 C 
HETATM   26  O4  UNL     1     -15.309  47.506 -24.815  1.00  0.00    -0.348 OA
HETATM   27  C30 UNL     1     -15.222  47.274 -23.396  1.00  0.00     0.179 C 
HETATM   28  C32 UNL     1     -16.112  46.120 -22.908  1.00  0.00     0.180 C 
HETATM   29  C33 UNL     1     -17.335  46.035 -23.809  1.00  0.00     0.183 C 
HETATM   30  C34 UNL     1     -16.895  45.643 -25.219  1.00  0.00     0.204 C 
BRANCH  27  31
HETATM   31  C31 UNL     1     -13.770  47.078 -22.935  1.00  0.00     0.198 C 
BRANCH  31  32
HETATM   32  O5  UNL     1     -13.578  47.625 -21.629  1.00  0.00    -0.398 OA
HETATM   33  H48 UNL     1     -12.660  47.435 -21.375  1.00  0.00     0.209 HD
ENDBRANCH  31  32
ENDBRANCH  27  31
BRANCH  28  34
HETATM   34  O6  UNL     1     -16.516  46.329 -21.548  1.00  0.00    -0.390 OA
HETATM   35  H50 UNL     1     -17.294  45.748 -21.426  1.00  0.00     0.210 HD
ENDBRANCH  28  34
BRANCH  29  36
HETATM   36  O7  UNL     1     -18.252  45.055 -23.289  1.00  0.00    -0.390 OA
HETATM   37  H52 UNL     1     -18.966  45.007 -23.954  1.00  0.00     0.210 HD
ENDBRANCH  29  36
BRANCH  30  38
HETATM   38  O8  UNL     1     -17.992  45.936 -26.109  1.00  0.00    -0.388 OA
HETATM   39  H54 UNL     1     -17.742  45.611 -26.993  1.00  0.00     0.210 HD
ENDBRANCH  30  38
ENDBRANCH  24  25
ENDBRANCH  20  24
BRANCH   1  40
HETATM   40  C8  UNL     1      -5.472  46.889 -32.151  1.00  0.00    -0.010 C 
HETATM   41  C9  UNL     1      -6.309  46.657 -33.412  1.00  0.00     0.010 C 
BRANCH  40  42
HETATM   42  C7  UNL     1      -4.701  45.590 -31.780  1.00  0.00     0.031 C 
BRANCH  42  43
HETATM   43  C6  UNL     1      -4.771  44.408 -32.718  1.00  0.00    -0.027 C 
HETATM   44  C5  UNL     1      -4.104  43.245 -32.614  1.00  0.00     0.006 C 
BRANCH  44  45
HETATM   45  C2  UNL     1      -4.171  42.049 -33.548  1.00  0.00     0.070 C 
HETATM   46  C3  UNL     1      -5.486  41.258 -33.524  1.00  0.00     0.050 C 
HETATM   47  C4  UNL     1      -3.031  41.092 -33.161  1.00  0.00     0.050 C 
BRANCH  45  48
HETATM   48  O1  UNL     1      -3.851  42.494 -34.879  1.00  0.00    -0.382 OA
HETATM   49  C1  UNL     1      -4.279  41.653 -35.939  1.00  0.00     0.202 C 
ENDBRANCH  45  48
ENDBRANCH  44  45
ENDBRANCH  42  43
ENDBRANCH  40  42
ENDBRANCH   1  40
TORSDOF 12
ENDMDL
MODEL 6
REMARK minimizedAffinity -7.73503065
REMARK CNNscore 0.35286957
REMARK CNNaffinity 6.30073547
REMARK  12 active torsions:
REMARK  status: ('A' for Active; 'I' for Inactive)
REMARK    1  A    between atoms: O1_2  and  C2_3 
REMARK    2  A    between atoms: C2_3  and  C5_6 
REMARK    3  A    between atoms: C6_7  and  C7_8 
REMARK    4  A    between atoms: C7_8  and  C8_9 
REMARK    5  A    between atoms: C8_9  and  C10_11 
REMARK    6  A    between atoms: C28_30  and  O3_31 
REMARK    7  A    between atoms: O3_31  and  C29_32 
REMARK    8  A    between atoms: C30_34  and  C31_35 
REMARK    9  A    between atoms: C31_35  and  O5_36 
REMARK   10  A    between atoms: C32_37  and  O6_38 
REMARK   11  A    between atoms: C33_39  and  O7_40 
REMARK   12  A    between atoms: C34_41  and  O8_42 
ROOT
HETATM    1  C10 UNL     1       7.915  63.560 -34.226  1.00  0.00    -0.002 C 
HETATM    2  C11 UNL     1       8.198  64.714 -33.206  1.00  0.00     0.006 C 
HETATM    3  C12 UNL     1       7.247  65.884 -33.551  1.00  0.00     0.011 C 
HETATM    4  C13 UNL     1       6.207  65.252 -34.493  1.00  0.00    -0.029 C 
HETATM    5  C14 UNL     1       5.220  64.470 -33.531  1.00  0.00     0.016 C 
HETATM    6  C15 UNL     1       5.295  66.185 -35.372  1.00  0.00     0.028 C 
HETATM    7  C16 UNL     1       5.474  67.677 -35.425  1.00  0.00    -0.021 C 
HETATM    8  C17 UNL     1       4.896  68.376 -36.422  1.00  0.00     0.008 C 
HETATM    9  C18 UNL     1       4.141  67.707 -37.584  1.00  0.00     0.092 C 
HETATM   10  O2  UNL     1       5.200  67.374 -38.496  1.00  0.00    -0.374 OA
HETATM   11  C19 UNL     1       5.765  66.125 -38.017  1.00  0.00     0.179 C 
HETATM   12  C20 UNL     1       4.918  65.618 -36.796  1.00  0.00    -0.004 C 
HETATM   13  C21 UNL     1       4.900  64.084 -36.762  1.00  0.00     0.014 C 
HETATM   14  C22 UNL     1       6.210  63.422 -36.250  1.00  0.00     0.011 C 
HETATM   15  C23 UNL     1       7.115  64.304 -35.350  1.00  0.00    -0.032 C 
HETATM   16  C24 UNL     1       8.152  65.095 -36.205  1.00  0.00     0.016 C 
HETATM   17  C25 UNL     1       3.598  66.300 -37.231  1.00  0.00     0.036 C 
HETATM   18  C26 UNL     1       2.377  66.359 -36.313  1.00  0.00     0.011 C 
HETATM   19  C27 UNL     1       1.284  67.226 -36.938  1.00  0.00     0.033 C 
HETATM   20  C28 UNL     1       1.794  68.633 -37.310  1.00  0.00     0.136 C 
HETATM   21  C35 UNL     1       3.035  68.584 -38.261  1.00  0.00     0.014 C 
HETATM   22  C36 UNL     1       2.641  68.013 -39.652  1.00  0.00     0.021 C 
HETATM   23  C37 UNL     1       3.524  70.026 -38.546  1.00  0.00     0.021 C 
ENDROOT
BRANCH  20  24
HETATM   24  O3  UNL     1       0.766  69.420 -37.932  1.00  0.00    -0.352 OA
BRANCH  24  25
HETATM   25  C29 UNL     1      -0.492  69.387 -37.255  1.00  0.00     0.292 C 
HETATM   26  O4  UNL     1      -1.548  69.069 -38.155  1.00  0.00    -0.348 OA
HETATM   27  C30 UNL     1      -1.822  70.037 -39.187  1.00  0.00     0.179 C 
HETATM   28  C32 UNL     1      -1.512  71.482 -38.768  1.00  0.00     0.180 C 
HETATM   29  C33 UNL     1      -1.727  71.611 -37.268  1.00  0.00     0.183 C 
HETATM   30  C34 UNL     1      -0.701  70.746 -36.536  1.00  0.00     0.204 C 
BRANCH  27  31
HETATM   31  C31 UNL     1      -1.115  69.684 -40.504  1.00  0.00     0.198 C 
BRANCH  31  32
HETATM   32  O5  UNL     1      -1.810  68.637 -41.183  1.00  0.00    -0.398 OA
HETATM   33  H48 UNL     1      -1.346  68.488 -42.023  1.00  0.00     0.209 HD
ENDBRANCH  31  32
ENDBRANCH  27  31
BRANCH  28  34
HETATM   34  O6  UNL     1      -2.357  72.407 -39.467  1.00  0.00    -0.390 OA
HETATM   35  H50 UNL     1      -2.319  73.230 -38.939  1.00  0.00     0.210 HD
ENDBRANCH  28  34
BRANCH  29  36
HETATM   36  O7  UNL     1      -1.581  72.988 -36.874  1.00  0.00    -0.390 OA
HETATM   37  H52 UNL     1      -1.658  72.976 -35.900  1.00  0.00     0.210 HD
ENDBRANCH  29  36
BRANCH  30  38
HETATM   38  O8  UNL     1      -1.160  70.592 -35.177  1.00  0.00    -0.388 OA
HETATM   39  H54 UNL     1      -0.467  70.110 -34.691  1.00  0.00     0.210 HD
ENDBRANCH  30  38
ENDBRANCH  24  25
ENDBRANCH  20  24
BRANCH   1  40
HETATM   40  C8  UNL     1       9.204  62.746 -34.563  1.00  0.00    -0.010 C 
HETATM   41  C9  UNL     1       9.092  61.285 -34.117  1.00  0.00     0.010 C 
BRANCH  40  42
HETATM   42  C7  UNL     1      10.442  63.411 -33.897  1.00  0.00     0.031 C 
BRANCH  42  43
HETATM   43  C6  UNL     1      11.748  63.442 -34.656  1.00  0.00    -0.027 C 
HETATM   44  C5  UNL     1      11.915  63.547 -35.986  1.00  0.00     0.006 C 
BRANCH  44  45
HETATM   45  C2  UNL     1      13.223  63.584 -36.758  1.00  0.00     0.070 C 
HETATM   46  C3  UNL     1      13.770  64.983 -37.074  1.00  0.00     0.050 C 
HETATM   47  C4  UNL     1      12.999  62.847 -38.089  1.00  0.00     0.050 C 
BRANCH  45  48
HETATM   48  O1  UNL     1      14.191  62.790 -36.049  1.00  0.00    -0.382 OA
HETATM   49  C1  UNL     1      15.487  63.355 -35.916  1.00  0.00     0.202 C 
ENDBRANCH  45  48
ENDBRANCH  44  45
ENDBRANCH  42  43
ENDBRANCH  40  42
ENDBRANCH   1  40
TORSDOF 12
ENDMDL
MODEL 7
REMARK minimizedAffinity -9.05848217
REMARK CNNscore 0.317541122
REMARK CNNaffinity 6.99365282
REMARK  12 active torsions:
REMARK  status: ('A' for Active; 'I' for Inactive)
REMARK    1  A    between atoms: O1_2  and  C2_3 
REMARK    2  A    between atoms: C2_3  and  C5_6 
REMARK    3  A    between atoms: C6_7  and  C7_8 
REMARK    4  A    between atoms: C7_8  and  C8_9 
REMARK    5  A    between atoms: C8_9  and  C10_11 
REMARK    6  A    between atoms: C28_30  and  O3_31 
REMARK    7  A    between atoms: O3_31  and  C29_32 
REMARK    8  A    between atoms: C30_34  and  C31_35 
REMARK    9  A    between atoms: C31_35  and  O5_36 
REMARK   10  A    between atoms: C32_37  and  O6_38 
REMARK   11  A    between atoms: C33_39  and  O7_40 
REMARK   12  A    between atoms: C34_41  and  O8_42 
ROOT
HETATM    1  C10 UNL     1      -3.521  49.839 -24.370  1.00  0.00    -0.002 C 
HETATM    2  C11 UNL     1      -3.765  51.385 -24.319  1.00  0.00     0.006 C 
HETATM    3  C12 UNL     1      -3.419  51.864 -22.890  1.00  0.00     0.011 C 
HETATM    4  C13 UNL     1      -2.646  50.683 -22.279  1.00  0.00    -0.029 C 
HETATM    5  C14 UNL     1      -1.188  50.803 -22.887  1.00  0.00     0.016 C 
HETATM    6  C15 UNL     1      -2.453  50.611 -20.719  1.00  0.00     0.028 C 
HETATM    7  C16 UNL     1      -3.096  51.590 -19.777  1.00  0.00    -0.021 C 
HETATM    8  C17 UNL     1      -3.165  51.294 -18.463  1.00  0.00     0.008 C 
HETATM    9  C18 UNL     1      -2.710  49.942 -17.885  1.00  0.00     0.092 C 
HETATM   10  O2  UNL     1      -3.864  49.111 -18.085  1.00  0.00    -0.374 OA
HETATM   11  C19 UNL     1      -3.798  48.654 -19.462  1.00  0.00     0.179 C 
HETATM   12  C20 UNL     1      -2.455  49.158 -20.102  1.00  0.00    -0.004 C 
HETATM   13  C21 UNL     1      -1.946  48.148 -21.137  1.00  0.00     0.014 C 
HETATM   14  C22 UNL     1      -2.707  48.155 -22.492  1.00  0.00     0.011 C 
HETATM   15  C23 UNL     1      -3.455  49.467 -22.848  1.00  0.00    -0.032 C 
HETATM   16  C24 UNL     1      -4.921  49.435 -22.320  1.00  0.00     0.016 C 
HETATM   17  C25 UNL     1      -1.665  49.220 -18.772  1.00  0.00     0.036 C 
HETATM   18  C26 UNL     1      -0.280  49.861 -18.682  1.00  0.00     0.011 C 
HETATM   19  C27 UNL     1       0.185  49.922 -17.226  1.00  0.00     0.033 C 
HETATM   20  C28 UNL     1      -0.838  50.628 -16.315  1.00  0.00     0.136 C 
HETATM   21  C35 UNL     1      -2.255  49.970 -16.388  1.00  0.00     0.014 C 
HETATM   22  C36 UNL     1      -2.230  48.538 -15.784  1.00  0.00     0.021 C 
HETATM   23  C37 UNL     1      -3.240  50.763 -15.492  1.00  0.00     0.021 C 
ENDROOT
BRANCH  20  24
HETATM   24  O3  UNL     1      -0.405  50.640 -14.945  1.00  0.00    -0.352 OA
BRANCH  24  25
HETATM   25  C29 UNL     1      -0.448  51.927 -14.325  1.00  0.00     0.292 C 
HETATM   26  O4  UNL     1       0.820  52.570 -14.396  1.00  0.00    -0.348 OA
HETATM   27  C30 UNL     1       1.893  51.951 -13.659  1.00  0.00     0.179 C 
HETATM   28  C32 UNL     1       1.422  51.209 -12.399  1.00  0.00     0.180 C 
HETATM   29  C33 UNL     1       0.180  51.905 -11.860  1.00  0.00     0.183 C 
HETATM   30  C34 UNL     1      -0.957  51.757 -12.869  1.00  0.00     0.204 C 
BRANCH  27  31
HETATM   31  C31 UNL     1       2.743  51.033 -14.550  1.00  0.00     0.198 C 
BRANCH  31  32
HETATM   32  O5  UNL     1       3.101  51.700 -15.762  1.00  0.00    -0.398 OA
HETATM   33  H48 UNL     1       3.670  51.092 -16.262  1.00  0.00     0.209 HD
ENDBRANCH  31  32
ENDBRANCH  27  31
BRANCH  28  34
HETATM   34  O6  UNL     1       2.451  51.197 -11.401  1.00  0.00    -0.390 OA
HETATM   35  H50 UNL     1       1.986  50.998 -10.563  1.00  0.00     0.210 HD
ENDBRANCH  28  34
BRANCH  29  36
HETATM   36  O7  UNL     1      -0.197  51.315 -10.602  1.00  0.00    -0.390 OA
HETATM   37  H52 UNL     1      -1.033  51.760 -10.362  1.00  0.00     0.210 HD
ENDBRANCH  29  36
BRANCH  30  38
HETATM   38  O8  UNL     1      -1.971  52.722 -12.518  1.00  0.00    -0.388 OA
HETATM   39  H54 UNL     1      -2.730  52.572 -13.111  1.00  0.00     0.210 HD
ENDBRANCH  30  38
ENDBRANCH  24  25
ENDBRANCH  20  24
BRANCH   1  40
HETATM   40  C8  UNL     1      -4.519  49.119 -25.330  1.00  0.00    -0.010 C 
HETATM   41  C9  UNL     1      -5.364  48.072 -24.599  1.00  0.00     0.010 C 
BRANCH  40  42
HETATM   42  C7  UNL     1      -3.744  48.452 -26.501  1.00  0.00     0.031 C 
BRANCH  42  43
HETATM   43  C6  UNL     1      -4.408  48.358 -27.855  1.00  0.00    -0.027 C 
HETATM   44  C5  UNL     1      -5.559  47.731 -28.156  1.00  0.00     0.006 C 
BRANCH  44  45
HETATM   45  C2  UNL     1      -6.238  47.635 -29.511  1.00  0.00     0.070 C 
HETATM   46  C3  UNL     1      -6.412  46.216 -30.070  1.00  0.00     0.050 C 
HETATM   47  C4  UNL     1      -5.392  48.440 -30.513  1.00  0.00     0.050 C 
BRANCH  45  48
HETATM   48  O1  UNL     1      -7.496  48.329 -29.440  1.00  0.00    -0.382 OA
HETATM   49  C1  UNL     1      -7.961  48.906 -30.651  1.00  0.00     0.202 C 
ENDBRANCH  45  48
ENDBRANCH  44  45
ENDBRANCH  42  43
ENDBRANCH  40  42
ENDBRANCH   1  40
TORSDOF 12
ENDMDL
MODEL 8
REMARK minimizedAffinity -7.87433338
REMARK CNNscore 0.311193585
REMARK CNNaffinity 6.91504812
REMARK  12 active torsions:
REMARK  status: ('A' for Active; 'I' for Inactive)
REMARK    1  A    between atoms: O1_2  and  C2_3 
REMARK    2  A    between atoms: C2_3  and  C5_6 
REMARK    3  A    between atoms: C6_7  and  C7_8 
REMARK    4  A    between atoms: C7_8  and  C8_9 
REMARK    5  A    between atoms: C8_9  and  C10_11 
REMARK    6  A    between atoms: C28_30  and  O3_31 
REMARK    7  A    between atoms: O3_31  and  C29_32 
REMARK    8  A    between atoms: C30_34  and  C31_35 
REMARK    9  A    between atoms: C31_35  and  O5_36 
REMARK   10  A    between atoms: C32_37  and  O6_38 
REMARK   11  A    between atoms: C33_39  and  O7_40 
REMARK   12  A    between atoms: C34_41  and  O8_42 
ROOT
HETATM    1  C10 UNL     1      -1.126  50.395 -20.773  1.00  0.00    -0.002 C 
HETATM    2  C11 UNL     1      -0.413  49.022 -21.015  1.00  0.00     0.006 C 
HETATM    3  C12 UNL     1      -1.509  47.979 -21.337  1.00  0.00     0.011 C 
HETATM    4  C13 UNL     1      -2.755  48.830 -21.635  1.00  0.00    -0.029 C 
HETATM    5  C14 UNL     1      -2.538  49.351 -23.115  1.00  0.00     0.016 C 
HETATM    6  C15 UNL     1      -4.174  48.150 -21.627  1.00  0.00     0.028 C 
HETATM    7  C16 UNL     1      -4.385  46.718 -21.221  1.00  0.00    -0.021 C 
HETATM    8  C17 UNL     1      -5.628  46.292 -20.922  1.00  0.00     0.008 C 
HETATM    9  C18 UNL     1      -6.845  47.233 -20.871  1.00  0.00     0.092 C 
HETATM   10  O2  UNL     1      -6.764  47.779 -19.545  1.00  0.00    -0.374 OA
HETATM   11  C19 UNL     1      -5.805  48.866 -19.615  1.00  0.00     0.179 C 
HETATM   12  C20 UNL     1      -5.358  49.056 -21.109  1.00  0.00    -0.004 C 
HETATM   13  C21 UNL     1      -5.049  50.533 -21.388  1.00  0.00     0.014 C 
HETATM   14  C22 UNL     1      -3.695  51.041 -20.818  1.00  0.00     0.011 C 
HETATM   15  C23 UNL     1      -2.615  49.958 -20.556  1.00  0.00    -0.032 C 
HETATM   16  C24 UNL     1      -2.724  49.401 -19.103  1.00  0.00     0.016 C 
HETATM   17  C25 UNL     1      -6.666  48.510 -21.731  1.00  0.00     0.036 C 
HETATM   18  C26 UNL     1      -6.794  48.228 -23.228  1.00  0.00     0.011 C 
HETATM   19  C27 UNL     1      -8.131  47.549 -23.529  1.00  0.00     0.033 C 
HETATM   20  C28 UNL     1      -8.344  46.278 -22.683  1.00  0.00     0.136 C 
HETATM   21  C35 UNL     1      -8.230  46.558 -21.148  1.00  0.00     0.014 C 
HETATM   22  C36 UNL     1      -9.399  47.460 -20.664  1.00  0.00     0.021 C 
HETATM   23  C37 UNL     1      -8.399  45.230 -20.367  1.00  0.00     0.021 C 
ENDROOT
BRANCH  20  24
HETATM   24  O3  UNL     1      -9.621  45.675 -22.948  1.00  0.00    -0.352 OA
BRANCH  24  25
HETATM   25  C29 UNL     1     -10.660  46.608 -23.252  1.00  0.00     0.292 C 
HETATM   26  O4  UNL     1     -11.784  46.416 -22.400  1.00  0.00    -0.348 OA
HETATM   27  C30 UNL     1     -12.490  45.168 -22.543  1.00  0.00     0.179 C 
HETATM   28  C32 UNL     1     -12.438  44.597 -23.968  1.00  0.00     0.180 C 
HETATM   29  C33 UNL     1     -12.347  45.752 -24.954  1.00  0.00     0.183 C 
HETATM   30  C34 UNL     1     -11.016  46.477 -24.757  1.00  0.00     0.204 C 
BRANCH  27  31
HETATM   31  C31 UNL     1     -12.023  44.125 -21.517  1.00  0.00     0.198 C 
BRANCH  31  32
HETATM   32  O5  UNL     1     -12.281  44.579 -20.187  1.00  0.00    -0.398 OA
HETATM   33  H48 UNL     1     -12.007  43.866 -19.587  1.00  0.00     0.209 HD
ENDBRANCH  31  32
ENDBRANCH  27  31
BRANCH  28  34
HETATM   34  O6  UNL     1     -13.604  43.808 -24.243  1.00  0.00    -0.390 OA
HETATM   35  H50 UNL     1     -13.643  43.749 -25.219  1.00  0.00     0.210 HD
ENDBRANCH  28  34
BRANCH  29  36
HETATM   36  O7  UNL     1     -12.440  45.250 -26.299  1.00  0.00    -0.390 OA
HETATM   37  H52 UNL     1     -12.299  46.033 -26.866  1.00  0.00     0.210 HD
ENDBRANCH  29  36
BRANCH  30  38
HETATM   38  O8  UNL     1     -11.121  47.756 -25.417  1.00  0.00    -0.388 OA
HETATM   39  H54 UNL     1     -10.247  48.183 -25.362  1.00  0.00     0.210 HD
ENDBRANCH  30  38
ENDBRANCH  24  25
ENDBRANCH  20  24
BRANCH   1  40
HETATM   40  C8  UNL     1      -0.380  51.263 -19.710  1.00  0.00    -0.010 C 
HETATM   41  C9  UNL     1      -1.352  52.075 -18.849  1.00  0.00     0.010 C 
BRANCH  40  42
HETATM   42  C7  UNL     1       0.629  52.214 -20.413  1.00  0.00     0.031 C 
BRANCH  42  43
HETATM   43  C6  UNL     1       0.284  52.762 -21.777  1.00  0.00    -0.027 C 
HETATM   44  C5  UNL     1       0.391  52.132 -22.961  1.00  0.00     0.006 C 
BRANCH  44  45
HETATM   45  C2  UNL     1       0.042  52.672 -24.336  1.00  0.00     0.070 C 
HETATM   46  C3  UNL     1      -1.443  52.979 -24.575  1.00  0.00     0.050 C 
HETATM   47  C4  UNL     1       0.485  51.626 -25.373  1.00  0.00     0.050 C 
BRANCH  45  48
HETATM   48  O1  UNL     1       0.864  53.825 -24.593  1.00  0.00    -0.382 OA
HETATM   49  C1  UNL     1       0.391  54.722 -25.587  1.00  0.00     0.202 C 
ENDBRANCH  45  48
ENDBRANCH  44  45
ENDBRANCH  42  43
ENDBRANCH  40  42
ENDBRANCH   1  40
TORSDOF 12
ENDMDL
MODEL 9
REMARK minimizedAffinity -8.27808952
REMARK CNNscore 0.300973624
REMARK CNNaffinity 6.70002604
REMARK  12 active torsions:
REMARK  status: ('A' for Active; 'I' for Inactive)
REMARK    1  A    between atoms: O1_2  and  C2_3 
REMARK    2  A    between atoms: C2_3  and  C5_6 
REMARK    3  A    between atoms: C6_7  and  C7_8 
REMARK    4  A    between atoms: C7_8  and  C8_9 
REMARK    5  A    between atoms: C8_9  and  C10_11 
REMARK    6  A    between atoms: C28_30  and  O3_31 
REMARK    7  A    between atoms: O3_31  and  C29_32 
REMARK    8  A    between atoms: C30_34  and  C31_35 
REMARK    9  A    between atoms: C31_35  and  O5_36 
REMARK   10  A    between atoms: C32_37  and  O6_38 
REMARK   11  A    between atoms: C33_39  and  O7_40 
REMARK   12  A    between atoms: C34_41  and  O8_42 
ROOT
HETATM    1  C10 UNL     1      -1.071  50.957 -20.236  1.00  0.00    -0.002 C 
HETATM    2  C11 UNL     1      -0.285  49.603 -20.245  1.00  0.00     0.006 C 
HETATM    3  C12 UNL     1      -1.187  48.546 -20.926  1.00  0.00     0.011 C 
HETATM    4  C13 UNL     1      -2.283  49.380 -21.611  1.00  0.00    -0.029 C 
HETATM    5  C14 UNL     1      -1.599  49.935 -22.928  1.00  0.00     0.016 C 
HETATM    6  C15 UNL     1      -3.607  48.674 -22.084  1.00  0.00     0.028 C 
HETATM    7  C16 UNL     1      -3.906  47.230 -21.789  1.00  0.00    -0.021 C 
HETATM    8  C17 UNL     1      -5.168  46.775 -21.926  1.00  0.00     0.008 C 
HETATM    9  C18 UNL     1      -6.355  47.692 -22.270  1.00  0.00     0.092 C 
HETATM   10  O2  UNL     1      -6.732  48.213 -20.986  1.00  0.00    -0.374 OA
HETATM   11  C19 UNL     1      -5.830  49.319 -20.719  1.00  0.00     0.179 C 
HETATM   12  C20 UNL     1      -4.918  49.547 -21.976  1.00  0.00    -0.004 C 
HETATM   13  C21 UNL     1      -4.569  51.034 -22.118  1.00  0.00     0.014 C 
HETATM   14  C22 UNL     1      -3.494  51.556 -21.124  1.00  0.00     0.011 C 
HETATM   15  C23 UNL     1      -2.537  50.488 -20.532  1.00  0.00    -0.032 C 
HETATM   16  C24 UNL     1      -3.108  49.900 -19.205  1.00  0.00     0.016 C 
HETATM   17  C25 UNL     1      -5.931  48.989 -23.005  1.00  0.00     0.036 C 
HETATM   18  C26 UNL     1      -5.548  48.736 -24.463  1.00  0.00     0.011 C 
HETATM   19  C27 UNL     1      -6.692  48.038 -25.200  1.00  0.00     0.033 C 
HETATM   20  C28 UNL     1      -7.143  46.747 -24.489  1.00  0.00     0.136 C 
HETATM   21  C35 UNL     1      -7.552  46.997 -23.000  1.00  0.00     0.014 C 
HETATM   22  C36 UNL     1      -8.838  47.868 -22.920  1.00  0.00     0.021 C 
HETATM   23  C37 UNL     1      -7.940  45.652 -22.337  1.00  0.00     0.021 C 
ENDROOT
BRANCH  20  24
HETATM   24  O3  UNL     1      -8.245  46.126 -25.171  1.00  0.00    -0.352 OA
BRANCH  24  25
HETATM   25  C29 UNL     1      -8.083  46.033 -26.589  1.00  0.00     0.292 C 
HETATM   26  O4  UNL     1      -8.943  46.946 -27.262  1.00  0.00    -0.348 OA
HETATM   27  C30 UNL     1     -10.358  46.705 -27.135  1.00  0.00     0.179 C 
HETATM   28  C32 UNL     1     -10.712  45.219 -26.970  1.00  0.00     0.180 C 
HETATM   29  C33 UNL     1      -9.670  44.386 -27.701  1.00  0.00     0.183 C 
HETATM   30  C34 UNL     1      -8.315  44.560 -27.016  1.00  0.00     0.204 C 
BRANCH  27  31
HETATM   31  C31 UNL     1     -10.984  47.545 -26.012  1.00  0.00     0.198 C 
BRANCH  31  32
HETATM   32  O5  UNL     1     -11.304  48.855 -26.484  1.00  0.00    -0.398 OA
HETATM   33  H48 UNL     1     -11.733  49.324 -25.749  1.00  0.00     0.209 HD
ENDBRANCH  31  32
ENDBRANCH  27  31
BRANCH  28  34
HETATM   34  O6  UNL     1     -12.018  44.945 -27.496  1.00  0.00    -0.390 OA
HETATM   35  H50 UNL     1     -12.035  43.977 -27.634  1.00  0.00     0.210 HD
ENDBRANCH  28  34
BRANCH  29  36
HETATM   36  O7  UNL     1     -10.057  42.999 -27.682  1.00  0.00    -0.390 OA
HETATM   37  H52 UNL     1      -9.311  42.528 -28.099  1.00  0.00     0.210 HD
ENDBRANCH  29  36
BRANCH  30  38
HETATM   38  O8  UNL     1      -7.307  44.081 -27.931  1.00  0.00    -0.388 OA
HETATM   39  H54 UNL     1      -6.453  44.116 -27.463  1.00  0.00     0.210 HD
ENDBRANCH  30  38
ENDBRANCH  24  25
ENDBRANCH  20  24
BRANCH   1  40
HETATM   40  C8  UNL     1      -0.742  51.816 -18.974  1.00  0.00    -0.010 C 
HETATM   41  C9  UNL     1      -0.270  53.225 -19.347  1.00  0.00     0.010 C 
BRANCH  40  42
HETATM   42  C7  UNL     1       0.340  51.105 -18.114  1.00  0.00     0.031 C 
BRANCH  42  43
HETATM   43  C6  UNL     1       0.194  51.109 -16.610  1.00  0.00    -0.027 C 
HETATM   44  C5  UNL     1       1.168  51.269 -15.697  1.00  0.00     0.006 C 
BRANCH  44  45
HETATM   45  C2  UNL     1       1.031  51.280 -14.184  1.00  0.00     0.070 C 
HETATM   46  C3  UNL     1       0.030  52.293 -13.613  1.00  0.00     0.050 C 
HETATM   47  C4  UNL     1       2.417  51.594 -13.594  1.00  0.00     0.050 C 
BRANCH  45  48
HETATM   48  O1  UNL     1       0.732  49.942 -13.746  1.00  0.00    -0.382 OA
HETATM   49  C1  UNL     1      -0.598  49.711 -13.306  1.00  0.00     0.202 C 
ENDBRANCH  45  48
ENDBRANCH  44  45
ENDBRANCH  42  43
ENDBRANCH  40  42
ENDBRANCH   1  40
TORSDOF 12
ENDMDL
