MODEL 1
REMARK minimizedAffinity -7.70916033
REMARK CNNscore 0.389991105
REMARK CNNaffinity 6.79906988
REMARK  21 active torsions:
REMARK  status: ('A' for Active; 'I' for Inactive)
REMARK    1  A    between atoms: C2_2  and  C3_3 
REMARK    2  A    between atoms: C2_2  and  C27_33 
REMARK    3  A    between atoms: C4_4  and  C5_5 
REMARK    4  A    between atoms: C6_6  and  C7_7 
REMARK    5  A    between atoms: C6_6  and  C10_12 
REMARK    6  A    between atoms: C7_7  and  O1_8 
REMARK    7  A    between atoms: O1_8  and  C8_9 
REMARK    8  A    between atoms: C8_9  and  C9_10 
REMARK    9  A    between atoms: C9_10  and  O2_11 
REMARK   10  A    between atoms: C14_16  and  O3_17 
REMARK   11  A    between atoms: C15_18  and  C16_19 
REMARK   12  A    between atoms: C16_19  and  C17_20 
REMARK   13  A    between atoms: C17_20  and  C18_21 
REMARK   14  A    between atoms: C18_21  and  O4_22 
REMARK   15  A    between atoms: C20_24  and  C22_26 
REMARK   16  A    between atoms: C25_30  and  O6_32 
REMARK   17  A    between atoms: C27_33  and  C28_34 
REMARK   18  A    between atoms: C28_34  and  C29_35 
REMARK   19  A    between atoms: C30_36  and  C32_38 
REMARK   20  A    between atoms: C32_38  and  N1_39 
REMARK   21  A    between atoms: N1_39  and  C33_40 
ROOT
HETATM    1  C10 UNL     1       0.935   6.320  12.274  1.00  0.00     0.046 C 
HETATM    2  C11 UNL     1       0.349   7.524  11.540  1.00  0.00     0.013 C 
HETATM    3  C12 UNL     1       1.568   8.231  10.925  1.00  0.00     0.017 C 
HETATM    4  C13 UNL     1       2.825   7.274  11.069  1.00  0.00     0.024 C 
HETATM    5  C14 UNL     1       2.113   5.911  11.365  1.00  0.00     0.138 C 
HETATM    6  C15 UNL     1       3.690   7.776  12.330  1.00  0.00     0.029 C 
HETATM    7  C19 UNL     1       4.197   9.216  12.093  1.00  0.00    -0.066 C 
HETATM    8  C20 UNL     1       3.945  10.265  12.919  1.00  0.00    -0.021 C 
HETATM    9  C21 UNL     1       4.378  11.688  12.700  1.00  0.00     0.052 C 
HETATM   10  C23 UNL     1       5.003   9.334  10.813  1.00  0.00     0.038 C 
HETATM   11  C24 UNL     1       4.281   8.765   9.591  1.00  0.00     0.042 C 
HETATM   12  C25 UNL     1       3.725   7.330   9.782  1.00  0.00     0.065 C 
HETATM   13  C26 UNL     1       3.069   6.908   8.450  1.00  0.00     0.047 C 
ENDROOT
BRANCH   1  14
HETATM   14  C6  UNL     1       0.012   5.222  12.795  1.00  0.00    -0.050 C 
HETATM   15  C5  UNL     1      -0.795   5.219  13.879  1.00  0.00     0.005 C 
BRANCH  15  16
HETATM   16  C4  UNL     1      -1.078   6.285  14.809  1.00  0.00     0.001 C 
HETATM   17  C3  UNL     1      -1.861   7.370  14.678  1.00  0.00     0.006 C 
BRANCH  17  18
HETATM   18  C2  UNL     1      -2.749   7.867  13.619  1.00  0.00    -0.067 C 
HETATM   19  C1  UNL     1      -2.470   9.081  13.105  1.00  0.00     0.019 C 
BRANCH  18  20
HETATM   20  C27 UNL     1      -3.928   7.031  13.149  1.00  0.00     0.041 C 
BRANCH  20  21
HETATM   21  C28 UNL     1      -4.533   5.968  14.089  1.00  0.00     0.032 C 
BRANCH  21  22
HETATM   22  C29 UNL     1      -5.931   5.557  13.705  1.00  0.00    -0.022 C 
HETATM   23  C30 UNL     1      -6.285   4.511  12.928  1.00  0.00    -0.060 C 
HETATM   24  C31 UNL     1      -5.297   3.611  12.231  1.00  0.00     0.045 C 
BRANCH  23  25
HETATM   25  C32 UNL     1      -7.745   4.202  12.658  1.00  0.00     0.303 C 
BRANCH  25  26
HETATM   26  N1  UNL     1      -8.612   4.992  13.528  1.00  0.00     0.086 N 
HETATM   27  H50 UNL     1      -9.295   4.385  13.973  1.00  0.00     0.316 HD
BRANCH  26  28
HETATM   28  C33 UNL     1      -9.304   6.067  12.819  1.00  0.00     0.265 C 
HETATM   29  C34 UNL     1      -9.112   6.008  11.309  1.00  0.00     0.037 C 
ENDBRANCH  26  28
ENDBRANCH  25  26
ENDBRANCH  23  25
ENDBRANCH  21  22
ENDBRANCH  20  21
ENDBRANCH  18  20
ENDBRANCH  17  18
ENDBRANCH  15  16
BRANCH  14  30
HETATM   30  C7  UNL     1       0.078   3.933  11.973  1.00  0.00     0.202 C 
BRANCH  30  31
HETATM   31  O1  UNL     1      -0.884   3.908  10.920  1.00  0.00    -0.385 OA
BRANCH  31  32
HETATM   32  C8  UNL     1      -1.776   2.787  10.972  1.00  0.00     0.194 C 
BRANCH  32  33
HETATM   33  C9  UNL     1      -0.950   1.500  10.930  1.00  0.00     0.190 C 
BRANCH  33  34
HETATM   34  O2  UNL     1      -0.951   0.959   9.608  1.00  0.00    -0.399 OA
HETATM   35  H12 UNL     1      -0.529   0.081   9.651  1.00  0.00     0.209 HD
ENDBRANCH  33  34
ENDBRANCH  32  33
ENDBRANCH  31  32
ENDBRANCH  30  31
ENDBRANCH  14  30
ENDBRANCH   1  14
BRANCH   5  36
HETATM   36  O3  UNL     1       1.592   5.307  10.183  1.00  0.00    -0.394 OA
HETATM   37  H19 UNL     1       1.214   4.451  10.449  1.00  0.00     0.210 HD
ENDBRANCH   5  36
BRANCH   6  38
HETATM   38  C16 UNL     1       4.914   6.965  12.855  1.00  0.00     0.012 C 
BRANCH  38  39
HETATM   39  C17 UNL     1       6.144   7.760  13.296  1.00  0.00     0.027 C 
BRANCH  39  40
HETATM   40  C18 UNL     1       6.372   7.682  14.802  1.00  0.00     0.164 C 
BRANCH  40  41
HETATM   41  O4  UNL     1       5.223   7.136  15.437  1.00  0.00    -0.401 OA
HETATM   42  H27 UNL     1       5.403   7.129  16.394  1.00  0.00     0.209 HD
ENDBRANCH  40  41
ENDBRANCH  39  40
ENDBRANCH  38  39
ENDBRANCH   6  38
BRANCH  12  43
HETATM   43  O6  UNL     1       4.839   6.440   9.959  1.00  0.00    -0.389 OA
HETATM   44  H39 UNL     1       5.350   6.432   9.131  1.00  0.00     0.210 HD
ENDBRANCH  12  43
BRANCH   8  45
HETATM   45  C22 UNL     1       3.201  10.083  14.209  1.00  0.00     0.265 C 
HETATM   46  O5  UNL     1       3.755   9.843  15.278  1.00  0.00    -0.302 OA
ENDBRANCH   8  45
TORSDOF 21
ENDMDL
MODEL 2
REMARK minimizedAffinity -7.63388968
REMARK CNNscore 0.283002466
REMARK CNNaffinity 7.01717997
REMARK  21 active torsions:
REMARK  status: ('A' for Active; 'I' for Inactive)
REMARK    1  A    between atoms: C2_2  and  C3_3 
REMARK    2  A    between atoms: C2_2  and  C27_33 
REMARK    3  A    between atoms: C4_4  and  C5_5 
REMARK    4  A    between atoms: C6_6  and  C7_7 
REMARK    5  A    between atoms: C6_6  and  C10_12 
REMARK    6  A    between atoms: C7_7  and  O1_8 
REMARK    7  A    between atoms: O1_8  and  C8_9 
REMARK    8  A    between atoms: C8_9  and  C9_10 
REMARK    9  A    between atoms: C9_10  and  O2_11 
REMARK   10  A    between atoms: C14_16  and  O3_17 
REMARK   11  A    between atoms: C15_18  and  C16_19 
REMARK   12  A    between atoms: C16_19  and  C17_20 
REMARK   13  A    between atoms: C17_20  and  C18_21 
REMARK   14  A    between atoms: C18_21  and  O4_22 
REMARK   15  A    between atoms: C20_24  and  C22_26 
REMARK   16  A    between atoms: C25_30  and  O6_32 
REMARK   17  A    between atoms: C27_33  and  C28_34 
REMARK   18  A    between atoms: C28_34  and  C29_35 
REMARK   19  A    between atoms: C30_36  and  C32_38 
REMARK   20  A    between atoms: C32_38  and  N1_39 
REMARK   21  A    between atoms: N1_39  and  C33_40 
ROOT
HETATM    1  C10 UNL     1      -1.230   6.154  13.525  1.00  0.00     0.046 C 
HETATM    2  C11 UNL     1      -0.133   5.431  14.305  1.00  0.00     0.013 C 
HETATM    3  C12 UNL     1       1.134   6.265  14.051  1.00  0.00     0.017 C 
HETATM    4  C13 UNL     1       0.705   7.624  13.355  1.00  0.00     0.024 C 
HETATM    5  C14 UNL     1      -0.828   7.636  13.674  1.00  0.00     0.138 C 
HETATM    6  C15 UNL     1       0.981   7.484  11.776  1.00  0.00     0.029 C 
HETATM    7  C19 UNL     1       2.486   7.255  11.513  1.00  0.00    -0.066 C 
HETATM    8  C20 UNL     1       2.995   6.189  10.842  1.00  0.00    -0.021 C 
HETATM    9  C21 UNL     1       4.452   5.904  10.608  1.00  0.00     0.052 C 
HETATM   10  C23 UNL     1       3.343   8.356  12.108  1.00  0.00     0.038 C 
HETATM   11  C24 UNL     1       3.046   8.620  13.585  1.00  0.00     0.042 C 
HETATM   12  C25 UNL     1       1.545   8.831  13.912  1.00  0.00     0.065 C 
HETATM   13  C26 UNL     1       1.438   9.119  15.424  1.00  0.00     0.047 C 
ENDROOT
BRANCH   1  14
HETATM   14  C6  UNL     1      -2.692   5.777  13.741  1.00  0.00    -0.050 C 
HETATM   15  C5  UNL     1      -3.434   4.824  13.134  1.00  0.00     0.005 C 
BRANCH  15  16
HETATM   16  C4  UNL     1      -3.032   3.833  12.167  1.00  0.00     0.001 C 
HETATM   17  C3  UNL     1      -3.752   2.886  11.539  1.00  0.00     0.006 C 
BRANCH  17  18
HETATM   18  C2  UNL     1      -5.174   2.522  11.532  1.00  0.00    -0.067 C 
HETATM   19  C1  UNL     1      -5.474   1.228  11.300  1.00  0.00     0.019 C 
BRANCH  18  20
HETATM   20  C27 UNL     1      -6.240   3.579  11.770  1.00  0.00     0.041 C 
BRANCH  20  21
HETATM   21  C28 UNL     1      -7.476   3.237  12.627  1.00  0.00     0.032 C 
BRANCH  21  22
HETATM   22  C29 UNL     1      -7.950   4.388  13.477  1.00  0.00    -0.022 C 
HETATM   23  C30 UNL     1      -8.622   5.482  13.060  1.00  0.00    -0.060 C 
HETATM   24  C31 UNL     1      -8.940   5.772  11.617  1.00  0.00     0.045 C 
BRANCH  23  25
HETATM   25  C32 UNL     1      -9.065   6.544  14.048  1.00  0.00     0.303 C 
BRANCH  25  26
HETATM   26  N1  UNL     1     -10.506   6.476  14.272  1.00  0.00     0.086 N 
HETATM   27  H50 UNL     1     -10.927   5.838  13.602  1.00  0.00     0.316 HD
BRANCH  26  28
HETATM   28  C33 UNL     1     -11.159   7.781  14.179  1.00  0.00     0.265 C 
HETATM   29  C34 UNL     1     -11.681   8.091  12.783  1.00  0.00     0.037 C 
ENDBRANCH  26  28
ENDBRANCH  25  26
ENDBRANCH  23  25
ENDBRANCH  21  22
ENDBRANCH  20  21
ENDBRANCH  18  20
ENDBRANCH  17  18
ENDBRANCH  15  16
BRANCH  14  30
HETATM   30  C7  UNL     1      -3.402   6.667  14.763  1.00  0.00     0.202 C 
BRANCH  30  31
HETATM   31  O1  UNL     1      -3.964   7.837  14.172  1.00  0.00    -0.385 OA
BRANCH  31  32
HETATM   32  C8  UNL     1      -4.672   8.675  15.095  1.00  0.00     0.194 C 
BRANCH  32  33
HETATM   33  C9  UNL     1      -6.131   8.214  15.155  1.00  0.00     0.190 C 
BRANCH  33  34
HETATM   34  O2  UNL     1      -6.389   7.565  16.401  1.00  0.00    -0.399 OA
HETATM   35  H12 UNL     1      -7.282   7.174  16.347  1.00  0.00     0.209 HD
ENDBRANCH  33  34
ENDBRANCH  32  33
ENDBRANCH  31  32
ENDBRANCH  30  31
ENDBRANCH  14  30
ENDBRANCH   1  14
BRANCH   5  36
HETATM   36  O3  UNL     1      -1.099   8.053  15.010  1.00  0.00    -0.394 OA
HETATM   37  H19 UNL     1      -2.067   8.077  15.105  1.00  0.00     0.210 HD
ENDBRANCH   5  36
BRANCH   6  38
HETATM   38  C16 UNL     1       0.526   8.583  10.767  1.00  0.00     0.012 C 
BRANCH  38  39
HETATM   39  C17 UNL     1       0.140   8.126   9.360  1.00  0.00     0.027 C 
BRANCH  39  40
HETATM   40  C18 UNL     1       1.226   8.435   8.335  1.00  0.00     0.164 C 
BRANCH  40  41
HETATM   41  O4  UNL     1       1.451   7.297   7.513  1.00  0.00    -0.401 OA
HETATM   42  H27 UNL     1       2.166   7.530   6.893  1.00  0.00     0.209 HD
ENDBRANCH  40  41
ENDBRANCH  39  40
ENDBRANCH  38  39
ENDBRANCH   6  38
BRANCH  12  43
HETATM   43  O6  UNL     1       1.111  10.035  13.260  1.00  0.00    -0.389 OA
HETATM   44  H39 UNL     1       1.590  10.781  13.662  1.00  0.00     0.210 HD
ENDBRANCH  12  43
BRANCH   8  45
HETATM   45  C22 UNL     1       2.100   5.162  10.212  1.00  0.00     0.265 C 
HETATM   46  O5  UNL     1       2.001   4.011  10.628  1.00  0.00    -0.302 OA
ENDBRANCH   8  45
TORSDOF 21
ENDMDL
MODEL 3
REMARK minimizedAffinity -6.13859272
REMARK CNNscore 0.278217047
REMARK CNNaffinity 6.47967196
REMARK  21 active torsions:
REMARK  status: ('A' for Active; 'I' for Inactive)
REMARK    1  A    between atoms: C2_2  and  C3_3 
REMARK    2  A    between atoms: C2_2  and  C27_33 
REMARK    3  A    between atoms: C4_4  and  C5_5 
REMARK    4  A    between atoms: C6_6  and  C7_7 
REMARK    5  A    between atoms: C6_6  and  C10_12 
REMARK    6  A    between atoms: C7_7  and  O1_8 
REMARK    7  A    between atoms: O1_8  and  C8_9 
REMARK    8  A    between atoms: C8_9  and  C9_10 
REMARK    9  A    between atoms: C9_10  and  O2_11 
REMARK   10  A    between atoms: C14_16  and  O3_17 
REMARK   11  A    between atoms: C15_18  and  C16_19 
REMARK   12  A    between atoms: C16_19  and  C17_20 
REMARK   13  A    between atoms: C17_20  and  C18_21 
REMARK   14  A    between atoms: C18_21  and  O4_22 
REMARK   15  A    between atoms: C20_24  and  C22_26 
REMARK   16  A    between atoms: C25_30  and  O6_32 
REMARK   17  A    between atoms: C27_33  and  C28_34 
REMARK   18  A    between atoms: C28_34  and  C29_35 
REMARK   19  A    between atoms: C30_36  and  C32_38 
REMARK   20  A    between atoms: C32_38  and  N1_39 
REMARK   21  A    between atoms: N1_39  and  C33_40 
ROOT
HETATM    1  C10 UNL     1      -1.629   9.198  14.803  1.00  0.00     0.046 C 
HETATM    2  C11 UNL     1      -0.550   8.755  15.789  1.00  0.00     0.013 C 
HETATM    3  C12 UNL     1      -0.554   9.841  16.878  1.00  0.00     0.017 C 
HETATM    4  C13 UNL     1      -1.830  10.757  16.664  1.00  0.00     0.024 C 
HETATM    5  C14 UNL     1      -2.686   9.840  15.727  1.00  0.00     0.138 C 
HETATM    6  C15 UNL     1      -1.359  12.099  15.910  1.00  0.00     0.029 C 
HETATM    7  C19 UNL     1      -0.342  12.873  16.779  1.00  0.00    -0.066 C 
HETATM    8  C20 UNL     1       0.909  13.213  16.377  1.00  0.00    -0.021 C 
HETATM    9  C21 UNL     1       1.944  13.922  17.206  1.00  0.00     0.052 C 
HETATM   10  C23 UNL     1      -0.898  13.200  18.152  1.00  0.00     0.038 C 
HETATM   11  C24 UNL     1      -1.471  11.982  18.877  1.00  0.00     0.042 C 
HETATM   12  C25 UNL     1      -2.478  11.149  18.041  1.00  0.00     0.065 C 
HETATM   13  C26 UNL     1      -2.976   9.995  18.935  1.00  0.00     0.047 C 
ENDROOT
BRANCH   1  14
HETATM   14  C6  UNL     1      -2.108   8.240  13.717  1.00  0.00    -0.050 C 
HETATM   15  C5  UNL     1      -3.359   8.017  13.256  1.00  0.00     0.005 C 
BRANCH  15  16
HETATM   16  C4  UNL     1      -4.591   8.682  13.603  1.00  0.00     0.001 C 
HETATM   17  C3  UNL     1      -5.759   8.180  14.041  1.00  0.00     0.006 C 
BRANCH  17  18
HETATM   18  C2  UNL     1      -6.225   6.831  14.386  1.00  0.00    -0.067 C 
HETATM   19  C1  UNL     1      -6.477   5.990  13.362  1.00  0.00     0.019 C 
BRANCH  18  20
HETATM   20  C27 UNL     1      -6.414   6.430  15.840  1.00  0.00     0.041 C 
BRANCH  20  21
HETATM   21  C28 UNL     1      -7.559   7.056  16.661  1.00  0.00     0.032 C 
BRANCH  21  22
HETATM   22  C29 UNL     1      -8.912   6.897  16.018  1.00  0.00    -0.022 C 
HETATM   23  C30 UNL     1      -9.606   7.837  15.341  1.00  0.00    -0.060 C 
HETATM   24  C31 UNL     1      -9.155   9.267  15.193  1.00  0.00     0.045 C 
BRANCH  23  25
HETATM   25  C32 UNL     1     -10.949   7.513  14.717  1.00  0.00     0.303 C 
BRANCH  25  26
HETATM   26  N1  UNL     1     -11.907   8.588  14.957  1.00  0.00     0.086 N 
HETATM   27  H50 UNL     1     -12.510   8.341  15.738  1.00  0.00     0.316 HD
BRANCH  26  28
HETATM   28  C33 UNL     1     -12.726   8.894  13.786  1.00  0.00     0.265 C 
HETATM   29  C34 UNL     1     -11.906   9.106  12.521  1.00  0.00     0.037 C 
ENDBRANCH  26  28
ENDBRANCH  25  26
ENDBRANCH  23  25
ENDBRANCH  21  22
ENDBRANCH  20  21
ENDBRANCH  18  20
ENDBRANCH  17  18
ENDBRANCH  15  16
BRANCH  14  30
HETATM   30  C7  UNL     1      -0.985   7.387  13.122  1.00  0.00     0.202 C 
BRANCH  30  31
HETATM   31  O1  UNL     1      -0.976   6.058  13.641  1.00  0.00    -0.385 OA
BRANCH  31  32
HETATM   32  C8  UNL     1       0.237   5.340  13.384  1.00  0.00     0.194 C 
BRANCH  32  33
HETATM   33  C9  UNL     1       1.408   6.325  13.423  1.00  0.00     0.190 C 
BRANCH  33  34
HETATM   34  O2  UNL     1       1.970   6.365  14.736  1.00  0.00    -0.399 OA
HETATM   35  H12 UNL     1       2.620   7.093  14.753  1.00  0.00     0.209 HD
ENDBRANCH  33  34
ENDBRANCH  32  33
ENDBRANCH  31  32
ENDBRANCH  30  31
ENDBRANCH  14  30
ENDBRANCH   1  14
BRANCH   5  36
HETATM   36  O3  UNL     1      -3.354   8.807  16.447  1.00  0.00    -0.394 OA
HETATM   37  H19 UNL     1      -3.894   8.320  15.800  1.00  0.00     0.210 HD
ENDBRANCH   5  36
BRANCH   6  38
HETATM   38  C16 UNL     1      -2.388  13.154  15.402  1.00  0.00     0.012 C 
BRANCH  38  39
HETATM   39  C17 UNL     1      -1.886  14.585  15.205  1.00  0.00     0.027 C 
BRANCH  39  40
HETATM   40  C18 UNL     1      -1.521  14.874  13.752  1.00  0.00     0.164 C 
BRANCH  40  41
HETATM   41  O4  UNL     1      -2.658  14.677  12.922  1.00  0.00    -0.401 OA
HETATM   42  H27 UNL     1      -2.374  14.846  12.006  1.00  0.00     0.209 HD
ENDBRANCH  40  41
ENDBRANCH  39  40
ENDBRANCH  38  39
ENDBRANCH   6  38
BRANCH  12  43
HETATM   43  O6  UNL     1      -3.633  11.967  17.792  1.00  0.00    -0.389 OA
HETATM   44  H39 UNL     1      -4.062  12.146  18.647  1.00  0.00     0.210 HD
ENDBRANCH  12  43
BRANCH   8  45
HETATM   45  C22 UNL     1       1.388  12.927  14.983  1.00  0.00     0.265 C 
HETATM   46  O5  UNL     1       1.987  11.901  14.675  1.00  0.00    -0.302 OA
ENDBRANCH   8  45
TORSDOF 21
ENDMDL
MODEL 4
REMARK minimizedAffinity -6.52728939
REMARK CNNscore 0.21961014
REMARK CNNaffinity 6.02006292
REMARK  21 active torsions:
REMARK  status: ('A' for Active; 'I' for Inactive)
REMARK    1  A    between atoms: C2_2  and  C3_3 
REMARK    2  A    between atoms: C2_2  and  C27_33 
REMARK    3  A    between atoms: C4_4  and  C5_5 
REMARK    4  A    between atoms: C6_6  and  C7_7 
REMARK    5  A    between atoms: C6_6  and  C10_12 
REMARK    6  A    between atoms: C7_7  and  O1_8 
REMARK    7  A    between atoms: O1_8  and  C8_9 
REMARK    8  A    between atoms: C8_9  and  C9_10 
REMARK    9  A    between atoms: C9_10  and  O2_11 
REMARK   10  A    between atoms: C14_16  and  O3_17 
REMARK   11  A    between atoms: C15_18  and  C16_19 
REMARK   12  A    between atoms: C16_19  and  C17_20 
REMARK   13  A    between atoms: C17_20  and  C18_21 
REMARK   14  A    between atoms: C18_21  and  O4_22 
REMARK   15  A    between atoms: C20_24  and  C22_26 
REMARK   16  A    between atoms: C25_30  and  O6_32 
REMARK   17  A    between atoms: C27_33  and  C28_34 
REMARK   18  A    between atoms: C28_34  and  C29_35 
REMARK   19  A    between atoms: C30_36  and  C32_38 
REMARK   20  A    between atoms: C32_38  and  N1_39 
REMARK   21  A    between atoms: N1_39  and  C33_40 
ROOT
HETATM    1  C10 UNL     1      -1.296   9.476  14.636  1.00  0.00     0.046 C 
HETATM    2  C11 UNL     1      -1.703   8.624  15.835  1.00  0.00     0.013 C 
HETATM    3  C12 UNL     1      -1.686   9.598  17.024  1.00  0.00     0.017 C 
HETATM    4  C13 UNL     1      -1.543  11.073  16.459  1.00  0.00     0.024 C 
HETATM    5  C14 UNL     1      -1.936  10.843  14.960  1.00  0.00     0.138 C 
HETATM    6  C15 UNL     1      -0.003  11.516  16.606  1.00  0.00     0.029 C 
HETATM    7  C19 UNL     1       0.414  11.521  18.094  1.00  0.00    -0.066 C 
HETATM    8  C20 UNL     1       1.447  10.803  18.605  1.00  0.00    -0.021 C 
HETATM    9  C21 UNL     1       1.854  10.743  20.051  1.00  0.00     0.052 C 
HETATM   10  C23 UNL     1      -0.480  12.414  18.933  1.00  0.00     0.038 C 
HETATM   11  C24 UNL     1      -1.969  12.122  18.749  1.00  0.00     0.042 C 
HETATM   12  C25 UNL     1      -2.439  12.076  17.272  1.00  0.00     0.065 C 
HETATM   13  C26 UNL     1      -3.959  11.810  17.278  1.00  0.00     0.047 C 
ENDROOT
BRANCH   1  14
HETATM   14  C6  UNL     1      -1.452   8.926  13.222  1.00  0.00    -0.050 C 
HETATM   15  C5  UNL     1      -2.553   8.448  12.600  1.00  0.00     0.005 C 
BRANCH  15  16
HETATM   16  C4  UNL     1      -3.917   8.401  13.069  1.00  0.00     0.001 C 
HETATM   17  C3  UNL     1      -4.668   7.356  13.461  1.00  0.00     0.006 C 
BRANCH  17  18
HETATM   18  C2  UNL     1      -4.413   5.919  13.622  1.00  0.00    -0.067 C 
HETATM   19  C1  UNL     1      -3.381   5.565  14.414  1.00  0.00     0.019 C 
BRANCH  18  20
HETATM   20  C27 UNL     1      -5.283   4.898  12.908  1.00  0.00     0.041 C 
BRANCH  20  21
HETATM   21  C28 UNL     1      -6.559   4.370  13.595  1.00  0.00     0.032 C 
BRANCH  21  22
HETATM   22  C29 UNL     1      -7.618   5.426  13.783  1.00  0.00    -0.022 C 
HETATM   23  C30 UNL     1      -7.862   6.141  14.901  1.00  0.00    -0.060 C 
HETATM   24  C31 UNL     1      -7.144   5.927  16.208  1.00  0.00     0.045 C 
BRANCH  23  25
HETATM   25  C32 UNL     1      -8.947   7.201  14.924  1.00  0.00     0.303 C 
BRANCH  25  26
HETATM   26  N1  UNL     1     -10.260   6.595  15.121  1.00  0.00     0.086 N 
HETATM   27  H50 UNL     1     -10.168   5.583  15.164  1.00  0.00     0.316 HD
BRANCH  26  28
HETATM   28  C33 UNL     1     -11.216   6.952  14.074  1.00  0.00     0.265 C 
HETATM   29  C34 UNL     1     -12.618   6.419  14.336  1.00  0.00     0.037 C 
ENDBRANCH  26  28
ENDBRANCH  25  26
ENDBRANCH  23  25
ENDBRANCH  21  22
ENDBRANCH  20  21
ENDBRANCH  18  20
ENDBRANCH  17  18
ENDBRANCH  15  16
BRANCH  14  30
HETATM   30  C7  UNL     1      -0.136   8.873  12.443  1.00  0.00     0.202 C 
BRANCH  30  31
HETATM   31  O1  UNL     1       0.418   7.559  12.395  1.00  0.00    -0.385 OA
BRANCH  31  32
HETATM   32  C8  UNL     1       1.787   7.488  12.813  1.00  0.00     0.194 C 
BRANCH  32  33
HETATM   33  C9  UNL     1       2.674   7.370  11.570  1.00  0.00     0.190 C 
BRANCH  33  34
HETATM   34  O2  UNL     1       3.523   6.226  11.681  1.00  0.00    -0.399 OA
HETATM   35  H12 UNL     1       4.157   6.260  10.940  1.00  0.00     0.209 HD
ENDBRANCH  33  34
ENDBRANCH  32  33
ENDBRANCH  31  32
ENDBRANCH  30  31
ENDBRANCH  14  30
ENDBRANCH   1  14
BRANCH   5  36
HETATM   36  O3  UNL     1      -3.347  10.743  14.782  1.00  0.00    -0.394 OA
HETATM   37  H19 UNL     1      -3.502  10.650  13.826  1.00  0.00     0.210 HD
ENDBRANCH   5  36
BRANCH   6  38
HETATM   38  C16 UNL     1       0.523  12.854  16.003  1.00  0.00     0.012 C 
BRANCH  38  39
HETATM   39  C17 UNL     1       1.896  12.828  15.330  1.00  0.00     0.027 C 
BRANCH  39  40
HETATM   40  C18 UNL     1       2.105  11.570  14.493  1.00  0.00     0.164 C 
BRANCH  40  41
HETATM   41  O4  UNL     1       2.942  11.863  13.382  1.00  0.00    -0.401 OA
HETATM   42  H27 UNL     1       3.027  11.042  12.865  1.00  0.00     0.209 HD
ENDBRANCH  40  41
ENDBRANCH  39  40
ENDBRANCH  38  39
ENDBRANCH   6  38
BRANCH  12  43
HETATM   43  O6  UNL     1      -2.283  13.391  16.714  1.00  0.00    -0.389 OA
HETATM   44  H39 UNL     1      -2.893  13.988  17.181  1.00  0.00     0.210 HD
ENDBRANCH  12  43
BRANCH   8  45
HETATM   45  C22 UNL     1       2.346   9.987  17.721  1.00  0.00     0.265 C 
HETATM   46  O5  UNL     1       2.086   8.838  17.376  1.00  0.00    -0.302 OA
ENDBRANCH   8  45
TORSDOF 21
ENDMDL
MODEL 5
REMARK minimizedAffinity -7.50239658
REMARK CNNscore 0.211114511
REMARK CNNaffinity 6.6909771
REMARK  21 active torsions:
REMARK  status: ('A' for Active; 'I' for Inactive)
REMARK    1  A    between atoms: C2_2  and  C3_3 
REMARK    2  A    between atoms: C2_2  and  C27_33 
REMARK    3  A    between atoms: C4_4  and  C5_5 
REMARK    4  A    between atoms: C6_6  and  C7_7 
REMARK    5  A    between atoms: C6_6  and  C10_12 
REMARK    6  A    between atoms: C7_7  and  O1_8 
REMARK    7  A    between atoms: O1_8  and  C8_9 
REMARK    8  A    between atoms: C8_9  and  C9_10 
REMARK    9  A    between atoms: C9_10  and  O2_11 
REMARK   10  A    between atoms: C14_16  and  O3_17 
REMARK   11  A    between atoms: C15_18  and  C16_19 
REMARK   12  A    between atoms: C16_19  and  C17_20 
REMARK   13  A    between atoms: C17_20  and  C18_21 
REMARK   14  A    between atoms: C18_21  and  O4_22 
REMARK   15  A    between atoms: C20_24  and  C22_26 
REMARK   16  A    between atoms: C25_30  and  O6_32 
REMARK   17  A    between atoms: C27_33  and  C28_34 
REMARK   18  A    between atoms: C28_34  and  C29_35 
REMARK   19  A    between atoms: C30_36  and  C32_38 
REMARK   20  A    between atoms: C32_38  and  N1_39 
REMARK   21  A    between atoms: N1_39  and  C33_40 
ROOT
HETATM    1  C10 UNL     1      -2.092   5.836  12.991  1.00  0.00     0.046 C 
HETATM    2  C11 UNL     1      -1.090   5.392  14.055  1.00  0.00     0.013 C 
HETATM    3  C12 UNL     1      -0.014   6.490  14.054  1.00  0.00     0.017 C 
HETATM    4  C13 UNL     1      -0.545   7.708  13.188  1.00  0.00     0.024 C 
HETATM    5  C14 UNL     1      -2.074   7.373  13.132  1.00  0.00     0.138 C 
HETATM    6  C15 UNL     1       0.135   7.618  11.732  1.00  0.00     0.029 C 
HETATM    7  C19 UNL     1       1.671   7.735  11.850  1.00  0.00    -0.066 C 
HETATM    8  C20 UNL     1       2.549   6.807  11.391  1.00  0.00    -0.021 C 
HETATM    9  C21 UNL     1       4.046   6.861  11.528  1.00  0.00     0.052 C 
HETATM   10  C23 UNL     1       2.092   9.010  12.557  1.00  0.00     0.038 C 
HETATM   11  C24 UNL     1       1.390   9.215  13.900  1.00  0.00     0.042 C 
HETATM   12  C25 UNL     1      -0.154   9.080  13.847  1.00  0.00     0.065 C 
HETATM   13  C26 UNL     1      -0.690   9.353  15.268  1.00  0.00     0.047 C 
ENDROOT
BRANCH   1  14
HETATM   14  C6  UNL     1      -3.443   5.138  12.878  1.00  0.00    -0.050 C 
HETATM   15  C5  UNL     1      -4.685   5.627  13.093  1.00  0.00     0.005 C 
BRANCH  15  16
HETATM   16  C4  UNL     1      -5.093   6.973  13.410  1.00  0.00     0.001 C 
HETATM   17  C3  UNL     1      -6.156   7.422  14.101  1.00  0.00     0.006 C 
BRANCH  17  18
HETATM   18  C2  UNL     1      -7.250   6.768  14.829  1.00  0.00    -0.067 C 
HETATM   19  C1  UNL     1      -6.962   6.267  16.048  1.00  0.00     0.019 C 
BRANCH  18  20
HETATM   20  C27 UNL     1      -8.634   6.665  14.210  1.00  0.00     0.041 C 
BRANCH  20  21
HETATM   21  C28 UNL     1      -9.810   7.440  14.837  1.00  0.00     0.032 C 
BRANCH  21  22
HETATM   22  C29 UNL     1      -9.456   8.853  15.225  1.00  0.00    -0.022 C 
HETATM   23  C30 UNL     1     -10.106   9.980  14.866  1.00  0.00    -0.060 C 
HETATM   24  C31 UNL     1     -11.277  10.009  13.920  1.00  0.00     0.045 C 
BRANCH  23  25
HETATM   25  C32 UNL     1      -9.646  11.335  15.369  1.00  0.00     0.303 C 
BRANCH  25  26
HETATM   26  N1  UNL     1      -9.809  12.354  14.337  1.00  0.00     0.086 N 
HETATM   27  H50 UNL     1      -9.278  12.093  13.510  1.00  0.00     0.316 HD
BRANCH  26  28
HETATM   28  C33 UNL     1      -9.397  13.685  14.779  1.00  0.00     0.265 C 
HETATM   29  C34 UNL     1      -9.611  13.913  16.270  1.00  0.00     0.037 C 
ENDBRANCH  26  28
ENDBRANCH  25  26
ENDBRANCH  23  25
ENDBRANCH  21  22
ENDBRANCH  20  21
ENDBRANCH  18  20
ENDBRANCH  17  18
ENDBRANCH  15  16
BRANCH  14  30
HETATM   30  C7  UNL     1      -3.332   3.655  12.518  1.00  0.00     0.202 C 
BRANCH  30  31
HETATM   31  O1  UNL     1      -3.570   3.409  11.133  1.00  0.00    -0.385 OA
BRANCH  31  32
HETATM   32  C8  UNL     1      -2.380   3.188  10.367  1.00  0.00     0.194 C 
BRANCH  32  33
HETATM   33  C9  UNL     1      -1.491   2.193  11.117  1.00  0.00     0.190 C 
BRANCH  33  34
HETATM   34  O2  UNL     1      -1.787   0.859  10.699  1.00  0.00    -0.399 OA
HETATM   35  H12 UNL     1      -1.299   0.253  11.288  1.00  0.00     0.209 HD
ENDBRANCH  33  34
ENDBRANCH  32  33
ENDBRANCH  31  32
ENDBRANCH  30  31
ENDBRANCH  14  30
ENDBRANCH   1  14
BRANCH   5  36
HETATM   36  O3  UNL     1      -2.749   7.731  14.335  1.00  0.00    -0.394 OA
HETATM   37  H19 UNL     1      -3.692   7.534  14.196  1.00  0.00     0.210 HD
ENDBRANCH   5  36
BRANCH   6  38
HETATM   38  C16 UNL     1      -0.287   8.572  10.573  1.00  0.00     0.012 C 
BRANCH  38  39
HETATM   39  C17 UNL     1      -0.177   8.034   9.147  1.00  0.00     0.027 C 
BRANCH  39  40
HETATM   40  C18 UNL     1       1.120   8.461   8.467  1.00  0.00     0.164 C 
BRANCH  40  41
HETATM   41  O4  UNL     1       1.536   7.459   7.548  1.00  0.00    -0.401 OA
HETATM   42  H27 UNL     1       2.376   7.761   7.159  1.00  0.00     0.209 HD
ENDBRANCH  40  41
ENDBRANCH  39  40
ENDBRANCH  38  39
ENDBRANCH   6  38
BRANCH  12  43
HETATM   43  O6  UNL     1      -0.666  10.147  13.032  1.00  0.00    -0.389 OA
HETATM   44  H39 UNL     1      -0.476  10.986  13.486  1.00  0.00     0.210 HD
ENDBRANCH  12  43
BRANCH   8  45
HETATM   45  C22 UNL     1       2.085   5.596  10.637  1.00  0.00     0.265 C 
HETATM   46  O5  UNL     1       2.490   5.306   9.515  1.00  0.00    -0.302 OA
ENDBRANCH   8  45
TORSDOF 21
ENDMDL
MODEL 6
REMARK minimizedAffinity -6.3491354
REMARK CNNscore 0.209358215
REMARK CNNaffinity 6.11560106
REMARK  21 active torsions:
REMARK  status: ('A' for Active; 'I' for Inactive)
REMARK    1  A    between atoms: C2_2  and  C3_3 
REMARK    2  A    between atoms: C2_2  and  C27_33 
REMARK    3  A    between atoms: C4_4  and  C5_5 
REMARK    4  A    between atoms: C6_6  and  C7_7 
REMARK    5  A    between atoms: C6_6  and  C10_12 
REMARK    6  A    between atoms: C7_7  and  O1_8 
REMARK    7  A    between atoms: O1_8  and  C8_9 
REMARK    8  A    between atoms: C8_9  and  C9_10 
REMARK    9  A    between atoms: C9_10  and  O2_11 
REMARK   10  A    between atoms: C14_16  and  O3_17 
REMARK   11  A    between atoms: C15_18  and  C16_19 
REMARK   12  A    between atoms: C16_19  and  C17_20 
REMARK   13  A    between atoms: C17_20  and  C18_21 
REMARK   14  A    between atoms: C18_21  and  O4_22 
REMARK   15  A    between atoms: C20_24  and  C22_26 
REMARK   16  A    between atoms: C25_30  and  O6_32 
REMARK   17  A    between atoms: C27_33  and  C28_34 
REMARK   18  A    between atoms: C28_34  and  C29_35 
REMARK   19  A    between atoms: C30_36  and  C32_38 
REMARK   20  A    between atoms: C32_38  and  N1_39 
REMARK   21  A    between atoms: N1_39  and  C33_40 
ROOT
HETATM    1  C10 UNL     1      -0.718   7.922  14.180  1.00  0.00     0.046 C 
HETATM    2  C11 UNL     1       0.108   8.587  13.081  1.00  0.00     0.013 C 
HETATM    3  C12 UNL     1       1.098   9.490  13.835  1.00  0.00     0.017 C 
HETATM    4  C13 UNL     1       1.028   9.128  15.377  1.00  0.00     0.024 C 
HETATM    5  C14 UNL     1       0.316   7.735  15.311  1.00  0.00     0.138 C 
HETATM    6  C15 UNL     1       0.107  10.229  16.106  1.00  0.00     0.029 C 
HETATM    7  C19 UNL     1       0.736  11.634  15.962  1.00  0.00    -0.066 C 
HETATM    8  C20 UNL     1       0.109  12.702  15.407  1.00  0.00    -0.021 C 
HETATM    9  C21 UNL     1       0.702  14.070  15.204  1.00  0.00     0.052 C 
HETATM   10  C23 UNL     1       2.153  11.681  16.502  1.00  0.00     0.038 C 
HETATM   11  C24 UNL     1       3.052  10.582  15.935  1.00  0.00     0.042 C 
HETATM   12  C25 UNL     1       2.459   9.153  16.027  1.00  0.00     0.065 C 
HETATM   13  C26 UNL     1       3.507   8.179  15.448  1.00  0.00     0.047 C 
ENDROOT
BRANCH   1  14
HETATM   14  C6  UNL     1      -1.635   6.751  13.841  1.00  0.00    -0.050 C 
HETATM   15  C5  UNL     1      -2.874   6.467  14.302  1.00  0.00     0.005 C 
BRANCH  15  16
HETATM   16  C4  UNL     1      -3.717   7.235  15.184  1.00  0.00     0.001 C 
HETATM   17  C3  UNL     1      -5.036   7.139  15.432  1.00  0.00     0.006 C 
BRANCH  17  18
HETATM   18  C2  UNL     1      -6.096   6.229  14.979  1.00  0.00    -0.067 C 
HETATM   19  C1  UNL     1      -6.040   5.812  13.698  1.00  0.00     0.019 C 
BRANCH  18  20
HETATM   20  C27 UNL     1      -7.199   5.799  15.932  1.00  0.00     0.041 C 
BRANCH  20  21
HETATM   21  C28 UNL     1      -8.328   6.787  16.288  1.00  0.00     0.032 C 
BRANCH  21  22
HETATM   22  C29 UNL     1      -9.543   6.649  15.408  1.00  0.00    -0.022 C 
HETATM   23  C30 UNL     1     -10.276   7.648  14.873  1.00  0.00    -0.060 C 
HETATM   24  C31 UNL     1     -10.034   9.109  15.152  1.00  0.00     0.045 C 
BRANCH  23  25
HETATM   25  C32 UNL     1     -11.459   7.348  13.973  1.00  0.00     0.303 C 
BRANCH  25  26
HETATM   26  N1  UNL     1     -12.263   6.259  14.519  1.00  0.00     0.086 N 
HETATM   27  H50 UNL     1     -11.865   5.366  14.240  1.00  0.00     0.316 HD
BRANCH  26  28
HETATM   28  C33 UNL     1     -13.663   6.319  14.101  1.00  0.00     0.265 C 
HETATM   29  C34 UNL     1     -14.636   6.353  15.271  1.00  0.00     0.037 C 
ENDBRANCH  26  28
ENDBRANCH  25  26
ENDBRANCH  23  25
ENDBRANCH  21  22
ENDBRANCH  20  21
ENDBRANCH  18  20
ENDBRANCH  17  18
ENDBRANCH  15  16
BRANCH  14  30
HETATM   30  C7  UNL     1      -1.004   5.746  12.876  1.00  0.00     0.202 C 
BRANCH  30  31
HETATM   31  O1  UNL     1      -1.975   5.072  12.077  1.00  0.00    -0.385 OA
BRANCH  31  32
HETATM   32  C8  UNL     1      -1.636   3.714  11.769  1.00  0.00     0.194 C 
BRANCH  32  33
HETATM   33  C9  UNL     1      -0.113   3.564  11.826  1.00  0.00     0.190 C 
BRANCH  33  34
HETATM   34  O2  UNL     1       0.291   2.393  11.114  1.00  0.00    -0.399 OA
HETATM   35  H12 UNL     1       1.243   2.263  11.282  1.00  0.00     0.209 HD
ENDBRANCH  33  34
ENDBRANCH  32  33
ENDBRANCH  31  32
ENDBRANCH  30  31
ENDBRANCH  14  30
ENDBRANCH   1  14
BRANCH   5  36
HETATM   36  O3  UNL     1       1.212   6.688  14.946  1.00  0.00    -0.394 OA
HETATM   37  H19 UNL     1       0.701   5.860  14.975  1.00  0.00     0.210 HD
ENDBRANCH   5  36
BRANCH   6  38
HETATM   38  C16 UNL     1      -0.303  10.089  17.604  1.00  0.00     0.012 C 
BRANCH  38  39
HETATM   39  C17 UNL     1      -0.476  11.378  18.407  1.00  0.00     0.027 C 
BRANCH  39  40
HETATM   40  C18 UNL     1       0.239  11.320  19.753  1.00  0.00     0.164 C 
BRANCH  40  41
HETATM   41  O4  UNL     1       1.304  10.380  19.693  1.00  0.00    -0.401 OA
HETATM   42  H27 UNL     1       1.714  10.357  20.576  1.00  0.00     0.209 HD
ENDBRANCH  40  41
ENDBRANCH  39  40
ENDBRANCH  38  39
ENDBRANCH   6  38
BRANCH  12  43
HETATM   43  O6  UNL     1       2.341   8.808  17.417  1.00  0.00    -0.389 OA
HETATM   44  H39 UNL     1       3.239   8.760  17.789  1.00  0.00     0.210 HD
ENDBRANCH  12  43
BRANCH   8  45
HETATM   45  C22 UNL     1      -1.318  12.622  14.950  1.00  0.00     0.265 C 
HETATM   46  O5  UNL     1      -1.647  12.214  13.840  1.00  0.00    -0.302 OA
ENDBRANCH   8  45
TORSDOF 21
ENDMDL
MODEL 7
REMARK minimizedAffinity -6.64090872
REMARK CNNscore 0.191700235
REMARK CNNaffinity 5.94817305
REMARK  21 active torsions:
REMARK  status: ('A' for Active; 'I' for Inactive)
REMARK    1  A    between atoms: C2_2  and  C3_3 
REMARK    2  A    between atoms: C2_2  and  C27_33 
REMARK    3  A    between atoms: C4_4  and  C5_5 
REMARK    4  A    between atoms: C6_6  and  C7_7 
REMARK    5  A    between atoms: C6_6  and  C10_12 
REMARK    6  A    between atoms: C7_7  and  O1_8 
REMARK    7  A    between atoms: O1_8  and  C8_9 
REMARK    8  A    between atoms: C8_9  and  C9_10 
REMARK    9  A    between atoms: C9_10  and  O2_11 
REMARK   10  A    between atoms: C14_16  and  O3_17 
REMARK   11  A    between atoms: C15_18  and  C16_19 
REMARK   12  A    between atoms: C16_19  and  C17_20 
REMARK   13  A    between atoms: C17_20  and  C18_21 
REMARK   14  A    between atoms: C18_21  and  O4_22 
REMARK   15  A    between atoms: C20_24  and  C22_26 
REMARK   16  A    between atoms: C25_30  and  O6_32 
REMARK   17  A    between atoms: C27_33  and  C28_34 
REMARK   18  A    between atoms: C28_34  and  C29_35 
REMARK   19  A    between atoms: C30_36  and  C32_38 
REMARK   20  A    between atoms: C32_38  and  N1_39 
REMARK   21  A    between atoms: N1_39  and  C33_40 
ROOT
HETATM    1  C10 UNL     1      -2.277   9.445  14.874  1.00  0.00     0.046 C 
HETATM    2  C11 UNL     1      -3.657  10.060  14.653  1.00  0.00     0.013 C 
HETATM    3  C12 UNL     1      -3.568  11.450  15.305  1.00  0.00     0.017 C 
HETATM    4  C13 UNL     1      -2.048  11.742  15.652  1.00  0.00     0.024 C 
HETATM    5  C14 UNL     1      -1.341  10.666  14.760  1.00  0.00     0.138 C 
HETATM    6  C15 UNL     1      -1.830  11.448  17.219  1.00  0.00     0.029 C 
HETATM    7  C19 UNL     1      -2.714  12.389  18.069  1.00  0.00    -0.066 C 
HETATM    8  C20 UNL     1      -3.629  11.968  18.978  1.00  0.00    -0.021 C 
HETATM    9  C21 UNL     1      -4.541  12.847  19.789  1.00  0.00     0.052 C 
HETATM   10  C23 UNL     1      -2.453  13.851  17.758  1.00  0.00     0.038 C 
HETATM   11  C24 UNL     1      -2.530  14.174  16.266  1.00  0.00     0.042 C 
HETATM   12  C25 UNL     1      -1.683  13.243  15.360  1.00  0.00     0.065 C 
HETATM   13  C26 UNL     1      -1.850  13.735  13.908  1.00  0.00     0.047 C 
ENDROOT
BRANCH   1  14
HETATM   14  C6  UNL     1      -1.887   8.166  14.139  1.00  0.00    -0.050 C 
HETATM   15  C5  UNL     1      -2.672   7.181  13.650  1.00  0.00     0.005 C 
BRANCH  15  16
HETATM   16  C4  UNL     1      -4.111   7.096  13.610  1.00  0.00     0.001 C 
HETATM   17  C3  UNL     1      -4.915   6.068  13.282  1.00  0.00     0.006 C 
BRANCH  17  18
HETATM   18  C2  UNL     1      -4.681   4.669  12.906  1.00  0.00    -0.067 C 
HETATM   19  C1  UNL     1      -3.491   4.134  13.246  1.00  0.00     0.019 C 
BRANCH  18  20
HETATM   20  C27 UNL     1      -5.747   3.884  12.159  1.00  0.00     0.041 C 
BRANCH  20  21
HETATM   21  C28 UNL     1      -7.018   3.426  12.903  1.00  0.00     0.032 C 
BRANCH  21  22
HETATM   22  C29 UNL     1      -7.687   4.530  13.680  1.00  0.00    -0.022 C 
HETATM   23  C30 UNL     1      -8.493   5.495  13.190  1.00  0.00    -0.060 C 
HETATM   24  C31 UNL     1      -8.791   5.675  11.724  1.00  0.00     0.045 C 
BRANCH  23  25
HETATM   25  C32 UNL     1      -9.123   6.523  14.109  1.00  0.00     0.303 C 
BRANCH  25  26
HETATM   26  N1  UNL     1      -8.977   6.127  15.507  1.00  0.00     0.086 N 
HETATM   27  H50 UNL     1      -9.827   5.668  15.824  1.00  0.00     0.316 HD
BRANCH  26  28
HETATM   28  C33 UNL     1      -8.674   7.253  16.390  1.00  0.00     0.265 C 
HETATM   29  C34 UNL     1      -9.492   8.498  16.074  1.00  0.00     0.037 C 
ENDBRANCH  26  28
ENDBRANCH  25  26
ENDBRANCH  23  25
ENDBRANCH  21  22
ENDBRANCH  20  21
ENDBRANCH  18  20
ENDBRANCH  17  18
ENDBRANCH  15  16
BRANCH  14  30
HETATM   30  C7  UNL     1      -0.374   7.984  14.001  1.00  0.00     0.202 C 
BRANCH  30  31
HETATM   31  O1  UNL     1       0.101   8.330  12.701  1.00  0.00    -0.385 OA
BRANCH  31  32
HETATM   32  C8  UNL     1       1.438   8.847  12.687  1.00  0.00     0.194 C 
BRANCH  32  33
HETATM   33  C9  UNL     1       2.320   7.950  13.559  1.00  0.00     0.190 C 
BRANCH  33  34
HETATM   34  O2  UNL     1       2.820   6.856  12.787  1.00  0.00    -0.399 OA
HETATM   35  H12 UNL     1       3.264   6.243  13.403  1.00  0.00     0.209 HD
ENDBRANCH  33  34
ENDBRANCH  32  33
ENDBRANCH  31  32
ENDBRANCH  30  31
ENDBRANCH  14  30
ENDBRANCH   1  14
BRANCH   5  36
HETATM   36  O3  UNL     1      -1.268  11.063  13.392  1.00  0.00    -0.394 OA
HETATM   37  H19 UNL     1      -0.777  10.365  12.925  1.00  0.00     0.210 HD
ENDBRANCH   5  36
BRANCH   6  38
HETATM   38  C16 UNL     1      -0.411  11.483  17.866  1.00  0.00     0.012 C 
BRANCH  38  39
HETATM   39  C17 UNL     1      -0.320  11.209  19.367  1.00  0.00     0.027 C 
BRANCH  39  40
HETATM   40  C18 UNL     1       1.121  11.028  19.834  1.00  0.00     0.164 C 
BRANCH  40  41
HETATM   41  O4  UNL     1       1.170  10.078  20.891  1.00  0.00    -0.401 OA
HETATM   42  H27 UNL     1       2.100  10.014  21.173  1.00  0.00     0.209 HD
ENDBRANCH  40  41
ENDBRANCH  39  40
ENDBRANCH  38  39
ENDBRANCH   6  38
BRANCH  12  43
HETATM   43  O6  UNL     1      -0.298  13.451  15.679  1.00  0.00    -0.389 OA
HETATM   44  H39 UNL     1      -0.068  14.363  15.431  1.00  0.00     0.210 HD
ENDBRANCH  12  43
BRANCH   8  45
HETATM   45  C22 UNL     1      -3.802  10.512  19.299  1.00  0.00     0.265 C 
HETATM   46  O5  UNL     1      -2.860   9.736  19.430  1.00  0.00    -0.302 OA
ENDBRANCH   8  45
TORSDOF 21
ENDMDL
MODEL 8
REMARK minimizedAffinity -6.52149773
REMARK CNNscore 0.178658679
REMARK CNNaffinity 5.30562973
REMARK  21 active torsions:
REMARK  status: ('A' for Active; 'I' for Inactive)
REMARK    1  A    between atoms: C2_2  and  C3_3 
REMARK    2  A    between atoms: C2_2  and  C27_33 
REMARK    3  A    between atoms: C4_4  and  C5_5 
REMARK    4  A    between atoms: C6_6  and  C7_7 
REMARK    5  A    between atoms: C6_6  and  C10_12 
REMARK    6  A    between atoms: C7_7  and  O1_8 
REMARK    7  A    between atoms: O1_8  and  C8_9 
REMARK    8  A    between atoms: C8_9  and  C9_10 
REMARK    9  A    between atoms: C9_10  and  O2_11 
REMARK   10  A    between atoms: C14_16  and  O3_17 
REMARK   11  A    between atoms: C15_18  and  C16_19 
REMARK   12  A    between atoms: C16_19  and  C17_20 
REMARK   13  A    between atoms: C17_20  and  C18_21 
REMARK   14  A    between atoms: C18_21  and  O4_22 
REMARK   15  A    between atoms: C20_24  and  C22_26 
REMARK   16  A    between atoms: C25_30  and  O6_32 
REMARK   17  A    between atoms: C27_33  and  C28_34 
REMARK   18  A    between atoms: C28_34  and  C29_35 
REMARK   19  A    between atoms: C30_36  and  C32_38 
REMARK   20  A    between atoms: C32_38  and  N1_39 
REMARK   21  A    between atoms: N1_39  and  C33_40 
ROOT
HETATM    1  C10 UNL     1      -0.704   9.927  14.432  1.00  0.00     0.046 C 
HETATM    2  C11 UNL     1      -1.528   9.688  13.169  1.00  0.00     0.013 C 
HETATM    3  C12 UNL     1      -1.358   8.188  12.877  1.00  0.00     0.017 C 
HETATM    4  C13 UNL     1      -0.666   7.510  14.132  1.00  0.00     0.024 C 
HETATM    5  C14 UNL     1      -0.902   8.614  15.218  1.00  0.00     0.138 C 
HETATM    6  C15 UNL     1       0.899   7.330  13.801  1.00  0.00     0.029 C 
HETATM    7  C19 UNL     1       1.085   6.401  12.580  1.00  0.00    -0.066 C 
HETATM    8  C20 UNL     1       1.748   6.747  11.447  1.00  0.00    -0.021 C 
HETATM    9  C21 UNL     1       1.909   5.892  10.220  1.00  0.00     0.052 C 
HETATM   10  C23 UNL     1       0.425   5.051  12.786  1.00  0.00     0.038 C 
HETATM   11  C24 UNL     1      -1.038   5.154  13.218  1.00  0.00     0.042 C 
HETATM   12  C25 UNL     1      -1.289   6.097  14.424  1.00  0.00     0.065 C 
HETATM   13  C26 UNL     1      -2.798   6.049  14.741  1.00  0.00     0.047 C 
ENDROOT
BRANCH   1  14
HETATM   14  C6  UNL     1      -0.835  11.246  15.188  1.00  0.00    -0.050 C 
HETATM   15  C5  UNL     1      -0.066  11.750  16.179  1.00  0.00     0.005 C 
BRANCH  15  16
HETATM   16  C4  UNL     1       1.150  11.222  16.748  1.00  0.00     0.001 C 
HETATM   17  C3  UNL     1       1.445  10.891  18.018  1.00  0.00     0.006 C 
BRANCH  17  18
HETATM   18  C2  UNL     1       0.682  10.872  19.272  1.00  0.00    -0.067 C 
HETATM   19  C1  UNL     1      -0.656  11.007  19.177  1.00  0.00     0.019 C 
BRANCH  18  20
HETATM   20  C27 UNL     1       1.396  10.716  20.605  1.00  0.00     0.041 C 
BRANCH  20  21
HETATM   21  C28 UNL     1       2.909  10.420  20.630  1.00  0.00     0.032 C 
BRANCH  21  22
HETATM   22  C29 UNL     1       3.719  11.503  21.294  1.00  0.00    -0.022 C 
HETATM   23  C30 UNL     1       4.439  11.398  22.431  1.00  0.00    -0.060 C 
HETATM   24  C31 UNL     1       4.478  10.159  23.288  1.00  0.00     0.045 C 
BRANCH  23  25
HETATM   25  C32 UNL     1       5.235  12.576  22.959  1.00  0.00     0.303 C 
BRANCH  25  26
HETATM   26  N1  UNL     1       6.619  12.192  23.220  1.00  0.00     0.086 N 
HETATM   27  H50 UNL     1       6.980  12.727  24.006  1.00  0.00     0.316 HD
BRANCH  26  28
HETATM   28  C33 UNL     1       7.491  12.381  22.061  1.00  0.00     0.265 C 
HETATM   29  C34 UNL     1       8.971  12.369  22.418  1.00  0.00     0.037 C 
ENDBRANCH  26  28
ENDBRANCH  25  26
ENDBRANCH  23  25
ENDBRANCH  21  22
ENDBRANCH  20  21
ENDBRANCH  18  20
ENDBRANCH  17  18
ENDBRANCH  15  16
BRANCH  14  30
HETATM   30  C7  UNL     1      -2.058  12.065  14.772  1.00  0.00     0.202 C 
BRANCH  30  31
HETATM   31  O1  UNL     1      -3.026  12.169  15.815  1.00  0.00    -0.385 OA
BRANCH  31  32
HETATM   32  C8  UNL     1      -3.378  13.517  16.151  1.00  0.00     0.194 C 
BRANCH  32  33
HETATM   33  C9  UNL     1      -4.871  13.717  15.881  1.00  0.00     0.190 C 
BRANCH  33  34
HETATM   34  O2  UNL     1      -5.548  12.459  15.915  1.00  0.00    -0.399 OA
HETATM   35  H12 UNL     1      -6.462  12.610  15.611  1.00  0.00     0.209 HD
ENDBRANCH  33  34
ENDBRANCH  32  33
ENDBRANCH  31  32
ENDBRANCH  30  31
ENDBRANCH  14  30
ENDBRANCH   1  14
BRANCH   5  36
HETATM   36  O3  UNL     1      -2.229   8.584  15.737  1.00  0.00    -0.394 OA
HETATM   37  H19 UNL     1      -2.273   9.264  16.431  1.00  0.00     0.210 HD
ENDBRANCH   5  36
BRANCH   6  38
HETATM   38  C16 UNL     1       1.911   6.837  14.881  1.00  0.00     0.012 C 
BRANCH  38  39
HETATM   39  C17 UNL     1       2.716   7.903  15.625  1.00  0.00     0.027 C 
BRANCH  39  40
HETATM   40  C18 UNL     1       4.127   8.055  15.067  1.00  0.00     0.164 C 
BRANCH  40  41
HETATM   41  O4  UNL     1       4.957   7.013  15.560  1.00  0.00    -0.401 OA
HETATM   42  H27 UNL     1       5.849   7.164  15.201  1.00  0.00     0.209 HD
ENDBRANCH  40  41
ENDBRANCH  39  40
ENDBRANCH  38  39
ENDBRANCH   6  38
BRANCH  12  43
HETATM   43  O6  UNL     1      -0.636   5.533  15.573  1.00  0.00    -0.389 OA
HETATM   44  H39 UNL     1      -1.077   4.691  15.783  1.00  0.00     0.210 HD
ENDBRANCH  12  43
BRANCH   8  45
HETATM   45  C22 UNL     1       2.443   8.071  11.319  1.00  0.00     0.265 C 
HETATM   46  O5  UNL     1       2.027   9.102  11.840  1.00  0.00    -0.302 OA
ENDBRANCH   8  45
TORSDOF 21
ENDMDL
MODEL 9
REMARK minimizedAffinity -7.17674637
REMARK CNNscore 0.172445625
REMARK CNNaffinity 6.56269836
REMARK  21 active torsions:
REMARK  status: ('A' for Active; 'I' for Inactive)
REMARK    1  A    between atoms: C2_2  and  C3_3 
REMARK    2  A    between atoms: C2_2  and  C27_33 
REMARK    3  A    between atoms: C4_4  and  C5_5 
REMARK    4  A    between atoms: C6_6  and  C7_7 
REMARK    5  A    between atoms: C6_6  and  C10_12 
REMARK    6  A    between atoms: C7_7  and  O1_8 
REMARK    7  A    between atoms: O1_8  and  C8_9 
REMARK    8  A    between atoms: C8_9  and  C9_10 
REMARK    9  A    between atoms: C9_10  and  O2_11 
REMARK   10  A    between atoms: C14_16  and  O3_17 
REMARK   11  A    between atoms: C15_18  and  C16_19 
REMARK   12  A    between atoms: C16_19  and  C17_20 
REMARK   13  A    between atoms: C17_20  and  C18_21 
REMARK   14  A    between atoms: C18_21  and  O4_22 
REMARK   15  A    between atoms: C20_24  and  C22_26 
REMARK   16  A    between atoms: C25_30  and  O6_32 
REMARK   17  A    between atoms: C27_33  and  C28_34 
REMARK   18  A    between atoms: C28_34  and  C29_35 
REMARK   19  A    between atoms: C30_36  and  C32_38 
REMARK   20  A    between atoms: C32_38  and  N1_39 
REMARK   21  A    between atoms: N1_39  and  C33_40 
ROOT
HETATM    1  C10 UNL     1      -3.344   7.484  14.135  1.00  0.00     0.046 C 
HETATM    2  C11 UNL     1      -2.886   7.311  15.581  1.00  0.00     0.013 C 
HETATM    3  C12 UNL     1      -1.684   8.260  15.721  1.00  0.00     0.017 C 
HETATM    4  C13 UNL     1      -1.629   9.187  14.436  1.00  0.00     0.024 C 
HETATM    5  C14 UNL     1      -3.076   8.981  13.873  1.00  0.00     0.138 C 
HETATM    6  C15 UNL     1      -0.515   8.591  13.439  1.00  0.00     0.029 C 
HETATM    7  C19 UNL     1       0.875   8.610  14.115  1.00  0.00    -0.066 C 
HETATM    8  C20 UNL     1       1.658   7.515  14.292  1.00  0.00    -0.021 C 
HETATM    9  C21 UNL     1       2.991   7.483  14.986  1.00  0.00     0.052 C 
HETATM   10  C23 UNL     1       1.264  10.001  14.578  1.00  0.00     0.038 C 
HETATM   11  C24 UNL     1       0.192  10.673  15.437  1.00  0.00     0.042 C 
HETATM   12  C25 UNL     1      -1.231  10.659  14.820  1.00  0.00     0.065 C 
HETATM   13  C26 UNL     1      -2.165  11.405  15.795  1.00  0.00     0.047 C 
ENDROOT
BRANCH   1  14
HETATM   14  C6  UNL     1      -4.680   6.901  13.684  1.00  0.00    -0.050 C 
HETATM   15  C5  UNL     1      -4.944   5.724  13.075  1.00  0.00     0.005 C 
BRANCH  15  16
HETATM   16  C4  UNL     1      -4.046   4.643  12.752  1.00  0.00     0.001 C 
HETATM   17  C3  UNL     1      -4.305   3.376  12.379  1.00  0.00     0.006 C 
BRANCH  17  18
HETATM   18  C2  UNL     1      -5.536   2.624  12.106  1.00  0.00    -0.067 C 
HETATM   19  C1  UNL     1      -5.420   1.512  11.352  1.00  0.00     0.019 C 
BRANCH  18  20
HETATM   20  C27 UNL     1      -6.869   3.106  12.654  1.00  0.00     0.041 C 
BRANCH  20  21
HETATM   21  C28 UNL     1      -7.651   4.203  11.905  1.00  0.00     0.032 C 
BRANCH  21  22
HETATM   22  C29 UNL     1      -8.549   5.016  12.802  1.00  0.00    -0.022 C 
HETATM   23  C30 UNL     1      -9.411   5.984  12.426  1.00  0.00    -0.060 C 
HETATM   24  C31 UNL     1      -9.552   6.479  11.011  1.00  0.00     0.045 C 
BRANCH  23  25
HETATM   25  C32 UNL     1     -10.278   6.692  13.450  1.00  0.00     0.303 C 
BRANCH  25  26
HETATM   26  N1  UNL     1      -9.608   6.751  14.746  1.00  0.00     0.086 N 
HETATM   27  H50 UNL     1      -9.815   5.908  15.276  1.00  0.00     0.316 HD
BRANCH  26  28
HETATM   28  C33 UNL     1      -9.986   7.925  15.530  1.00  0.00     0.265 C 
HETATM   29  C34 UNL     1     -11.327   8.516  15.115  1.00  0.00     0.037 C 
ENDBRANCH  26  28
ENDBRANCH  25  26
ENDBRANCH  23  25
ENDBRANCH  21  22
ENDBRANCH  20  21
ENDBRANCH  18  20
ENDBRANCH  17  18
ENDBRANCH  15  16
BRANCH  14  30
HETATM   30  C7  UNL     1      -5.863   7.840  13.927  1.00  0.00     0.202 C 
BRANCH  30  31
HETATM   31  O1  UNL     1      -6.554   7.545  15.140  1.00  0.00    -0.385 OA
BRANCH  31  32
HETATM   32  C8  UNL     1      -6.095   6.359  15.799  1.00  0.00     0.194 C 
BRANCH  32  33
HETATM   33  C9  UNL     1      -7.226   5.815  16.675  1.00  0.00     0.190 C 
BRANCH  33  34
HETATM   34  O2  UNL     1      -7.870   4.720  16.020  1.00  0.00    -0.399 OA
HETATM   35  H12 UNL     1      -8.660   4.490  16.545  1.00  0.00     0.209 HD
ENDBRANCH  33  34
ENDBRANCH  32  33
ENDBRANCH  31  32
ENDBRANCH  30  31
ENDBRANCH  14  30
ENDBRANCH   1  14
BRANCH   5  36
HETATM   36  O3  UNL     1      -4.045   9.751  14.580  1.00  0.00    -0.394 OA
HETATM   37  H19 UNL     1      -4.898   9.601  14.137  1.00  0.00     0.210 HD
ENDBRANCH   5  36
BRANCH   6  38
HETATM   38  C16 UNL     1      -0.308   9.169  12.005  1.00  0.00     0.012 C 
BRANCH  38  39
HETATM   39  C17 UNL     1      -0.545   8.223  10.828  1.00  0.00     0.027 C 
BRANCH  39  40
HETATM   40  C18 UNL     1       0.428   8.474   9.680  1.00  0.00     0.164 C 
BRANCH  40  41
HETATM   41  O4  UNL     1      -0.243   9.134   8.615  1.00  0.00    -0.401 OA
HETATM   42  H27 UNL     1       0.407   9.251   7.899  1.00  0.00     0.209 HD
ENDBRANCH  40  41
ENDBRANCH  39  40
ENDBRANCH  38  39
ENDBRANCH   6  38
BRANCH  12  43
HETATM   43  O6  UNL     1      -1.206  11.457  13.625  1.00  0.00    -0.389 OA
HETATM   44  H39 UNL     1      -1.026  12.377  13.886  1.00  0.00     0.210 HD
ENDBRANCH  12  43
BRANCH   8  45
HETATM   45  C22 UNL     1       1.258   6.172  13.754  1.00  0.00     0.265 C 
HETATM   46  O5  UNL     1       1.478   5.818  12.599  1.00  0.00    -0.302 OA
ENDBRANCH   8  45
TORSDOF 21
ENDMDL
