MODEL 1
REMARK minimizedAffinity -9.58317661
REMARK  8 active torsions:
REMARK  status: ('A' for Active; 'I' for Inactive)
REMARK    1  A    between atoms: C2_2  and  C3_3 
REMARK    2  A    between atoms: C2_2  and  C9_11 
REMARK    3  A    between atoms: C3_3  and  C4_4 
REMARK    4  A    between atoms: C4_4  and  C5_5 
REMARK    5  A    between atoms: C5_5  and  O1_6 
REMARK    6  A    between atoms: C5_5  and  C6_7 
REMARK    7  A    between atoms: C6_7  and  O2_10 
REMARK    8  A    between atoms: C30_34  and  O5_35 
ROOT
HETATM    1  C9  UNL     1      -1.453  49.394 -18.144  1.00  0.00    -0.001 C 
HETATM    2  C10 UNL     1      -2.650  48.417 -18.303  1.00  0.00     0.007 C 
HETATM    3  C11 UNL     1      -3.051  48.398 -19.789  1.00  0.00     0.015 C 
HETATM    4  C12 UNL     1      -1.896  49.100 -20.522  1.00  0.00    -0.009 C 
HETATM    5  C13 UNL     1      -0.783  48.032 -20.763  1.00  0.00     0.021 C 
HETATM    6  C14 UNL     1      -2.172  49.765 -21.873  1.00  0.00    -0.032 C 
HETATM    7  C15 UNL     1      -1.376  50.784 -22.305  1.00  0.00     0.002 C 
HETATM    8  C16 UNL     1      -0.188  51.138 -21.446  1.00  0.00     0.157 C 
HETATM    9  O3  UNL     1       0.837  51.597 -21.946  1.00  0.00    -0.293 OA
HETATM   10  C17 UNL     1      -0.219  50.871 -19.942  1.00  0.00     0.094 C 
HETATM   11  C18 UNL     1      -1.523  50.216 -19.475  1.00  0.00    -0.022 C 
HETATM   12  C19 UNL     1      -2.614  51.326 -19.337  1.00  0.00     0.017 C 
HETATM   13  C20 UNL     1      -1.683  51.540 -23.618  1.00  0.00    -0.008 C 
HETATM   14  C21 UNL     1      -2.753  52.594 -23.213  1.00  0.00     0.021 C 
HETATM   15  C22 UNL     1      -0.549  52.349 -24.312  1.00  0.00     0.022 C 
HETATM   16  C23 UNL     1       0.227  51.535 -25.332  1.00  0.00     0.080 C 
HETATM   17  C24 UNL     1      -0.703  51.198 -26.482  1.00  0.00     0.135 C 
HETATM   18  O4  UNL     1      -0.301  51.247 -27.644  1.00  0.00    -0.297 OA
HETATM   19  C25 UNL     1      -2.151  50.788 -26.134  1.00  0.00     0.018 C 
HETATM   20  C26 UNL     1      -3.095  51.920 -26.554  1.00  0.00     0.023 C 
HETATM   21  C27 UNL     1      -2.485  49.544 -26.988  1.00  0.00     0.023 C 
HETATM   22  C28 UNL     1      -2.202  50.430 -24.614  1.00  0.00     0.016 C 
HETATM   23  C29 UNL     1      -3.529  49.850 -24.096  1.00  0.00     0.043 C 
HETATM   24  C30 UNL     1      -3.349  49.250 -22.688  1.00  0.00     0.149 C 
ENDROOT
BRANCH   1  25
HETATM   25  C2  UNL     1      -1.441  50.138 -16.771  1.00  0.00    -0.014 C 
HETATM   26  C1  UNL     1      -2.812  50.759 -16.456  1.00  0.00     0.010 C 
BRANCH  25  27
HETATM   27  C3  UNL     1      -0.396  51.291 -16.705  1.00  0.00     0.007 C 
BRANCH  27  28
HETATM   28  C4  UNL     1       1.046  50.856 -16.394  1.00  0.00     0.035 C 
BRANCH  28  29
HETATM   29  C5  UNL     1       1.781  51.879 -15.506  1.00  0.00     0.151 C 
BRANCH  29  30
HETATM   30  O1  UNL     1       1.439  53.188 -15.987  1.00  0.00    -0.393 OA
HETATM   31  H10 UNL     1       0.602  53.425 -15.538  1.00  0.00     0.210 HD
ENDBRANCH  29  30
BRANCH  29  32
HETATM   32  C6  UNL     1       1.419  51.795 -13.994  1.00  0.00     0.076 C 
HETATM   33  C7  UNL     1       0.738  50.477 -13.613  1.00  0.00     0.048 C 
HETATM   34  C8  UNL     1       2.672  51.984 -13.130  1.00  0.00     0.048 C 
BRANCH  32  35
HETATM   35  O2  UNL     1       0.540  52.889 -13.674  1.00  0.00    -0.388 OA
HETATM   36  H17 UNL     1      -0.355  52.660 -13.980  1.00  0.00     0.210 HD
ENDBRANCH  32  35
ENDBRANCH  29  32
ENDBRANCH  28  29
ENDBRANCH  27  28
ENDBRANCH  25  27
ENDBRANCH   1  25
BRANCH  24  37
HETATM   37  O5  UNL     1      -3.193  47.841 -22.845  1.00  0.00    -0.391 OA
HETATM   38  H48 UNL     1      -2.382  47.689 -23.360  1.00  0.00     0.210 HD
ENDBRANCH  24  37
TORSDOF 8
ENDMDL
MODEL 2
REMARK minimizedAffinity -9.49377251
REMARK  8 active torsions:
REMARK  status: ('A' for Active; 'I' for Inactive)
REMARK    1  A    between atoms: C2_2  and  C3_3 
REMARK    2  A    between atoms: C2_2  and  C9_11 
REMARK    3  A    between atoms: C3_3  and  C4_4 
REMARK    4  A    between atoms: C4_4  and  C5_5 
REMARK    5  A    between atoms: C5_5  and  O1_6 
REMARK    6  A    between atoms: C5_5  and  C6_7 
REMARK    7  A    between atoms: C6_7  and  O2_10 
REMARK    8  A    between atoms: C30_34  and  O5_35 
ROOT
HETATM    1  C9  UNL     1      -1.507  49.862 -17.758  1.00  0.00    -0.001 C 
HETATM    2  C10 UNL     1      -2.651  48.815 -17.833  1.00  0.00     0.007 C 
HETATM    3  C11 UNL     1      -3.040  48.644 -19.312  1.00  0.00     0.015 C 
HETATM    4  C12 UNL     1      -1.918  49.336 -20.102  1.00  0.00    -0.009 C 
HETATM    5  C13 UNL     1      -0.750  48.309 -20.245  1.00  0.00     0.021 C 
HETATM    6  C14 UNL     1      -2.218  49.864 -21.507  1.00  0.00    -0.032 C 
HETATM    7  C15 UNL     1      -1.472  50.880 -22.026  1.00  0.00     0.002 C 
HETATM    8  C16 UNL     1      -0.310  51.369 -21.199  1.00  0.00     0.157 C 
HETATM    9  O3  UNL     1       0.694  51.834 -21.736  1.00  0.00    -0.293 OA
HETATM   10  C17 UNL     1      -0.337  51.235 -19.677  1.00  0.00     0.094 C 
HETATM   11  C18 UNL     1      -1.610  50.558 -19.157  1.00  0.00    -0.022 C 
HETATM   12  C19 UNL     1      -2.756  51.618 -19.120  1.00  0.00     0.017 C 
HETATM   13  C20 UNL     1      -1.808  51.500 -23.401  1.00  0.00    -0.008 C 
HETATM   14  C21 UNL     1      -2.934  52.529 -23.094  1.00  0.00     0.021 C 
HETATM   15  C22 UNL     1      -0.713  52.302 -24.162  1.00  0.00     0.022 C 
HETATM   16  C23 UNL     1       0.111  51.442 -25.104  1.00  0.00     0.080 C 
HETATM   17  C24 UNL     1      -0.793  50.957 -26.222  1.00  0.00     0.135 C 
HETATM   18  O4  UNL     1      -0.387  50.923 -27.383  1.00  0.00    -0.297 OA
HETATM   19  C25 UNL     1      -2.220  50.506 -25.842  1.00  0.00     0.018 C 
HETATM   20  C26 UNL     1      -3.218  51.546 -26.363  1.00  0.00     0.023 C 
HETATM   21  C27 UNL     1      -2.485  49.175 -26.583  1.00  0.00     0.023 C 
HETATM   22  C28 UNL     1      -2.263  50.281 -24.297  1.00  0.00     0.016 C 
HETATM   23  C29 UNL     1      -3.562  49.682 -23.732  1.00  0.00     0.043 C 
HETATM   24  C30 UNL     1      -3.362  49.219 -22.275  1.00  0.00     0.149 C 
ENDROOT
BRANCH   1  25
HETATM   25  C2  UNL     1      -1.542  50.724 -16.457  1.00  0.00    -0.014 C 
HETATM   26  C1  UNL     1      -0.586  50.170 -15.388  1.00  0.00     0.010 C 
BRANCH  25  27
HETATM   27  C3  UNL     1      -2.955  50.799 -15.807  1.00  0.00     0.007 C 
BRANCH  27  28
HETATM   28  C4  UNL     1      -2.972  50.838 -14.270  1.00  0.00     0.035 C 
BRANCH  28  29
HETATM   29  C5  UNL     1      -2.866  52.276 -13.724  1.00  0.00     0.151 C 
BRANCH  29  30
HETATM   30  O1  UNL     1      -4.044  52.981 -14.142  1.00  0.00    -0.393 OA
HETATM   31  H10 UNL     1      -4.721  52.791 -13.462  1.00  0.00     0.210 HD
ENDBRANCH  29  30
BRANCH  29  32
HETATM   32  C6  UNL     1      -2.754  52.368 -12.173  1.00  0.00     0.076 C 
HETATM   33  C7  UNL     1      -4.004  52.962 -11.517  1.00  0.00     0.048 C 
HETATM   34  C8  UNL     1      -2.477  50.984 -11.572  1.00  0.00     0.048 C 
BRANCH  32  35
HETATM   35  O2  UNL     1      -1.616  53.186 -11.846  1.00  0.00    -0.388 OA
HETATM   36  H17 UNL     1      -1.869  54.118 -11.960  1.00  0.00     0.210 HD
ENDBRANCH  32  35
ENDBRANCH  29  32
ENDBRANCH  28  29
ENDBRANCH  27  28
ENDBRANCH  25  27
ENDBRANCH   1  25
BRANCH  24  37
HETATM   37  O5  UNL     1      -3.133  47.811 -22.307  1.00  0.00    -0.391 OA
HETATM   38  H48 UNL     1      -2.312  47.657 -22.805  1.00  0.00     0.210 HD
ENDBRANCH  24  37
TORSDOF 8
ENDMDL
MODEL 3
REMARK minimizedAffinity -9.48726749
REMARK  8 active torsions:
REMARK  status: ('A' for Active; 'I' for Inactive)
REMARK    1  A    between atoms: C2_2  and  C3_3 
REMARK    2  A    between atoms: C2_2  and  C9_11 
REMARK    3  A    between atoms: C3_3  and  C4_4 
REMARK    4  A    between atoms: C4_4  and  C5_5 
REMARK    5  A    between atoms: C5_5  and  O1_6 
REMARK    6  A    between atoms: C5_5  and  C6_7 
REMARK    7  A    between atoms: C6_7  and  O2_10 
REMARK    8  A    between atoms: C30_34  and  O5_35 
ROOT
HETATM    1  C9  UNL     1      -1.655  52.297 -22.902  1.00  0.00    -0.001 C 
HETATM    2  C10 UNL     1      -2.234  52.312 -24.343  1.00  0.00     0.007 C 
HETATM    3  C11 UNL     1      -3.485  51.416 -24.360  1.00  0.00     0.015 C 
HETATM    4  C12 UNL     1      -3.808  51.154 -22.880  1.00  0.00    -0.009 C 
HETATM    5  C13 UNL     1      -4.634  52.374 -22.363  1.00  0.00     0.021 C 
HETATM    6  C14 UNL     1      -4.594  49.896 -22.504  1.00  0.00    -0.032 C 
HETATM    7  C15 UNL     1      -4.475  49.367 -21.254  1.00  0.00     0.002 C 
HETATM    8  C16 UNL     1      -3.626  50.126 -20.266  1.00  0.00     0.157 C 
HETATM    9  O3  UNL     1      -3.870  50.083 -19.061  1.00  0.00    -0.293 OA
HETATM   10  C17 UNL     1      -2.484  51.015 -20.755  1.00  0.00     0.094 C 
HETATM   11  C18 UNL     1      -2.355  51.040 -22.282  1.00  0.00    -0.022 C 
HETATM   12  C19 UNL     1      -1.597  49.753 -22.737  1.00  0.00     0.017 C 
HETATM   13  C20 UNL     1      -5.180  48.045 -20.872  1.00  0.00    -0.008 C 
HETATM   14  C21 UNL     1      -4.224  46.935 -21.396  1.00  0.00     0.021 C 
HETATM   15  C22 UNL     1      -5.412  47.714 -19.369  1.00  0.00     0.022 C 
HETATM   16  C23 UNL     1      -6.749  48.211 -18.848  1.00  0.00     0.080 C 
HETATM   17  C24 UNL     1      -7.851  47.432 -19.542  1.00  0.00     0.135 C 
HETATM   18  O4  UNL     1      -8.837  47.052 -18.912  1.00  0.00    -0.297 OA
HETATM   19  C25 UNL     1      -7.687  47.153 -21.052  1.00  0.00     0.018 C 
HETATM   20  C26 UNL     1      -7.400  45.659 -21.245  1.00  0.00     0.023 C 
HETATM   21  C27 UNL     1      -9.045  47.470 -21.719  1.00  0.00     0.023 C 
HETATM   22  C28 UNL     1      -6.578  48.104 -21.604  1.00  0.00     0.016 C 
HETATM   23  C29 UNL     1      -6.365  48.088 -23.127  1.00  0.00     0.043 C 
HETATM   24  C30 UNL     1      -5.490  49.278 -23.568  1.00  0.00     0.149 C 
ENDROOT
BRANCH   1  25
HETATM   25  C2  UNL     1      -0.100  52.420 -22.858  1.00  0.00    -0.014 C 
HETATM   26  C1  UNL     1       0.395  52.812 -21.457  1.00  0.00     0.010 C 
BRANCH  25  27
HETATM   27  C3  UNL     1       0.461  53.480 -23.851  1.00  0.00     0.007 C 
BRANCH  27  28
HETATM   28  C4  UNL     1       0.931  52.930 -25.208  1.00  0.00     0.035 C 
BRANCH  28  29
HETATM   29  C5  UNL     1      -0.028  53.315 -26.353  1.00  0.00     0.151 C 
BRANCH  29  30
HETATM   30  O1  UNL     1       0.240  54.683 -26.695  1.00  0.00    -0.393 OA
HETATM   31  H10 UNL     1       0.974  54.656 -27.341  1.00  0.00     0.210 HD
ENDBRANCH  29  30
BRANCH  29  32
HETATM   32  C6  UNL     1       0.120  52.444 -27.635  1.00  0.00     0.076 C 
HETATM   33  C7  UNL     1       1.522  51.847 -27.797  1.00  0.00     0.048 C 
HETATM   34  C8  UNL     1      -0.914  51.311 -27.637  1.00  0.00     0.048 C 
BRANCH  32  35
HETATM   35  O2  UNL     1      -0.177  53.264 -28.780  1.00  0.00    -0.388 OA
HETATM   36  H17 UNL     1       0.602  53.814 -28.971  1.00  0.00     0.210 HD
ENDBRANCH  32  35
ENDBRANCH  29  32
ENDBRANCH  28  29
ENDBRANCH  27  28
ENDBRANCH  25  27
ENDBRANCH   1  25
BRANCH  24  37
HETATM   37  O5  UNL     1      -6.369  50.294 -24.048  1.00  0.00    -0.391 OA
HETATM   38  H48 UNL     1      -6.932  50.573 -23.305  1.00  0.00     0.210 HD
ENDBRANCH  24  37
TORSDOF 8
ENDMDL
MODEL 4
REMARK minimizedAffinity -9.47367287
REMARK  8 active torsions:
REMARK  status: ('A' for Active; 'I' for Inactive)
REMARK    1  A    between atoms: C2_2  and  C3_3 
REMARK    2  A    between atoms: C2_2  and  C9_11 
REMARK    3  A    between atoms: C3_3  and  C4_4 
REMARK    4  A    between atoms: C4_4  and  C5_5 
REMARK    5  A    between atoms: C5_5  and  O1_6 
REMARK    6  A    between atoms: C5_5  and  C6_7 
REMARK    7  A    between atoms: C6_7  and  O2_10 
REMARK    8  A    between atoms: C30_34  and  O5_35 
ROOT
HETATM    1  C9  UNL     1      -0.110  50.799 -21.394  1.00  0.00    -0.001 C 
HETATM    2  C10 UNL     1      -0.056  50.845 -19.843  1.00  0.00     0.007 C 
HETATM    3  C11 UNL     1      -1.327  50.163 -19.304  1.00  0.00     0.015 C 
HETATM    4  C12 UNL     1      -1.940  49.447 -20.519  1.00  0.00    -0.009 C 
HETATM    5  C13 UNL     1      -1.211  48.074 -20.664  1.00  0.00     0.021 C 
HETATM    6  C14 UNL     1      -3.442  49.154 -20.525  1.00  0.00    -0.032 C 
HETATM    7  C15 UNL     1      -4.100  49.001 -21.709  1.00  0.00     0.002 C 
HETATM    8  C16 UNL     1      -3.269  49.040 -22.967  1.00  0.00     0.157 C 
HETATM    9  O3  UNL     1      -3.605  48.405 -23.964  1.00  0.00    -0.293 OA
HETATM   10  C17 UNL     1      -1.956  49.821 -22.998  1.00  0.00     0.094 C 
HETATM   11  C18 UNL     1      -1.622  50.487 -21.659  1.00  0.00    -0.022 C 
HETATM   12  C19 UNL     1      -2.447  51.807 -21.541  1.00  0.00     0.017 C 
HETATM   13  C20 UNL     1      -5.632  48.799 -21.754  1.00  0.00    -0.008 C 
HETATM   14  C21 UNL     1      -6.213  50.239 -21.657  1.00  0.00     0.021 C 
HETATM   15  C22 UNL     1      -6.280  48.179 -23.027  1.00  0.00     0.022 C 
HETATM   16  C23 UNL     1      -6.399  46.667 -22.959  1.00  0.00     0.080 C 
HETATM   17  C24 UNL     1      -7.391  46.314 -21.866  1.00  0.00     0.135 C 
HETATM   18  O4  UNL     1      -8.206  45.407 -22.032  1.00  0.00    -0.297 OA
HETATM   19  C25 UNL     1      -7.326  47.125 -20.553  1.00  0.00     0.018 C 
HETATM   20  C26 UNL     1      -8.556  48.036 -20.479  1.00  0.00     0.023 C 
HETATM   21  C27 UNL     1      -7.411  46.109 -19.391  1.00  0.00     0.023 C 
HETATM   22  C28 UNL     1      -5.957  47.877 -20.514  1.00  0.00     0.016 C 
HETATM   23  C29 UNL     1      -5.631  48.628 -19.212  1.00  0.00     0.043 C 
HETATM   24  C30 UNL     1      -4.148  49.047 -19.182  1.00  0.00     0.149 C 
ENDROOT
BRANCH   1  25
HETATM   25  C2  UNL     1       0.558  52.036 -22.072  1.00  0.00    -0.014 C 
HETATM   26  C1  UNL     1       0.650  53.227 -21.105  1.00  0.00     0.010 C 
BRANCH  25  27
HETATM   27  C3  UNL     1      -0.208  52.534 -23.333  1.00  0.00     0.007 C 
BRANCH  27  28
HETATM   28  C4  UNL     1       0.638  53.315 -24.353  1.00  0.00     0.035 C 
BRANCH  28  29
HETATM   29  C5  UNL     1       0.054  53.230 -25.777  1.00  0.00     0.151 C 
BRANCH  29  30
HETATM   30  O1  UNL     1       0.174  54.532 -26.368  1.00  0.00    -0.393 OA
HETATM   31  H10 UNL     1       1.071  54.566 -26.756  1.00  0.00     0.210 HD
ENDBRANCH  29  30
BRANCH  29  32
HETATM   32  C6  UNL     1       0.765  52.198 -26.702  1.00  0.00     0.076 C 
HETATM   33  C7  UNL     1       0.383  50.748 -26.388  1.00  0.00     0.048 C 
HETATM   34  C8  UNL     1       0.455  52.494 -28.175  1.00  0.00     0.048 C 
BRANCH  32  35
HETATM   35  O2  UNL     1       2.188  52.353 -26.550  1.00  0.00    -0.388 OA
HETATM   36  H17 UNL     1       2.455  51.913 -25.724  1.00  0.00     0.210 HD
ENDBRANCH  32  35
ENDBRANCH  29  32
ENDBRANCH  28  29
ENDBRANCH  27  28
ENDBRANCH  25  27
ENDBRANCH   1  25
BRANCH  24  37
HETATM   37  O5  UNL     1      -3.452  48.083 -18.394  1.00  0.00    -0.391 OA
HETATM   38  H48 UNL     1      -3.529  47.223 -18.843  1.00  0.00     0.210 HD
ENDBRANCH  24  37
TORSDOF 8
ENDMDL
MODEL 5
REMARK minimizedAffinity -9.20999146
REMARK  8 active torsions:
REMARK  status: ('A' for Active; 'I' for Inactive)
REMARK    1  A    between atoms: C2_2  and  C3_3 
REMARK    2  A    between atoms: C2_2  and  C9_11 
REMARK    3  A    between atoms: C3_3  and  C4_4 
REMARK    4  A    between atoms: C4_4  and  C5_5 
REMARK    5  A    between atoms: C5_5  and  O1_6 
REMARK    6  A    between atoms: C5_5  and  C6_7 
REMARK    7  A    between atoms: C6_7  and  O2_10 
REMARK    8  A    between atoms: C30_34  and  O5_35 
ROOT
HETATM    1  C9  UNL     1      -4.047  50.418 -24.860  1.00  0.00    -0.001 C 
HETATM    2  C10 UNL     1      -5.466  49.963 -24.423  1.00  0.00     0.007 C 
HETATM    3  C11 UNL     1      -5.458  49.790 -22.894  1.00  0.00     0.015 C 
HETATM    4  C12 UNL     1      -4.151  50.450 -22.425  1.00  0.00    -0.009 C 
HETATM    5  C13 UNL     1      -4.426  51.981 -22.294  1.00  0.00     0.021 C 
HETATM    6  C14 UNL     1      -3.525  49.997 -21.103  1.00  0.00    -0.032 C 
HETATM    7  C15 UNL     1      -2.187  50.156 -20.895  1.00  0.00     0.002 C 
HETATM    8  C16 UNL     1      -1.405  50.869 -21.969  1.00  0.00     0.157 C 
HETATM    9  O3  UNL     1      -0.406  51.529 -21.689  1.00  0.00    -0.293 OA
HETATM   10  C17 UNL     1      -1.882  50.834 -23.420  1.00  0.00     0.094 C 
HETATM   11  C18 UNL     1      -3.185  50.051 -23.605  1.00  0.00    -0.022 C 
HETATM   12  C19 UNL     1      -2.848  48.527 -23.641  1.00  0.00     0.017 C 
HETATM   13  C20 UNL     1      -1.507  49.625 -19.612  1.00  0.00    -0.008 C 
HETATM   14  C21 UNL     1      -1.248  48.120 -19.910  1.00  0.00     0.021 C 
HETATM   15  C22 UNL     1      -0.127  50.205 -19.187  1.00  0.00     0.022 C 
HETATM   16  C23 UNL     1      -0.242  51.398 -18.254  1.00  0.00     0.080 C 
HETATM   17  C24 UNL     1      -0.830  50.920 -16.939  1.00  0.00     0.135 C 
HETATM   18  O4  UNL     1      -0.396  51.348 -15.870  1.00  0.00    -0.297 OA
HETATM   19  C25 UNL     1      -1.985  49.897 -17.002  1.00  0.00     0.018 C 
HETATM   20  C26 UNL     1      -1.464  48.539 -16.517  1.00  0.00     0.023 C 
HETATM   21  C27 UNL     1      -3.068  50.377 -16.009  1.00  0.00     0.023 C 
HETATM   22  C28 UNL     1      -2.551  49.893 -18.458  1.00  0.00     0.016 C 
HETATM   23  C29 UNL     1      -3.812  49.045 -18.695  1.00  0.00     0.043 C 
HETATM   24  C30 UNL     1      -4.443  49.376 -20.062  1.00  0.00     0.149 C 
ENDROOT
BRANCH   1  25
HETATM   25  C2  UNL     1      -3.634  49.886 -26.268  1.00  0.00    -0.014 C 
HETATM   26  C1  UNL     1      -2.940  48.518 -26.171  1.00  0.00     0.010 C 
BRANCH  25  27
HETATM   27  C3  UNL     1      -2.660  50.837 -27.023  1.00  0.00     0.007 C 
BRANCH  27  28
HETATM   28  C4  UNL     1      -1.163  50.563 -26.797  1.00  0.00     0.035 C 
BRANCH  28  29
HETATM   29  C5  UNL     1      -0.269  51.497 -27.637  1.00  0.00     0.151 C 
BRANCH  29  30
HETATM   30  O1  UNL     1      -1.114  52.520 -28.184  1.00  0.00    -0.393 OA
HETATM   31  H10 UNL     1      -1.167  53.215 -27.498  1.00  0.00     0.210 HD
ENDBRANCH  29  30
BRANCH  29  32
HETATM   32  C6  UNL     1       0.880  52.178 -26.835  1.00  0.00     0.076 C 
HETATM   33  C7  UNL     1       0.877  51.806 -25.349  1.00  0.00     0.048 C 
HETATM   34  C8  UNL     1       2.243  51.820 -27.442  1.00  0.00     0.048 C 
BRANCH  32  35
HETATM   35  O2  UNL     1       0.743  53.604 -26.965  1.00  0.00    -0.388 OA
HETATM   36  H17 UNL     1       0.042  53.899 -26.358  1.00  0.00     0.210 HD
ENDBRANCH  32  35
ENDBRANCH  29  32
ENDBRANCH  28  29
ENDBRANCH  27  28
ENDBRANCH  25  27
ENDBRANCH   1  25
BRANCH  24  37
HETATM   37  O5  UNL     1      -5.517  50.284 -19.823  1.00  0.00    -0.391 OA
HETATM   38  H48 UNL     1      -5.139  51.096 -19.444  1.00  0.00     0.210 HD
ENDBRANCH  24  37
TORSDOF 8
ENDMDL
MODEL 6
REMARK minimizedAffinity -8.91867352
REMARK  8 active torsions:
REMARK  status: ('A' for Active; 'I' for Inactive)
REMARK    1  A    between atoms: C2_2  and  C3_3 
REMARK    2  A    between atoms: C2_2  and  C9_11 
REMARK    3  A    between atoms: C3_3  and  C4_4 
REMARK    4  A    between atoms: C4_4  and  C5_5 
REMARK    5  A    between atoms: C5_5  and  O1_6 
REMARK    6  A    between atoms: C5_5  and  C6_7 
REMARK    7  A    between atoms: C6_7  and  O2_10 
REMARK    8  A    between atoms: C30_34  and  O5_35 
ROOT
HETATM    1  C9  UNL     1      -0.089  51.778 -16.671  1.00  0.00    -0.001 C 
HETATM    2  C10 UNL     1       1.391  52.118 -16.993  1.00  0.00     0.007 C 
HETATM    3  C11 UNL     1       1.519  52.280 -18.518  1.00  0.00     0.015 C 
HETATM    4  C12 UNL     1       0.073  52.356 -19.033  1.00  0.00    -0.009 C 
HETATM    5  C13 UNL     1      -0.400  53.835 -18.872  1.00  0.00     0.021 C 
HETATM    6  C14 UNL     1      -0.220  51.953 -20.481  1.00  0.00    -0.032 C 
HETATM    7  C15 UNL     1      -1.466  51.526 -20.829  1.00  0.00     0.002 C 
HETATM    8  C16 UNL     1      -2.529  51.567 -19.760  1.00  0.00     0.157 C 
HETATM    9  O3  UNL     1      -3.711  51.743 -20.053  1.00  0.00    -0.293 OA
HETATM   10  C17 UNL     1      -2.144  51.454 -18.287  1.00  0.00     0.094 C 
HETATM   11  C18 UNL     1      -0.632  51.328 -18.069  1.00  0.00    -0.022 C 
HETATM   12  C19 UNL     1      -0.214  49.847 -18.330  1.00  0.00     0.017 C 
HETATM   13  C20 UNL     1      -1.771  51.023 -22.259  1.00  0.00    -0.008 C 
HETATM   14  C21 UNL     1      -1.302  49.539 -22.251  1.00  0.00     0.021 C 
HETATM   15  C22 UNL     1      -3.246  50.986 -22.754  1.00  0.00     0.022 C 
HETATM   16  C23 UNL     1      -3.672  52.265 -23.453  1.00  0.00     0.080 C 
HETATM   17  C24 UNL     1      -2.883  52.389 -24.743  1.00  0.00     0.135 C 
HETATM   18  O4  UNL     1      -3.429  52.784 -25.773  1.00  0.00    -0.297 OA
HETATM   19  C25 UNL     1      -1.385  52.014 -24.704  1.00  0.00     0.018 C 
HETATM   20  C26 UNL     1      -1.189  50.702 -25.471  1.00  0.00     0.023 C 
HETATM   21  C27 UNL     1      -0.621  53.127 -25.458  1.00  0.00     0.023 C 
HETATM   22  C28 UNL     1      -0.936  51.967 -23.209  1.00  0.00     0.016 C 
HETATM   23  C29 UNL     1       0.567  51.756 -22.957  1.00  0.00     0.043 C 
HETATM   24  C30 UNL     1       0.919  52.046 -21.485  1.00  0.00     0.149 C 
ENDROOT
BRANCH   1  25
HETATM   25  C2  UNL     1      -0.253  50.838 -15.435  1.00  0.00    -0.014 C 
HETATM   26  C1  UNL     1       0.700  49.635 -15.513  1.00  0.00     0.010 C 
BRANCH  25  27
HETATM   27  C3  UNL     1      -1.693  50.267 -15.284  1.00  0.00     0.007 C 
BRANCH  27  28
HETATM   28  C4  UNL     1      -2.301  50.374 -13.875  1.00  0.00     0.035 C 
BRANCH  28  29
HETATM   29  C5  UNL     1      -2.622  51.832 -13.491  1.00  0.00     0.151 C 
BRANCH  29  30
HETATM   30  O1  UNL     1      -3.679  52.279 -14.351  1.00  0.00    -0.393 OA
HETATM   31  H10 UNL     1      -4.510  51.999 -13.918  1.00  0.00     0.210 HD
ENDBRANCH  29  30
BRANCH  29  32
HETATM   32  C6  UNL     1      -3.070  52.022 -12.011  1.00  0.00     0.076 C 
HETATM   33  C7  UNL     1      -3.959  53.254 -11.808  1.00  0.00     0.048 C 
HETATM   34  C8  UNL     1      -3.812  50.776 -11.510  1.00  0.00     0.048 C 
BRANCH  32  35
HETATM   35  O2  UNL     1      -1.895  52.149 -11.191  1.00  0.00    -0.388 OA
HETATM   36  H17 UNL     1      -1.554  53.056 -11.285  1.00  0.00     0.210 HD
ENDBRANCH  32  35
ENDBRANCH  29  32
ENDBRANCH  28  29
ENDBRANCH  27  28
ENDBRANCH  25  27
ENDBRANCH   1  25
BRANCH  24  37
HETATM   37  O5  UNL     1       1.448  53.370 -21.430  1.00  0.00    -0.391 OA
HETATM   38  H48 UNL     1       0.746  53.980 -21.714  1.00  0.00     0.210 HD
ENDBRANCH  24  37
TORSDOF 8
ENDMDL
MODEL 7
REMARK minimizedAffinity -8.79556179
REMARK  8 active torsions:
REMARK  status: ('A' for Active; 'I' for Inactive)
REMARK    1  A    between atoms: C2_2  and  C3_3 
REMARK    2  A    between atoms: C2_2  and  C9_11 
REMARK    3  A    between atoms: C3_3  and  C4_4 
REMARK    4  A    between atoms: C4_4  and  C5_5 
REMARK    5  A    between atoms: C5_5  and  O1_6 
REMARK    6  A    between atoms: C5_5  and  C6_7 
REMARK    7  A    between atoms: C6_7  and  O2_10 
REMARK    8  A    between atoms: C30_34  and  O5_35 
ROOT
HETATM    1  C9  UNL     1      -2.097  52.538 -24.000  1.00  0.00    -0.001 C 
HETATM    2  C10 UNL     1      -2.710  52.222 -25.392  1.00  0.00     0.007 C 
HETATM    3  C11 UNL     1      -3.848  51.207 -25.189  1.00  0.00     0.015 C 
HETATM    4  C12 UNL     1      -4.101  51.188 -23.673  1.00  0.00    -0.009 C 
HETATM    5  C13 UNL     1      -5.050  52.384 -23.346  1.00  0.00     0.021 C 
HETATM    6  C14 UNL     1      -4.724  49.941 -23.041  1.00  0.00    -0.032 C 
HETATM    7  C15 UNL     1      -4.512  49.668 -21.723  1.00  0.00     0.002 C 
HETATM    8  C16 UNL     1      -3.732  50.686 -20.928  1.00  0.00     0.157 C 
HETATM    9  O3  UNL     1      -3.939  50.839 -19.725  1.00  0.00    -0.293 OA
HETATM   10  C17 UNL     1      -2.715  51.590 -21.622  1.00  0.00     0.094 C 
HETATM   11  C18 UNL     1      -2.629  51.347 -23.132  1.00  0.00    -0.022 C 
HETATM   12  C19 UNL     1      -1.737  50.090 -23.384  1.00  0.00     0.017 C 
HETATM   13  C20 UNL     1      -5.047  48.370 -21.076  1.00  0.00    -0.008 C 
HETATM   14  C21 UNL     1      -3.982  47.294 -21.436  1.00  0.00     0.021 C 
HETATM   15  C22 UNL     1      -5.200  48.298 -19.529  1.00  0.00     0.022 C 
HETATM   16  C23 UNL     1      -6.572  48.732 -19.044  1.00  0.00     0.080 C 
HETATM   17  C24 UNL     1      -7.593  47.722 -19.534  1.00  0.00     0.135 C 
HETATM   18  O4  UNL     1      -8.512  47.357 -18.801  1.00  0.00    -0.297 OA
HETATM   19  C25 UNL     1      -7.436  47.189 -20.975  1.00  0.00     0.018 C 
HETATM   20  C26 UNL     1      -6.982  45.726 -20.910  1.00  0.00     0.023 C 
HETATM   21  C27 UNL     1      -8.839  47.225 -21.625  1.00  0.00     0.023 C 
HETATM   22  C28 UNL     1      -6.461  48.139 -21.741  1.00  0.00     0.016 C 
HETATM   23  C29 UNL     1      -6.287  47.866 -23.244  1.00  0.00     0.043 C 
HETATM   24  C30 UNL     1      -5.568  49.043 -23.932  1.00  0.00     0.149 C 
ENDROOT
BRANCH   1  25
HETATM   25  C2  UNL     1      -0.566  52.837 -24.053  1.00  0.00    -0.014 C 
HETATM   26  C1  UNL     1       0.240  51.584 -24.430  1.00  0.00     0.010 C 
BRANCH  25  27
HETATM   27  C3  UNL     1       0.006  53.355 -22.701  1.00  0.00     0.007 C 
BRANCH  27  28
HETATM   28  C4  UNL     1       0.855  52.343 -21.913  1.00  0.00     0.035 C 
BRANCH  28  29
HETATM   29  C5  UNL     1       1.550  52.990 -20.699  1.00  0.00     0.151 C 
BRANCH  29  30
HETATM   30  O1  UNL     1       1.748  54.377 -21.007  1.00  0.00    -0.393 OA
HETATM   31  H10 UNL     1       0.918  54.827 -20.750  1.00  0.00     0.210 HD
ENDBRANCH  29  30
BRANCH  29  32
HETATM   32  C6  UNL     1       0.747  52.886 -19.368  1.00  0.00     0.076 C 
HETATM   33  C7  UNL     1      -0.210  51.690 -19.337  1.00  0.00     0.048 C 
HETATM   34  C8  UNL     1       1.702  52.800 -18.170  1.00  0.00     0.048 C 
BRANCH  32  35
HETATM   35  O2  UNL     1      -0.008  54.098 -19.196  1.00  0.00    -0.388 OA
HETATM   36  H17 UNL     1      -0.796  54.050 -19.765  1.00  0.00     0.210 HD
ENDBRANCH  32  35
ENDBRANCH  29  32
ENDBRANCH  28  29
ENDBRANCH  27  28
ENDBRANCH  25  27
ENDBRANCH   1  25
BRANCH  24  37
HETATM   37  O5  UNL     1      -6.572  49.850 -24.546  1.00  0.00    -0.391 OA
HETATM   38  H48 UNL     1      -7.145  50.197 -23.841  1.00  0.00     0.210 HD
ENDBRANCH  24  37
TORSDOF 8
ENDMDL
MODEL 8
REMARK minimizedAffinity -8.72676468
REMARK  8 active torsions:
REMARK  status: ('A' for Active; 'I' for Inactive)
REMARK    1  A    between atoms: C2_2  and  C3_3 
REMARK    2  A    between atoms: C2_2  and  C9_11 
REMARK    3  A    between atoms: C3_3  and  C4_4 
REMARK    4  A    between atoms: C4_4  and  C5_5 
REMARK    5  A    between atoms: C5_5  and  O1_6 
REMARK    6  A    between atoms: C5_5  and  C6_7 
REMARK    7  A    between atoms: C6_7  and  O2_10 
REMARK    8  A    between atoms: C30_34  and  O5_35 
ROOT
HETATM    1  C9  UNL     1      -3.519  50.989 -24.740  1.00  0.00    -0.001 C 
HETATM    2  C10 UNL     1      -4.708  51.943 -24.445  1.00  0.00     0.007 C 
HETATM    3  C11 UNL     1      -5.481  51.378 -23.240  1.00  0.00     0.015 C 
HETATM    4  C12 UNL     1      -4.562  50.297 -22.648  1.00  0.00    -0.009 C 
HETATM    5  C13 UNL     1      -3.541  51.018 -21.712  1.00  0.00     0.021 C 
HETATM    6  C14 UNL     1      -5.184  49.160 -21.834  1.00  0.00    -0.032 C 
HETATM    7  C15 UNL     1      -4.535  47.967 -21.726  1.00  0.00     0.002 C 
HETATM    8  C16 UNL     1      -3.168  47.869 -22.355  1.00  0.00     0.157 C 
HETATM    9  O3  UNL     1      -2.311  47.121 -21.888  1.00  0.00    -0.293 OA
HETATM   10  C17 UNL     1      -2.805  48.751 -23.548  1.00  0.00     0.094 C 
HETATM   11  C18 UNL     1      -3.939  49.695 -23.964  1.00  0.00    -0.022 C 
HETATM   12  C19 UNL     1      -4.965  48.890 -24.824  1.00  0.00     0.017 C 
HETATM   13  C20 UNL     1      -5.178  46.768 -20.991  1.00  0.00    -0.008 C 
HETATM   14  C21 UNL     1      -6.115  46.124 -22.053  1.00  0.00     0.021 C 
HETATM   15  C22 UNL     1      -4.270  45.610 -20.486  1.00  0.00     0.022 C 
HETATM   16  C23 UNL     1      -3.778  45.814 -19.064  1.00  0.00     0.080 C 
HETATM   17  C24 UNL     1      -4.972  45.741 -18.131  1.00  0.00     0.135 C 
HETATM   18  O4  UNL     1      -4.886  45.155 -17.051  1.00  0.00    -0.297 OA
HETATM   19  C25 UNL     1      -6.277  46.432 -18.584  1.00  0.00     0.018 C 
HETATM   20  C26 UNL     1      -7.307  45.353 -18.935  1.00  0.00     0.023 C 
HETATM   21  C27 UNL     1      -6.811  47.227 -17.370  1.00  0.00     0.023 C 
HETATM   22  C28 UNL     1      -5.929  47.404 -19.755  1.00  0.00     0.016 C 
HETATM   23  C29 UNL     1      -7.071  48.305 -20.253  1.00  0.00     0.043 C 
HETATM   24  C30 UNL     1      -6.528  49.420 -21.170  1.00  0.00     0.149 C 
ENDROOT
BRANCH   1  25
HETATM   25  C2  UNL     1      -3.158  50.902 -26.256  1.00  0.00    -0.014 C 
HETATM   26  C1  UNL     1      -2.234  49.708 -26.547  1.00  0.00     0.010 C 
BRANCH  25  27
HETATM   27  C3  UNL     1      -2.437  52.174 -26.791  1.00  0.00     0.007 C 
BRANCH  27  28
HETATM   28  C4  UNL     1      -1.157  51.915 -27.603  1.00  0.00     0.035 C 
BRANCH  28  29
HETATM   29  C5  UNL     1       0.022  52.784 -27.121  1.00  0.00     0.151 C 
BRANCH  29  30
HETATM   30  O1  UNL     1      -0.532  53.910 -26.425  1.00  0.00    -0.393 OA
HETATM   31  H10 UNL     1      -0.667  53.611 -25.504  1.00  0.00     0.210 HD
ENDBRANCH  29  30
BRANCH  29  32
HETATM   32  C6  UNL     1       1.014  52.050 -26.170  1.00  0.00     0.076 C 
HETATM   33  C7  UNL     1       0.761  52.354 -24.690  1.00  0.00     0.048 C 
HETATM   34  C8  UNL     1       0.951  50.534 -26.393  1.00  0.00     0.048 C 
BRANCH  32  35
HETATM   35  O2  UNL     1       2.353  52.452 -26.511  1.00  0.00    -0.388 OA
HETATM   36  H17 UNL     1       2.514  53.332 -26.127  1.00  0.00     0.210 HD
ENDBRANCH  32  35
ENDBRANCH  29  32
ENDBRANCH  28  29
ENDBRANCH  27  28
ENDBRANCH  25  27
ENDBRANCH   1  25
BRANCH  24  37
HETATM   37  O5  UNL     1      -6.407  50.598 -20.375  1.00  0.00    -0.391 OA
HETATM   38  H48 UNL     1      -5.756  50.417 -19.675  1.00  0.00     0.210 HD
ENDBRANCH  24  37
TORSDOF 8
ENDMDL
MODEL 9
REMARK minimizedAffinity -8.6710453
REMARK  8 active torsions:
REMARK  status: ('A' for Active; 'I' for Inactive)
REMARK    1  A    between atoms: C2_2  and  C3_3 
REMARK    2  A    between atoms: C2_2  and  C9_11 
REMARK    3  A    between atoms: C3_3  and  C4_4 
REMARK    4  A    between atoms: C4_4  and  C5_5 
REMARK    5  A    between atoms: C5_5  and  O1_6 
REMARK    6  A    between atoms: C5_5  and  C6_7 
REMARK    7  A    between atoms: C6_7  and  O2_10 
REMARK    8  A    between atoms: C30_34  and  O5_35 
ROOT
HETATM    1  C9  UNL     1      -0.183  51.242 -20.529  1.00  0.00    -0.001 C 
HETATM    2  C10 UNL     1      -0.727  52.120 -19.370  1.00  0.00     0.007 C 
HETATM    3  C11 UNL     1      -1.963  51.414 -18.782  1.00  0.00     0.015 C 
HETATM    4  C12 UNL     1      -1.934  49.997 -19.378  1.00  0.00    -0.009 C 
HETATM    5  C13 UNL     1      -0.971  49.143 -18.495  1.00  0.00     0.021 C 
HETATM    6  C14 UNL     1      -3.244  49.214 -19.491  1.00  0.00    -0.032 C 
HETATM    7  C15 UNL     1      -3.368  48.227 -20.422  1.00  0.00     0.002 C 
HETATM    8  C16 UNL     1      -2.144  47.897 -21.241  1.00  0.00     0.157 C 
HETATM    9  O3  UNL     1      -1.960  46.759 -21.669  1.00  0.00    -0.293 OA
HETATM   10  C17 UNL     1      -1.080  48.963 -21.496  1.00  0.00     0.094 C 
HETATM   11  C18 UNL     1      -1.400  50.304 -20.829  1.00  0.00    -0.022 C 
HETATM   12  C19 UNL     1      -2.431  51.068 -21.719  1.00  0.00     0.017 C 
HETATM   13  C20 UNL     1      -4.706  47.481 -20.627  1.00  0.00    -0.008 C 
HETATM   14  C21 UNL     1      -5.528  48.417 -21.560  1.00  0.00     0.021 C 
HETATM   15  C22 UNL     1      -4.704  46.094 -21.333  1.00  0.00     0.022 C 
HETATM   16  C23 UNL     1      -4.567  44.932 -20.365  1.00  0.00     0.080 C 
HETATM   17  C24 UNL     1      -5.818  44.875 -19.508  1.00  0.00     0.135 C 
HETATM   18  O4  UNL     1      -6.334  43.793 -19.227  1.00  0.00    -0.297 OA
HETATM   19  C25 UNL     1      -6.400  46.214 -19.002  1.00  0.00     0.018 C 
HETATM   20  C26 UNL     1      -7.708  46.493 -19.749  1.00  0.00     0.023 C 
HETATM   21  C27 UNL     1      -6.734  46.023 -17.505  1.00  0.00     0.023 C 
HETATM   22  C28 UNL     1      -5.305  47.314 -19.175  1.00  0.00     0.016 C 
HETATM   23  C29 UNL     1      -5.634  48.698 -18.590  1.00  0.00     0.043 C 
HETATM   24  C30 UNL     1      -4.373  49.584 -18.541  1.00  0.00     0.149 C 
ENDROOT
BRANCH   1  25
HETATM   25  C2  UNL     1       0.459  52.074 -21.684  1.00  0.00    -0.014 C 
HETATM   26  C1  UNL     1       1.063  53.388 -21.163  1.00  0.00     0.010 C 
BRANCH  25  27
HETATM   27  C3  UNL     1      -0.552  52.452 -22.806  1.00  0.00     0.007 C 
BRANCH  27  28
HETATM   28  C4  UNL     1       0.076  52.908 -24.134  1.00  0.00     0.035 C 
BRANCH  28  29
HETATM   29  C5  UNL     1       0.479  51.716 -25.024  1.00  0.00     0.151 C 
BRANCH  29  30
HETATM   30  O1  UNL     1      -0.640  50.818 -25.071  1.00  0.00    -0.393 OA
HETATM   31  H10 UNL     1      -1.211  51.144 -25.795  1.00  0.00     0.210 HD
ENDBRANCH  29  30
BRANCH  29  32
HETATM   32  C6  UNL     1       0.866  52.104 -26.482  1.00  0.00     0.076 C 
HETATM   33  C7  UNL     1       2.203  51.504 -26.928  1.00  0.00     0.048 C 
HETATM   34  C8  UNL     1      -0.233  51.674 -27.462  1.00  0.00     0.048 C 
BRANCH  32  35
HETATM   35  O2  UNL     1       0.942  53.539 -26.566  1.00  0.00    -0.388 OA
HETATM   36  H17 UNL     1       1.791  53.822 -26.184  1.00  0.00     0.210 HD
ENDBRANCH  32  35
ENDBRANCH  29  32
ENDBRANCH  28  29
ENDBRANCH  27  28
ENDBRANCH  25  27
ENDBRANCH   1  25
BRANCH  24  37
HETATM   37  O5  UNL     1      -3.866  49.523 -17.209  1.00  0.00    -0.391 OA
HETATM   38  H48 UNL     1      -3.613  48.600 -17.031  1.00  0.00     0.210 HD
ENDBRANCH  24  37
TORSDOF 8
ENDMDL
