MODEL 1
REMARK minimizedAffinity -8.58631992
REMARK  11 active torsions:
REMARK  status: ('A' for Active; 'I' for Inactive)
REMARK    1  A    between atoms: C4_4  and  C5_5 
REMARK    2  A    between atoms: C5_5  and  C6_6 
REMARK    3  A    between atoms: C6_6  and  C7_7 
REMARK    4  A    between atoms: C9_9  and  C10_10 
REMARK    5  A    between atoms: C10_10  and  C11_11 
REMARK    6  A    between atoms: C11_11  and  C12_12 
REMARK    7  A    between atoms: C14_14  and  C15_15 
REMARK    8  A    between atoms: C15_15  and  C16_16 
REMARK    9  A    between atoms: C16_16  and  O1_17 
REMARK   10  A    between atoms: O1_17  and  C17_18 
REMARK   11  A    between atoms: C23_24  and  O2_25 
ROOT
HETATM    1  C16 UNL     1      -1.682  48.238 -19.744  1.00  0.00     0.175 C 
ENDROOT
BRANCH   1   2
HETATM    2  C15 UNL     1      -3.089  47.787 -20.180  1.00  0.00     0.054 C 
BRANCH   2   3
HETATM    3  C14 UNL     1      -3.316  48.002 -21.657  1.00  0.00    -0.022 C 
HETATM    4  C12 UNL     1      -4.385  48.572 -22.251  1.00  0.00    -0.087 C 
HETATM    5  C13 UNL     1      -5.539  49.193 -21.511  1.00  0.00     0.043 C 
BRANCH   4   6
HETATM    6  C11 UNL     1      -4.476  48.633 -23.766  1.00  0.00     0.037 C 
BRANCH   6   7
HETATM    7  C10 UNL     1      -3.112  48.441 -24.445  1.00  0.00     0.031 C 
BRANCH   7   8
HETATM    8  C9  UNL     1      -2.858  49.504 -25.486  1.00  0.00    -0.024 C 
HETATM    9  C7  UNL     1      -3.284  49.516 -26.765  1.00  0.00    -0.087 C 
HETATM   10  C8  UNL     1      -4.146  48.431 -27.364  1.00  0.00     0.043 C 
BRANCH   9  11
HETATM   11  C6  UNL     1      -2.963  50.628 -27.758  1.00  0.00     0.037 C 
BRANCH  11  12
HETATM   12  C5  UNL     1      -2.295  51.901 -27.213  1.00  0.00     0.031 C 
BRANCH  12  13
HETATM   13  C4  UNL     1      -0.950  52.136 -27.851  1.00  0.00    -0.024 C 
HETATM   14  C2  UNL     1       0.235  51.616 -27.476  1.00  0.00    -0.091 C 
HETATM   15  C1  UNL     1       0.439  50.741 -26.269  1.00  0.00     0.042 C 
HETATM   16  C3  UNL     1       1.486  51.904 -28.264  1.00  0.00     0.042 C 
ENDBRANCH  12  13
ENDBRANCH  11  12
ENDBRANCH   9  11
ENDBRANCH   7   8
ENDBRANCH   6   7
ENDBRANCH   4   6
ENDBRANCH   2   3
ENDBRANCH   1   2
BRANCH   1  17
HETATM   17  O1  UNL     1      -1.752  49.181 -18.672  1.00  0.00    -0.355 OA
BRANCH  17  18
HETATM   18  C17 UNL     1      -1.317  50.521 -18.984  1.00  0.00     0.166 C 
HETATM   19  C18 UNL     1      -2.531  51.401 -18.647  1.00  0.00     0.079 C 
HETATM   20  C19 UNL     1      -0.110  50.799 -18.084  1.00  0.00     0.073 C 
HETATM   21  C20 UNL     1       0.421  52.205 -18.296  1.00  0.00     0.047 C 
HETATM   22  C21 UNL     1       0.495  52.523 -19.759  1.00  0.00    -0.021 A 
HETATM   23  C22 UNL     1       1.250  53.622 -20.189  1.00  0.00     0.046 A 
HETATM   24  C27 UNL     1      -0.207  51.764 -20.706  1.00  0.00     0.085 A 
HETATM   25  C23 UNL     1       1.316  53.936 -21.540  1.00  0.00     0.066 A 
HETATM   26  C24 UNL     1       0.650  53.165 -22.489  1.00  0.00     0.046 A 
HETATM   27  C25 UNL     1      -0.117  52.065 -22.078  1.00  0.00    -0.025 A 
HETATM   28  C26 UNL     1      -0.844  51.231 -23.096  1.00  0.00     0.051 C 
HETATM   29  O3  UNL     1      -1.000  50.697 -20.372  1.00  0.00    -0.314 OA
BRANCH  25  30
HETATM   30  O2  UNL     1       2.049  55.032 -21.900  1.00  0.00    -0.361 OA
HETATM   31  H36 UNL     1       1.970  55.146 -22.863  1.00  0.00     0.217 HD
ENDBRANCH  25  30
ENDBRANCH  17  18
ENDBRANCH   1  17
TORSDOF 11
ENDMDL
MODEL 2
REMARK minimizedAffinity -8.5512867
REMARK  11 active torsions:
REMARK  status: ('A' for Active; 'I' for Inactive)
REMARK    1  A    between atoms: C4_4  and  C5_5 
REMARK    2  A    between atoms: C5_5  and  C6_6 
REMARK    3  A    between atoms: C6_6  and  C7_7 
REMARK    4  A    between atoms: C9_9  and  C10_10 
REMARK    5  A    between atoms: C10_10  and  C11_11 
REMARK    6  A    between atoms: C11_11  and  C12_12 
REMARK    7  A    between atoms: C14_14  and  C15_15 
REMARK    8  A    between atoms: C15_15  and  C16_16 
REMARK    9  A    between atoms: C16_16  and  O1_17 
REMARK   10  A    between atoms: O1_17  and  C17_18 
REMARK   11  A    between atoms: C23_24  and  O2_25 
ROOT
HETATM    1  C16 UNL     1      -3.635  49.479 -21.461  1.00  0.00     0.175 C 
ENDROOT
BRANCH   1   2
HETATM    2  C15 UNL     1      -3.846  48.243 -22.355  1.00  0.00     0.054 C 
BRANCH   2   3
HETATM    3  C14 UNL     1      -3.220  48.421 -23.717  1.00  0.00    -0.022 C 
HETATM    4  C12 UNL     1      -3.847  48.474 -24.911  1.00  0.00    -0.087 C 
HETATM    5  C13 UNL     1      -5.342  48.451 -25.088  1.00  0.00     0.043 C 
BRANCH   4   6
HETATM    6  C11 UNL     1      -3.042  48.580 -26.194  1.00  0.00     0.037 C 
BRANCH   6   7
HETATM    7  C10 UNL     1      -2.737  50.035 -26.577  1.00  0.00     0.031 C 
BRANCH   7   8
HETATM    8  C9  UNL     1      -1.545  50.568 -25.820  1.00  0.00    -0.024 C 
HETATM    9  C7  UNL     1      -1.551  51.450 -24.800  1.00  0.00    -0.087 C 
HETATM   10  C8  UNL     1      -2.813  52.038 -24.216  1.00  0.00     0.043 C 
BRANCH   9  11
HETATM   11  C6  UNL     1      -0.291  51.950 -24.101  1.00  0.00     0.037 C 
BRANCH  11  12
HETATM   12  C5  UNL     1       0.484  53.100 -24.762  1.00  0.00     0.031 C 
BRANCH  12  13
HETATM   13  C4  UNL     1       0.582  52.917 -26.254  1.00  0.00    -0.024 C 
HETATM   14  C2  UNL     1       1.404  52.084 -26.923  1.00  0.00    -0.091 C 
HETATM   15  C1  UNL     1       2.454  51.221 -26.278  1.00  0.00     0.042 C 
HETATM   16  C3  UNL     1       1.333  51.975 -28.424  1.00  0.00     0.042 C 
ENDBRANCH  12  13
ENDBRANCH  11  12
ENDBRANCH   9  11
ENDBRANCH   7   8
ENDBRANCH   6   7
ENDBRANCH   4   6
ENDBRANCH   2   3
ENDBRANCH   1   2
BRANCH   1  17
HETATM   17  O1  UNL     1      -2.969  49.128 -20.245  1.00  0.00    -0.355 OA
BRANCH  17  18
HETATM   18  C17 UNL     1      -1.742  49.838 -19.973  1.00  0.00     0.166 C 
HETATM   19  C18 UNL     1      -0.707  49.166 -20.890  1.00  0.00     0.079 C 
HETATM   20  C19 UNL     1      -2.003  51.302 -20.339  1.00  0.00     0.073 C 
HETATM   21  C20 UNL     1      -0.763  52.150 -20.128  1.00  0.00     0.047 C 
HETATM   22  C21 UNL     1      -0.114  51.815 -18.819  1.00  0.00    -0.021 A 
HETATM   23  C22 UNL     1       0.839  52.687 -18.278  1.00  0.00     0.046 A 
HETATM   24  C27 UNL     1      -0.414  50.625 -18.141  1.00  0.00     0.085 A 
HETATM   25  C23 UNL     1       1.458  52.382 -17.073  1.00  0.00     0.066 A 
HETATM   26  C24 UNL     1       1.139  51.219 -16.376  1.00  0.00     0.046 A 
HETATM   27  C25 UNL     1       0.192  50.330 -16.905  1.00  0.00    -0.025 A 
HETATM   28  C26 UNL     1      -0.154  49.069 -16.162  1.00  0.00     0.051 C 
HETATM   29  O3  UNL     1      -1.304  49.697 -18.614  1.00  0.00    -0.314 OA
BRANCH  25  30
HETATM   30  O2  UNL     1       2.396  53.258 -16.603  1.00  0.00    -0.361 OA
HETATM   31  H36 UNL     1       2.765  52.894 -15.780  1.00  0.00     0.217 HD
ENDBRANCH  25  30
ENDBRANCH  17  18
ENDBRANCH   1  17
TORSDOF 11
ENDMDL
MODEL 3
REMARK minimizedAffinity -8.49729347
REMARK  11 active torsions:
REMARK  status: ('A' for Active; 'I' for Inactive)
REMARK    1  A    between atoms: C4_4  and  C5_5 
REMARK    2  A    between atoms: C5_5  and  C6_6 
REMARK    3  A    between atoms: C6_6  and  C7_7 
REMARK    4  A    between atoms: C9_9  and  C10_10 
REMARK    5  A    between atoms: C10_10  and  C11_11 
REMARK    6  A    between atoms: C11_11  and  C12_12 
REMARK    7  A    between atoms: C14_14  and  C15_15 
REMARK    8  A    between atoms: C15_15  and  C16_16 
REMARK    9  A    between atoms: C16_16  and  O1_17 
REMARK   10  A    between atoms: O1_17  and  C17_18 
REMARK   11  A    between atoms: C23_24  and  O2_25 
ROOT
HETATM    1  C16 UNL     1      -2.513  49.189 -17.452  1.00  0.00     0.175 C 
ENDROOT
BRANCH   1   2
HETATM    2  C15 UNL     1      -3.398  48.062 -18.017  1.00  0.00     0.054 C 
BRANCH   2   3
HETATM    3  C14 UNL     1      -3.162  47.848 -19.493  1.00  0.00    -0.022 C 
HETATM    4  C12 UNL     1      -3.897  48.320 -20.521  1.00  0.00    -0.087 C 
HETATM    5  C13 UNL     1      -5.074  49.248 -20.370  1.00  0.00     0.043 C 
BRANCH   4   6
HETATM    6  C11 UNL     1      -3.552  47.935 -21.949  1.00  0.00     0.037 C 
BRANCH   6   7
HETATM    7  C10 UNL     1      -4.099  48.938 -22.976  1.00  0.00     0.031 C 
BRANCH   7   8
HETATM    8  C9  UNL     1      -3.153  49.109 -24.139  1.00  0.00    -0.024 C 
HETATM    9  C7  UNL     1      -3.393  48.830 -25.437  1.00  0.00    -0.087 C 
HETATM   10  C8  UNL     1      -4.716  48.309 -25.945  1.00  0.00     0.043 C 
BRANCH   9  11
HETATM   11  C6  UNL     1      -2.367  49.018 -26.550  1.00  0.00     0.037 C 
BRANCH  11  12
HETATM   12  C5  UNL     1      -1.826  50.436 -26.790  1.00  0.00     0.031 C 
BRANCH  12  13
HETATM   13  C4  UNL     1      -0.380  50.554 -26.380  1.00  0.00    -0.024 C 
HETATM   14  C2  UNL     1       0.586  51.269 -26.988  1.00  0.00    -0.091 C 
HETATM   15  C1  UNL     1       0.401  52.039 -28.267  1.00  0.00     0.042 C 
HETATM   16  C3  UNL     1       1.976  51.331 -26.411  1.00  0.00     0.042 C 
ENDBRANCH  12  13
ENDBRANCH  11  12
ENDBRANCH   9  11
ENDBRANCH   7   8
ENDBRANCH   6   7
ENDBRANCH   4   6
ENDBRANCH   2   3
ENDBRANCH   1   2
BRANCH   1  17
HETATM   17  O1  UNL     1      -1.298  49.313 -18.196  1.00  0.00    -0.355 OA
BRANCH  17  18
HETATM   18  C17 UNL     1      -0.966  50.646 -18.641  1.00  0.00     0.166 C 
HETATM   19  C18 UNL     1      -2.226  51.471 -18.335  1.00  0.00     0.079 C 
HETATM   20  C19 UNL     1       0.248  51.082 -17.815  1.00  0.00     0.073 C 
HETATM   21  C20 UNL     1       0.674  52.494 -18.170  1.00  0.00     0.047 C 
HETATM   22  C21 UNL     1       0.678  52.684 -19.657  1.00  0.00    -0.021 A 
HETATM   23  C22 UNL     1       1.341  53.787 -20.210  1.00  0.00     0.046 A 
HETATM   24  C27 UNL     1      -0.001  51.799 -20.506  1.00  0.00     0.085 A 
HETATM   25  C23 UNL     1       1.342  53.982 -21.585  1.00  0.00     0.066 A 
HETATM   26  C24 UNL     1       0.699  53.087 -22.437  1.00  0.00     0.046 A 
HETATM   27  C25 UNL     1       0.024  51.981 -21.901  1.00  0.00    -0.025 A 
HETATM   28  C26 UNL     1      -0.678  51.012 -22.814  1.00  0.00     0.051 C 
HETATM   29  O3  UNL     1      -0.707  50.717 -20.050  1.00  0.00    -0.314 OA
BRANCH  25  30
HETATM   30  O2  UNL     1       1.986  55.086 -22.068  1.00  0.00    -0.361 OA
HETATM   31  H36 UNL     1       1.868  55.107 -23.033  1.00  0.00     0.217 HD
ENDBRANCH  25  30
ENDBRANCH  17  18
ENDBRANCH   1  17
TORSDOF 11
ENDMDL
MODEL 4
REMARK minimizedAffinity -8.40687752
REMARK  11 active torsions:
REMARK  status: ('A' for Active; 'I' for Inactive)
REMARK    1  A    between atoms: C4_4  and  C5_5 
REMARK    2  A    between atoms: C5_5  and  C6_6 
REMARK    3  A    between atoms: C6_6  and  C7_7 
REMARK    4  A    between atoms: C9_9  and  C10_10 
REMARK    5  A    between atoms: C10_10  and  C11_11 
REMARK    6  A    between atoms: C11_11  and  C12_12 
REMARK    7  A    between atoms: C14_14  and  C15_15 
REMARK    8  A    between atoms: C15_15  and  C16_16 
REMARK    9  A    between atoms: C16_16  and  O1_17 
REMARK   10  A    between atoms: O1_17  and  C17_18 
REMARK   11  A    between atoms: C23_24  and  O2_25 
ROOT
HETATM    1  C16 UNL     1      -4.035  50.178 -19.777  1.00  0.00     0.175 C 
ENDROOT
BRANCH   1   2
HETATM    2  C15 UNL     1      -5.338  49.393 -20.014  1.00  0.00     0.054 C 
BRANCH   2   3
HETATM    3  C14 UNL     1      -5.306  48.630 -21.317  1.00  0.00    -0.022 C 
HETATM    4  C12 UNL     1      -6.254  48.598 -22.276  1.00  0.00    -0.087 C 
HETATM    5  C13 UNL     1      -7.517  49.417 -22.250  1.00  0.00     0.043 C 
BRANCH   4   6
HETATM    6  C11 UNL     1      -6.082  47.707 -23.493  1.00  0.00     0.037 C 
BRANCH   6   7
HETATM    7  C10 UNL     1      -5.703  48.499 -24.753  1.00  0.00     0.031 C 
BRANCH   7   8
HETATM    8  C9  UNL     1      -4.247  48.894 -24.740  1.00  0.00    -0.024 C 
HETATM    9  C7  UNL     1      -3.374  48.838 -25.766  1.00  0.00    -0.087 C 
HETATM   10  C8  UNL     1      -3.752  48.378 -27.154  1.00  0.00     0.043 C 
BRANCH   9  11
HETATM   11  C6  UNL     1      -1.908  49.244 -25.659  1.00  0.00     0.037 C 
BRANCH  11  12
HETATM   12  C5  UNL     1      -1.472  50.537 -26.365  1.00  0.00     0.031 C 
BRANCH  12  13
HETATM   13  C4  UNL     1       0.025  50.600 -26.531  1.00  0.00    -0.024 C 
HETATM   14  C2  UNL     1       0.825  51.665 -26.328  1.00  0.00    -0.091 C 
HETATM   15  C1  UNL     1       0.339  53.041 -25.962  1.00  0.00     0.042 C 
HETATM   16  C3  UNL     1       2.319  51.544 -26.478  1.00  0.00     0.042 C 
ENDBRANCH  12  13
ENDBRANCH  11  12
ENDBRANCH   9  11
ENDBRANCH   7   8
ENDBRANCH   6   7
ENDBRANCH   4   6
ENDBRANCH   2   3
ENDBRANCH   1   2
BRANCH   1  17
HETATM   17  O1  UNL     1      -2.888  49.367 -20.043  1.00  0.00    -0.355 OA
BRANCH  17  18
HETATM   18  C17 UNL     1      -1.781  50.033 -20.687  1.00  0.00     0.166 C 
HETATM   19  C18 UNL     1      -0.797  48.899 -21.016  1.00  0.00     0.079 C 
HETATM   20  C19 UNL     1      -2.356  50.707 -21.936  1.00  0.00     0.073 C 
HETATM   21  C20 UNL     1      -1.272  51.418 -22.725  1.00  0.00     0.047 C 
HETATM   22  C21 UNL     1      -0.378  52.195 -21.805  1.00  0.00    -0.021 A 
HETATM   23  C22 UNL     1       0.474  53.172 -22.334  1.00  0.00     0.046 A 
HETATM   24  C27 UNL     1      -0.350  51.937 -20.427  1.00  0.00     0.085 A 
HETATM   25  C23 UNL     1       1.318  53.889 -21.496  1.00  0.00     0.066 A 
HETATM   26  C24 UNL     1       1.325  53.663 -20.122  1.00  0.00     0.046 A 
HETATM   27  C25 UNL     1       0.484  52.684 -19.574  1.00  0.00    -0.025 A 
HETATM   28  C26 UNL     1       0.490  52.429 -18.092  1.00  0.00     0.051 C 
HETATM   29  O3  UNL     1      -1.120  50.974 -19.829  1.00  0.00    -0.314 OA
BRANCH  25  30
HETATM   30  O2  UNL     1       2.143  54.815 -22.070  1.00  0.00    -0.361 OA
HETATM   31  H36 UNL     1       2.695  55.204 -21.369  1.00  0.00     0.217 HD
ENDBRANCH  25  30
ENDBRANCH  17  18
ENDBRANCH   1  17
TORSDOF 11
ENDMDL
MODEL 5
REMARK minimizedAffinity -8.32591248
REMARK  11 active torsions:
REMARK  status: ('A' for Active; 'I' for Inactive)
REMARK    1  A    between atoms: C4_4  and  C5_5 
REMARK    2  A    between atoms: C5_5  and  C6_6 
REMARK    3  A    between atoms: C6_6  and  C7_7 
REMARK    4  A    between atoms: C9_9  and  C10_10 
REMARK    5  A    between atoms: C10_10  and  C11_11 
REMARK    6  A    between atoms: C11_11  and  C12_12 
REMARK    7  A    between atoms: C14_14  and  C15_15 
REMARK    8  A    between atoms: C15_15  and  C16_16 
REMARK    9  A    between atoms: C16_16  and  O1_17 
REMARK   10  A    between atoms: O1_17  and  C17_18 
REMARK   11  A    between atoms: C23_24  and  O2_25 
ROOT
HETATM    1  C16 UNL     1      -4.185  48.681 -21.343  1.00  0.00     0.175 C 
ENDROOT
BRANCH   1   2
HETATM    2  C15 UNL     1      -4.921  48.316 -22.645  1.00  0.00     0.054 C 
BRANCH   2   3
HETATM    3  C14 UNL     1      -4.024  48.441 -23.853  1.00  0.00    -0.022 C 
HETATM    4  C12 UNL     1      -4.375  48.352 -25.152  1.00  0.00    -0.087 C 
HETATM    5  C13 UNL     1      -5.790  48.191 -25.642  1.00  0.00     0.043 C 
BRANCH   4   6
HETATM    6  C11 UNL     1      -3.317  48.426 -26.238  1.00  0.00     0.037 C 
BRANCH   6   7
HETATM    7  C10 UNL     1      -3.690  49.411 -27.356  1.00  0.00     0.031 C 
BRANCH   7   8
HETATM    8  C9  UNL     1      -2.666  50.513 -27.486  1.00  0.00    -0.024 C 
HETATM    9  C7  UNL     1      -2.585  51.645 -26.758  1.00  0.00    -0.087 C 
HETATM   10  C8  UNL     1      -3.532  51.978 -25.630  1.00  0.00     0.043 C 
BRANCH   9  11
HETATM   11  C6  UNL     1      -1.522  52.718 -26.971  1.00  0.00     0.037 C 
BRANCH  11  12
HETATM   12  C5  UNL     1      -0.692  53.153 -25.753  1.00  0.00     0.031 C 
BRANCH  12  13
HETATM   13  C4  UNL     1       0.644  52.458 -25.716  1.00  0.00    -0.024 C 
HETATM   14  C2  UNL     1       1.328  51.946 -26.758  1.00  0.00    -0.091 C 
HETATM   15  C1  UNL     1       0.824  51.911 -28.175  1.00  0.00     0.042 C 
HETATM   16  C3  UNL     1       2.690  51.334 -26.559  1.00  0.00     0.042 C 
ENDBRANCH  12  13
ENDBRANCH  11  12
ENDBRANCH   9  11
ENDBRANCH   7   8
ENDBRANCH   6   7
ENDBRANCH   4   6
ENDBRANCH   2   3
ENDBRANCH   1   2
BRANCH   1  17
HETATM   17  O1  UNL     1      -2.951  49.349 -21.618  1.00  0.00    -0.355 OA
BRANCH  17  18
HETATM   18  C17 UNL     1      -2.439  50.185 -20.558  1.00  0.00     0.166 C 
HETATM   19  C18 UNL     1      -3.606  51.127 -20.222  1.00  0.00     0.079 C 
HETATM   20  C19 UNL     1      -2.082  49.242 -19.405  1.00  0.00     0.073 C 
HETATM   21  C20 UNL     1      -1.560  50.014 -18.207  1.00  0.00     0.047 C 
HETATM   22  C21 UNL     1      -0.580  51.061 -18.642  1.00  0.00    -0.021 A 
HETATM   23  C22 UNL     1       0.258  51.660 -17.693  1.00  0.00     0.046 A 
HETATM   24  C27 UNL     1      -0.510  51.482 -19.978  1.00  0.00     0.085 A 
HETATM   25  C23 UNL     1       1.161  52.641 -18.081  1.00  0.00     0.066 A 
HETATM   26  C24 UNL     1       1.262  53.038 -19.412  1.00  0.00     0.046 A 
HETATM   27  C25 UNL     1       0.426  52.455 -20.375  1.00  0.00    -0.025 A 
HETATM   28  C26 UNL     1       0.524  52.883 -21.814  1.00  0.00     0.051 C 
HETATM   29  O3  UNL     1      -1.316  50.979 -20.965  1.00  0.00    -0.314 OA
BRANCH  25  30
HETATM   30  O2  UNL     1       1.938  53.205 -17.109  1.00  0.00    -0.361 OA
HETATM   31  H36 UNL     1       2.486  53.895 -17.522  1.00  0.00     0.217 HD
ENDBRANCH  25  30
ENDBRANCH  17  18
ENDBRANCH   1  17
TORSDOF 11
ENDMDL
MODEL 6
REMARK minimizedAffinity -8.1467371
REMARK  11 active torsions:
REMARK  status: ('A' for Active; 'I' for Inactive)
REMARK    1  A    between atoms: C4_4  and  C5_5 
REMARK    2  A    between atoms: C5_5  and  C6_6 
REMARK    3  A    between atoms: C6_6  and  C7_7 
REMARK    4  A    between atoms: C9_9  and  C10_10 
REMARK    5  A    between atoms: C10_10  and  C11_11 
REMARK    6  A    between atoms: C11_11  and  C12_12 
REMARK    7  A    between atoms: C14_14  and  C15_15 
REMARK    8  A    between atoms: C15_15  and  C16_16 
REMARK    9  A    between atoms: C16_16  and  O1_17 
REMARK   10  A    between atoms: O1_17  and  C17_18 
REMARK   11  A    between atoms: C23_24  and  O2_25 
ROOT
HETATM    1  C16 UNL     1      -4.650  49.724 -23.171  1.00  0.00     0.175 C 
ENDROOT
BRANCH   1   2
HETATM    2  C15 UNL     1      -4.909  48.297 -23.688  1.00  0.00     0.054 C 
BRANCH   2   3
HETATM    3  C14 UNL     1      -5.112  48.269 -25.184  1.00  0.00    -0.022 C 
HETATM    4  C12 UNL     1      -4.175  48.409 -26.145  1.00  0.00    -0.087 C 
HETATM    5  C13 UNL     1      -2.698  48.536 -25.881  1.00  0.00     0.043 C 
BRANCH   4   6
HETATM    6  C11 UNL     1      -4.578  48.433 -27.609  1.00  0.00     0.037 C 
BRANCH   6   7
HETATM    7  C10 UNL     1      -5.889  47.678 -27.869  1.00  0.00     0.031 C 
BRANCH   7   8
HETATM    8  C9  UNL     1      -6.458  48.008 -29.228  1.00  0.00    -0.024 C 
HETATM    9  C7  UNL     1      -6.950  47.147 -30.141  1.00  0.00    -0.087 C 
HETATM   10  C8  UNL     1      -7.038  45.656 -29.915  1.00  0.00     0.043 C 
BRANCH   9  11
HETATM   11  C6  UNL     1      -7.491  47.568 -31.503  1.00  0.00     0.037 C 
BRANCH  11  12
HETATM   12  C5  UNL     1      -7.025  46.774 -32.734  1.00  0.00     0.031 C 
BRANCH  12  13
HETATM   13  C4  UNL     1      -5.787  47.377 -33.346  1.00  0.00    -0.024 C 
HETATM   14  C2  UNL     1      -4.507  47.032 -33.108  1.00  0.00    -0.091 C 
HETATM   15  C1  UNL     1      -4.074  46.003 -32.099  1.00  0.00     0.042 C 
HETATM   16  C3  UNL     1      -3.379  47.696 -33.854  1.00  0.00     0.042 C 
ENDBRANCH  12  13
ENDBRANCH  11  12
ENDBRANCH   9  11
ENDBRANCH   7   8
ENDBRANCH   6   7
ENDBRANCH   4   6
ENDBRANCH   2   3
ENDBRANCH   1   2
BRANCH   1  17
HETATM   17  O1  UNL     1      -3.866  49.705 -21.975  1.00  0.00    -0.355 OA
BRANCH  17  18
HETATM   18  C17 UNL     1      -2.530  50.239 -22.091  1.00  0.00     0.166 C 
HETATM   19  C18 UNL     1      -1.638  48.997 -22.244  1.00  0.00     0.079 C 
HETATM   20  C19 UNL     1      -2.532  51.130 -23.337  1.00  0.00     0.073 C 
HETATM   21  C20 UNL     1      -1.160  51.728 -23.586  1.00  0.00     0.047 C 
HETATM   22  C21 UNL     1      -0.569  52.239 -22.307  1.00  0.00    -0.021 A 
HETATM   23  C22 UNL     1       0.528  53.109 -22.353  1.00  0.00     0.046 A 
HETATM   24  C27 UNL     1      -1.069  51.834 -21.061  1.00  0.00     0.085 A 
HETATM   25  C23 UNL     1       1.094  53.579 -21.175  1.00  0.00     0.066 A 
HETATM   26  C24 UNL     1       0.580  53.209 -19.934  1.00  0.00     0.046 A 
HETATM   27  C25 UNL     1      -0.513  52.334 -19.868  1.00  0.00    -0.025 A 
HETATM   28  C26 UNL     1      -1.071  51.924 -18.532  1.00  0.00     0.051 C 
HETATM   29  O3  UNL     1      -2.112  50.957 -20.921  1.00  0.00    -0.314 OA
BRANCH  25  30
HETATM   30  O2  UNL     1       2.175  54.408 -21.279  1.00  0.00    -0.361 OA
HETATM   31  H36 UNL     1       2.482  54.620 -20.381  1.00  0.00     0.217 HD
ENDBRANCH  25  30
ENDBRANCH  17  18
ENDBRANCH   1  17
TORSDOF 11
ENDMDL
MODEL 7
REMARK minimizedAffinity -8.13986874
REMARK  11 active torsions:
REMARK  status: ('A' for Active; 'I' for Inactive)
REMARK    1  A    between atoms: C4_4  and  C5_5 
REMARK    2  A    between atoms: C5_5  and  C6_6 
REMARK    3  A    between atoms: C6_6  and  C7_7 
REMARK    4  A    between atoms: C9_9  and  C10_10 
REMARK    5  A    between atoms: C10_10  and  C11_11 
REMARK    6  A    between atoms: C11_11  and  C12_12 
REMARK    7  A    between atoms: C14_14  and  C15_15 
REMARK    8  A    between atoms: C15_15  and  C16_16 
REMARK    9  A    between atoms: C16_16  and  O1_17 
REMARK   10  A    between atoms: O1_17  and  C17_18 
REMARK   11  A    between atoms: C23_24  and  O2_25 
ROOT
HETATM    1  C16 UNL     1      -3.820  47.864 -21.510  1.00  0.00     0.175 C 
ENDROOT
BRANCH   1   2
HETATM    2  C15 UNL     1      -3.745  48.284 -20.030  1.00  0.00     0.054 C 
BRANCH   2   3
HETATM    3  C14 UNL     1      -2.674  49.321 -19.793  1.00  0.00    -0.022 C 
HETATM    4  C12 UNL     1      -1.359  49.228 -20.080  1.00  0.00    -0.087 C 
HETATM    5  C13 UNL     1      -0.725  48.062 -20.792  1.00  0.00     0.043 C 
BRANCH   4   6
HETATM    6  C11 UNL     1      -0.410  50.349 -19.697  1.00  0.00     0.037 C 
BRANCH   6   7
HETATM    7  C10 UNL     1      -0.828  51.702 -20.292  1.00  0.00     0.031 C 
BRANCH   7   8
HETATM    8  C9  UNL     1      -0.011  52.046 -21.513  1.00  0.00    -0.024 C 
HETATM    9  C7  UNL     1      -0.437  52.117 -22.790  1.00  0.00    -0.087 C 
HETATM   10  C8  UNL     1      -1.871  51.883 -23.202  1.00  0.00     0.043 C 
BRANCH   9  11
HETATM   11  C6  UNL     1       0.467  52.457 -23.971  1.00  0.00     0.037 C 
BRANCH  11  12
HETATM   12  C5  UNL     1       0.031  53.602 -24.898  1.00  0.00     0.031 C 
BRANCH  12  13
HETATM   13  C4  UNL     1       0.323  53.287 -26.343  1.00  0.00    -0.024 C 
HETATM   14  C2  UNL     1       0.273  52.081 -26.943  1.00  0.00    -0.091 C 
HETATM   15  C1  UNL     1      -0.021  50.787 -26.234  1.00  0.00     0.042 C 
HETATM   16  C3  UNL     1       0.536  51.946 -28.420  1.00  0.00     0.042 C 
ENDBRANCH  12  13
ENDBRANCH  11  12
ENDBRANCH   9  11
ENDBRANCH   7   8
ENDBRANCH   6   7
ENDBRANCH   4   6
ENDBRANCH   2   3
ENDBRANCH   1   2
BRANCH   1  17
HETATM   17  O1  UNL     1      -4.987  48.398 -22.139  1.00  0.00    -0.355 OA
BRANCH  17  18
HETATM   18  C17 UNL     1      -4.832  48.802 -23.516  1.00  0.00     0.166 C 
HETATM   19  C18 UNL     1      -5.180  50.299 -23.512  1.00  0.00     0.079 C 
HETATM   20  C19 UNL     1      -3.368  48.530 -23.878  1.00  0.00     0.073 C 
HETATM   21  C20 UNL     1      -3.069  48.951 -25.305  1.00  0.00     0.047 C 
HETATM   22  C21 UNL     1      -4.160  48.496 -26.227  1.00  0.00    -0.021 A 
HETATM   23  C22 UNL     1      -3.938  48.488 -27.610  1.00  0.00     0.046 A 
HETATM   24  C27 UNL     1      -5.417  48.113 -25.735  1.00  0.00     0.085 A 
HETATM   25  C23 UNL     1      -4.945  48.082 -28.475  1.00  0.00     0.066 A 
HETATM   26  C24 UNL     1      -6.183  47.667 -27.992  1.00  0.00     0.046 A 
HETATM   27  C25 UNL     1      -6.427  47.674 -26.611  1.00  0.00    -0.025 A 
HETATM   28  C26 UNL     1      -7.764  47.233 -26.080  1.00  0.00     0.051 C 
HETATM   29  O3  UNL     1      -5.735  48.127 -24.403  1.00  0.00    -0.314 OA
BRANCH  25  30
HETATM   30  O2  UNL     1      -4.678  48.115 -29.816  1.00  0.00    -0.361 OA
HETATM   31  H36 UNL     1      -5.482  47.843 -30.290  1.00  0.00     0.217 HD
ENDBRANCH  25  30
ENDBRANCH  17  18
ENDBRANCH   1  17
TORSDOF 11
ENDMDL
MODEL 8
REMARK minimizedAffinity -8.06208706
REMARK  11 active torsions:
REMARK  status: ('A' for Active; 'I' for Inactive)
REMARK    1  A    between atoms: C4_4  and  C5_5 
REMARK    2  A    between atoms: C5_5  and  C6_6 
REMARK    3  A    between atoms: C6_6  and  C7_7 
REMARK    4  A    between atoms: C9_9  and  C10_10 
REMARK    5  A    between atoms: C10_10  and  C11_11 
REMARK    6  A    between atoms: C11_11  and  C12_12 
REMARK    7  A    between atoms: C14_14  and  C15_15 
REMARK    8  A    between atoms: C15_15  and  C16_16 
REMARK    9  A    between atoms: C16_16  and  O1_17 
REMARK   10  A    between atoms: O1_17  and  C17_18 
REMARK   11  A    between atoms: C23_24  and  O2_25 
ROOT
HETATM    1  C16 UNL     1      -5.086  49.160 -20.569  1.00  0.00     0.175 C 
ENDROOT
BRANCH   1   2
HETATM    2  C15 UNL     1      -4.058  48.529 -19.612  1.00  0.00     0.054 C 
BRANCH   2   3
HETATM    3  C14 UNL     1      -2.782  49.332 -19.549  1.00  0.00    -0.022 C 
HETATM    4  C12 UNL     1      -1.574  49.000 -20.051  1.00  0.00    -0.087 C 
HETATM    5  C13 UNL     1      -1.304  47.764 -20.867  1.00  0.00     0.043 C 
BRANCH   4   6
HETATM    6  C11 UNL     1      -0.375  49.903 -19.823  1.00  0.00     0.037 C 
BRANCH   6   7
HETATM    7  C10 UNL     1      -0.687  51.378 -20.114  1.00  0.00     0.031 C 
BRANCH   7   8
HETATM    8  C9  UNL     1      -0.498  51.705 -21.575  1.00  0.00    -0.024 C 
HETATM    9  C7  UNL     1       0.206  52.728 -22.101  1.00  0.00    -0.087 C 
HETATM   10  C8  UNL     1       0.971  53.726 -21.266  1.00  0.00     0.043 C 
BRANCH   9  11
HETATM   11  C6  UNL     1       0.330  52.995 -23.598  1.00  0.00     0.037 C 
BRANCH  11  12
HETATM   12  C5  UNL     1       1.006  51.919 -24.462  1.00  0.00     0.031 C 
BRANCH  12  13
HETATM   13  C4  UNL     1       0.507  51.956 -25.883  1.00  0.00    -0.024 C 
HETATM   14  C2  UNL     1       1.230  51.783 -27.007  1.00  0.00    -0.091 C 
HETATM   15  C1  UNL     1       2.722  51.594 -27.042  1.00  0.00     0.042 C 
HETATM   16  C3  UNL     1       0.564  51.788 -28.358  1.00  0.00     0.042 C 
ENDBRANCH  12  13
ENDBRANCH  11  12
ENDBRANCH   9  11
ENDBRANCH   7   8
ENDBRANCH   6   7
ENDBRANCH   4   6
ENDBRANCH   2   3
ENDBRANCH   1   2
BRANCH   1  17
HETATM   17  O1  UNL     1      -4.885  48.711 -21.911  1.00  0.00    -0.355 OA
BRANCH  17  18
HETATM   18  C17 UNL     1      -4.832  49.743 -22.919  1.00  0.00     0.166 C 
HETATM   19  C18 UNL     1      -6.307  50.073 -23.200  1.00  0.00     0.079 C 
HETATM   20  C19 UNL     1      -4.067  50.912 -22.293  1.00  0.00     0.073 C 
HETATM   21  C20 UNL     1      -3.974  52.084 -23.253  1.00  0.00     0.047 C 
HETATM   22  C21 UNL     1      -3.613  51.609 -24.628  1.00  0.00    -0.021 A 
HETATM   23  C22 UNL     1      -3.161  52.531 -25.580  1.00  0.00     0.046 A 
HETATM   24  C27 UNL     1      -3.754  50.263 -24.994  1.00  0.00     0.085 A 
HETATM   25  C23 UNL     1      -2.835  52.107 -26.862  1.00  0.00     0.066 A 
HETATM   26  C24 UNL     1      -2.939  50.766 -27.222  1.00  0.00     0.046 A 
HETATM   27  C25 UNL     1      -3.397  49.829 -26.285  1.00  0.00    -0.025 A 
HETATM   28  C26 UNL     1      -3.518  48.379 -26.667  1.00  0.00     0.051 C 
HETATM   29  O3  UNL     1      -4.225  49.300 -24.141  1.00  0.00    -0.314 OA
BRANCH  25  30
HETATM   30  O2  UNL     1      -2.420  53.054 -27.756  1.00  0.00    -0.361 OA
HETATM   31  H36 UNL     1      -2.268  52.617 -28.611  1.00  0.00     0.217 HD
ENDBRANCH  25  30
ENDBRANCH  17  18
ENDBRANCH   1  17
TORSDOF 11
ENDMDL
MODEL 9
REMARK minimizedAffinity -8.05667782
REMARK  11 active torsions:
REMARK  status: ('A' for Active; 'I' for Inactive)
REMARK    1  A    between atoms: C4_4  and  C5_5 
REMARK    2  A    between atoms: C5_5  and  C6_6 
REMARK    3  A    between atoms: C6_6  and  C7_7 
REMARK    4  A    between atoms: C9_9  and  C10_10 
REMARK    5  A    between atoms: C10_10  and  C11_11 
REMARK    6  A    between atoms: C11_11  and  C12_12 
REMARK    7  A    between atoms: C14_14  and  C15_15 
REMARK    8  A    between atoms: C15_15  and  C16_16 
REMARK    9  A    between atoms: C16_16  and  O1_17 
REMARK   10  A    between atoms: O1_17  and  C17_18 
REMARK   11  A    between atoms: C23_24  and  O2_25 
ROOT
HETATM    1  C16 UNL     1      -2.296  48.066 -22.140  1.00  0.00     0.175 C 
ENDROOT
BRANCH   1   2
HETATM    2  C15 UNL     1      -3.610  48.489 -22.823  1.00  0.00     0.054 C 
BRANCH   2   3
HETATM    3  C14 UNL     1      -3.423  48.732 -24.301  1.00  0.00    -0.022 C 
HETATM    4  C12 UNL     1      -3.822  49.805 -25.015  1.00  0.00    -0.087 C 
HETATM    5  C13 UNL     1      -4.469  51.029 -24.423  1.00  0.00     0.043 C 
BRANCH   4   6
HETATM    6  C11 UNL     1      -3.616  49.843 -26.519  1.00  0.00     0.037 C 
BRANCH   6   7
HETATM    7  C10 UNL     1      -3.425  48.443 -27.121  1.00  0.00     0.031 C 
BRANCH   7   8
HETATM    8  C9  UNL     1      -4.525  48.107 -28.099  1.00  0.00    -0.024 C 
HETATM    9  C7  UNL     1      -5.786  47.724 -27.814  1.00  0.00    -0.087 C 
HETATM   10  C8  UNL     1      -6.318  47.598 -26.407  1.00  0.00     0.043 C 
BRANCH   9  11
HETATM   11  C6  UNL     1      -6.831  47.385 -28.871  1.00  0.00     0.037 C 
BRANCH  11  12
HETATM   12  C5  UNL     1      -7.784  48.505 -29.318  1.00  0.00     0.031 C 
BRANCH  12  13
HETATM   13  C4  UNL     1      -9.068  47.950 -29.878  1.00  0.00    -0.024 C 
HETATM   14  C2  UNL     1      -9.393  47.794 -31.176  1.00  0.00    -0.091 C 
HETATM   15  C1  UNL     1      -8.533  48.233 -32.330  1.00  0.00     0.042 C 
HETATM   16  C3  UNL     1     -10.702  47.161 -31.571  1.00  0.00     0.042 C 
ENDBRANCH  12  13
ENDBRANCH  11  12
ENDBRANCH   9  11
ENDBRANCH   7   8
ENDBRANCH   6   7
ENDBRANCH   4   6
ENDBRANCH   2   3
ENDBRANCH   1   2
BRANCH   1  17
HETATM   17  O1  UNL     1      -2.198  48.616 -20.824  1.00  0.00    -0.355 OA
BRANCH  17  18
HETATM   18  C17 UNL     1      -1.746  49.985 -20.746  1.00  0.00     0.166 C 
HETATM   19  C18 UNL     1      -3.021  50.787 -20.440  1.00  0.00     0.079 C 
HETATM   20  C19 UNL     1      -0.723  50.033 -19.608  1.00  0.00     0.073 C 
HETATM   21  C20 UNL     1      -0.196  51.441 -19.402  1.00  0.00     0.047 C 
HETATM   22  C21 UNL     1       0.127  52.078 -20.720  1.00  0.00    -0.021 A 
HETATM   23  C22 UNL     1       0.920  53.232 -20.753  1.00  0.00     0.046 A 
HETATM   24  C27 UNL     1      -0.380  51.563 -21.922  1.00  0.00     0.085 A 
HETATM   25  C23 UNL     1       1.216  53.840 -21.966  1.00  0.00     0.066 A 
HETATM   26  C24 UNL     1       0.745  53.314 -23.167  1.00  0.00     0.046 A 
HETATM   27  C25 UNL     1      -0.056  52.163 -23.154  1.00  0.00    -0.025 A 
HETATM   28  C26 UNL     1      -0.574  51.591 -24.445  1.00  0.00     0.051 C 
HETATM   29  O3  UNL     1      -1.194  50.463 -21.981  1.00  0.00    -0.314 OA
BRANCH  25  30
HETATM   30  O2  UNL     1       1.975  54.976 -21.937  1.00  0.00    -0.361 OA
HETATM   31  H36 UNL     1       2.065  55.305 -22.848  1.00  0.00     0.217 HD
ENDBRANCH  25  30
ENDBRANCH  17  18
ENDBRANCH   1  17
TORSDOF 11
ENDMDL
