MODEL 1
REMARK minimizedAffinity -7.59079838
REMARK CNNscore 0.825823009
REMARK CNNaffinity 7.1817112
REMARK  7 active torsions:
REMARK  status: ('A' for Active; 'I' for Inactive)
REMARK    1  A    between atoms: C2_2  and  C3_3 
REMARK    2  A    between atoms: C2_2  and  C4_5 
REMARK    3  A    between atoms: C3_3  and  O1_4 
REMARK    4  A    between atoms: C4_5  and  C5_7 
REMARK    5  A    between atoms: C5_7  and  C6_8 
REMARK    6  A    between atoms: C6_8  and  C7_9 
REMARK    7  A    between atoms: C7_9  and  C9_11 
ROOT
HETATM    1  C9  UNL     1       4.852  55.967  -8.365  1.00  0.00    -0.002 C 
HETATM    2  C10 UNL     1       5.692  54.973  -9.217  1.00  0.00     0.007 C 
HETATM    3  C11 UNL     1       4.713  54.138 -10.061  1.00  0.00     0.015 C 
HETATM    4  C12 UNL     1       3.363  54.869  -9.952  1.00  0.00    -0.005 C 
HETATM    5  C13 UNL     1       3.378  56.014 -11.013  1.00  0.00     0.021 C 
HETATM    6  C14 UNL     1       2.062  54.118 -10.206  1.00  0.00    -0.000 C 
HETATM    7  C15 UNL     1       0.904  54.487  -9.598  1.00  0.00    -0.060 C 
HETATM    8  C16 UNL     1       0.897  55.644  -8.587  1.00  0.00     0.036 C 
HETATM    9  C17 UNL     1       2.246  56.303  -8.228  1.00  0.00     0.015 C 
HETATM   10  C18 UNL     1       3.424  55.347  -8.446  1.00  0.00    -0.028 C 
HETATM   11  C19 UNL     1       3.314  54.171  -7.425  1.00  0.00     0.016 C 
HETATM   12  C20 UNL     1      -0.457  53.776  -9.839  1.00  0.00    -0.014 C 
HETATM   13  C21 UNL     1      -0.728  52.875  -8.614  1.00  0.00     0.020 C 
HETATM   14  C22 UNL     1      -1.590  54.818  -9.993  1.00  0.00     0.021 C 
HETATM   15  C23 UNL     1      -2.940  54.279 -10.449  1.00  0.00     0.080 C 
HETATM   16  C24 UNL     1      -2.969  52.828 -10.866  1.00  0.00     0.135 C 
HETATM   17  O3  UNL     1      -4.019  52.193 -10.736  1.00  0.00    -0.297 OA
HETATM   18  C25 UNL     1      -1.738  52.211 -11.539  1.00  0.00     0.018 C 
HETATM   19  C26 UNL     1      -1.683  50.714 -11.156  1.00  0.00     0.023 C 
HETATM   20  C27 UNL     1      -1.986  52.293 -13.060  1.00  0.00     0.023 C 
HETATM   21  C28 UNL     1      -0.423  52.987 -11.185  1.00  0.00     0.020 C 
HETATM   22  C29 UNL     1       0.837  52.124 -11.278  1.00  0.00     0.090 C 
HETATM   23  C30 UNL     1       2.069  52.983 -11.179  1.00  0.00     0.157 C 
HETATM   24  O4  UNL     1       3.057  52.728 -11.864  1.00  0.00    -0.293 OA
ENDROOT
BRANCH   1  25
HETATM   25  C7  UNL     1       5.514  56.245  -6.978  1.00  0.00    -0.013 C 
HETATM   26  C8  UNL     1       5.190  57.646  -6.453  1.00  0.00     0.010 C 
BRANCH  25  27
HETATM   27  C6  UNL     1       7.052  56.044  -7.071  1.00  0.00     0.012 C 
BRANCH  27  28
HETATM   28  C5  UNL     1       7.715  55.651  -5.745  1.00  0.00     0.084 C 
BRANCH  28  29
HETATM   29  C4  UNL     1       8.670  56.720  -5.229  1.00  0.00     0.157 C 
HETATM   30  O2  UNL     1       8.327  57.895  -5.089  1.00  0.00    -0.293 OA
BRANCH  29  31
HETATM   31  C2  UNL     1      10.077  56.332  -4.862  1.00  0.00     0.002 C 
HETATM   32  C1  UNL     1      10.432  55.058  -4.624  1.00  0.00     0.025 C 
BRANCH  31  33
HETATM   33  C3  UNL     1      11.059  57.468  -4.800  1.00  0.00     0.205 C 
BRANCH  33  34
HETATM   34  O1  UNL     1      12.386  56.976  -4.921  1.00  0.00    -0.396 OA
HETATM   35  H5  UNL     1      12.538  56.433  -4.121  1.00  0.00     0.209 HD
ENDBRANCH  33  34
ENDBRANCH  31  33
ENDBRANCH  29  31
ENDBRANCH  28  29
ENDBRANCH  27  28
ENDBRANCH  25  27
ENDBRANCH   1  25
TORSDOF 7
ENDMDL
MODEL 2
REMARK minimizedAffinity -7.56506014
REMARK CNNscore 0.810778975
REMARK CNNaffinity 6.86163187
REMARK  7 active torsions:
REMARK  status: ('A' for Active; 'I' for Inactive)
REMARK    1  A    between atoms: C2_2  and  C3_3 
REMARK    2  A    between atoms: C2_2  and  C4_5 
REMARK    3  A    between atoms: C3_3  and  O1_4 
REMARK    4  A    between atoms: C4_5  and  C5_7 
REMARK    5  A    between atoms: C5_7  and  C6_8 
REMARK    6  A    between atoms: C6_8  and  C7_9 
REMARK    7  A    between atoms: C7_9  and  C9_11 
ROOT
HETATM    1  C9  UNL     1       2.079  53.753 -10.914  1.00  0.00    -0.002 C 
HETATM    2  C10 UNL     1       0.901  54.657 -10.447  1.00  0.00     0.007 C 
HETATM    3  C11 UNL     1       1.427  55.563  -9.319  1.00  0.00     0.015 C 
HETATM    4  C12 UNL     1       2.958  55.423  -9.372  1.00  0.00    -0.005 C 
HETATM    5  C13 UNL     1       3.469  56.410 -10.468  1.00  0.00     0.021 C 
HETATM    6  C14 UNL     1       3.799  55.738  -8.141  1.00  0.00    -0.000 C 
HETATM    7  C15 UNL     1       4.990  55.121  -7.922  1.00  0.00    -0.060 C 
HETATM    8  C16 UNL     1       5.489  54.040  -8.893  1.00  0.00     0.036 C 
HETATM    9  C17 UNL     1       4.563  53.625 -10.056  1.00  0.00     0.015 C 
HETATM   10  C18 UNL     1       3.088  53.890  -9.734  1.00  0.00    -0.028 C 
HETATM   11  C19 UNL     1       2.649  52.946  -8.570  1.00  0.00     0.016 C 
HETATM   12  C20 UNL     1       5.902  55.421  -6.700  1.00  0.00    -0.014 C 
HETATM   13  C21 UNL     1       5.726  54.259  -5.699  1.00  0.00     0.020 C 
HETATM   14  C22 UNL     1       7.381  55.522  -7.142  1.00  0.00     0.021 C 
HETATM   15  C23 UNL     1       8.362  56.027  -6.092  1.00  0.00     0.080 C 
HETATM   16  C24 UNL     1       7.756  56.534  -4.806  1.00  0.00     0.135 C 
HETATM   17  O3  UNL     1       8.415  56.457  -3.766  1.00  0.00    -0.297 OA
HETATM   18  C25 UNL     1       6.391  57.231  -4.838  1.00  0.00     0.018 C 
HETATM   19  C26 UNL     1       5.674  56.942  -3.498  1.00  0.00     0.023 C 
HETATM   20  C27 UNL     1       6.677  58.747  -4.896  1.00  0.00     0.023 C 
HETATM   21  C28 UNL     1       5.548  56.814  -6.091  1.00  0.00     0.020 C 
HETATM   22  C29 UNL     1       4.038  56.947  -5.881  1.00  0.00     0.090 C 
HETATM   23  C30 UNL     1       3.310  56.780  -7.187  1.00  0.00     0.157 C 
HETATM   24  O4  UNL     1       2.322  57.469  -7.438  1.00  0.00    -0.293 OA
ENDROOT
BRANCH   1  25
HETATM   25  C7  UNL     1       1.582  52.344 -11.370  1.00  0.00    -0.013 C 
HETATM   26  C8  UNL     1       0.825  51.611 -10.260  1.00  0.00     0.010 C 
BRANCH  25  27
HETATM   27  C6  UNL     1       2.783  51.489 -11.863  1.00  0.00     0.012 C 
BRANCH  27  28
HETATM   28  C5  UNL     1       2.494  50.673 -13.130  1.00  0.00     0.084 C 
BRANCH  28  29
HETATM   29  C4  UNL     1       3.561  50.860 -14.201  1.00  0.00     0.157 C 
HETATM   30  O2  UNL     1       4.648  50.281 -14.154  1.00  0.00    -0.293 OA
BRANCH  29  31
HETATM   31  C2  UNL     1       3.280  51.769 -15.366  1.00  0.00     0.002 C 
HETATM   32  C1  UNL     1       4.258  52.399 -16.038  1.00  0.00     0.025 C 
BRANCH  31  33
HETATM   33  C3  UNL     1       1.830  51.906 -15.736  1.00  0.00     0.205 C 
BRANCH  33  34
HETATM   34  O1  UNL     1       1.522  53.265 -16.015  1.00  0.00    -0.396 OA
HETATM   35  H5  UNL     1       1.638  53.739 -15.167  1.00  0.00     0.209 HD
ENDBRANCH  33  34
ENDBRANCH  31  33
ENDBRANCH  29  31
ENDBRANCH  28  29
ENDBRANCH  27  28
ENDBRANCH  25  27
ENDBRANCH   1  25
TORSDOF 7
ENDMDL
MODEL 3
REMARK minimizedAffinity -7.16547489
REMARK CNNscore 0.493542045
REMARK CNNaffinity 6.9217
REMARK  7 active torsions:
REMARK  status: ('A' for Active; 'I' for Inactive)
REMARK    1  A    between atoms: C2_2  and  C3_3 
REMARK    2  A    between atoms: C2_2  and  C4_5 
REMARK    3  A    between atoms: C3_3  and  O1_4 
REMARK    4  A    between atoms: C4_5  and  C5_7 
REMARK    5  A    between atoms: C5_7  and  C6_8 
REMARK    6  A    between atoms: C6_8  and  C7_9 
REMARK    7  A    between atoms: C7_9  and  C9_11 
ROOT
HETATM    1  C9  UNL     1       2.023  53.870 -10.588  1.00  0.00    -0.002 C 
HETATM    2  C10 UNL     1       0.907  54.861 -10.150  1.00  0.00     0.007 C 
HETATM    3  C11 UNL     1       1.506  55.800  -9.088  1.00  0.00     0.015 C 
HETATM    4  C12 UNL     1       3.026  55.575  -9.164  1.00  0.00    -0.005 C 
HETATM    5  C13 UNL     1       3.562  56.469 -10.326  1.00  0.00     0.021 C 
HETATM    6  C14 UNL     1       3.912  55.913  -7.971  1.00  0.00    -0.000 C 
HETATM    7  C15 UNL     1       5.073  55.246  -7.742  1.00  0.00    -0.060 C 
HETATM    8  C16 UNL     1       5.491  54.086  -8.659  1.00  0.00     0.036 C 
HETATM    9  C17 UNL     1       4.517  53.657  -9.776  1.00  0.00     0.015 C 
HETATM   10  C18 UNL     1       3.066  54.019  -9.439  1.00  0.00    -0.028 C 
HETATM   11  C19 UNL     1       2.606  53.168  -8.213  1.00  0.00     0.016 C 
HETATM   12  C20 UNL     1       6.029  55.566  -6.559  1.00  0.00    -0.014 C 
HETATM   13  C21 UNL     1       5.816  54.474  -5.488  1.00  0.00     0.020 C 
HETATM   14  C22 UNL     1       7.500  55.561  -7.037  1.00  0.00     0.021 C 
HETATM   15  C23 UNL     1       8.532  56.071  -6.038  1.00  0.00     0.080 C 
HETATM   16  C24 UNL     1       7.984  56.682  -4.772  1.00  0.00     0.135 C 
HETATM   17  O3  UNL     1       8.663  56.629  -3.743  1.00  0.00    -0.297 OA
HETATM   18  C25 UNL     1       6.657  57.450  -4.815  1.00  0.00     0.018 C 
HETATM   19  C26 UNL     1       5.959  57.276  -3.447  1.00  0.00     0.023 C 
HETATM   20  C27 UNL     1       7.022  58.942  -4.967  1.00  0.00     0.023 C 
HETATM   21  C28 UNL     1       5.763  57.008  -6.024  1.00  0.00     0.020 C 
HETATM   22  C29 UNL     1       4.269  57.235  -5.790  1.00  0.00     0.090 C 
HETATM   23  C30 UNL     1       3.501  57.034  -7.070  1.00  0.00     0.157 C 
HETATM   24  O4  UNL     1       2.546  57.759  -7.339  1.00  0.00    -0.293 OA
ENDROOT
BRANCH   1  25
HETATM   25  C7  UNL     1       1.442  52.467 -10.951  1.00  0.00    -0.013 C 
HETATM   26  C8  UNL     1       1.804  52.042 -12.377  1.00  0.00     0.010 C 
BRANCH  25  27
HETATM   27  C6  UNL     1      -0.100  52.462 -10.760  1.00  0.00     0.012 C 
BRANCH  27  28
HETATM   28  C5  UNL     1      -0.875  51.841 -11.930  1.00  0.00     0.084 C 
BRANCH  28  29
HETATM   29  C4  UNL     1      -2.326  51.541 -11.575  1.00  0.00     0.157 C 
HETATM   30  O2  UNL     1      -2.666  50.489 -11.032  1.00  0.00    -0.293 OA
BRANCH  29  31
HETATM   31  C2  UNL     1      -3.384  52.566 -11.882  1.00  0.00     0.002 C 
HETATM   32  C1  UNL     1      -3.942  53.330 -10.928  1.00  0.00     0.025 C 
BRANCH  31  33
HETATM   33  C3  UNL     1      -3.757  52.687 -13.333  1.00  0.00     0.205 C 
BRANCH  33  34
HETATM   34  O1  UNL     1      -4.269  53.985 -13.601  1.00  0.00    -0.396 OA
HETATM   35  H5  UNL     1      -5.104  54.047 -13.093  1.00  0.00     0.209 HD
ENDBRANCH  33  34
ENDBRANCH  31  33
ENDBRANCH  29  31
ENDBRANCH  28  29
ENDBRANCH  27  28
ENDBRANCH  25  27
ENDBRANCH   1  25
TORSDOF 7
ENDMDL
MODEL 4
REMARK minimizedAffinity -8.48588848
REMARK CNNscore 0.456469715
REMARK CNNaffinity 7.01763153
REMARK  7 active torsions:
REMARK  status: ('A' for Active; 'I' for Inactive)
REMARK    1  A    between atoms: C2_2  and  C3_3 
REMARK    2  A    between atoms: C2_2  and  C4_5 
REMARK    3  A    between atoms: C3_3  and  O1_4 
REMARK    4  A    between atoms: C4_5  and  C5_7 
REMARK    5  A    between atoms: C5_7  and  C6_8 
REMARK    6  A    between atoms: C6_8  and  C7_9 
REMARK    7  A    between atoms: C7_9  and  C9_11 
ROOT
HETATM    1  C9  UNL     1      -2.206  50.519 -22.376  1.00  0.00    -0.002 C 
HETATM    2  C10 UNL     1      -1.676  51.959 -22.633  1.00  0.00     0.007 C 
HETATM    3  C11 UNL     1      -0.829  52.369 -21.416  1.00  0.00     0.015 C 
HETATM    4  C12 UNL     1      -0.594  51.066 -20.632  1.00  0.00    -0.005 C 
HETATM    5  C13 UNL     1       0.621  50.346 -21.296  1.00  0.00     0.021 C 
HETATM    6  C14 UNL     1      -0.254  51.115 -19.147  1.00  0.00    -0.000 C 
HETATM    7  C15 UNL     1      -0.595  50.101 -18.311  1.00  0.00    -0.060 C 
HETATM    8  C16 UNL     1      -1.390  48.897 -18.841  1.00  0.00     0.036 C 
HETATM    9  C17 UNL     1      -1.855  48.925 -20.312  1.00  0.00     0.015 C 
HETATM   10  C18 UNL     1      -1.992  50.358 -20.840  1.00  0.00    -0.028 C 
HETATM   11  C19 UNL     1      -3.157  51.066 -20.080  1.00  0.00     0.016 C 
HETATM   12  C20 UNL     1      -0.252  50.084 -16.795  1.00  0.00    -0.014 C 
HETATM   13  C21 UNL     1      -1.544  50.436 -16.027  1.00  0.00     0.020 C 
HETATM   14  C22 UNL     1       0.254  48.684 -16.372  1.00  0.00     0.021 C 
HETATM   15  C23 UNL     1       0.833  48.576 -14.967  1.00  0.00     0.080 C 
HETATM   16  C24 UNL     1       1.008  49.876 -14.220  1.00  0.00     0.135 C 
HETATM   17  O3  UNL     1       0.953  49.866 -12.987  1.00  0.00    -0.297 OA
HETATM   18  C25 UNL     1       1.361  51.152 -14.994  1.00  0.00     0.018 C 
HETATM   19  C26 UNL     1       0.736  52.353 -14.248  1.00  0.00     0.023 C 
HETATM   20  C27 UNL     1       2.895  51.299 -14.914  1.00  0.00     0.023 C 
HETATM   21  C28 UNL     1       0.925  51.065 -16.497  1.00  0.00     0.020 C 
HETATM   22  C29 UNL     1       0.669  52.431 -17.136  1.00  0.00     0.090 C 
HETATM   23  C30 UNL     1       0.508  52.292 -18.626  1.00  0.00     0.157 C 
HETATM   24  O4  UNL     1       0.970  53.145 -19.381  1.00  0.00    -0.293 OA
ENDROOT
BRANCH   1  25
HETATM   25  C7  UNL     1      -3.619  50.301 -23.003  1.00  0.00    -0.013 C 
HETATM   26  C8  UNL     1      -3.823  48.862 -23.484  1.00  0.00     0.010 C 
BRANCH  25  27
HETATM   27  C6  UNL     1      -3.844  51.299 -24.173  1.00  0.00     0.012 C 
BRANCH  27  28
HETATM   28  C5  UNL     1      -3.236  50.848 -25.508  1.00  0.00     0.084 C 
BRANCH  28  29
HETATM   29  C4  UNL     1      -2.464  51.961 -26.204  1.00  0.00     0.157 C 
HETATM   30  O2  UNL     1      -2.986  53.037 -26.503  1.00  0.00    -0.293 OA
BRANCH  29  31
HETATM   31  C2  UNL     1      -1.009  51.754 -26.528  1.00  0.00     0.002 C 
HETATM   32  C1  UNL     1      -0.299  50.732 -26.021  1.00  0.00     0.025 C 
BRANCH  31  33
HETATM   33  C3  UNL     1      -0.413  52.760 -27.472  1.00  0.00     0.205 C 
BRANCH  33  34
HETATM   34  O1  UNL     1       0.000  52.122 -28.672  1.00  0.00    -0.396 OA
HETATM   35  H5  UNL     1       0.728  51.520 -28.412  1.00  0.00     0.209 HD
ENDBRANCH  33  34
ENDBRANCH  31  33
ENDBRANCH  29  31
ENDBRANCH  28  29
ENDBRANCH  27  28
ENDBRANCH  25  27
ENDBRANCH   1  25
TORSDOF 7
ENDMDL
MODEL 5
REMARK minimizedAffinity -7.54312944
REMARK CNNscore 0.424696147
REMARK CNNaffinity 5.97228384
REMARK  7 active torsions:
REMARK  status: ('A' for Active; 'I' for Inactive)
REMARK    1  A    between atoms: C2_2  and  C3_3 
REMARK    2  A    between atoms: C2_2  and  C4_5 
REMARK    3  A    between atoms: C3_3  and  O1_4 
REMARK    4  A    between atoms: C4_5  and  C5_7 
REMARK    5  A    between atoms: C5_7  and  C6_8 
REMARK    6  A    between atoms: C6_8  and  C7_9 
REMARK    7  A    between atoms: C7_9  and  C9_11 
ROOT
HETATM    1  C9  UNL     1     -13.203  45.576 -27.229  1.00  0.00    -0.002 C 
HETATM    2  C10 UNL     1     -13.589  44.638 -28.410  1.00  0.00     0.007 C 
HETATM    3  C11 UNL     1     -12.397  44.596 -29.382  1.00  0.00     0.015 C 
HETATM    4  C12 UNL     1     -11.224  45.222 -28.608  1.00  0.00    -0.005 C 
HETATM    5  C13 UNL     1     -10.606  44.093 -27.725  1.00  0.00     0.021 C 
HETATM    6  C14 UNL     1     -10.041  45.821 -29.360  1.00  0.00    -0.000 C 
HETATM    7  C15 UNL     1      -9.314  46.841 -28.835  1.00  0.00    -0.060 C 
HETATM    8  C16 UNL     1      -9.710  47.457 -27.484  1.00  0.00     0.036 C 
HETATM    9  C17 UNL     1     -10.994  46.941 -26.800  1.00  0.00     0.015 C 
HETATM   10  C18 UNL     1     -11.985  46.356 -27.813  1.00  0.00    -0.028 C 
HETATM   11  C19 UNL     1     -12.504  47.507 -28.732  1.00  0.00     0.016 C 
HETATM   12  C20 UNL     1      -8.083  47.473 -29.543  1.00  0.00    -0.014 C 
HETATM   13  C21 UNL     1      -8.540  48.819 -30.145  1.00  0.00     0.020 C 
HETATM   14  C22 UNL     1      -6.938  47.705 -28.530  1.00  0.00     0.021 C 
HETATM   15  C23 UNL     1      -5.594  48.115 -29.119  1.00  0.00     0.080 C 
HETATM   16  C24 UNL     1      -5.489  48.076 -30.624  1.00  0.00     0.135 C 
HETATM   17  O3  UNL     1      -4.704  48.844 -31.186  1.00  0.00    -0.297 OA
HETATM   18  C25 UNL     1      -6.268  47.013 -31.408  1.00  0.00     0.018 C 
HETATM   19  C26 UNL     1      -6.639  47.612 -32.785  1.00  0.00     0.023 C 
HETATM   20  C27 UNL     1      -5.287  45.848 -31.655  1.00  0.00     0.023 C 
HETATM   21  C28 UNL     1      -7.510  46.488 -30.609  1.00  0.00     0.020 C 
HETATM   22  C29 UNL     1      -8.625  45.947 -31.506  1.00  0.00     0.090 C 
HETATM   23  C30 UNL     1      -9.661  45.232 -30.681  1.00  0.00     0.157 C 
HETATM   24  O4  UNL     1     -10.194  44.209 -31.107  1.00  0.00    -0.293 OA
ENDROOT
BRANCH   1  25
HETATM   25  C7  UNL     1     -14.441  46.347 -26.672  1.00  0.00    -0.013 C 
HETATM   26  C8  UNL     1     -14.266  46.736 -25.202  1.00  0.00     0.010 C 
BRANCH  25  27
HETATM   27  C6  UNL     1     -15.727  45.494 -26.857  1.00  0.00     0.012 C 
BRANCH  27  28
HETATM   28  C5  UNL     1     -16.673  45.515 -25.649  1.00  0.00     0.084 C 
BRANCH  28  29
HETATM   29  C4  UNL     1     -18.115  45.208 -26.030  1.00  0.00     0.157 C 
HETATM   30  O2  UNL     1     -18.536  45.350 -27.180  1.00  0.00    -0.293 OA
BRANCH  29  31
HETATM   31  C2  UNL     1     -19.061  44.699 -24.977  1.00  0.00     0.002 C 
HETATM   32  C1  UNL     1     -19.041  43.426 -24.546  1.00  0.00     0.025 C 
BRANCH  31  33
HETATM   33  C3  UNL     1     -20.017  45.721 -24.426  1.00  0.00     0.205 C 
BRANCH  33  34
HETATM   34  O1  UNL     1     -19.801  46.979 -25.049  1.00  0.00    -0.396 OA
HETATM   35  H5  UNL     1     -18.906  47.259 -24.771  1.00  0.00     0.209 HD
ENDBRANCH  33  34
ENDBRANCH  31  33
ENDBRANCH  29  31
ENDBRANCH  28  29
ENDBRANCH  27  28
ENDBRANCH  25  27
ENDBRANCH   1  25
TORSDOF 7
ENDMDL
MODEL 6
REMARK minimizedAffinity -7.46605206
REMARK CNNscore 0.422303706
REMARK CNNaffinity 6.85456657
REMARK  7 active torsions:
REMARK  status: ('A' for Active; 'I' for Inactive)
REMARK    1  A    between atoms: C2_2  and  C3_3 
REMARK    2  A    between atoms: C2_2  and  C4_5 
REMARK    3  A    between atoms: C3_3  and  O1_4 
REMARK    4  A    between atoms: C4_5  and  C5_7 
REMARK    5  A    between atoms: C5_7  and  C6_8 
REMARK    6  A    between atoms: C6_8  and  C7_9 
REMARK    7  A    between atoms: C7_9  and  C9_11 
ROOT
HETATM    1  C9  UNL     1      -3.700  48.762 -21.815  1.00  0.00    -0.002 C 
HETATM    2  C10 UNL     1      -2.876  47.731 -20.991  1.00  0.00     0.007 C 
HETATM    3  C11 UNL     1      -3.850  46.998 -20.051  1.00  0.00     0.015 C 
HETATM    4  C12 UNL     1      -5.254  47.358 -20.567  1.00  0.00    -0.005 C 
HETATM    5  C13 UNL     1      -5.574  46.380 -21.740  1.00  0.00     0.021 C 
HETATM    6  C14 UNL     1      -6.460  47.262 -19.640  1.00  0.00    -0.000 C 
HETATM    7  C15 UNL     1      -7.544  48.063 -19.807  1.00  0.00    -0.060 C 
HETATM    8  C16 UNL     1      -7.553  49.132 -20.911  1.00  0.00     0.036 C 
HETATM    9  C17 UNL     1      -6.271  49.318 -21.750  1.00  0.00     0.015 C 
HETATM   10  C18 UNL     1      -5.020  48.863 -20.990  1.00  0.00    -0.028 C 
HETATM   11  C19 UNL     1      -4.795  49.815 -19.773  1.00  0.00     0.016 C 
HETATM   12  C20 UNL     1      -8.812  47.991 -18.909  1.00  0.00    -0.014 C 
HETATM   13  C21 UNL     1      -8.750  49.186 -17.932  1.00  0.00     0.020 C 
HETATM   14  C22 UNL     1     -10.091  48.078 -19.775  1.00  0.00     0.021 C 
HETATM   15  C23 UNL     1     -11.406  47.802 -19.057  1.00  0.00     0.080 C 
HETATM   16  C24 UNL     1     -11.296  47.307 -17.635  1.00  0.00     0.135 C 
HETATM   17  O3  UNL     1     -12.210  47.557 -16.845  1.00  0.00    -0.297 OA
HETATM   18  C25 UNL     1     -10.114  46.415 -17.235  1.00  0.00     0.018 C 
HETATM   19  C26 UNL     1      -9.786  46.694 -15.750  1.00  0.00     0.023 C 
HETATM   20  C27 UNL     1     -10.614  44.959 -17.338  1.00  0.00     0.023 C 
HETATM   21  C28 UNL     1      -8.884  46.610 -18.186  1.00  0.00     0.020 C 
HETATM   22  C29 UNL     1      -7.546  46.271 -17.526  1.00  0.00     0.090 C 
HETATM   23  C30 UNL     1      -6.448  46.232 -18.556  1.00  0.00     0.157 C 
HETATM   24  O4  UNL     1      -5.557  45.389 -18.479  1.00  0.00    -0.293 OA
ENDROOT
BRANCH   1  25
HETATM   25  C7  UNL     1      -2.869  50.044 -22.136  1.00  0.00    -0.013 C 
HETATM   26  C8  UNL     1      -2.174  49.957 -23.497  1.00  0.00     0.010 C 
BRANCH  25  27
HETATM   27  C6  UNL     1      -1.828  50.301 -21.011  1.00  0.00     0.012 C 
BRANCH  27  28
HETATM   28  C5  UNL     1      -0.413  50.602 -21.523  1.00  0.00     0.084 C 
BRANCH  28  29
HETATM   29  C4  UNL     1       0.177  51.861 -20.901  1.00  0.00     0.157 C 
HETATM   30  O2  UNL     1       0.245  52.022 -19.681  1.00  0.00    -0.293 OA
BRANCH  29  31
HETATM   31  C2  UNL     1       0.711  52.943 -21.800  1.00  0.00     0.002 C 
HETATM   32  C1  UNL     1       0.544  52.917 -23.133  1.00  0.00     0.025 C 
BRANCH  31  33
HETATM   33  C3  UNL     1       1.428  54.063 -21.099  1.00  0.00     0.205 C 
BRANCH  33  34
HETATM   34  O1  UNL     1       1.956  54.977 -22.049  1.00  0.00    -0.396 OA
HETATM   35  H5  UNL     1       2.638  54.478 -22.543  1.00  0.00     0.209 HD
ENDBRANCH  33  34
ENDBRANCH  31  33
ENDBRANCH  29  31
ENDBRANCH  28  29
ENDBRANCH  27  28
ENDBRANCH  25  27
ENDBRANCH   1  25
TORSDOF 7
ENDMDL
MODEL 7
REMARK minimizedAffinity -6.92429495
REMARK CNNscore 0.326168001
REMARK CNNaffinity 5.49118471
REMARK  7 active torsions:
REMARK  status: ('A' for Active; 'I' for Inactive)
REMARK    1  A    between atoms: C2_2  and  C3_3 
REMARK    2  A    between atoms: C2_2  and  C4_5 
REMARK    3  A    between atoms: C3_3  and  O1_4 
REMARK    4  A    between atoms: C4_5  and  C5_7 
REMARK    5  A    between atoms: C5_7  and  C6_8 
REMARK    6  A    between atoms: C6_8  and  C7_9 
REMARK    7  A    between atoms: C7_9  and  C9_11 
ROOT
HETATM    1  C9  UNL     1     -11.333  45.729 -28.112  1.00  0.00    -0.002 C 
HETATM    2  C10 UNL     1     -11.015  47.059 -27.370  1.00  0.00     0.007 C 
HETATM    3  C11 UNL     1     -12.130  47.295 -26.335  1.00  0.00     0.015 C 
HETATM    4  C12 UNL     1     -12.887  45.958 -26.248  1.00  0.00    -0.005 C 
HETATM    5  C13 UNL     1     -12.094  45.049 -25.257  1.00  0.00     0.021 C 
HETATM    6  C14 UNL     1     -14.325  45.923 -25.744  1.00  0.00    -0.000 C 
HETATM    7  C15 UNL     1     -15.197  44.970 -26.163  1.00  0.00    -0.060 C 
HETATM    8  C16 UNL     1     -14.762  43.932 -27.209  1.00  0.00     0.036 C 
HETATM    9  C17 UNL     1     -13.351  44.065 -27.820  1.00  0.00     0.015 C 
HETATM   10  C18 UNL     1     -12.837  45.507 -27.762  1.00  0.00    -0.028 C 
HETATM   11  C19 UNL     1     -13.719  46.395 -28.696  1.00  0.00     0.016 C 
HETATM   12  C20 UNL     1     -16.666  44.869 -25.664  1.00  0.00    -0.014 C 
HETATM   13  C21 UNL     1     -17.570  45.428 -26.783  1.00  0.00     0.020 C 
HETATM   14  C22 UNL     1     -17.034  43.396 -25.367  1.00  0.00     0.021 C 
HETATM   15  C23 UNL     1     -18.367  43.167 -24.665  1.00  0.00     0.080 C 
HETATM   16  C24 UNL     1     -19.086  44.404 -24.185  1.00  0.00     0.135 C 
HETATM   17  O3  UNL     1     -20.317  44.384 -24.107  1.00  0.00    -0.297 OA
HETATM   18  C25 UNL     1     -18.273  45.611 -23.702  1.00  0.00     0.018 C 
HETATM   19  C26 UNL     1     -19.081  46.891 -24.022  1.00  0.00     0.023 C 
HETATM   20  C27 UNL     1     -18.182  45.488 -22.167  1.00  0.00     0.023 C 
HETATM   21  C28 UNL     1     -16.828  45.626 -24.309  1.00  0.00     0.020 C 
HETATM   22  C29 UNL     1     -16.217  47.026 -24.391  1.00  0.00     0.090 C 
HETATM   23  C30 UNL     1     -14.755  46.941 -24.736  1.00  0.00     0.157 C 
HETATM   24  O4  UNL     1     -13.951  47.713 -24.217  1.00  0.00    -0.293 OA
ENDROOT
BRANCH   1  25
HETATM   25  C7  UNL     1     -10.867  45.770 -29.601  1.00  0.00    -0.013 C 
HETATM   26  C8  UNL     1     -10.050  44.533 -29.986  1.00  0.00     0.010 C 
BRANCH  25  27
HETATM   27  C6  UNL     1     -10.049  47.064 -29.869  1.00  0.00     0.012 C 
BRANCH  27  28
HETATM   28  C5  UNL     1      -8.639  46.813 -30.420  1.00  0.00     0.084 C 
BRANCH  28  29
HETATM   29  C4  UNL     1      -7.807  48.086 -30.497  1.00  0.00     0.157 C 
HETATM   30  O2  UNL     1      -8.261  49.142 -30.941  1.00  0.00    -0.293 OA
BRANCH  29  31
HETATM   31  C2  UNL     1      -6.386  48.064 -30.004  1.00  0.00     0.002 C 
HETATM   32  C1  UNL     1      -6.066  47.701 -28.751  1.00  0.00     0.025 C 
BRANCH  31  33
HETATM   33  C3  UNL     1      -5.349  48.461 -31.018  1.00  0.00     0.205 C 
BRANCH  33  34
HETATM   34  O1  UNL     1      -4.610  49.580 -30.550  1.00  0.00    -0.396 OA
HETATM   35  H5  UNL     1      -5.252  50.318 -30.506  1.00  0.00     0.209 HD
ENDBRANCH  33  34
ENDBRANCH  31  33
ENDBRANCH  29  31
ENDBRANCH  28  29
ENDBRANCH  27  28
ENDBRANCH  25  27
ENDBRANCH   1  25
TORSDOF 7
ENDMDL
MODEL 8
REMARK minimizedAffinity -7.63903618
REMARK CNNscore 0.320875168
REMARK CNNaffinity 6.40245104
REMARK  7 active torsions:
REMARK  status: ('A' for Active; 'I' for Inactive)
REMARK    1  A    between atoms: C2_2  and  C3_3 
REMARK    2  A    between atoms: C2_2  and  C4_5 
REMARK    3  A    between atoms: C3_3  and  O1_4 
REMARK    4  A    between atoms: C4_5  and  C5_7 
REMARK    5  A    between atoms: C5_7  and  C6_8 
REMARK    6  A    between atoms: C6_8  and  C7_9 
REMARK    7  A    between atoms: C7_9  and  C9_11 
ROOT
HETATM    1  C9  UNL     1      -4.452  48.452 -20.682  1.00  0.00    -0.002 C 
HETATM    2  C10 UNL     1      -3.396  48.839 -19.607  1.00  0.00     0.007 C 
HETATM    3  C11 UNL     1      -2.409  49.826 -20.255  1.00  0.00     0.015 C 
HETATM    4  C12 UNL     1      -3.082  50.262 -21.569  1.00  0.00    -0.005 C 
HETATM    5  C13 UNL     1      -4.074  51.413 -21.214  1.00  0.00     0.021 C 
HETATM    6  C14 UNL     1      -2.241  50.812 -22.715  1.00  0.00    -0.000 C 
HETATM    7  C15 UNL     1      -2.629  50.668 -24.008  1.00  0.00    -0.060 C 
HETATM    8  C16 UNL     1      -3.909  49.888 -24.348  1.00  0.00     0.036 C 
HETATM    9  C17 UNL     1      -4.675  49.211 -23.191  1.00  0.00     0.015 C 
HETATM   10  C18 UNL     1      -3.757  48.901 -22.003  1.00  0.00    -0.028 C 
HETATM   11  C19 UNL     1      -2.723  47.813 -22.435  1.00  0.00     0.016 C 
HETATM   12  C20 UNL     1      -1.826  51.231 -25.215  1.00  0.00    -0.014 C 
HETATM   13  C21 UNL     1      -1.084  50.044 -25.866  1.00  0.00     0.020 C 
HETATM   14  C22 UNL     1      -2.782  51.887 -26.239  1.00  0.00     0.021 C 
HETATM   15  C23 UNL     1      -2.121  52.672 -27.365  1.00  0.00     0.080 C 
HETATM   16  C24 UNL     1      -0.629  52.866 -27.252  1.00  0.00     0.135 C 
HETATM   17  O3  UNL     1       0.035  52.993 -28.285  1.00  0.00    -0.297 OA
HETATM   18  C25 UNL     1       0.012  53.013 -25.867  1.00  0.00     0.018 C 
HETATM   19  C26 UNL     1       1.440  52.424 -25.935  1.00  0.00     0.023 C 
HETATM   20  C27 UNL     1       0.144  54.529 -25.607  1.00  0.00     0.023 C 
HETATM   21  C28 UNL     1      -0.868  52.368 -24.742  1.00  0.00     0.020 C 
HETATM   22  C29 UNL     1      -0.064  51.928 -23.517  1.00  0.00     0.090 C 
HETATM   23  C30 UNL     1      -0.988  51.560 -22.387  1.00  0.00     0.157 C 
HETATM   24  O4  UNL     1      -0.693  51.847 -21.229  1.00  0.00    -0.293 OA
ENDROOT
BRANCH   1  25
HETATM   25  C7  UNL     1      -4.944  46.980 -20.508  1.00  0.00    -0.013 C 
HETATM   26  C8  UNL     1      -6.360  46.908 -19.929  1.00  0.00     0.010 C 
BRANCH  25  27
HETATM   27  C6  UNL     1      -3.951  46.189 -19.612  1.00  0.00     0.012 C 
BRANCH  27  28
HETATM   28  C5  UNL     1      -4.109  44.665 -19.695  1.00  0.00     0.084 C 
BRANCH  28  29
HETATM   29  C4  UNL     1      -4.081  43.999 -18.325  1.00  0.00     0.157 C 
HETATM   30  O2  UNL     1      -3.816  44.623 -17.296  1.00  0.00    -0.293 OA
BRANCH  29  31
HETATM   31  C2  UNL     1      -4.402  42.533 -18.215  1.00  0.00     0.002 C 
HETATM   32  C1  UNL     1      -5.658  42.064 -18.303  1.00  0.00     0.025 C 
BRANCH  31  33
HETATM   33  C3  UNL     1      -3.216  41.631 -18.018  1.00  0.00     0.205 C 
BRANCH  33  34
HETATM   34  O1  UNL     1      -2.696  41.223 -19.276  1.00  0.00    -0.396 OA
HETATM   35  H5  UNL     1      -3.397  40.675 -19.684  1.00  0.00     0.209 HD
ENDBRANCH  33  34
ENDBRANCH  31  33
ENDBRANCH  29  31
ENDBRANCH  28  29
ENDBRANCH  27  28
ENDBRANCH  25  27
ENDBRANCH   1  25
TORSDOF 7
ENDMDL
MODEL 9
REMARK minimizedAffinity -7.38828754
REMARK CNNscore 0.312449634
REMARK CNNaffinity 6.56745291
REMARK  7 active torsions:
REMARK  status: ('A' for Active; 'I' for Inactive)
REMARK    1  A    between atoms: C2_2  and  C3_3 
REMARK    2  A    between atoms: C2_2  and  C4_5 
REMARK    3  A    between atoms: C3_3  and  O1_4 
REMARK    4  A    between atoms: C4_5  and  C5_7 
REMARK    5  A    between atoms: C5_7  and  C6_8 
REMARK    6  A    between atoms: C6_8  and  C7_9 
REMARK    7  A    between atoms: C7_9  and  C9_11 
ROOT
HETATM    1  C9  UNL     1      -3.496  49.717 -23.071  1.00  0.00    -0.002 C 
HETATM    2  C10 UNL     1      -4.107  49.157 -24.387  1.00  0.00     0.007 C 
HETATM    3  C11 UNL     1      -5.530  48.663 -24.069  1.00  0.00     0.015 C 
HETATM    4  C12 UNL     1      -5.854  49.240 -22.680  1.00  0.00    -0.005 C 
HETATM    5  C13 UNL     1      -6.358  50.701 -22.899  1.00  0.00     0.021 C 
HETATM    6  C14 UNL     1      -6.919  48.587 -21.808  1.00  0.00    -0.000 C 
HETATM    7  C15 UNL     1      -6.857  48.647 -20.452  1.00  0.00    -0.060 C 
HETATM    8  C16 UNL     1      -5.667  49.334 -19.763  1.00  0.00     0.036 C 
HETATM    9  C17 UNL     1      -4.522  49.865 -20.652  1.00  0.00     0.015 C 
HETATM   10  C18 UNL     1      -4.440  49.114 -21.986  1.00  0.00    -0.028 C 
HETATM   11  C19 UNL     1      -4.023  47.635 -21.707  1.00  0.00     0.016 C 
HETATM   12  C20 UNL     1      -7.928  48.023 -19.513  1.00  0.00    -0.014 C 
HETATM   13  C21 UNL     1      -7.335  46.715 -18.947  1.00  0.00     0.020 C 
HETATM   14  C22 UNL     1      -8.267  48.997 -18.360  1.00  0.00     0.021 C 
HETATM   15  C23 UNL     1      -9.455  48.614 -17.487  1.00  0.00     0.080 C 
HETATM   16  C24 UNL     1     -10.267  47.429 -17.952  1.00  0.00     0.135 C 
HETATM   17  O3  UNL     1     -10.861  46.748 -17.113  1.00  0.00    -0.297 OA
HETATM   18  C25 UNL     1     -10.426  47.166 -19.455  1.00  0.00     0.018 C 
HETATM   19  C26 UNL     1     -10.556  45.639 -19.662  1.00  0.00     0.023 C 
HETATM   20  C27 UNL     1     -11.767  47.808 -19.869  1.00  0.00     0.023 C 
HETATM   21  C28 UNL     1      -9.264  47.806 -20.289  1.00  0.00     0.020 C 
HETATM   22  C29 UNL     1      -9.011  47.097 -21.621  1.00  0.00     0.090 C 
HETATM   23  C30 UNL     1      -8.072  47.906 -22.475  1.00  0.00     0.157 C 
HETATM   24  O4  UNL     1      -8.242  47.972 -23.691  1.00  0.00    -0.293 OA
ENDROOT
BRANCH   1  25
HETATM   25  C7  UNL     1      -1.955  49.477 -22.999  1.00  0.00    -0.013 C 
HETATM   26  C8  UNL     1      -1.428  49.525 -21.562  1.00  0.00     0.010 C 
BRANCH  25  27
HETATM   27  C6  UNL     1      -1.211  50.516 -23.883  1.00  0.00     0.012 C 
BRANCH  27  28
HETATM   28  C5  UNL     1      -1.695  51.960 -23.697  1.00  0.00     0.084 C 
BRANCH  28  29
HETATM   29  C4  UNL     1      -0.622  52.985 -24.039  1.00  0.00     0.157 C 
HETATM   30  O2  UNL     1      -0.601  53.580 -25.118  1.00  0.00    -0.293 OA
BRANCH  29  31
HETATM   31  C2  UNL     1       0.444  53.298 -23.025  1.00  0.00     0.002 C 
HETATM   32  C1  UNL     1       0.580  52.599 -21.885  1.00  0.00     0.025 C 
BRANCH  31  33
HETATM   33  C3  UNL     1       1.357  54.437 -23.385  1.00  0.00     0.205 C 
BRANCH  33  34
HETATM   34  O1  UNL     1       1.896  55.024 -22.209  1.00  0.00    -0.396 OA
HETATM   35  H5  UNL     1       1.133  55.418 -21.740  1.00  0.00     0.209 HD
ENDBRANCH  33  34
ENDBRANCH  31  33
ENDBRANCH  29  31
ENDBRANCH  28  29
ENDBRANCH  27  28
ENDBRANCH  25  27
ENDBRANCH   1  25
TORSDOF 7
ENDMDL
