MODEL 1
REMARK minimizedAffinity -9.57602406
REMARK CNNscore 0.799552798
REMARK CNNaffinity 7.43423986
REMARK  10 active torsions:
REMARK  status: ('A' for Active; 'I' for Inactive)
REMARK    1  A    between atoms: N1_15  and  C13_16 
REMARK    2  A    between atoms: C13_16  and  C14_17 
REMARK    3  A    between atoms: C14_17  and  N2_18 
REMARK    4  A    between atoms: N2_18  and  C15_19 
REMARK    5  A    between atoms: C15_19  and  C16_20 
REMARK    6  A    between atoms: C16_20  and  C17_21 
REMARK    7  A    between atoms: C17_21  and  N3_22 
REMARK    8  A    between atoms: N3_22  and  C18_23 
REMARK    9  A    between atoms: C18_23  and  C19_24 
REMARK   10  A    between atoms: C19_24  and  N4_25 
ROOT
HETATM    1  C16 UNL     1       0.585   7.577  15.363  1.00  0.00     0.060 C 
ENDROOT
BRANCH   1   2
HETATM    2  C15 UNL     1      -0.920   7.662  15.637  1.00  0.00     0.271 C 
BRANCH   2   3
HETATM    3  N2  UNL     1      -1.543   6.335  15.531  1.00  0.00     0.085 N 
HETATM    4  H11 UNL     1      -1.312   5.810  16.376  1.00  0.00     0.315 HD
BRANCH   3   5
HETATM    5  C14 UNL     1      -1.053   5.554  14.383  1.00  0.00     0.289 C 
BRANCH   5   6
HETATM    6  C13 UNL     1      -1.742   5.854  13.040  1.00  0.00     0.165 C 
BRANCH   6   7
HETATM    7  N1  UNL     1      -3.019   5.148  12.916  1.00  0.00    -0.278 N 
HETATM    8  C1  UNL     1      -4.166   5.812  13.349  1.00  0.00     0.261 A 
HETATM    9  O1  UNL     1      -4.162   6.950  13.814  1.00  0.00    -0.267 OA
HETATM   10  C2  UNL     1      -5.452   5.090  13.215  1.00  0.00     0.044 A 
HETATM   11  C3  UNL     1      -6.629   5.683  13.690  1.00  0.00     0.018 A 
HETATM   12  C11 UNL     1      -5.478   3.828  12.612  1.00  0.00     0.005 A 
HETATM   13  C4  UNL     1      -7.844   5.013  13.565  1.00  0.00     0.002 A 
HETATM   14  C5  UNL     1      -7.886   3.754  12.964  1.00  0.00     0.012 A 
HETATM   15  C6  UNL     1      -6.714   3.150  12.482  1.00  0.00    -0.024 A 
HETATM   16  C7  UNL     1      -6.748   1.886  11.870  1.00  0.00     0.012 A 
HETATM   17  C8  UNL     1      -5.579   1.294  11.390  1.00  0.00     0.002 A 
HETATM   18  C9  UNL     1      -4.362   1.960  11.518  1.00  0.00     0.018 A 
HETATM   19  C10 UNL     1      -4.314   3.221  12.128  1.00  0.00     0.044 A 
HETATM   20  C12 UNL     1      -3.014   3.918  12.259  1.00  0.00     0.261 A 
HETATM   21  O2  UNL     1      -2.008   3.400  11.781  1.00  0.00    -0.267 OA
ENDBRANCH   6   7
ENDBRANCH   5   6
ENDBRANCH   3   5
ENDBRANCH   2   3
ENDBRANCH   1   2
BRANCH   1  22
HETATM   22  C17 UNL     1       1.272   8.946  15.398  1.00  0.00     0.271 C 
BRANCH  22  23
HETATM   23  N3  UNL     1       0.911   9.756  14.236  1.00  0.00     0.085 N 
HETATM   24  H18 UNL     1       1.250  10.711  14.367  1.00  0.00     0.315 HD
BRANCH  23  25
HETATM   25  C18 UNL     1       1.491   9.202  13.005  1.00  0.00     0.289 C 
BRANCH  25  26
HETATM   26  C19 UNL     1       0.434   8.438  12.187  1.00  0.00     0.165 C 
BRANCH  26  27
HETATM   27  N4  UNL     1       1.026   7.743  11.044  1.00  0.00    -0.278 N 
HETATM   28  C20 UNL     1       1.780   6.600  11.307  1.00  0.00     0.261 C 
HETATM   29  O3  UNL     1       1.948   6.137  12.433  1.00  0.00    -0.267 OA
HETATM   30  C21 UNL     1       2.388   5.915  10.144  1.00  0.00     0.044 A 
HETATM   31  C22 UNL     1       3.221   4.807  10.352  1.00  0.00     0.018 A 
HETATM   32  C30 UNL     1       2.125   6.379   8.850  1.00  0.00     0.005 A 
HETATM   33  C23 UNL     1       3.800   4.157   9.266  1.00  0.00     0.002 A 
HETATM   34  C24 UNL     1       3.546   4.609   7.971  1.00  0.00     0.012 A 
HETATM   35  C25 UNL     1       2.711   5.715   7.746  1.00  0.00    -0.024 A 
HETATM   36  C26 UNL     1       2.445   6.173   6.446  1.00  0.00     0.012 A 
HETATM   37  C27 UNL     1       1.609   7.269   6.232  1.00  0.00     0.002 A 
HETATM   38  C28 UNL     1       1.031   7.922   7.317  1.00  0.00     0.018 A 
HETATM   39  C29 UNL     1       1.292   7.479   8.622  1.00  0.00     0.044 A 
HETATM   40  C31 UNL     1       0.676   8.185   9.768  1.00  0.00     0.261 C 
HETATM   41  O4  UNL     1      -0.109   9.104   9.554  1.00  0.00    -0.267 OA
ENDBRANCH  26  27
ENDBRANCH  25  26
ENDBRANCH  23  25
ENDBRANCH  22  23
ENDBRANCH   1  22
TORSDOF 10
ENDMDL
MODEL 2
REMARK minimizedAffinity -9.1807003
REMARK CNNscore 0.769742906
REMARK CNNaffinity 6.74653864
REMARK  10 active torsions:
REMARK  status: ('A' for Active; 'I' for Inactive)
REMARK    1  A    between atoms: N1_15  and  C13_16 
REMARK    2  A    between atoms: C13_16  and  C14_17 
REMARK    3  A    between atoms: C14_17  and  N2_18 
REMARK    4  A    between atoms: N2_18  and  C15_19 
REMARK    5  A    between atoms: C15_19  and  C16_20 
REMARK    6  A    between atoms: C16_20  and  C17_21 
REMARK    7  A    between atoms: C17_21  and  N3_22 
REMARK    8  A    between atoms: N3_22  and  C18_23 
REMARK    9  A    between atoms: C18_23  and  C19_24 
REMARK   10  A    between atoms: C19_24  and  N4_25 
ROOT
HETATM    1  C16 UNL     1      -0.030   8.579  15.570  1.00  0.00     0.060 C 
ENDROOT
BRANCH   1   2
HETATM    2  C15 UNL     1       1.113   9.218  16.365  1.00  0.00     0.271 C 
BRANCH   2   3
HETATM    3  N2  UNL     1       0.996  10.683  16.357  1.00  0.00     0.085 N 
HETATM    4  H11 UNL     1       0.840  10.982  15.393  1.00  0.00     0.315 HD
BRANCH   3   5
HETATM    5  C14 UNL     1       2.210  11.364  16.836  1.00  0.00     0.289 C 
BRANCH   5   6
HETATM    6  C13 UNL     1       1.987  12.404  17.949  1.00  0.00     0.165 C 
BRANCH   6   7
HETATM    7  N1  UNL     1       2.681  12.034  19.184  1.00  0.00    -0.278 N 
HETATM    8  C1  UNL     1       2.176  10.954  19.907  1.00  0.00     0.261 A 
HETATM    9  O1  UNL     1       1.198  10.297  19.560  1.00  0.00    -0.267 OA
HETATM   10  C2  UNL     1       2.890  10.587  21.152  1.00  0.00     0.044 A 
HETATM   11  C3  UNL     1       2.393   9.550  21.952  1.00  0.00     0.018 A 
HETATM   12  C11 UNL     1       4.053  11.276  21.513  1.00  0.00     0.005 A 
HETATM   13  C4  UNL     1       3.058   9.195  23.124  1.00  0.00     0.002 A 
HETATM   14  C5  UNL     1       4.220   9.872  23.495  1.00  0.00     0.012 A 
HETATM   15  C6  UNL     1       4.731  10.911  22.702  1.00  0.00    -0.024 A 
HETATM   16  C7  UNL     1       5.904  11.594  23.065  1.00  0.00     0.012 A 
HETATM   17  C8  UNL     1       6.406  12.624  22.269  1.00  0.00     0.002 A 
HETATM   18  C9  UNL     1       5.739  12.983  21.100  1.00  0.00     0.018 A 
HETATM   19  C10 UNL     1       4.567  12.312  20.726  1.00  0.00     0.044 A 
HETATM   20  C12 UNL     1       3.867  12.704  19.482  1.00  0.00     0.261 A 
HETATM   21  O2  UNL     1       4.358  13.578  18.771  1.00  0.00    -0.267 OA
ENDBRANCH   6   7
ENDBRANCH   5   6
ENDBRANCH   3   5
ENDBRANCH   2   3
ENDBRANCH   1   2
BRANCH   1  22
HETATM   22  C17 UNL     1       0.328   7.191  15.030  1.00  0.00     0.271 C 
BRANCH  22  23
HETATM   23  N3  UNL     1      -0.830   6.298  15.040  1.00  0.00     0.085 N 
HETATM   24  H18 UNL     1      -1.680   6.839  14.873  1.00  0.00     0.315 HD
BRANCH  23  25
HETATM   25  C18 UNL     1      -0.705   5.261  14.006  1.00  0.00     0.289 C 
BRANCH  25  26
HETATM   26  C19 UNL     1      -1.495   5.641  12.741  1.00  0.00     0.165 C 
BRANCH  26  27
HETATM   27  N4  UNL     1      -2.826   5.034  12.724  1.00  0.00    -0.278 N 
HETATM   28  C20 UNL     1      -3.877   5.779  13.258  1.00  0.00     0.261 C 
HETATM   29  O3  UNL     1      -3.750   6.914  13.710  1.00  0.00    -0.267 OA
HETATM   30  C21 UNL     1      -5.217   5.148  13.252  1.00  0.00     0.044 A 
HETATM   31  C22 UNL     1      -6.297   5.815  13.846  1.00  0.00     0.018 A 
HETATM   32  C30 UNL     1      -5.391   3.895  12.655  1.00  0.00     0.005 A 
HETATM   33  C23 UNL     1      -7.560   5.230  13.848  1.00  0.00     0.002 A 
HETATM   34  C24 UNL     1      -7.748   3.981  13.256  1.00  0.00     0.012 A 
HETATM   35  C25 UNL     1      -6.676   3.303  12.654  1.00  0.00    -0.024 A 
HETATM   36  C26 UNL     1      -6.856   2.048  12.050  1.00  0.00     0.012 A 
HETATM   37  C27 UNL     1      -5.787   1.384  11.449  1.00  0.00     0.002 A 
HETATM   38  C28 UNL     1      -4.522   1.966  11.448  1.00  0.00     0.018 A 
HETATM   39  C29 UNL     1      -4.326   3.216  12.052  1.00  0.00     0.044 A 
HETATM   40  C31 UNL     1      -2.975   3.823  12.050  1.00  0.00     0.261 C 
HETATM   41  O4  UNL     1      -2.064   3.253  11.457  1.00  0.00    -0.267 OA
ENDBRANCH  26  27
ENDBRANCH  25  26
ENDBRANCH  23  25
ENDBRANCH  22  23
ENDBRANCH   1  22
TORSDOF 10
ENDMDL
MODEL 3
REMARK minimizedAffinity -9.49103069
REMARK CNNscore 0.755919695
REMARK CNNaffinity 6.77705336
REMARK  10 active torsions:
REMARK  status: ('A' for Active; 'I' for Inactive)
REMARK    1  A    between atoms: N1_15  and  C13_16 
REMARK    2  A    between atoms: C13_16  and  C14_17 
REMARK    3  A    between atoms: C14_17  and  N2_18 
REMARK    4  A    between atoms: N2_18  and  C15_19 
REMARK    5  A    between atoms: C15_19  and  C16_20 
REMARK    6  A    between atoms: C16_20  and  C17_21 
REMARK    7  A    between atoms: C17_21  and  N3_22 
REMARK    8  A    between atoms: N3_22  and  C18_23 
REMARK    9  A    between atoms: C18_23  and  C19_24 
REMARK   10  A    between atoms: C19_24  and  N4_25 
ROOT
HETATM    1  C16 UNL     1       0.908   7.902  15.242  1.00  0.00     0.060 C 
ENDROOT
BRANCH   1   2
HETATM    2  C15 UNL     1       1.131   9.374  14.880  1.00  0.00     0.271 C 
BRANCH   2   3
HETATM    3  N2  UNL     1       1.152  10.209  16.089  1.00  0.00     0.085 N 
HETATM    4  H11 UNL     1       0.717  11.104  15.862  1.00  0.00     0.315 HD
BRANCH   3   5
HETATM    5  C14 UNL     1       2.514  10.494  16.572  1.00  0.00     0.289 C 
BRANCH   5   6
HETATM    6  C13 UNL     1       2.666  11.791  17.387  1.00  0.00     0.165 C 
BRANCH   6   7
HETATM    7  N1  UNL     1       3.193  11.530  18.727  1.00  0.00    -0.278 N 
HETATM    8  C1  UNL     1       4.302  12.269  19.138  1.00  0.00     0.261 A 
HETATM    9  O1  UNL     1       4.846  13.127  18.446  1.00  0.00    -0.267 OA
HETATM   10  C2  UNL     1       4.823  12.000  20.498  1.00  0.00     0.044 A 
HETATM   11  C3  UNL     1       5.972  12.668  20.942  1.00  0.00     0.018 A 
HETATM   12  C11 UNL     1       4.162  11.085  21.325  1.00  0.00     0.005 A 
HETATM   13  C4  UNL     1       6.469  12.423  22.220  1.00  0.00     0.002 A 
HETATM   14  C5  UNL     1       5.818  11.516  23.057  1.00  0.00     0.012 A 
HETATM   15  C6  UNL     1       4.665  10.841  22.626  1.00  0.00    -0.024 A 
HETATM   16  C7  UNL     1       4.000   9.930  23.463  1.00  0.00     0.012 A 
HETATM   17  C8  UNL     1       2.853   9.266  23.028  1.00  0.00     0.002 A 
HETATM   18  C9  UNL     1       2.358   9.506  21.748  1.00  0.00     0.018 A 
HETATM   19  C10 UNL     1       3.012  10.411  20.902  1.00  0.00     0.044 A 
HETATM   20  C12 UNL     1       2.476  10.656  19.543  1.00  0.00     0.261 A 
HETATM   21  O2  UNL     1       1.435  10.099  19.203  1.00  0.00    -0.267 OA
ENDBRANCH   6   7
ENDBRANCH   5   6
ENDBRANCH   3   5
ENDBRANCH   2   3
ENDBRANCH   1   2
BRANCH   1  22
HETATM   22  C17 UNL     1      -0.565   7.490  15.166  1.00  0.00     0.271 C 
BRANCH  22  23
HETATM   23  N3  UNL     1      -0.726   6.044  15.316  1.00  0.00     0.085 N 
HETATM   24  H18 UNL     1      -1.625   5.844  15.759  1.00  0.00     0.315 HD
BRANCH  23  25
HETATM   25  C18 UNL     1      -0.669   5.369  14.012  1.00  0.00     0.289 C 
BRANCH  25  26
HETATM   26  C19 UNL     1      -1.599   6.049  12.992  1.00  0.00     0.165 C 
BRANCH  26  27
HETATM   27  N4  UNL     1      -2.888   5.366  12.888  1.00  0.00    -0.278 N 
HETATM   28  C20 UNL     1      -2.900   4.104  12.295  1.00  0.00     0.261 C 
HETATM   29  O3  UNL     1      -1.892   3.532  11.886  1.00  0.00    -0.267 OA
HETATM   30  C21 UNL     1      -4.212   3.430  12.178  1.00  0.00     0.044 A 
HETATM   31  C22 UNL     1      -4.299   2.195  11.521  1.00  0.00     0.018 A 
HETATM   32  C30 UNL     1      -5.352   4.030  12.725  1.00  0.00     0.005 A 
HETATM   33  C23 UNL     1      -5.529   1.553  11.404  1.00  0.00     0.002 A 
HETATM   34  C24 UNL     1      -6.673   2.140  11.944  1.00  0.00     0.012 A 
HETATM   35  C25 UNL     1      -6.601   3.375  12.608  1.00  0.00    -0.024 A 
HETATM   36  C26 UNL     1      -7.746   3.971  13.162  1.00  0.00     0.012 A 
HETATM   37  C27 UNL     1      -7.664   5.195  13.825  1.00  0.00     0.002 A 
HETATM   38  C28 UNL     1      -6.436   5.840  13.941  1.00  0.00     0.018 A 
HETATM   39  C29 UNL     1      -5.285   5.260  13.390  1.00  0.00     0.044 A 
HETATM   40  C31 UNL     1      -3.985   5.957  13.514  1.00  0.00     0.261 C 
HETATM   41  O4  UNL     1      -3.924   6.999  14.161  1.00  0.00    -0.267 OA
ENDBRANCH  26  27
ENDBRANCH  25  26
ENDBRANCH  23  25
ENDBRANCH  22  23
ENDBRANCH   1  22
TORSDOF 10
ENDMDL
MODEL 4
REMARK minimizedAffinity -9.21219635
REMARK CNNscore 0.691298246
REMARK CNNaffinity 6.64297485
REMARK  10 active torsions:
REMARK  status: ('A' for Active; 'I' for Inactive)
REMARK    1  A    between atoms: N1_15  and  C13_16 
REMARK    2  A    between atoms: C13_16  and  C14_17 
REMARK    3  A    between atoms: C14_17  and  N2_18 
REMARK    4  A    between atoms: N2_18  and  C15_19 
REMARK    5  A    between atoms: C15_19  and  C16_20 
REMARK    6  A    between atoms: C16_20  and  C17_21 
REMARK    7  A    between atoms: C17_21  and  N3_22 
REMARK    8  A    between atoms: N3_22  and  C18_23 
REMARK    9  A    between atoms: C18_23  and  C19_24 
REMARK   10  A    between atoms: C19_24  and  N4_25 
ROOT
HETATM    1  C16 UNL     1       0.865   8.330  14.774  1.00  0.00     0.060 C 
ENDROOT
BRANCH   1   2
HETATM    2  C15 UNL     1       1.198   9.825  14.822  1.00  0.00     0.271 C 
BRANCH   2   3
HETATM    3  N2  UNL     1       1.231  10.306  16.210  1.00  0.00     0.085 N 
HETATM    4  H11 UNL     1       0.669  11.156  16.263  1.00  0.00     0.315 HD
BRANCH   3   5
HETATM    5  C14 UNL     1       2.587  10.647  16.672  1.00  0.00     0.289 C 
BRANCH   5   6
HETATM    6  C13 UNL     1       2.693  11.933  17.511  1.00  0.00     0.165 C 
BRANCH   6   7
HETATM    7  N1  UNL     1       3.212  11.663  18.854  1.00  0.00    -0.278 N 
HETATM    8  C1  UNL     1       2.541  10.714  19.624  1.00  0.00     0.261 A 
HETATM    9  O1  UNL     1       1.556  10.091  19.235  1.00  0.00    -0.267 OA
HETATM   10  C2  UNL     1       3.078  10.447  20.979  1.00  0.00     0.044 A 
HETATM   11  C3  UNL     1       2.410   9.548  21.821  1.00  0.00     0.018 A 
HETATM   12  C11 UNL     1       4.246  11.091  21.400  1.00  0.00     0.005 A 
HETATM   13  C4  UNL     1       2.908   9.288  23.095  1.00  0.00     0.002 A 
HETATM   14  C5  UNL     1       4.073   9.921  23.529  1.00  0.00     0.012 A 
HETATM   15  C6  UNL     1       4.754  10.822  22.694  1.00  0.00    -0.024 A 
HETATM   16  C7  UNL     1       5.931  11.459  23.120  1.00  0.00     0.012 A 
HETATM   17  C8  UNL     1       6.603  12.350  22.283  1.00  0.00     0.002 A 
HETATM   18  C9  UNL     1       6.104  12.616  21.010  1.00  0.00     0.018 A 
HETATM   19  C10 UNL     1       4.930  11.988  20.573  1.00  0.00     0.044 A 
HETATM   20  C12 UNL     1       4.408  12.280  19.218  1.00  0.00     0.261 A 
HETATM   21  O2  UNL     1       5.047  13.027  18.481  1.00  0.00    -0.267 OA
ENDBRANCH   6   7
ENDBRANCH   5   6
ENDBRANCH   3   5
ENDBRANCH   2   3
ENDBRANCH   1   2
BRANCH   1  22
HETATM   22  C17 UNL     1      -0.617   8.062  14.493  1.00  0.00     0.271 C 
BRANCH  22  23
HETATM   23  N3  UNL     1      -1.052   6.793  15.075  1.00  0.00     0.085 N 
HETATM   24  H18 UNL     1      -2.023   6.874  15.383  1.00  0.00     0.315 HD
BRANCH  23  25
HETATM   25  C18 UNL     1      -0.944   5.700  14.099  1.00  0.00     0.289 C 
BRANCH  25  26
HETATM   26  C19 UNL     1      -1.720   6.026  12.811  1.00  0.00     0.165 C 
BRANCH  26  27
HETATM   27  N4  UNL     1      -2.991   5.306  12.742  1.00  0.00    -0.278 N 
HETATM   28  C20 UNL     1      -2.976   4.028  12.184  1.00  0.00     0.261 C 
HETATM   29  O3  UNL     1      -1.958   3.472  11.779  1.00  0.00    -0.267 OA
HETATM   30  C21 UNL     1      -4.271   3.316  12.103  1.00  0.00     0.044 A 
HETATM   31  C22 UNL     1      -4.332   2.061  11.482  1.00  0.00     0.018 A 
HETATM   32  C30 UNL     1      -5.420   3.901  12.648  1.00  0.00     0.005 A 
HETATM   33  C23 UNL     1      -5.546   1.384  11.399  1.00  0.00     0.002 A 
HETATM   34  C24 UNL     1      -6.698   1.955  11.937  1.00  0.00     0.012 A 
HETATM   35  C25 UNL     1      -6.652   3.210  12.566  1.00  0.00    -0.024 A 
HETATM   36  C26 UNL     1      -7.806   3.791  13.117  1.00  0.00     0.012 A 
HETATM   37  C27 UNL     1      -7.749   5.035  13.745  1.00  0.00     0.002 A 
HETATM   38  C28 UNL     1      -6.538   5.715  13.827  1.00  0.00     0.018 A 
HETATM   39  C29 UNL     1      -5.378   5.150  13.277  1.00  0.00     0.044 A 
HETATM   40  C31 UNL     1      -4.096   5.885  13.365  1.00  0.00     0.261 C 
HETATM   41  O4  UNL     1      -4.056   6.946  13.982  1.00  0.00    -0.267 OA
ENDBRANCH  26  27
ENDBRANCH  25  26
ENDBRANCH  23  25
ENDBRANCH  22  23
ENDBRANCH   1  22
TORSDOF 10
ENDMDL
MODEL 5
REMARK minimizedAffinity -9.61680222
REMARK CNNscore 0.66927433
REMARK CNNaffinity 6.58324575
REMARK  10 active torsions:
REMARK  status: ('A' for Active; 'I' for Inactive)
REMARK    1  A    between atoms: N1_15  and  C13_16 
REMARK    2  A    between atoms: C13_16  and  C14_17 
REMARK    3  A    between atoms: C14_17  and  N2_18 
REMARK    4  A    between atoms: N2_18  and  C15_19 
REMARK    5  A    between atoms: C15_19  and  C16_20 
REMARK    6  A    between atoms: C16_20  and  C17_21 
REMARK    7  A    between atoms: C17_21  and  N3_22 
REMARK    8  A    between atoms: N3_22  and  C18_23 
REMARK    9  A    between atoms: C18_23  and  C19_24 
REMARK   10  A    between atoms: C19_24  and  N4_25 
ROOT
HETATM    1  C16 UNL     1       1.755   7.309  14.857  1.00  0.00     0.060 C 
ENDROOT
BRANCH   1   2
HETATM    2  C15 UNL     1       2.550   7.967  15.990  1.00  0.00     0.271 C 
BRANCH   2   3
HETATM    3  N2  UNL     1       2.142   9.367  16.165  1.00  0.00     0.085 N 
HETATM    4  H11 UNL     1       1.697   9.677  15.300  1.00  0.00     0.315 HD
BRANCH   3   5
HETATM    5  C14 UNL     1       3.274  10.273  16.424  1.00  0.00     0.289 C 
BRANCH   5   6
HETATM    6  C13 UNL     1       2.952  11.497  17.299  1.00  0.00     0.165 C 
BRANCH   6   7
HETATM    7  N1  UNL     1       3.430  11.325  18.672  1.00  0.00    -0.278 N 
HETATM    8  C1  UNL     1       4.554  12.054  19.058  1.00  0.00     0.261 A 
HETATM    9  O1  UNL     1       5.150  12.834  18.319  1.00  0.00    -0.267 OA
HETATM   10  C2  UNL     1       5.026  11.874  20.451  1.00  0.00     0.044 A 
HETATM   11  C3  UNL     1       6.186  12.534  20.877  1.00  0.00     0.018 A 
HETATM   12  C11 UNL     1       4.306  11.051  21.325  1.00  0.00     0.005 A 
HETATM   13  C4  UNL     1       6.636  12.373  22.186  1.00  0.00     0.002 A 
HETATM   14  C5  UNL     1       5.928  11.558  23.070  1.00  0.00     0.012 A 
HETATM   15  C6  UNL     1       4.762  10.893  22.656  1.00  0.00    -0.024 A 
HETATM   16  C7  UNL     1       4.040  10.075  23.541  1.00  0.00     0.012 A 
HETATM   17  C8  UNL     1       2.881   9.421  23.123  1.00  0.00     0.002 A 
HETATM   18  C9  UNL     1       2.432   9.576  21.813  1.00  0.00     0.018 A 
HETATM   19  C10 UNL     1       3.144  10.387  20.919  1.00  0.00     0.044 A 
HETATM   20  C12 UNL     1       2.657  10.543  19.530  1.00  0.00     0.261 A 
HETATM   21  O2  UNL     1       1.606   9.999  19.201  1.00  0.00    -0.267 OA
ENDBRANCH   6   7
ENDBRANCH   5   6
ENDBRANCH   3   5
ENDBRANCH   2   3
ENDBRANCH   1   2
BRANCH   1  22
HETATM   22  C17 UNL     1       0.241   7.400  15.065  1.00  0.00     0.271 C 
BRANCH  22  23
HETATM   23  N3  UNL     1      -0.349   6.082  15.294  1.00  0.00     0.085 N 
HETATM   24  H18 UNL     1      -1.172   6.175  15.893  1.00  0.00     0.315 HD
BRANCH  23  25
HETATM   25  C18 UNL     1      -0.743   5.453  14.026  1.00  0.00     0.289 C 
BRANCH  25  26
HETATM   26  C19 UNL     1      -1.841   6.268  13.319  1.00  0.00     0.165 C 
BRANCH  26  27
HETATM   27  N4  UNL     1      -3.057   5.481  13.111  1.00  0.00    -0.278 N 
HETATM   28  C20 UNL     1      -4.268   6.056  13.495  1.00  0.00     0.261 C 
HETATM   29  O3  UNL     1      -4.368   7.186  13.967  1.00  0.00    -0.267 OA
HETATM   30  C21 UNL     1      -5.490   5.244  13.295  1.00  0.00     0.044 A 
HETATM   31  C22 UNL     1      -6.726   5.737  13.733  1.00  0.00     0.018 A 
HETATM   32  C30 UNL     1      -5.398   3.995  12.671  1.00  0.00     0.005 A 
HETATM   33  C23 UNL     1      -7.881   4.981  13.553  1.00  0.00     0.002 A 
HETATM   34  C24 UNL     1      -7.804   3.734  12.932  1.00  0.00     0.012 A 
HETATM   35  C25 UNL     1      -6.573   3.229  12.485  1.00  0.00    -0.024 A 
HETATM   36  C26 UNL     1      -6.486   1.977  11.853  1.00  0.00     0.012 A 
HETATM   37  C27 UNL     1      -5.260   1.486  11.406  1.00  0.00     0.002 A 
HETATM   38  C28 UNL     1      -4.104   2.239  11.588  1.00  0.00     0.018 A 
HETATM   39  C29 UNL     1      -4.173   3.489  12.221  1.00  0.00     0.044 A 
HETATM   40  C31 UNL     1      -2.936   4.279  12.414  1.00  0.00     0.261 C 
HETATM   41  O4  UNL     1      -1.880   3.858  11.953  1.00  0.00    -0.267 OA
ENDBRANCH  26  27
ENDBRANCH  25  26
ENDBRANCH  23  25
ENDBRANCH  22  23
ENDBRANCH   1  22
TORSDOF 10
ENDMDL
MODEL 6
REMARK minimizedAffinity -8.61883163
REMARK CNNscore 0.534578741
REMARK CNNaffinity 6.76998758
REMARK  10 active torsions:
REMARK  status: ('A' for Active; 'I' for Inactive)
REMARK    1  A    between atoms: N1_15  and  C13_16 
REMARK    2  A    between atoms: C13_16  and  C14_17 
REMARK    3  A    between atoms: C14_17  and  N2_18 
REMARK    4  A    between atoms: N2_18  and  C15_19 
REMARK    5  A    between atoms: C15_19  and  C16_20 
REMARK    6  A    between atoms: C16_20  and  C17_21 
REMARK    7  A    between atoms: C17_21  and  N3_22 
REMARK    8  A    between atoms: N3_22  and  C18_23 
REMARK    9  A    between atoms: C18_23  and  C19_24 
REMARK   10  A    between atoms: C19_24  and  N4_25 
ROOT
HETATM    1  C16 UNL     1     -11.991   8.687  14.234  1.00  0.00     0.060 C 
ENDROOT
BRANCH   1   2
HETATM    2  C15 UNL     1     -11.308   7.817  13.173  1.00  0.00     0.271 C 
BRANCH   2   3
HETATM    3  N2  UNL     1     -10.681   6.641  13.791  1.00  0.00     0.085 N 
HETATM    4  H11 UNL     1     -10.699   6.769  14.804  1.00  0.00     0.315 HD
BRANCH   3   5
HETATM    5  C14 UNL     1      -9.273   6.462  13.399  1.00  0.00     0.289 C 
BRANCH   5   6
HETATM    6  C13 UNL     1      -8.384   5.756  14.438  1.00  0.00     0.165 C 
BRANCH   6   7
HETATM    7  N1  UNL     1      -7.259   5.062  13.807  1.00  0.00    -0.278 N 
HETATM    8  C1  UNL     1      -7.523   3.845  13.180  1.00  0.00     0.261 A 
HETATM    9  O1  UNL     1      -8.639   3.336  13.120  1.00  0.00    -0.267 OA
HETATM   10  C2  UNL     1      -6.377   3.155  12.543  1.00  0.00     0.044 A 
HETATM   11  C3  UNL     1      -6.570   1.900  11.951  1.00  0.00     0.018 A 
HETATM   12  C11 UNL     1      -5.118   3.766  12.534  1.00  0.00     0.005 A 
HETATM   13  C4  UNL     1      -5.500   1.245  11.346  1.00  0.00     0.002 A 
HETATM   14  C5  UNL     1      -4.239   1.842  11.328  1.00  0.00     0.012 A 
HETATM   15  C6  UNL     1      -4.033   3.100  11.915  1.00  0.00    -0.024 A 
HETATM   16  C7  UNL     1      -2.768   3.712  11.896  1.00  0.00     0.012 A 
HETATM   17  C8  UNL     1      -2.572   4.964  12.480  1.00  0.00     0.002 A 
HETATM   18  C9  UNL     1      -3.640   5.618  13.089  1.00  0.00     0.018 A 
HETATM   19  C10 UNL     1      -4.906   5.020  13.117  1.00  0.00     0.044 A 
HETATM   20  C12 UNL     1      -6.033   5.726  13.769  1.00  0.00     0.261 A 
HETATM   21  O2  UNL     1      -5.847   6.850  14.228  1.00  0.00    -0.267 OA
ENDBRANCH   6   7
ENDBRANCH   5   6
ENDBRANCH   3   5
ENDBRANCH   2   3
ENDBRANCH   1   2
BRANCH   1  22
HETATM   22  C17 UNL     1     -11.005   9.577  14.995  1.00  0.00     0.271 C 
BRANCH  22  23
HETATM   23  N3  UNL     1     -11.673  10.336  16.052  1.00  0.00     0.085 N 
HETATM   24  H18 UNL     1     -12.573   9.902  16.266  1.00  0.00     0.315 HD
BRANCH  23  25
HETATM   25  C18 UNL     1     -10.854  10.376  17.271  1.00  0.00     0.289 C 
BRANCH  25  26
HETATM   26  C19 UNL     1     -11.586  11.112  18.408  1.00  0.00     0.165 C 
BRANCH  26  27
HETATM   27  N4  UNL     1     -11.857  10.231  19.543  1.00  0.00    -0.278 N 
HETATM   28  C20 UNL     1     -11.229  10.529  20.752  1.00  0.00     0.261 C 
HETATM   29  O3  UNL     1     -10.492  11.499  20.918  1.00  0.00    -0.267 OA
HETATM   30  C21 UNL     1     -11.496   9.621  21.890  1.00  0.00     0.044 A 
HETATM   31  C22 UNL     1     -10.834   9.825  23.108  1.00  0.00     0.018 A 
HETATM   32  C30 UNL     1     -12.408   8.570  21.739  1.00  0.00     0.005 A 
HETATM   33  C23 UNL     1     -11.076   8.975  24.183  1.00  0.00     0.002 A 
HETATM   34  C24 UNL     1     -11.982   7.923  24.046  1.00  0.00     0.012 A 
HETATM   35  C25 UNL     1     -12.656   7.709  22.834  1.00  0.00    -0.024 A 
HETATM   36  C26 UNL     1     -13.576   6.657  22.689  1.00  0.00     0.012 A 
HETATM   37  C27 UNL     1     -14.246   6.455  21.482  1.00  0.00     0.002 A 
HETATM   38  C28 UNL     1     -14.002   7.302  20.404  1.00  0.00     0.018 A 
HETATM   39  C29 UNL     1     -13.084   8.354  20.533  1.00  0.00     0.044 A 
HETATM   40  C31 UNL     1     -12.829   9.245  19.378  1.00  0.00     0.261 C 
HETATM   41  O4  UNL     1     -13.480   9.091  18.349  1.00  0.00    -0.267 OA
ENDBRANCH  26  27
ENDBRANCH  25  26
ENDBRANCH  23  25
ENDBRANCH  22  23
ENDBRANCH   1  22
TORSDOF 10
ENDMDL
MODEL 7
REMARK minimizedAffinity -9.43066216
REMARK CNNscore 0.532457709
REMARK CNNaffinity 6.37943983
REMARK  10 active torsions:
REMARK  status: ('A' for Active; 'I' for Inactive)
REMARK    1  A    between atoms: N1_15  and  C13_16 
REMARK    2  A    between atoms: C13_16  and  C14_17 
REMARK    3  A    between atoms: C14_17  and  N2_18 
REMARK    4  A    between atoms: N2_18  and  C15_19 
REMARK    5  A    between atoms: C15_19  and  C16_20 
REMARK    6  A    between atoms: C16_20  and  C17_21 
REMARK    7  A    between atoms: C17_21  and  N3_22 
REMARK    8  A    between atoms: N3_22  and  C18_23 
REMARK    9  A    between atoms: C18_23  and  C19_24 
REMARK   10  A    between atoms: C19_24  and  N4_25 
ROOT
HETATM    1  C16 UNL     1       2.229   7.748  14.378  1.00  0.00     0.060 C 
ENDROOT
BRANCH   1   2
HETATM    2  C15 UNL     1       1.080   7.154  13.555  1.00  0.00     0.271 C 
BRANCH   2   3
HETATM    3  N2  UNL     1       0.663   5.858  14.106  1.00  0.00     0.085 N 
HETATM    4  H11 UNL     1       1.052   5.123  13.513  1.00  0.00     0.315 HD
BRANCH   3   5
HETATM    5  C14 UNL     1      -0.799   5.678  14.122  1.00  0.00     0.289 C 
BRANCH   5   6
HETATM    6  C13 UNL     1      -1.509   5.922  12.779  1.00  0.00     0.165 C 
BRANCH   6   7
HETATM    7  N1  UNL     1      -2.805   5.245  12.720  1.00  0.00    -0.278 N 
HETATM    8  C1  UNL     1      -3.927   5.966  13.130  1.00  0.00     0.261 A 
HETATM    9  O1  UNL     1      -3.886   7.129  13.524  1.00  0.00    -0.267 OA
HETATM   10  C2  UNL     1      -5.233   5.271  13.062  1.00  0.00     0.044 A 
HETATM   11  C3  UNL     1      -6.386   5.924  13.519  1.00  0.00     0.018 A 
HETATM   12  C11 UNL     1      -5.303   3.975  12.539  1.00  0.00     0.005 A 
HETATM   13  C4  UNL     1      -7.620   5.280  13.456  1.00  0.00     0.002 A 
HETATM   14  C5  UNL     1      -7.706   3.989  12.935  1.00  0.00     0.012 A 
HETATM   15  C6  UNL     1      -6.559   3.325  12.471  1.00  0.00    -0.024 A 
HETATM   16  C7  UNL     1      -6.636   2.027  11.939  1.00  0.00     0.012 A 
HETATM   17  C8  UNL     1      -5.492   1.375  11.478  1.00  0.00     0.002 A 
HETATM   18  C9  UNL     1      -4.256   2.015  11.544  1.00  0.00     0.018 A 
HETATM   19  C10 UNL     1      -4.164   3.309  12.074  1.00  0.00     0.044 A 
HETATM   20  C12 UNL     1      -2.845   3.978  12.141  1.00  0.00     0.261 A 
HETATM   21  O2  UNL     1      -1.861   3.404  11.679  1.00  0.00    -0.267 OA
ENDBRANCH   6   7
ENDBRANCH   5   6
ENDBRANCH   3   5
ENDBRANCH   2   3
ENDBRANCH   1   2
BRANCH   1  22
HETATM   22  C17 UNL     1       1.855   9.074  15.045  1.00  0.00     0.271 C 
BRANCH  22  23
HETATM   23  N3  UNL     1       2.506   9.221  16.347  1.00  0.00     0.085 N 
HETATM   24  H18 UNL     1       3.034   8.373  16.562  1.00  0.00     0.315 HD
BRANCH  23  25
HETATM   25  C18 UNL     1       3.417  10.373  16.354  1.00  0.00     0.289 C 
BRANCH  25  26
HETATM   26  C19 UNL     1       2.897  11.488  17.278  1.00  0.00     0.165 C 
BRANCH  26  27
HETATM   27  N4  UNL     1       3.366  11.321  18.654  1.00  0.00    -0.278 N 
HETATM   28  C20 UNL     1       4.469  12.076  19.052  1.00  0.00     0.261 C 
HETATM   29  O3  UNL     1       5.042  12.884  18.325  1.00  0.00    -0.267 OA
HETATM   30  C21 UNL     1       4.946  11.886  20.441  1.00  0.00     0.044 A 
HETATM   31  C22 UNL     1       6.097  12.558  20.874  1.00  0.00     0.018 A 
HETATM   32  C30 UNL     1       4.243  11.039  21.306  1.00  0.00     0.005 A 
HETATM   33  C23 UNL     1       6.555  12.384  22.177  1.00  0.00     0.002 A 
HETATM   34  C24 UNL     1       5.864  11.543  23.050  1.00  0.00     0.012 A 
HETATM   35  C25 UNL     1       4.708  10.867  22.631  1.00  0.00    -0.024 A 
HETATM   36  C26 UNL     1       4.002  10.023  23.505  1.00  0.00     0.012 A 
HETATM   37  C27 UNL     1       2.850   9.360  23.082  1.00  0.00     0.002 A 
HETATM   38  C28 UNL     1       2.392   9.530  21.779  1.00  0.00     0.018 A 
HETATM   39  C29 UNL     1       3.088  10.365  20.894  1.00  0.00     0.044 A 
HETATM   40  C31 UNL     1       2.595  10.533  19.508  1.00  0.00     0.261 C 
HETATM   41  O4  UNL     1       1.542   9.994  19.178  1.00  0.00    -0.267 OA
ENDBRANCH  26  27
ENDBRANCH  25  26
ENDBRANCH  23  25
ENDBRANCH  22  23
ENDBRANCH   1  22
TORSDOF 10
ENDMDL
MODEL 8
REMARK minimizedAffinity -9.20326424
REMARK CNNscore 0.516591966
REMARK CNNaffinity 6.45453882
REMARK  10 active torsions:
REMARK  status: ('A' for Active; 'I' for Inactive)
REMARK    1  A    between atoms: N1_15  and  C13_16 
REMARK    2  A    between atoms: C13_16  and  C14_17 
REMARK    3  A    between atoms: C14_17  and  N2_18 
REMARK    4  A    between atoms: N2_18  and  C15_19 
REMARK    5  A    between atoms: C15_19  and  C16_20 
REMARK    6  A    between atoms: C16_20  and  C17_21 
REMARK    7  A    between atoms: C17_21  and  N3_22 
REMARK    8  A    between atoms: N3_22  and  C18_23 
REMARK    9  A    between atoms: C18_23  and  C19_24 
REMARK   10  A    between atoms: C19_24  and  N4_25 
ROOT
HETATM    1  C16 UNL     1       0.690   8.268  16.268  1.00  0.00     0.060 C 
ENDROOT
BRANCH   1   2
HETATM    2  C15 UNL     1      -0.343   8.115  15.147  1.00  0.00     0.271 C 
BRANCH   2   3
HETATM    3  N2  UNL     1      -1.260   7.004  15.434  1.00  0.00     0.085 N 
HETATM    4  H11 UNL     1      -1.047   6.651  16.368  1.00  0.00     0.315 HD
BRANCH   3   5
HETATM    5  C14 UNL     1      -1.117   5.877  14.498  1.00  0.00     0.289 C 
BRANCH   5   6
HETATM    6  C13 UNL     1      -1.717   6.101  13.098  1.00  0.00     0.165 C 
BRANCH   6   7
HETATM    7  N1  UNL     1      -2.979   5.380  12.927  1.00  0.00    -0.278 N 
HETATM    8  C1  UNL     1      -2.920   4.105  12.363  1.00  0.00     0.261 A 
HETATM    9  O1  UNL     1      -1.876   3.558  12.018  1.00  0.00    -0.267 OA
HETATM   10  C2  UNL     1      -4.204   3.383  12.199  1.00  0.00     0.044 A 
HETATM   11  C3  UNL     1      -4.214   2.125  11.583  1.00  0.00     0.018 A 
HETATM   12  C11 UNL     1      -5.389   3.963  12.664  1.00  0.00     0.005 A 
HETATM   13  C4  UNL     1      -5.415   1.437  11.426  1.00  0.00     0.002 A 
HETATM   14  C5  UNL     1      -6.605   2.002  11.886  1.00  0.00     0.012 A 
HETATM   15  C6  UNL     1      -6.609   3.260  12.508  1.00  0.00    -0.024 A 
HETATM   16  C7  UNL     1      -7.801   3.834  12.980  1.00  0.00     0.012 A 
HETATM   17  C8  UNL     1      -7.796   5.084  13.599  1.00  0.00     0.002 A 
HETATM   18  C9  UNL     1      -6.597   5.776  13.752  1.00  0.00     0.018 A 
HETATM   19  C10 UNL     1      -5.400   5.217  13.284  1.00  0.00     0.044 A 
HETATM   20  C12 UNL     1      -4.131   5.963  13.452  1.00  0.00     0.261 A 
HETATM   21  O2  UNL     1      -4.146   7.037  14.048  1.00  0.00    -0.267 OA
ENDBRANCH   6   7
ENDBRANCH   5   6
ENDBRANCH   3   5
ENDBRANCH   2   3
ENDBRANCH   1   2
BRANCH   1  22
HETATM   22  C17 UNL     1       2.107   8.507  15.738  1.00  0.00     0.271 C 
BRANCH  22  23
HETATM   23  N3  UNL     1       2.731   9.663  16.381  1.00  0.00     0.085 N 
HETATM   24  H18 UNL     1       3.317  10.155  15.703  1.00  0.00     0.315 HD
BRANCH  23  25
HETATM   25  C18 UNL     1       1.716  10.588  16.902  1.00  0.00     0.289 C 
BRANCH  25  26
HETATM   26  C19 UNL     1       2.367  11.845  17.506  1.00  0.00     0.165 C 
BRANCH  26  27
HETATM   27  N4  UNL     1       2.947  11.581  18.823  1.00  0.00    -0.278 N 
HETATM   28  C20 UNL     1       2.307  10.641  19.630  1.00  0.00     0.261 C 
HETATM   29  O3  UNL     1       1.309  10.011  19.285  1.00  0.00    -0.267 OA
HETATM   30  C21 UNL     1       2.892  10.394  20.967  1.00  0.00     0.044 A 
HETATM   31  C22 UNL     1       2.248   9.519  21.852  1.00  0.00     0.018 A 
HETATM   32  C30 UNL     1       4.081  11.034  21.333  1.00  0.00     0.005 A 
HETATM   33  C23 UNL     1       2.789   9.281  23.113  1.00  0.00     0.002 A 
HETATM   34  C24 UNL     1       3.974   9.913  23.490  1.00  0.00     0.012 A 
HETATM   35  C25 UNL     1       4.632  10.789  22.613  1.00  0.00    -0.024 A 
HETATM   36  C26 UNL     1       5.829  11.425  22.981  1.00  0.00     0.012 A 
HETATM   37  C27 UNL     1       6.479  12.289  22.100  1.00  0.00     0.002 A 
HETATM   38  C28 UNL     1       5.939  12.531  20.840  1.00  0.00     0.018 A 
HETATM   39  C29 UNL     1       4.742  11.906  20.460  1.00  0.00     0.044 A 
HETATM   40  C31 UNL     1       4.173  12.175  19.120  1.00  0.00     0.261 C 
HETATM   41  O4  UNL     1       4.797  12.885  18.336  1.00  0.00    -0.267 OA
ENDBRANCH  26  27
ENDBRANCH  25  26
ENDBRANCH  23  25
ENDBRANCH  22  23
ENDBRANCH   1  22
TORSDOF 10
ENDMDL
MODEL 9
REMARK minimizedAffinity -8.50343227
REMARK CNNscore 0.514312685
REMARK CNNaffinity 6.28688574
REMARK  10 active torsions:
REMARK  status: ('A' for Active; 'I' for Inactive)
REMARK    1  A    between atoms: N1_15  and  C13_16 
REMARK    2  A    between atoms: C13_16  and  C14_17 
REMARK    3  A    between atoms: C14_17  and  N2_18 
REMARK    4  A    between atoms: N2_18  and  C15_19 
REMARK    5  A    between atoms: C15_19  and  C16_20 
REMARK    6  A    between atoms: C16_20  and  C17_21 
REMARK    7  A    between atoms: C17_21  and  N3_22 
REMARK    8  A    between atoms: N3_22  and  C18_23 
REMARK    9  A    between atoms: C18_23  and  C19_24 
REMARK   10  A    between atoms: C19_24  and  N4_25 
ROOT
HETATM    1  C16 UNL     1     -11.196   9.087  15.280  1.00  0.00     0.060 C 
ENDROOT
BRANCH   1   2
HETATM    2  C15 UNL     1     -10.130   8.040  14.942  1.00  0.00     0.271 C 
BRANCH   2   3
HETATM    3  N2  UNL     1     -10.494   7.302  13.725  1.00  0.00     0.085 N 
HETATM    4  H11 UNL     1     -11.269   6.677  13.954  1.00  0.00     0.315 HD
BRANCH   3   5
HETATM    5  C14 UNL     1      -9.399   6.468  13.203  1.00  0.00     0.289 C 
BRANCH   5   6
HETATM    6  C13 UNL     1      -8.411   5.939  14.259  1.00  0.00     0.165 C 
BRANCH   6   7
HETATM    7  N1  UNL     1      -7.293   5.222  13.644  1.00  0.00    -0.278 N 
HETATM    8  C1  UNL     1      -6.027   5.797  13.743  1.00  0.00     0.261 A 
HETATM    9  O1  UNL     1      -5.801   6.857  14.322  1.00  0.00    -0.267 OA
HETATM   10  C2  UNL     1      -4.903   5.059  13.122  1.00  0.00     0.044 A 
HETATM   11  C3  UNL     1      -3.618   5.619  13.136  1.00  0.00     0.018 A 
HETATM   12  C11 UNL     1      -5.135   3.812  12.531  1.00  0.00     0.005 A 
HETATM   13  C4  UNL     1      -2.554   4.931  12.557  1.00  0.00     0.002 A 
HETATM   14  C5  UNL     1      -2.770   3.686  11.966  1.00  0.00     0.012 A 
HETATM   15  C6  UNL     1      -4.051   3.113  11.947  1.00  0.00    -0.024 A 
HETATM   16  C7  UNL     1      -4.276   1.856  11.360  1.00  0.00     0.012 A 
HETATM   17  C8  UNL     1      -5.553   1.293  11.348  1.00  0.00     0.002 A 
HETATM   18  C9  UNL     1      -6.619   1.981  11.923  1.00  0.00     0.018 A 
HETATM   19  C10 UNL     1      -6.409   3.235  12.510  1.00  0.00     0.044 A 
HETATM   20  C12 UNL     1      -7.551   3.957  13.116  1.00  0.00     0.261 A 
HETATM   21  O2  UNL     1      -8.654   3.416  13.140  1.00  0.00    -0.267 OA
ENDBRANCH   6   7
ENDBRANCH   5   6
ENDBRANCH   3   5
ENDBRANCH   2   3
ENDBRANCH   1   2
BRANCH   1  22
HETATM   22  C17 UNL     1     -10.718  10.521  15.032  1.00  0.00     0.271 C 
BRANCH  22  23
HETATM   23  N3  UNL     1     -10.246  11.148  16.266  1.00  0.00     0.085 N 
HETATM   24  H18 UNL     1      -9.842  10.437  16.878  1.00  0.00     0.315 HD
BRANCH  23  25
HETATM   25  C18 UNL     1      -9.232  12.173  15.982  1.00  0.00     0.289 C 
BRANCH  25  26
HETATM   26  C19 UNL     1      -9.511  13.464  16.772  1.00  0.00     0.165 C 
BRANCH  26  27
HETATM   27  N4  UNL     1      -8.930  13.420  18.114  1.00  0.00    -0.278 N 
HETATM   28  C20 UNL     1      -7.643  13.930  18.274  1.00  0.00     0.261 C 
HETATM   29  O3  UNL     1      -6.990  14.435  17.364  1.00  0.00    -0.267 OA
HETATM   30  C21 UNL     1      -7.059  13.864  19.633  1.00  0.00     0.044 A 
HETATM   31  C22 UNL     1      -5.740  14.289  19.840  1.00  0.00     0.018 A 
HETATM   32  C30 UNL     1      -7.829  13.379  20.696  1.00  0.00     0.005 A 
HETATM   33  C23 UNL     1      -5.180  14.229  21.113  1.00  0.00     0.002 A 
HETATM   34  C24 UNL     1      -5.936  13.748  22.182  1.00  0.00     0.012 A 
HETATM   35  C25 UNL     1      -7.260  13.322  21.991  1.00  0.00    -0.024 A 
HETATM   36  C26 UNL     1      -8.032  12.841  23.062  1.00  0.00     0.012 A 
HETATM   37  C27 UNL     1      -9.348  12.426  22.863  1.00  0.00     0.002 A 
HETATM   38  C28 UNL     1      -9.909  12.482  21.591  1.00  0.00     0.018 A 
HETATM   39  C29 UNL     1      -9.150  12.955  20.511  1.00  0.00     0.044 A 
HETATM   40  C31 UNL     1      -9.754  13.006  19.160  1.00  0.00     0.261 C 
HETATM   41  O4  UNL     1     -10.935  12.700  19.022  1.00  0.00    -0.267 OA
ENDBRANCH  26  27
ENDBRANCH  25  26
ENDBRANCH  23  25
ENDBRANCH  22  23
ENDBRANCH   1  22
TORSDOF 10
ENDMDL
