MODEL 1
REMARK minimizedAffinity -9.9829216
REMARK CNNscore 0.801886022
REMARK CNNaffinity 7.1655407
REMARK  13 active torsions:
REMARK  status: ('A' for Active; 'I' for Inactive)
REMARK    1  A    between atoms: O1_2  and  C2_3 
REMARK    2  A    between atoms: C2_3  and  C3_4 
REMARK    3  A    between atoms: C3_4  and  C4_5 
REMARK    4  A    between atoms: C4_5  and  O2_6 
REMARK    5  A    between atoms: O2_6  and  C5_7 
REMARK    6  A    between atoms: C20_23  and  C21_24 
REMARK    7  A    between atoms: C21_24  and  O4_26 
REMARK    8  A    between atoms: C21_24  and  C23_27 
REMARK    9  A    between atoms: C23_27  and  O5_28 
REMARK   10  A    between atoms: C23_27  and  C24_29 
REMARK   11  A    between atoms: C28_34  and  C29_35 
REMARK       I    between atoms: C29_35  and  N1_37 
REMARK   12  A    between atoms: C32_41  and  O8_42 
REMARK   13  A    between atoms: C39_49  and  O9_50 
ROOT
HETATM    1  C5  UNL     1      -3.827  52.249 -24.700  1.00  0.00     0.122 C 
HETATM    2  C6  UNL     1      -4.140  50.747 -24.725  1.00  0.00     0.033 C 
HETATM    3  C7  UNL     1      -4.122  50.159 -23.318  1.00  0.00     0.013 C 
HETATM    4  C8  UNL     1      -2.723  50.270 -22.636  1.00  0.00    -0.026 C 
HETATM    5  C9  UNL     1      -1.975  48.931 -22.842  1.00  0.00     0.016 C 
HETATM    6  C10 UNL     1      -1.879  51.389 -23.325  1.00  0.00     0.071 C 
HETATM    7  C11 UNL     1      -2.744  52.609 -23.670  1.00  0.00     0.045 C 
HETATM    8  C12 UNL     1      -0.647  51.836 -22.542  1.00  0.00     0.161 C 
HETATM    9  O3  UNL     1       0.274  52.437 -23.102  1.00  0.00    -0.292 OA
HETATM   10  C13 UNL     1      -0.583  51.616 -21.069  1.00  0.00    -0.006 C 
HETATM   11  C14 UNL     1      -1.627  51.029 -20.451  1.00  0.00    -0.030 C 
HETATM   12  C15 UNL     1      -2.921  50.596 -21.114  1.00  0.00     0.027 C 
HETATM   13  C16 UNL     1      -3.701  49.499 -20.324  1.00  0.00     0.011 C 
HETATM   14  C17 UNL     1      -3.717  49.677 -18.784  1.00  0.00     0.014 C 
HETATM   15  C18 UNL     1      -2.279  49.802 -18.244  1.00  0.00    -0.002 C 
HETATM   16  C19 UNL     1      -1.527  48.470 -18.517  1.00  0.00     0.019 C 
HETATM   17  C20 UNL     1      -2.077  50.309 -16.765  1.00  0.00     0.034 C 
HETATM   18  C35 UNL     1      -0.648  50.970 -16.793  1.00  0.00     0.016 C 
HETATM   19  C36 UNL     1      -0.290  51.100 -18.286  1.00  0.00     0.026 C 
HETATM   20  C37 UNL     1       0.485  52.301 -18.785  1.00  0.00     0.013 C 
HETATM   21  C38 UNL     1       0.620  52.201 -20.329  1.00  0.00     0.043 C 
HETATM   22  C39 UNL     1      -1.649  51.023 -18.963  1.00  0.00     0.094 C 
ENDROOT
BRANCH  17  23
HETATM   23  C21 UNL     1      -2.458  49.471 -15.499  1.00  0.00     0.087 C 
HETATM   24  C22 UNL     1      -1.318  48.619 -14.942  1.00  0.00     0.049 C 
BRANCH  23  25
HETATM   25  O4  UNL     1      -3.477  48.557 -15.946  1.00  0.00    -0.387 OA
HETATM   26  H33 UNL     1      -4.124  48.457 -15.222  1.00  0.00     0.210 HD
ENDBRANCH  23  25
BRANCH  23  27
HETATM   27  C23 UNL     1      -3.017  50.479 -14.406  1.00  0.00     0.181 C 
BRANCH  27  28
HETATM   28  O5  UNL     1      -3.634  51.620 -15.006  1.00  0.00    -0.390 OA
HETATM   29  H35 UNL     1      -4.216  52.024 -14.336  1.00  0.00     0.210 HD
ENDBRANCH  27  28
BRANCH  27  30
HETATM   30  C24 UNL     1      -2.138  50.885 -13.195  1.00  0.00     0.158 C 
HETATM   31  O6  UNL     1      -0.899  51.522 -13.617  1.00  0.00    -0.373 OA
HETATM   32  C25 UNL     1      -0.354  52.061 -12.405  1.00  0.00     0.185 C 
HETATM   33  C26 UNL     1      -1.552  52.730 -11.772  1.00  0.00     0.028 C 
HETATM   34  C32 UNL     1       0.785  53.069 -12.578  1.00  0.00     0.384 C 
HETATM   35  C27 UNL     1      -1.160  53.199 -10.379  1.00  0.00     0.053 C 
HETATM   36  C33 UNL     1      -2.625  51.648 -11.926  1.00  0.00     0.020 C 
HETATM   37  C28 UNL     1       0.074  54.134 -10.468  1.00  0.00     0.309 C 
HETATM   38  N2  UNL     1       1.194  53.621 -11.297  1.00  0.00     0.128 N 
HETATM   39  H46 UNL     1       1.685  52.897 -10.770  1.00  0.00     0.320 HD
HETATM   40  C34 UNL     1      -4.032  52.223 -11.868  1.00  0.00     0.013 C 
BRANCH  37  41
HETATM   41  C29 UNL     1       0.606  54.364  -9.043  1.00  0.00     0.233 C 
HETATM   42  O7  UNL     1       1.675  54.940  -8.824  1.00  0.00    -0.277 OA
HETATM   43  N1  UNL     1      -0.231  53.837  -8.058  1.00  0.00    -0.249 NA
HETATM   44  C30 UNL     1      -0.307  54.506  -6.782  1.00  0.00     0.113 A 
HETATM   45  C31 UNL     1       0.333  53.176  -6.912  1.00  0.00     0.113 A 
ENDBRANCH  37  41
BRANCH  34  46
HETATM   46  O8  UNL     1       1.900  52.410 -13.150  1.00  0.00    -0.366 OA
HETATM   47  H48 UNL     1       1.582  52.034 -13.983  1.00  0.00     0.212 HD
ENDBRANCH  34  46
ENDBRANCH  27  30
ENDBRANCH  23  27
ENDBRANCH  17  23
BRANCH  22  48
HETATM   48  O9  UNL     1      -2.408  52.221 -18.650  1.00  0.00    -0.384 OA
HETATM   49  H60 UNL     1      -2.064  52.950 -19.193  1.00  0.00     0.211 HD
ENDBRANCH  22  48
BRANCH   1  50
HETATM   50  O2  UNL     1      -3.380  52.619 -26.009  1.00  0.00    -0.386 OA
BRANCH  50  51
HETATM   51  C4  UNL     1      -2.849  51.523 -26.757  1.00  0.00     0.170 C 
BRANCH  51  52
HETATM   52  C3  UNL     1      -1.511  51.920 -27.365  1.00  0.00     0.052 C 
BRANCH  52  53
HETATM   53  C2  UNL     1      -0.362  51.134 -26.746  1.00  0.00     0.169 C 
BRANCH  53  54
HETATM   54  O1  UNL     1       0.705  52.039 -26.452  1.00  0.00    -0.396 OA
HETATM   55  C1  UNL     1       1.949  51.352 -26.363  1.00  0.00     0.201 C 
ENDBRANCH  53  54
ENDBRANCH  52  53
ENDBRANCH  51  52
ENDBRANCH  50  51
ENDBRANCH   1  50
TORSDOF 13
ENDMDL
MODEL 2
REMARK minimizedAffinity -10.2679644
REMARK CNNscore 0.697280347
REMARK CNNaffinity 7.18385696
REMARK  13 active torsions:
REMARK  status: ('A' for Active; 'I' for Inactive)
REMARK    1  A    between atoms: O1_2  and  C2_3 
REMARK    2  A    between atoms: C2_3  and  C3_4 
REMARK    3  A    between atoms: C3_4  and  C4_5 
REMARK    4  A    between atoms: C4_5  and  O2_6 
REMARK    5  A    between atoms: O2_6  and  C5_7 
REMARK    6  A    between atoms: C20_23  and  C21_24 
REMARK    7  A    between atoms: C21_24  and  O4_26 
REMARK    8  A    between atoms: C21_24  and  C23_27 
REMARK    9  A    between atoms: C23_27  and  O5_28 
REMARK   10  A    between atoms: C23_27  and  C24_29 
REMARK   11  A    between atoms: C28_34  and  C29_35 
REMARK       I    between atoms: C29_35  and  N1_37 
REMARK   12  A    between atoms: C32_41  and  O8_42 
REMARK   13  A    between atoms: C39_49  and  O9_50 
ROOT
HETATM    1  C5  UNL     1      -3.671  52.327 -24.946  1.00  0.00     0.122 C 
HETATM    2  C6  UNL     1      -4.022  50.834 -24.911  1.00  0.00     0.033 C 
HETATM    3  C7  UNL     1      -4.005  50.300 -23.483  1.00  0.00     0.013 C 
HETATM    4  C8  UNL     1      -2.597  50.401 -22.817  1.00  0.00    -0.026 C 
HETATM    5  C9  UNL     1      -1.885  49.036 -22.979  1.00  0.00     0.016 C 
HETATM    6  C10 UNL     1      -1.733  51.471 -23.556  1.00  0.00     0.071 C 
HETATM    7  C11 UNL     1      -2.570  52.699 -23.939  1.00  0.00     0.045 C 
HETATM    8  C12 UNL     1      -0.483  51.915 -22.801  1.00  0.00     0.161 C 
HETATM    9  O3  UNL     1       0.449  52.472 -23.391  1.00  0.00    -0.292 OA
HETATM   10  C13 UNL     1      -0.409  51.750 -21.321  1.00  0.00    -0.006 C 
HETATM   11  C14 UNL     1      -1.462  51.213 -20.672  1.00  0.00    -0.030 C 
HETATM   12  C15 UNL     1      -2.773  50.788 -21.307  1.00  0.00     0.027 C 
HETATM   13  C16 UNL     1      -3.573  49.742 -20.470  1.00  0.00     0.011 C 
HETATM   14  C17 UNL     1      -3.569  49.979 -18.938  1.00  0.00     0.014 C 
HETATM   15  C18 UNL     1      -2.124  50.087 -18.415  1.00  0.00    -0.002 C 
HETATM   16  C19 UNL     1      -1.408  48.727 -18.643  1.00  0.00     0.019 C 
HETATM   17  C20 UNL     1      -1.895  50.644 -16.958  1.00  0.00     0.034 C 
HETATM   18  C35 UNL     1      -0.451  51.267 -17.023  1.00  0.00     0.016 C 
HETATM   19  C36 UNL     1      -0.103  51.331 -18.523  1.00  0.00     0.026 C 
HETATM   20  C37 UNL     1       0.697  52.493 -19.074  1.00  0.00     0.013 C 
HETATM   21  C38 UNL     1       0.814  52.332 -20.614  1.00  0.00     0.043 C 
HETATM   22  C39 UNL     1      -1.471  51.264 -19.185  1.00  0.00     0.094 C 
ENDROOT
BRANCH  17  23
HETATM   23  C21 UNL     1      -2.285  49.864 -15.658  1.00  0.00     0.087 C 
HETATM   24  C22 UNL     1      -2.817  48.453 -15.907  1.00  0.00     0.049 C 
BRANCH  23  25
HETATM   25  O4  UNL     1      -3.365  50.618 -15.077  1.00  0.00    -0.387 OA
HETATM   26  H33 UNL     1      -3.261  50.584 -14.107  1.00  0.00     0.210 HD
ENDBRANCH  23  25
BRANCH  23  27
HETATM   27  C23 UNL     1      -1.010  49.844 -14.710  1.00  0.00     0.181 C 
BRANCH  27  28
HETATM   28  O5  UNL     1      -1.061  48.762 -13.779  1.00  0.00    -0.390 OA
HETATM   29  H35 UNL     1      -0.152  48.610 -13.458  1.00  0.00     0.210 HD
ENDBRANCH  27  28
BRANCH  27  30
HETATM   30  C24 UNL     1      -0.519  51.150 -14.033  1.00  0.00     0.158 C 
HETATM   31  O6  UNL     1      -1.470  51.632 -13.042  1.00  0.00    -0.373 OA
HETATM   32  C25 UNL     1      -0.753  52.660 -12.343  1.00  0.00     0.185 C 
HETATM   33  C26 UNL     1       0.586  52.009 -12.080  1.00  0.00     0.028 C 
HETATM   34  C32 UNL     1      -1.378  53.131 -11.028  1.00  0.00     0.384 C 
HETATM   35  C27 UNL     1       1.522  53.055 -11.495  1.00  0.00     0.053 C 
HETATM   36  C33 UNL     1       0.904  51.398 -13.449  1.00  0.00     0.020 C 
HETATM   37  C28 UNL     1       0.890  53.669 -10.219  1.00  0.00     0.309 C 
HETATM   38  N2  UNL     1      -0.524  54.099 -10.360  1.00  0.00     0.128 N 
HETATM   39  H46 UNL     1      -0.548  54.975 -10.884  1.00  0.00     0.320 HD
HETATM   40  C34 UNL     1       1.904  50.256 -13.349  1.00  0.00     0.013 C 
BRANCH  37  41
HETATM   41  C29 UNL     1       1.721  54.899  -9.815  1.00  0.00     0.233 C 
HETATM   42  O7  UNL     1       1.358  55.678  -8.929  1.00  0.00    -0.277 OA
HETATM   43  N1  UNL     1       2.891  55.035 -10.565  1.00  0.00    -0.249 NA
HETATM   44  C30 UNL     1       4.054  55.614  -9.937  1.00  0.00     0.113 A 
HETATM   45  C31 UNL     1       3.318  56.338 -11.001  1.00  0.00     0.113 A 
ENDBRANCH  37  41
BRANCH  34  46
HETATM   46  O8  UNL     1      -2.618  53.757 -11.307  1.00  0.00    -0.366 OA
HETATM   47  H48 UNL     1      -3.146  53.094 -11.774  1.00  0.00     0.212 HD
ENDBRANCH  34  46
ENDBRANCH  27  30
ENDBRANCH  23  27
ENDBRANCH  17  23
BRANCH  22  48
HETATM   48  O9  UNL     1      -2.196  52.491 -18.911  1.00  0.00    -0.384 OA
HETATM   49  H60 UNL     1      -1.839  53.190 -19.484  1.00  0.00     0.211 HD
ENDBRANCH  22  48
BRANCH   1  50
HETATM   50  O2  UNL     1      -3.228  52.637 -26.272  1.00  0.00    -0.386 OA
BRANCH  50  51
HETATM   51  C4  UNL     1      -2.214  51.751 -26.751  1.00  0.00     0.170 C 
BRANCH  51  52
HETATM   52  C3  UNL     1      -1.009  52.556 -27.217  1.00  0.00     0.052 C 
BRANCH  52  53
HETATM   53  C2  UNL     1       0.242  51.689 -27.303  1.00  0.00     0.169 C 
BRANCH  53  54
HETATM   54  O1  UNL     1       1.331  52.400 -26.713  1.00  0.00    -0.396 OA
HETATM   55  C1  UNL     1       2.497  51.585 -26.644  1.00  0.00     0.201 C 
ENDBRANCH  53  54
ENDBRANCH  52  53
ENDBRANCH  51  52
ENDBRANCH  50  51
ENDBRANCH   1  50
TORSDOF 13
ENDMDL
MODEL 3
REMARK minimizedAffinity -9.46255398
REMARK CNNscore 0.660939753
REMARK CNNaffinity 7.52597809
REMARK  13 active torsions:
REMARK  status: ('A' for Active; 'I' for Inactive)
REMARK    1  A    between atoms: O1_2  and  C2_3 
REMARK    2  A    between atoms: C2_3  and  C3_4 
REMARK    3  A    between atoms: C3_4  and  C4_5 
REMARK    4  A    between atoms: C4_5  and  O2_6 
REMARK    5  A    between atoms: O2_6  and  C5_7 
REMARK    6  A    between atoms: C20_23  and  C21_24 
REMARK    7  A    between atoms: C21_24  and  O4_26 
REMARK    8  A    between atoms: C21_24  and  C23_27 
REMARK    9  A    between atoms: C23_27  and  O5_28 
REMARK   10  A    between atoms: C23_27  and  C24_29 
REMARK   11  A    between atoms: C28_34  and  C29_35 
REMARK       I    between atoms: C29_35  and  N1_37 
REMARK   12  A    between atoms: C32_41  and  O8_42 
REMARK   13  A    between atoms: C39_49  and  O9_50 
ROOT
HETATM    1  C5  UNL     1      -0.413  52.406 -19.957  1.00  0.00     0.122 C 
HETATM    2  C6  UNL     1       0.211  51.435 -20.968  1.00  0.00     0.033 C 
HETATM    3  C7  UNL     1      -0.865  50.688 -21.748  1.00  0.00     0.013 C 
HETATM    4  C8  UNL     1      -1.765  49.799 -20.834  1.00  0.00    -0.026 C 
HETATM    5  C9  UNL     1      -1.212  48.354 -20.867  1.00  0.00     0.016 C 
HETATM    6  C10 UNL     1      -1.685  50.297 -19.357  1.00  0.00     0.071 C 
HETATM    7  C11 UNL     1      -1.670  51.831 -19.284  1.00  0.00     0.045 C 
HETATM    8  C12 UNL     1      -2.772  49.749 -18.436  1.00  0.00     0.161 C 
HETATM    9  O3  UNL     1      -2.634  49.775 -17.210  1.00  0.00    -0.292 OA
HETATM   10  C13 UNL     1      -4.051  49.246 -19.014  1.00  0.00    -0.006 C 
HETATM   11  C14 UNL     1      -4.227  49.294 -20.349  1.00  0.00    -0.030 C 
HETATM   12  C15 UNL     1      -3.244  49.866 -21.353  1.00  0.00     0.027 C 
HETATM   13  C16 UNL     1      -3.435  49.326 -22.805  1.00  0.00     0.011 C 
HETATM   14  C17 UNL     1      -4.907  49.167 -23.263  1.00  0.00     0.014 C 
HETATM   15  C18 UNL     1      -5.689  48.294 -22.263  1.00  0.00    -0.002 C 
HETATM   16  C19 UNL     1      -5.079  46.865 -22.266  1.00  0.00     0.019 C 
HETATM   17  C20 UNL     1      -7.262  48.271 -22.360  1.00  0.00     0.034 C 
HETATM   18  C35 UNL     1      -7.719  47.932 -20.892  1.00  0.00     0.016 C 
HETATM   19  C36 UNL     1      -6.460  48.115 -20.023  1.00  0.00     0.026 C 
HETATM   20  C37 UNL     1      -6.572  48.681 -18.623  1.00  0.00     0.013 C 
HETATM   21  C38 UNL     1      -5.144  48.831 -18.030  1.00  0.00     0.043 C 
HETATM   22  C39 UNL     1      -5.583  49.006 -20.890  1.00  0.00     0.094 C 
ENDROOT
BRANCH  17  23
HETATM   23  C21 UNL     1      -8.050  47.596 -23.533  1.00  0.00     0.087 C 
HETATM   24  C22 UNL     1      -9.526  47.336 -23.232  1.00  0.00     0.049 C 
BRANCH  23  25
HETATM   25  O4  UNL     1      -7.430  46.309 -23.711  1.00  0.00    -0.387 OA
HETATM   26  H33 UNL     1      -7.423  46.114 -24.668  1.00  0.00     0.210 HD
ENDBRANCH  23  25
BRANCH  23  27
HETATM   27  C23 UNL     1      -7.874  48.513 -24.819  1.00  0.00     0.181 C 
BRANCH  27  28
HETATM   28  O5  UNL     1      -8.802  49.599 -24.826  1.00  0.00    -0.390 OA
HETATM   29  H35 UNL     1      -8.454  50.277 -25.434  1.00  0.00     0.210 HD
ENDBRANCH  27  28
BRANCH  27  30
HETATM   30  C24 UNL     1      -7.746  47.871 -26.225  1.00  0.00     0.158 C 
HETATM   31  O6  UNL     1      -8.645  48.493 -27.185  1.00  0.00    -0.373 OA
HETATM   32  C25 UNL     1      -8.212  47.979 -28.452  1.00  0.00     0.185 C 
HETATM   33  C26 UNL     1      -6.709  48.135 -28.376  1.00  0.00     0.028 C 
HETATM   34  C32 UNL     1      -8.756  48.702 -29.685  1.00  0.00     0.384 C 
HETATM   35  C27 UNL     1      -6.095  47.461 -29.592  1.00  0.00     0.053 C 
HETATM   36  C33 UNL     1      -6.413  47.580 -26.979  1.00  0.00     0.020 C 
HETATM   37  C28 UNL     1      -6.697  48.064 -30.888  1.00  0.00     0.309 C 
HETATM   38  N2  UNL     1      -8.179  48.163 -30.905  1.00  0.00     0.128 N 
HETATM   39  H46 UNL     1      -8.567  47.233 -31.068  1.00  0.00     0.320 HD
HETATM   40  C34 UNL     1      -5.091  48.089 -26.428  1.00  0.00     0.013 C 
BRANCH  37  41
HETATM   41  C29 UNL     1      -6.267  47.183 -32.073  1.00  0.00     0.233 C 
HETATM   42  O7  UNL     1      -7.085  46.655 -32.832  1.00  0.00    -0.277 OA
HETATM   43  N1  UNL     1      -4.882  47.039 -32.170  1.00  0.00    -0.249 NA
HETATM   44  C30 UNL     1      -4.290  46.895 -33.477  1.00  0.00     0.113 A 
HETATM   45  C31 UNL     1      -4.314  45.764 -32.519  1.00  0.00     0.113 A 
ENDBRANCH  37  41
BRANCH  34  46
HETATM   46  O8  UNL     1     -10.159  48.519 -29.743  1.00  0.00    -0.366 OA
HETATM   47  H48 UNL     1     -10.503  48.864 -28.907  1.00  0.00     0.212 HD
ENDBRANCH  34  46
ENDBRANCH  27  30
ENDBRANCH  23  27
ENDBRANCH  17  23
BRANCH  22  48
HETATM   48  O9  UNL     1      -6.180  50.327 -20.976  1.00  0.00    -0.384 OA
HETATM   49  H60 UNL     1      -6.008  50.794 -20.142  1.00  0.00     0.211 HD
ENDBRANCH  22  48
BRANCH   1  50
HETATM   50  O2  UNL     1       0.575  52.687 -18.960  1.00  0.00    -0.386 OA
BRANCH  50  51
HETATM   51  C4  UNL     1       0.404  51.923 -17.764  1.00  0.00     0.170 C 
BRANCH  51  52
HETATM   52  C3  UNL     1       1.597  52.140 -16.844  1.00  0.00     0.052 C 
BRANCH  52  53
HETATM   53  C2  UNL     1       1.166  52.246 -15.386  1.00  0.00     0.169 C 
BRANCH  53  54
HETATM   54  O1  UNL     1       0.173  51.252 -15.129  1.00  0.00    -0.396 OA
HETATM   55  C1  UNL     1      -0.594  51.581 -13.975  1.00  0.00     0.201 C 
ENDBRANCH  53  54
ENDBRANCH  52  53
ENDBRANCH  51  52
ENDBRANCH  50  51
ENDBRANCH   1  50
TORSDOF 13
ENDMDL
MODEL 4
REMARK minimizedAffinity -8.53239727
REMARK CNNscore 0.471572459
REMARK CNNaffinity 7.29282141
REMARK  13 active torsions:
REMARK  status: ('A' for Active; 'I' for Inactive)
REMARK    1  A    between atoms: O1_2  and  C2_3 
REMARK    2  A    between atoms: C2_3  and  C3_4 
REMARK    3  A    between atoms: C3_4  and  C4_5 
REMARK    4  A    between atoms: C4_5  and  O2_6 
REMARK    5  A    between atoms: O2_6  and  C5_7 
REMARK    6  A    between atoms: C20_23  and  C21_24 
REMARK    7  A    between atoms: C21_24  and  O4_26 
REMARK    8  A    between atoms: C21_24  and  C23_27 
REMARK    9  A    between atoms: C23_27  and  O5_28 
REMARK   10  A    between atoms: C23_27  and  C24_29 
REMARK   11  A    between atoms: C28_34  and  C29_35 
REMARK       I    between atoms: C29_35  and  N1_37 
REMARK   12  A    between atoms: C32_41  and  O8_42 
REMARK   13  A    between atoms: C39_49  and  O9_50 
ROOT
HETATM    1  C5  UNL     1      -0.924  51.697 -20.416  1.00  0.00     0.122 C 
HETATM    2  C6  UNL     1      -0.320  50.592 -21.293  1.00  0.00     0.033 C 
HETATM    3  C7  UNL     1      -1.370  49.994 -22.222  1.00  0.00     0.013 C 
HETATM    4  C8  UNL     1      -2.538  49.305 -21.450  1.00  0.00    -0.026 C 
HETATM    5  C9  UNL     1      -2.236  47.790 -21.363  1.00  0.00     0.016 C 
HETATM    6  C10 UNL     1      -2.608  49.852 -19.989  1.00  0.00     0.071 C 
HETATM    7  C11 UNL     1      -2.349  51.365 -19.945  1.00  0.00     0.045 C 
HETATM    8  C12 UNL     1      -3.903  49.530 -19.246  1.00  0.00     0.161 C 
HETATM    9  O3  UNL     1      -3.957  49.590 -18.014  1.00  0.00    -0.292 OA
HETATM   10  C13 UNL     1      -5.141  49.214 -20.014  1.00  0.00    -0.006 C 
HETATM   11  C14 UNL     1      -5.095  49.228 -21.361  1.00  0.00    -0.030 C 
HETATM   12  C15 UNL     1      -3.885  49.586 -22.203  1.00  0.00     0.027 C 
HETATM   13  C16 UNL     1      -3.933  49.018 -23.656  1.00  0.00     0.011 C 
HETATM   14  C17 UNL     1      -5.321  49.077 -24.344  1.00  0.00     0.014 C 
HETATM   15  C18 UNL     1      -6.384  48.390 -23.467  1.00  0.00    -0.002 C 
HETATM   16  C19 UNL     1      -6.028  46.882 -23.342  1.00  0.00     0.019 C 
HETATM   17  C20 UNL     1      -7.904  48.616 -23.818  1.00  0.00     0.034 C 
HETATM   18  C35 UNL     1      -8.636  48.423 -22.437  1.00  0.00     0.016 C 
HETATM   19  C36 UNL     1      -7.516  48.442 -21.379  1.00  0.00     0.026 C 
HETATM   20  C37 UNL     1      -7.750  49.082 -20.027  1.00  0.00     0.013 C 
HETATM   21  C38 UNL     1      -6.429  49.027 -19.213  1.00  0.00     0.043 C 
HETATM   22  C39 UNL     1      -6.378  49.138 -22.109  1.00  0.00     0.094 C 
ENDROOT
BRANCH  17  23
HETATM   23  C21 UNL     1      -8.600  48.024 -25.089  1.00  0.00     0.087 C 
HETATM   24  C22 UNL     1      -9.511  49.007 -25.823  1.00  0.00     0.049 C 
BRANCH  23  25
HETATM   25  O4  UNL     1      -9.443  46.965 -24.598  1.00  0.00    -0.387 OA
HETATM   26  H33 UNL     1      -9.423  46.242 -25.254  1.00  0.00     0.210 HD
ENDBRANCH  23  25
BRANCH  23  27
HETATM   27  C23 UNL     1      -7.459  47.466 -26.044  1.00  0.00     0.181 C 
BRANCH  27  28
HETATM   28  O5  UNL     1      -6.448  48.447 -26.289  1.00  0.00    -0.390 OA
HETATM   29  H35 UNL     1      -5.652  47.975 -26.597  1.00  0.00     0.210 HD
ENDBRANCH  27  28
BRANCH  27  30
HETATM   30  C24 UNL     1      -7.830  46.702 -27.342  1.00  0.00     0.158 C 
HETATM   31  O6  UNL     1      -6.922  47.020 -28.433  1.00  0.00    -0.373 OA
HETATM   32  C25 UNL     1      -7.235  46.049 -29.441  1.00  0.00     0.185 C 
HETATM   33  C26 UNL     1      -7.296  44.761 -28.653  1.00  0.00     0.028 C 
HETATM   34  C32 UNL     1      -6.222  45.923 -30.582  1.00  0.00     0.384 C 
HETATM   35  C27 UNL     1      -7.800  43.659 -29.572  1.00  0.00     0.053 C 
HETATM   36  C33 UNL     1      -8.144  45.179 -27.447  1.00  0.00     0.020 C 
HETATM   37  C28 UNL     1      -6.885  43.557 -30.820  1.00  0.00     0.309 C 
HETATM   38  N2  UNL     1      -6.588  44.849 -31.490  1.00  0.00     0.128 N 
HETATM   39  H46 UNL     1      -7.411  45.136 -32.023  1.00  0.00     0.320 HD
HETATM   40  C34 UNL     1      -7.930  44.265 -26.251  1.00  0.00     0.013 C 
BRANCH  37  41
HETATM   41  C29 UNL     1      -7.570  42.638 -31.845  1.00  0.00     0.233 C 
HETATM   42  O7  UNL     1      -7.269  42.646 -33.042  1.00  0.00    -0.277 OA
HETATM   43  N1  UNL     1      -8.560  41.833 -31.279  1.00  0.00    -0.249 NA
HETATM   44  C30 UNL     1      -8.788  40.521 -31.833  1.00  0.00     0.113 A 
HETATM   45  C31 UNL     1      -9.792  41.602 -31.985  1.00  0.00     0.113 A 
ENDBRANCH  37  41
BRANCH  34  46
HETATM   46  O8  UNL     1      -6.204  47.134 -31.316  1.00  0.00    -0.366 OA
HETATM   47  H48 UNL     1      -5.984  47.825 -30.675  1.00  0.00     0.212 HD
ENDBRANCH  34  46
ENDBRANCH  27  30
ENDBRANCH  23  27
ENDBRANCH  17  23
BRANCH  22  48
HETATM   48  O9  UNL     1      -6.725  50.532 -22.317  1.00  0.00    -0.384 OA
HETATM   49  H60 UNL     1      -6.610  51.003 -21.475  1.00  0.00     0.211 HD
ENDBRANCH  22  48
BRANCH   1  50
HETATM   50  O2  UNL     1      -0.073  51.861 -19.277  1.00  0.00    -0.386 OA
BRANCH  50  51
HETATM   51  C4  UNL     1       1.025  52.745 -19.514  1.00  0.00     0.170 C 
BRANCH  51  52
HETATM   52  C3  UNL     1       0.622  53.799 -20.535  1.00  0.00     0.052 C 
BRANCH  52  53
HETATM   53  C2  UNL     1       1.786  54.169 -21.446  1.00  0.00     0.169 C 
BRANCH  53  54
HETATM   54  O1  UNL     1       1.267  54.531 -22.727  1.00  0.00    -0.396 OA
HETATM   55  C1  UNL     1       0.642  53.419 -23.359  1.00  0.00     0.201 C 
ENDBRANCH  53  54
ENDBRANCH  52  53
ENDBRANCH  51  52
ENDBRANCH  50  51
ENDBRANCH   1  50
TORSDOF 13
ENDMDL
MODEL 5
REMARK minimizedAffinity -9.41741657
REMARK CNNscore 0.440793723
REMARK CNNaffinity 6.93903589
REMARK  13 active torsions:
REMARK  status: ('A' for Active; 'I' for Inactive)
REMARK    1  A    between atoms: O1_2  and  C2_3 
REMARK    2  A    between atoms: C2_3  and  C3_4 
REMARK    3  A    between atoms: C3_4  and  C4_5 
REMARK    4  A    between atoms: C4_5  and  O2_6 
REMARK    5  A    between atoms: O2_6  and  C5_7 
REMARK    6  A    between atoms: C20_23  and  C21_24 
REMARK    7  A    between atoms: C21_24  and  O4_26 
REMARK    8  A    between atoms: C21_24  and  C23_27 
REMARK    9  A    between atoms: C23_27  and  O5_28 
REMARK   10  A    between atoms: C23_27  and  C24_29 
REMARK   11  A    between atoms: C28_34  and  C29_35 
REMARK       I    between atoms: C29_35  and  N1_37 
REMARK   12  A    between atoms: C32_41  and  O8_42 
REMARK   13  A    between atoms: C39_49  and  O9_50 
ROOT
HETATM    1  C5  UNL     1      -3.052  49.523 -27.393  1.00  0.00     0.122 C 
HETATM    2  C6  UNL     1      -3.050  51.032 -27.118  1.00  0.00     0.033 C 
HETATM    3  C7  UNL     1      -2.559  51.332 -25.705  1.00  0.00     0.013 C 
HETATM    4  C8  UNL     1      -3.480  50.720 -24.604  1.00  0.00    -0.026 C 
HETATM    5  C9  UNL     1      -4.466  51.816 -24.133  1.00  0.00     0.016 C 
HETATM    6  C10 UNL     1      -4.328  49.554 -25.203  1.00  0.00     0.071 C 
HETATM    7  C11 UNL     1      -3.498  48.700 -26.173  1.00  0.00     0.045 C 
HETATM    8  C12 UNL     1      -4.998  48.653 -24.169  1.00  0.00     0.161 C 
HETATM    9  O3  UNL     1      -5.949  47.930 -24.481  1.00  0.00    -0.292 OA
HETATM   10  C13 UNL     1      -4.454  48.580 -22.783  1.00  0.00    -0.006 C 
HETATM   11  C14 UNL     1      -3.367  49.312 -22.469  1.00  0.00    -0.030 C 
HETATM   12  C15 UNL     1      -2.587  50.196 -23.425  1.00  0.00     0.027 C 
HETATM   13  C16 UNL     1      -1.748  51.307 -22.720  1.00  0.00     0.011 C 
HETATM   14  C17 UNL     1      -1.035  50.868 -21.415  1.00  0.00     0.014 C 
HETATM   15  C18 UNL     1      -2.048  50.258 -20.428  1.00  0.00    -0.002 C 
HETATM   16  C19 UNL     1      -3.066  51.358 -20.015  1.00  0.00     0.019 C 
HETATM   17  C20 UNL     1      -1.497  49.460 -19.186  1.00  0.00     0.034 C 
HETATM   18  C35 UNL     1      -2.655  48.448 -18.852  1.00  0.00     0.016 C 
HETATM   19  C36 UNL     1      -3.596  48.492 -20.071  1.00  0.00     0.026 C 
HETATM   20  C37 UNL     1      -4.287  47.233 -20.551  1.00  0.00     0.013 C 
HETATM   21  C38 UNL     1      -5.093  47.564 -21.836  1.00  0.00     0.043 C 
HETATM   22  C39 UNL     1      -2.702  49.059 -21.163  1.00  0.00     0.094 C 
ENDROOT
BRANCH  17  23
HETATM   23  C21 UNL     1      -0.758  50.132 -17.980  1.00  0.00     0.087 C 
HETATM   24  C22 UNL     1      -0.022  51.424 -18.333  1.00  0.00     0.049 C 
BRANCH  23  25
HETATM   25  O4  UNL     1       0.244  49.181 -17.575  1.00  0.00    -0.387 OA
HETATM   26  H33 UNL     1       0.311  49.217 -16.602  1.00  0.00     0.210 HD
ENDBRANCH  23  25
BRANCH  23  27
HETATM   27  C23 UNL     1      -1.832  50.371 -16.833  1.00  0.00     0.181 C 
BRANCH  27  28
HETATM   28  O5  UNL     1      -2.696  51.468 -17.137  1.00  0.00    -0.390 OA
HETATM   29  H35 UNL     1      -3.496  51.371 -16.589  1.00  0.00     0.210 HD
ENDBRANCH  27  28
BRANCH  27  30
HETATM   30  C24 UNL     1      -1.396  50.392 -15.345  1.00  0.00     0.158 C 
HETATM   31  O6  UNL     1      -0.015  50.827 -15.194  1.00  0.00    -0.373 OA
HETATM   32  C25 UNL     1       0.130  51.044 -13.784  1.00  0.00     0.185 C 
HETATM   33  C26 UNL     1      -1.116  51.829 -13.440  1.00  0.00     0.028 C 
HETATM   34  C32 UNL     1       1.377  51.819 -13.354  1.00  0.00     0.384 C 
HETATM   35  C27 UNL     1      -1.186  51.979 -11.928  1.00  0.00     0.053 C 
HETATM   36  C33 UNL     1      -2.197  51.022 -14.166  1.00  0.00     0.020 C 
HETATM   37  C28 UNL     1       0.110  52.650 -11.406  1.00  0.00     0.309 C 
HETATM   38  N2  UNL     1       1.374  52.064 -11.922  1.00  0.00     0.128 N 
HETATM   39  H46 UNL     1       1.546  51.182 -11.438  1.00  0.00     0.320 HD
HETATM   40  C34 UNL     1      -3.444  51.849 -14.439  1.00  0.00     0.013 C 
BRANCH  37  41
HETATM   41  C29 UNL     1       0.127  52.536  -9.872  1.00  0.00     0.233 C 
HETATM   42  O7  UNL     1       1.174  52.572  -9.220  1.00  0.00    -0.277 OA
HETATM   43  N1  UNL     1      -1.147  52.370  -9.325  1.00  0.00    -0.249 NA
HETATM   44  C30 UNL     1      -1.420  52.925  -8.022  1.00  0.00     0.113 A 
HETATM   45  C31 UNL     1      -1.346  51.459  -8.229  1.00  0.00     0.113 A 
ENDBRANCH  37  41
BRANCH  34  46
HETATM   46  O8  UNL     1       2.526  51.051 -13.667  1.00  0.00    -0.366 OA
HETATM   47  H48 UNL     1       2.478  50.886 -14.619  1.00  0.00     0.212 HD
ENDBRANCH  34  46
ENDBRANCH  27  30
ENDBRANCH  23  27
ENDBRANCH  17  23
BRANCH  22  48
HETATM   48  O9  UNL     1      -1.685  48.082 -21.505  1.00  0.00    -0.384 OA
HETATM   49  H60 UNL     1      -2.096  47.395 -22.055  1.00  0.00     0.211 HD
ENDBRANCH  22  48
BRANCH   1  50
HETATM   50  O2  UNL     1      -3.949  49.283 -28.483  1.00  0.00    -0.386 OA
BRANCH  50  51
HETATM   51  C4  UNL     1      -4.720  48.089 -28.328  1.00  0.00     0.170 C 
BRANCH  51  52
HETATM   52  C3  UNL     1      -5.858  48.081 -29.339  1.00  0.00     0.052 C 
BRANCH  52  53
HETATM   53  C2  UNL     1      -5.703  46.949 -30.346  1.00  0.00     0.169 C 
BRANCH  53  54
HETATM   54  O1  UNL     1      -4.561  47.215 -31.161  1.00  0.00    -0.396 OA
HETATM   55  C1  UNL     1      -4.775  46.783 -32.501  1.00  0.00     0.201 C 
ENDBRANCH  53  54
ENDBRANCH  52  53
ENDBRANCH  51  52
ENDBRANCH  50  51
ENDBRANCH   1  50
TORSDOF 13
ENDMDL
MODEL 6
REMARK minimizedAffinity -8.79225922
REMARK CNNscore 0.426350743
REMARK CNNaffinity 6.82827187
REMARK  13 active torsions:
REMARK  status: ('A' for Active; 'I' for Inactive)
REMARK    1  A    between atoms: O1_2  and  C2_3 
REMARK    2  A    between atoms: C2_3  and  C3_4 
REMARK    3  A    between atoms: C3_4  and  C4_5 
REMARK    4  A    between atoms: C4_5  and  O2_6 
REMARK    5  A    between atoms: O2_6  and  C5_7 
REMARK    6  A    between atoms: C20_23  and  C21_24 
REMARK    7  A    between atoms: C21_24  and  O4_26 
REMARK    8  A    between atoms: C21_24  and  C23_27 
REMARK    9  A    between atoms: C23_27  and  O5_28 
REMARK   10  A    between atoms: C23_27  and  C24_29 
REMARK   11  A    between atoms: C28_34  and  C29_35 
REMARK       I    between atoms: C29_35  and  N1_37 
REMARK   12  A    between atoms: C32_41  and  O8_42 
REMARK   13  A    between atoms: C39_49  and  O9_50 
ROOT
HETATM    1  C5  UNL     1      -3.788  50.778 -19.938  1.00  0.00     0.122 C 
HETATM    2  C6  UNL     1      -3.426  51.307 -21.332  1.00  0.00     0.033 C 
HETATM    3  C7  UNL     1      -4.475  50.904 -22.362  1.00  0.00     0.013 C 
HETATM    4  C8  UNL     1      -4.590  49.357 -22.533  1.00  0.00    -0.026 C 
HETATM    5  C9  UNL     1      -3.725  48.937 -23.745  1.00  0.00     0.016 C 
HETATM    6  C10 UNL     1      -4.013  48.636 -21.274  1.00  0.00     0.071 C 
HETATM    7  C11 UNL     1      -4.402  49.369 -19.982  1.00  0.00     0.045 C 
HETATM    8  C12 UNL     1      -4.381  47.159 -21.157  1.00  0.00     0.161 C 
HETATM    9  O3  UNL     1      -3.732  46.400 -20.431  1.00  0.00    -0.292 OA
HETATM   10  C13 UNL     1      -5.584  46.634 -21.866  1.00  0.00    -0.006 C 
HETATM   11  C14 UNL     1      -6.334  47.484 -22.595  1.00  0.00    -0.030 C 
HETATM   12  C15 UNL     1      -6.098  48.976 -22.737  1.00  0.00     0.027 C 
HETATM   13  C16 UNL     1      -6.746  49.601 -24.012  1.00  0.00     0.011 C 
HETATM   14  C17 UNL     1      -8.158  49.067 -24.366  1.00  0.00     0.014 C 
HETATM   15  C18 UNL     1      -8.139  47.531 -24.476  1.00  0.00    -0.002 C 
HETATM   16  C19 UNL     1      -7.215  47.128 -25.660  1.00  0.00     0.019 C 
HETATM   17  C20 UNL     1      -9.516  46.765 -24.507  1.00  0.00     0.034 C 
HETATM   18  C35 UNL     1      -9.165  45.347 -23.922  1.00  0.00     0.016 C 
HETATM   19  C36 UNL     1      -7.761  45.499 -23.304  1.00  0.00     0.026 C 
HETATM   20  C37 UNL     1      -7.401  44.765 -22.030  1.00  0.00     0.013 C 
HETATM   21  C38 UNL     1      -5.966  45.177 -21.604  1.00  0.00     0.043 C 
HETATM   22  C39 UNL     1      -7.646  47.003 -23.104  1.00  0.00     0.094 C 
ENDROOT
BRANCH  17  23
HETATM   23  C21 UNL     1     -10.513  46.819 -25.713  1.00  0.00     0.087 C 
HETATM   24  C22 UNL     1     -11.987  46.848 -25.311  1.00  0.00     0.049 C 
BRANCH  23  25
HETATM   25  O4  UNL     1     -10.303  45.587 -26.429  1.00  0.00    -0.387 OA
HETATM   26  H33 UNL     1     -10.391  45.780 -27.382  1.00  0.00     0.210 HD
ENDBRANCH  23  25
BRANCH  23  27
HETATM   27  C23 UNL     1     -10.128  48.081 -26.598  1.00  0.00     0.181 C 
BRANCH  27  28
HETATM   28  O5  UNL     1     -10.915  49.224 -26.259  1.00  0.00    -0.390 OA
HETATM   29  H35 UNL     1     -10.442  50.012 -26.585  1.00  0.00     0.210 HD
ENDBRANCH  27  28
BRANCH  27  30
HETATM   30  C24 UNL     1      -9.970  47.940 -28.134  1.00  0.00     0.158 C 
HETATM   31  O6  UNL     1      -9.025  46.891 -28.485  1.00  0.00    -0.373 OA
HETATM   32  C25 UNL     1      -9.202  46.720 -29.898  1.00  0.00     0.185 C 
HETATM   33  C26 UNL     1     -10.707  46.675 -30.039  1.00  0.00     0.028 C 
HETATM   34  C32 UNL     1      -8.579  45.458 -30.499  1.00  0.00     0.384 C 
HETATM   35  C27 UNL     1     -11.050  46.675 -31.521  1.00  0.00     0.053 C 
HETATM   36  C33 UNL     1     -11.132  47.864 -29.170  1.00  0.00     0.020 C 
HETATM   37  C28 UNL     1     -10.346  45.485 -32.222  1.00  0.00     0.309 C 
HETATM   38  N2  UNL     1      -8.901  45.337 -31.911  1.00  0.00     0.128 N 
HETATM   39  H46 UNL     1      -8.381  46.048 -32.429  1.00  0.00     0.320 HD
HETATM   40  C34 UNL     1     -12.573  47.744 -28.701  1.00  0.00     0.013 C 
BRANCH  37  41
HETATM   41  C29 UNL     1     -10.486  45.672 -33.743  1.00  0.00     0.233 C 
HETATM   42  O7  UNL     1      -9.602  46.194 -34.427  1.00  0.00    -0.277 OA
HETATM   43  N1  UNL     1     -11.709  45.213 -34.236  1.00  0.00    -0.249 NA
HETATM   44  C30 UNL     1     -11.757  44.664 -35.570  1.00  0.00     0.113 A 
HETATM   45  C31 UNL     1     -12.402  45.961 -35.252  1.00  0.00     0.113 A 
ENDBRANCH  37  41
BRANCH  34  46
HETATM   46  O8  UNL     1      -7.170  45.538 -30.374  1.00  0.00    -0.366 OA
HETATM   47  H48 UNL     1      -6.997  45.644 -29.428  1.00  0.00     0.212 HD
ENDBRANCH  34  46
ENDBRANCH  27  30
ENDBRANCH  23  27
ENDBRANCH  17  23
BRANCH  22  48
HETATM   48  O9  UNL     1      -8.566  47.418 -22.061  1.00  0.00    -0.384 OA
HETATM   49  H60 UNL     1      -8.185  47.171 -21.202  1.00  0.00     0.211 HD
ENDBRANCH  22  48
BRANCH   1  50
HETATM   50  O2  UNL     1      -2.587  50.750 -19.160  1.00  0.00    -0.386 OA
BRANCH  50  51
HETATM   51  C4  UNL     1      -1.403  50.925 -19.940  1.00  0.00     0.170 C 
BRANCH  51  52
HETATM   52  C3  UNL     1      -0.217  51.177 -19.020  1.00  0.00     0.052 C 
BRANCH  52  53
HETATM   53  C2  UNL     1       0.091  52.664 -18.900  1.00  0.00     0.169 C 
BRANCH  53  54
HETATM   54  O1  UNL     1      -0.026  53.262 -20.192  1.00  0.00    -0.396 OA
HETATM   55  C1  UNL     1       1.190  53.895 -20.576  1.00  0.00     0.201 C 
ENDBRANCH  53  54
ENDBRANCH  52  53
ENDBRANCH  51  52
ENDBRANCH  50  51
ENDBRANCH   1  50
TORSDOF 13
ENDMDL
MODEL 7
REMARK minimizedAffinity -10.3043957
REMARK CNNscore 0.406267881
REMARK CNNaffinity 6.95511246
REMARK  13 active torsions:
REMARK  status: ('A' for Active; 'I' for Inactive)
REMARK    1  A    between atoms: O1_2  and  C2_3 
REMARK    2  A    between atoms: C2_3  and  C3_4 
REMARK    3  A    between atoms: C3_4  and  C4_5 
REMARK    4  A    between atoms: C4_5  and  O2_6 
REMARK    5  A    between atoms: O2_6  and  C5_7 
REMARK    6  A    between atoms: C20_23  and  C21_24 
REMARK    7  A    between atoms: C21_24  and  O4_26 
REMARK    8  A    between atoms: C21_24  and  C23_27 
REMARK    9  A    between atoms: C23_27  and  O5_28 
REMARK   10  A    between atoms: C23_27  and  C24_29 
REMARK   11  A    between atoms: C28_34  and  C29_35 
REMARK       I    between atoms: C29_35  and  N1_37 
REMARK   12  A    between atoms: C32_41  and  O8_42 
REMARK   13  A    between atoms: C39_49  and  O9_50 
ROOT
HETATM    1  C5  UNL     1      -2.300  49.578 -26.620  1.00  0.00     0.122 C 
HETATM    2  C6  UNL     1      -2.242  51.068 -26.260  1.00  0.00     0.033 C 
HETATM    3  C7  UNL     1      -1.836  51.265 -24.803  1.00  0.00     0.013 C 
HETATM    4  C8  UNL     1      -2.860  50.645 -23.802  1.00  0.00    -0.026 C 
HETATM    5  C9  UNL     1      -3.821  51.765 -23.336  1.00  0.00     0.016 C 
HETATM    6  C10 UNL     1      -3.721  49.560 -24.522  1.00  0.00     0.071 C 
HETATM    7  C11 UNL     1      -2.870  48.716 -25.481  1.00  0.00     0.045 C 
HETATM    8  C12 UNL     1      -4.505  48.642 -23.587  1.00  0.00     0.161 C 
HETATM    9  O3  UNL     1      -5.468  47.989 -24.003  1.00  0.00    -0.292 OA
HETATM   10  C13 UNL     1      -4.064  48.466 -22.174  1.00  0.00    -0.006 C 
HETATM   11  C14 UNL     1      -2.965  49.121 -21.748  1.00  0.00    -0.030 C 
HETATM   12  C15 UNL     1      -2.079  50.012 -22.598  1.00  0.00     0.027 C 
HETATM   13  C16 UNL     1      -1.236  51.037 -21.776  1.00  0.00     0.011 C 
HETATM   14  C17 UNL     1      -0.638  50.492 -20.454  1.00  0.00     0.014 C 
HETATM   15  C18 UNL     1      -1.746  49.885 -19.573  1.00  0.00    -0.002 C 
HETATM   16  C19 UNL     1      -2.734  51.014 -19.167  1.00  0.00     0.019 C 
HETATM   17  C20 UNL     1      -1.322  48.994 -18.344  1.00  0.00     0.034 C 
HETATM   18  C35 UNL     1      -2.549  48.028 -18.146  1.00  0.00     0.016 C 
HETATM   19  C36 UNL     1      -3.401  48.187 -19.421  1.00  0.00     0.026 C 
HETATM   20  C37 UNL     1      -4.118  46.994 -20.017  1.00  0.00     0.013 C 
HETATM   21  C38 UNL     1      -4.816  47.437 -21.332  1.00  0.00     0.043 C 
HETATM   22  C39 UNL     1      -2.407  48.764 -20.417  1.00  0.00     0.094 C 
ENDROOT
BRANCH  17  23
HETATM   23  C21 UNL     1      -0.637  49.560 -17.056  1.00  0.00     0.087 C 
HETATM   24  C22 UNL     1       0.206  50.813 -17.290  1.00  0.00     0.049 C 
BRANCH  23  25
HETATM   25  O4  UNL     1       0.268  48.525 -16.626  1.00  0.00    -0.387 OA
HETATM   26  H33 UNL     1       0.262  48.514 -15.650  1.00  0.00     0.210 HD
ENDBRANCH  23  25
BRANCH  23  27
HETATM   27  C23 UNL     1      -1.778  49.821 -15.981  1.00  0.00     0.181 C 
BRANCH  27  28
HETATM   28  O5  UNL     1      -3.047  50.040 -16.600  1.00  0.00    -0.390 OA
HETATM   29  H35 UNL     1      -3.733  49.879 -15.926  1.00  0.00     0.210 HD
ENDBRANCH  27  28
BRANCH  27  30
HETATM   30  C24 UNL     1      -1.541  50.814 -14.814  1.00  0.00     0.158 C 
HETATM   31  O6  UNL     1      -2.759  51.525 -14.455  1.00  0.00    -0.373 OA
HETATM   32  C25 UNL     1      -2.431  52.177 -13.221  1.00  0.00     0.185 C 
HETATM   33  C26 UNL     1      -1.753  51.077 -12.435  1.00  0.00     0.028 C 
HETATM   34  C32 UNL     1      -3.614  52.738 -12.429  1.00  0.00     0.384 C 
HETATM   35  C27 UNL     1      -1.187  51.678 -11.158  1.00  0.00     0.053 C 
HETATM   36  C33 UNL     1      -0.795  50.498 -13.482  1.00  0.00     0.020 C 
HETATM   37  C28 UNL     1      -2.318  52.377 -10.361  1.00  0.00     0.309 C 
HETATM   38  N2  UNL     1      -3.179  53.288 -11.156  1.00  0.00     0.128 N 
HETATM   39  H46 UNL     1      -2.665  54.153 -11.331  1.00  0.00     0.320 HD
HETATM   40  C34 UNL     1      -0.380  49.073 -13.153  1.00  0.00     0.013 C 
BRANCH  37  41
HETATM   41  C29 UNL     1      -1.672  53.200  -9.232  1.00  0.00     0.233 C 
HETATM   42  O7  UNL     1      -1.969  53.037  -8.045  1.00  0.00    -0.277 OA
HETATM   43  N1  UNL     1      -0.755  54.141  -9.701  1.00  0.00    -0.249 NA
HETATM   44  C30 UNL     1       0.385  54.468  -8.879  1.00  0.00     0.113 A 
HETATM   45  C31 UNL     1      -0.700  55.451  -9.109  1.00  0.00     0.113 A 
ENDBRANCH  37  41
BRANCH  34  46
HETATM   46  O8  UNL     1      -4.214  53.781 -13.177  1.00  0.00    -0.366 OA
HETATM   47  H48 UNL     1      -4.465  53.384 -14.024  1.00  0.00     0.212 HD
ENDBRANCH  34  46
ENDBRANCH  27  30
ENDBRANCH  23  27
ENDBRANCH  17  23
BRANCH  22  48
HETATM   48  O9  UNL     1      -1.418  47.753 -20.745  1.00  0.00    -0.384 OA
HETATM   49  H60 UNL     1      -1.823  47.119 -21.361  1.00  0.00     0.211 HD
ENDBRANCH  22  48
BRANCH   1  50
HETATM   50  O2  UNL     1      -3.130  49.444 -27.779  1.00  0.00    -0.386 OA
BRANCH  50  51
HETATM   51  C4  UNL     1      -4.056  48.359 -27.690  1.00  0.00     0.170 C 
BRANCH  51  52
HETATM   52  C3  UNL     1      -4.960  48.356 -28.915  1.00  0.00     0.052 C 
BRANCH  52  53
HETATM   53  C2  UNL     1      -6.148  47.420 -28.729  1.00  0.00     0.169 C 
BRANCH  53  54
HETATM   54  O1  UNL     1      -7.211  47.856 -29.578  1.00  0.00    -0.396 OA
HETATM   55  C1  UNL     1      -8.318  48.322 -28.814  1.00  0.00     0.201 C 
ENDBRANCH  53  54
ENDBRANCH  52  53
ENDBRANCH  51  52
ENDBRANCH  50  51
ENDBRANCH   1  50
TORSDOF 13
ENDMDL
MODEL 8
REMARK minimizedAffinity -8.43850422
REMARK CNNscore 0.355535984
REMARK CNNaffinity 6.37499189
REMARK  13 active torsions:
REMARK  status: ('A' for Active; 'I' for Inactive)
REMARK    1  A    between atoms: O1_2  and  C2_3 
REMARK    2  A    between atoms: C2_3  and  C3_4 
REMARK    3  A    between atoms: C3_4  and  C4_5 
REMARK    4  A    between atoms: C4_5  and  O2_6 
REMARK    5  A    between atoms: O2_6  and  C5_7 
REMARK    6  A    between atoms: C20_23  and  C21_24 
REMARK    7  A    between atoms: C21_24  and  O4_26 
REMARK    8  A    between atoms: C21_24  and  C23_27 
REMARK    9  A    between atoms: C23_27  and  O5_28 
REMARK   10  A    between atoms: C23_27  and  C24_29 
REMARK   11  A    between atoms: C28_34  and  C29_35 
REMARK       I    between atoms: C29_35  and  N1_37 
REMARK   12  A    between atoms: C32_41  and  O8_42 
REMARK   13  A    between atoms: C39_49  and  O9_50 
ROOT
HETATM    1  C5  UNL     1     -14.113  45.195 -26.101  1.00  0.00     0.122 C 
HETATM    2  C6  UNL     1     -14.750  46.010 -27.235  1.00  0.00     0.033 C 
HETATM    3  C7  UNL     1     -13.782  46.177 -28.401  1.00  0.00     0.013 C 
HETATM    4  C8  UNL     1     -12.494  46.966 -28.009  1.00  0.00    -0.026 C 
HETATM    5  C9  UNL     1     -12.696  48.450 -28.401  1.00  0.00     0.016 C 
HETATM    6  C10 UNL     1     -12.287  46.915 -26.462  1.00  0.00     0.071 C 
HETATM    7  C11 UNL     1     -12.626  45.529 -25.898  1.00  0.00     0.045 C 
HETATM    8  C12 UNL     1     -10.899  47.338 -25.988  1.00  0.00     0.161 C 
HETATM    9  O3  UNL     1     -10.705  47.674 -24.816  1.00  0.00    -0.292 OA
HETATM   10  C13 UNL     1      -9.741  47.274 -26.925  1.00  0.00    -0.006 C 
HETATM   11  C14 UNL     1      -9.944  46.831 -28.182  1.00  0.00    -0.030 C 
HETATM   12  C15 UNL     1     -11.262  46.334 -28.746  1.00  0.00     0.027 C 
HETATM   13  C16 UNL     1     -11.350  46.397 -30.303  1.00  0.00     0.011 C 
HETATM   14  C17 UNL     1     -10.057  45.991 -31.055  1.00  0.00     0.014 C 
HETATM   15  C18 UNL     1      -8.861  46.822 -30.555  1.00  0.00    -0.002 C 
HETATM   16  C19 UNL     1      -9.112  48.316 -30.903  1.00  0.00     0.019 C 
HETATM   17  C20 UNL     1      -7.408  46.355 -30.947  1.00  0.00     0.034 C 
HETATM   18  C35 UNL     1      -6.511  46.913 -29.780  1.00  0.00     0.016 C 
HETATM   19  C36 UNL     1      -7.500  47.341 -28.678  1.00  0.00     0.026 C 
HETATM   20  C37 UNL     1      -7.148  47.152 -27.217  1.00  0.00     0.013 C 
HETATM   21  C38 UNL     1      -8.360  47.589 -26.351  1.00  0.00     0.043 C 
HETATM   22  C39 UNL     1      -8.753  46.555 -29.031  1.00  0.00     0.094 C 
ENDROOT
BRANCH  17  23
HETATM   23  C21 UNL     1      -6.831  46.438 -32.400  1.00  0.00     0.087 C 
HETATM   24  C22 UNL     1      -5.468  45.769 -32.575  1.00  0.00     0.049 C 
BRANCH  23  25
HETATM   25  O4  UNL     1      -6.638  47.843 -32.648  1.00  0.00    -0.387 OA
HETATM   26  H33 UNL     1      -6.857  48.012 -33.584  1.00  0.00     0.210 HD
ENDBRANCH  23  25
BRANCH  23  27
HETATM   27  C23 UNL     1      -7.914  45.816 -33.382  1.00  0.00     0.181 C 
BRANCH  27  28
HETATM   28  O5  UNL     1      -7.491  44.554 -33.904  1.00  0.00    -0.390 OA
HETATM   29  H35 UNL     1      -8.286  44.090 -34.225  1.00  0.00     0.210 HD
ENDBRANCH  27  28
BRANCH  27  30
HETATM   30  C24 UNL     1      -8.566  46.692 -34.483  1.00  0.00     0.158 C 
HETATM   31  O6  UNL     1      -7.585  47.165 -35.447  1.00  0.00    -0.373 OA
HETATM   32  C25 UNL     1      -8.377  47.712 -36.510  1.00  0.00     0.185 C 
HETATM   33  C26 UNL     1      -9.424  46.644 -36.727  1.00  0.00     0.028 C 
HETATM   34  C32 UNL     1      -7.632  47.994 -37.818  1.00  0.00     0.384 C 
HETATM   35  C27 UNL     1     -10.451  47.172 -37.716  1.00  0.00     0.053 C 
HETATM   36  C33 UNL     1      -9.854  46.340 -35.288  1.00  0.00     0.020 C 
HETATM   37  C28 UNL     1      -9.745  47.596 -39.030  1.00  0.00     0.309 C 
HETATM   38  N2  UNL     1      -8.546  48.453 -38.851  1.00  0.00     0.128 N 
HETATM   39  H46 UNL     1      -8.852  49.400 -38.622  1.00  0.00     0.320 HD
HETATM   40  C34 UNL     1     -10.490  44.965 -35.158  1.00  0.00     0.013 C 
BRANCH  37  41
HETATM   41  C29 UNL     1     -10.757  48.370 -39.891  1.00  0.00     0.233 C 
HETATM   42  O7  UNL     1     -11.506  49.229 -39.416  1.00  0.00    -0.277 OA
HETATM   43  N1  UNL     1     -10.742  47.980 -41.231  1.00  0.00    -0.249 NA
HETATM   44  C30 UNL     1     -11.035  48.965 -42.244  1.00  0.00     0.113 A 
HETATM   45  C31 UNL     1     -11.977  47.857 -41.959  1.00  0.00     0.113 A 
ENDBRANCH  37  41
BRANCH  34  46
HETATM   46  O8  UNL     1      -6.676  49.014 -37.591  1.00  0.00    -0.366 OA
HETATM   47  H48 UNL     1      -6.106  48.685 -36.882  1.00  0.00     0.212 HD
ENDBRANCH  34  46
ENDBRANCH  27  30
ENDBRANCH  23  27
ENDBRANCH  17  23
BRANCH  22  48
HETATM   48  O9  UNL     1      -8.514  45.143 -28.797  1.00  0.00    -0.384 OA
HETATM   49  H60 UNL     1      -8.557  44.981 -27.840  1.00  0.00     0.211 HD
ENDBRANCH  22  48
BRANCH   1  50
HETATM   50  O2  UNL     1     -14.835  45.487 -24.900  1.00  0.00    -0.386 OA
BRANCH  50  51
HETATM   51  C4  UNL     1     -16.193  45.866 -25.134  1.00  0.00     0.170 C 
BRANCH  51  52
HETATM   52  C3  UNL     1     -17.103  45.137 -24.155  1.00  0.00     0.052 C 
BRANCH  52  53
HETATM   53  C2  UNL     1     -17.723  46.098 -23.148  1.00  0.00     0.169 C 
BRANCH  53  54
HETATM   54  O1  UNL     1     -19.128  45.851 -23.085  1.00  0.00    -0.396 OA
HETATM   55  C1  UNL     1     -19.447  44.979 -22.005  1.00  0.00     0.201 C 
ENDBRANCH  53  54
ENDBRANCH  52  53
ENDBRANCH  51  52
ENDBRANCH  50  51
ENDBRANCH   1  50
TORSDOF 13
ENDMDL
MODEL 9
REMARK minimizedAffinity -8.07300663
REMARK CNNscore 0.339256287
REMARK CNNaffinity 6.39121866
REMARK  13 active torsions:
REMARK  status: ('A' for Active; 'I' for Inactive)
REMARK    1  A    between atoms: O1_2  and  C2_3 
REMARK    2  A    between atoms: C2_3  and  C3_4 
REMARK    3  A    between atoms: C3_4  and  C4_5 
REMARK    4  A    between atoms: C4_5  and  O2_6 
REMARK    5  A    between atoms: O2_6  and  C5_7 
REMARK    6  A    between atoms: C20_23  and  C21_24 
REMARK    7  A    between atoms: C21_24  and  O4_26 
REMARK    8  A    between atoms: C21_24  and  C23_27 
REMARK    9  A    between atoms: C23_27  and  O5_28 
REMARK   10  A    between atoms: C23_27  and  C24_29 
REMARK   11  A    between atoms: C28_34  and  C29_35 
REMARK       I    between atoms: C29_35  and  N1_37 
REMARK   12  A    between atoms: C32_41  and  O8_42 
REMARK   13  A    between atoms: C39_49  and  O9_50 
ROOT
HETATM    1  C5  UNL     1     -15.366  43.303 -27.883  1.00  0.00     0.122 C 
HETATM    2  C6  UNL     1     -15.781  44.745 -28.202  1.00  0.00     0.033 C 
HETATM    3  C7  UNL     1     -14.584  45.572 -28.660  1.00  0.00     0.013 C 
HETATM    4  C8  UNL     1     -13.483  45.700 -27.562  1.00  0.00    -0.026 C 
HETATM    5  C9  UNL     1     -13.697  47.039 -26.815  1.00  0.00     0.016 C 
HETATM    6  C10 UNL     1     -13.636  44.552 -26.515  1.00  0.00     0.071 C 
HETATM    7  C11 UNL     1     -13.995  43.222 -27.192  1.00  0.00     0.045 C 
HETATM    8  C12 UNL     1     -12.430  44.355 -25.600  1.00  0.00     0.161 C 
HETATM    9  O3  UNL     1     -12.538  43.743 -24.534  1.00  0.00    -0.292 OA
HETATM   10  C13 UNL     1     -11.086  44.836 -26.029  1.00  0.00    -0.006 C 
HETATM   11  C14 UNL     1     -10.959  45.434 -27.230  1.00  0.00    -0.030 C 
HETATM   12  C15 UNL     1     -12.072  45.634 -28.242  1.00  0.00     0.027 C 
HETATM   13  C16 UNL     1     -11.802  46.784 -29.262  1.00  0.00     0.011 C 
HETATM   14  C17 UNL     1     -10.344  46.881 -29.780  1.00  0.00     0.014 C 
HETATM   15  C18 UNL     1      -9.360  46.973 -28.598  1.00  0.00    -0.002 C 
HETATM   16  C19 UNL     1      -9.631  48.295 -27.826  1.00  0.00     0.019 C 
HETATM   17  C20 UNL     1      -7.825  46.755 -28.883  1.00  0.00     0.034 C 
HETATM   18  C35 UNL     1      -7.266  46.221 -27.512  1.00  0.00     0.016 C 
HETATM   19  C36 UNL     1      -8.511  45.859 -26.679  1.00  0.00     0.026 C 
HETATM   20  C37 UNL     1      -8.494  44.658 -25.758  1.00  0.00     0.013 C 
HETATM   21  C38 UNL     1      -9.902  44.493 -25.125  1.00  0.00     0.043 C 
HETATM   22  C39 UNL     1      -9.588  45.701 -27.741  1.00  0.00     0.094 C 
ENDROOT
BRANCH  17  23
HETATM   23  C21 UNL     1      -6.935  47.770 -29.677  1.00  0.00     0.087 C 
HETATM   24  C22 UNL     1      -5.699  48.250 -28.918  1.00  0.00     0.049 C 
BRANCH  23  25
HETATM   25  O4  UNL     1      -7.772  48.924 -29.880  1.00  0.00    -0.387 OA
HETATM   26  H33 UNL     1      -7.569  49.285 -30.764  1.00  0.00     0.210 HD
ENDBRANCH  23  25
BRANCH  23  27
HETATM   27  C23 UNL     1      -6.541  47.085 -31.056  1.00  0.00     0.181 C 
BRANCH  27  28
HETATM   28  O5  UNL     1      -7.552  47.274 -32.048  1.00  0.00    -0.390 OA
HETATM   29  H35 UNL     1      -7.138  47.125 -32.918  1.00  0.00     0.210 HD
ENDBRANCH  27  28
BRANCH  27  30
HETATM   30  C24 UNL     1      -5.991  45.635 -31.080  1.00  0.00     0.158 C 
HETATM   31  O6  UNL     1      -7.054  44.658 -31.257  1.00  0.00    -0.373 OA
HETATM   32  C25 UNL     1      -6.360  43.432 -31.523  1.00  0.00     0.185 C 
HETATM   33  C26 UNL     1      -5.328  43.851 -32.545  1.00  0.00     0.028 C 
HETATM   34  C32 UNL     1      -7.215  42.289 -32.074  1.00  0.00     0.384 C 
HETATM   35  C27 UNL     1      -4.393  42.677 -32.792  1.00  0.00     0.053 C 
HETATM   36  C33 UNL     1      -4.774  45.133 -31.915  1.00  0.00     0.020 C 
HETATM   37  C28 UNL     1      -5.211  41.438 -33.237  1.00  0.00     0.309 C 
HETATM   38  N2  UNL     1      -6.397  41.132 -32.396  1.00  0.00     0.128 N 
HETATM   39  H46 UNL     1      -6.078  40.702 -31.526  1.00  0.00     0.320 HD
HETATM   40  C34 UNL     1      -4.120  46.041 -32.943  1.00  0.00     0.013 C 
BRANCH  37  41
HETATM   41  C29 UNL     1      -4.282  40.212 -33.210  1.00  0.00     0.233 C 
HETATM   42  O7  UNL     1      -4.681  39.090 -32.888  1.00  0.00    -0.277 OA
HETATM   43  N1  UNL     1      -2.967  40.519 -33.562  1.00  0.00    -0.249 NA
HETATM   44  C30 UNL     1      -2.182  39.523 -34.250  1.00  0.00     0.113 A 
HETATM   45  C31 UNL     1      -1.871  39.912 -32.853  1.00  0.00     0.113 A 
ENDBRANCH  37  41
BRANCH  34  46
HETATM   46  O8  UNL     1      -8.156  41.902 -31.088  1.00  0.00    -0.366 OA
HETATM   47  H48 UNL     1      -8.661  42.701 -30.881  1.00  0.00     0.212 HD
ENDBRANCH  34  46
ENDBRANCH  27  30
ENDBRANCH  23  27
ENDBRANCH  17  23
BRANCH  22  48
HETATM   48  O9  UNL     1      -9.307  44.519 -28.536  1.00  0.00    -0.384 OA
HETATM   49  H60 UNL     1      -9.559  43.737 -28.017  1.00  0.00     0.211 HD
ENDBRANCH  22  48
BRANCH   1  50
HETATM   50  O2  UNL     1     -16.366  42.745 -27.023  1.00  0.00    -0.386 OA
BRANCH  50  51
HETATM   51  C4  UNL     1     -17.152  43.733 -26.355  1.00  0.00     0.170 C 
BRANCH  51  52
HETATM   52  C3  UNL     1     -18.621  43.334 -26.400  1.00  0.00     0.052 C 
BRANCH  52  53
HETATM   53  C2  UNL     1     -19.505  44.504 -26.816  1.00  0.00     0.169 C 
BRANCH  53  54
HETATM   54  O1  UNL     1     -19.033  45.686 -26.167  1.00  0.00    -0.396 OA
HETATM   55  C1  UNL     1     -19.842  46.010 -25.041  1.00  0.00     0.201 C 
ENDBRANCH  53  54
ENDBRANCH  52  53
ENDBRANCH  51  52
ENDBRANCH  50  51
ENDBRANCH   1  50
TORSDOF 13
ENDMDL
