MODEL 1
REMARK minimizedAffinity -7.77944469
REMARK CNNscore 0.474582851
REMARK CNNaffinity 6.47581148
REMARK  13 active torsions:
REMARK  status: ('A' for Active; 'I' for Inactive)
REMARK    1  A    between atoms: C3_3  and  O1_4 
REMARK    2  A    between atoms: N1_14  and  O2_16 
REMARK    3  A    between atoms: O2_16  and  C13_17 
REMARK    4  A    between atoms: C13_17  and  C14_18 
REMARK       I    between atoms: C14_18  and  N2_20 
REMARK    5  A    between atoms: N2_20  and  C15_21 
REMARK    6  A    between atoms: C15_21  and  C16_22 
REMARK    7  A    between atoms: C15_21  and  C21_32 
REMARK       I    between atoms: C16_22  and  N3_24 
REMARK    8  A    between atoms: N3_24  and  C17_25 
REMARK    9  A    between atoms: C17_25  and  C18_26 
REMARK   10  A    between atoms: C17_25  and  C19_28 
REMARK   11  A    between atoms: C18_26  and  S1_27 
REMARK   12  A    between atoms: C19_28  and  C20_29 
REMARK   13  A    between atoms: C20_29  and  O6_31 
ROOT
HETATM    1  C1  UNL     1       1.416  54.734 -22.890  1.00  0.00     0.015 C 
HETATM    2  C2  UNL     1       0.830  53.974 -23.613  1.00  0.00    -0.078 C 
HETATM    3  C3  UNL     1       0.101  53.053 -24.503  1.00  0.00     0.128 C 
HETATM    4  C4  UNL     1       1.040  52.369 -25.502  1.00  0.00     0.052 C 
HETATM    5  C5  UNL     1       0.370  51.038 -25.864  1.00  0.00     0.010 C 
HETATM    6  C6  UNL     1      -0.854  50.855 -24.930  1.00  0.00     0.002 C 
HETATM    7  C7  UNL     1      -2.185  51.047 -25.700  1.00  0.00    -0.004 C 
HETATM    8  C8  UNL     1      -2.459  49.923 -26.719  1.00  0.00     0.010 C 
HETATM    9  C9  UNL     1      -2.949  48.640 -26.069  1.00  0.00     0.035 C 
HETATM   10  C10 UNL     1      -4.206  48.884 -25.276  1.00  0.00    -0.069 C 
HETATM   11  C11 UNL     1      -5.293  48.126 -25.505  1.00  0.00     0.030 C 
HETATM   12  C12 UNL     1      -6.525  48.240 -24.684  1.00  0.00     0.032 C 
HETATM   13  N1  UNL     1      -7.515  47.439 -24.965  1.00  0.00    -0.271 N 
ATOM     14  H1  UNL     1      -7.507  46.760 -25.726  1.00  0.00     0.194 HD
HETATM   15  C24 UNL     1      -6.523  49.226 -23.536  1.00  0.00     0.060 C 
HETATM   16  C25 UNL     1      -5.597  50.401 -23.825  1.00  0.00     0.020 C 
HETATM   17  C26 UNL     1      -4.143  49.990 -24.220  1.00  0.00    -0.016 C 
HETATM   18  C27 UNL     1      -3.453  49.398 -22.975  1.00  0.00     0.020 C 
HETATM   19  C28 UNL     1      -3.428  51.278 -24.805  1.00  0.00     0.002 C 
HETATM   20  C29 UNL     1      -3.146  52.408 -23.801  1.00  0.00     0.007 C 
HETATM   21  C30 UNL     1      -1.863  52.257 -22.991  1.00  0.00     0.014 C 
HETATM   22  C31 UNL     1      -0.592  51.862 -23.771  1.00  0.00     0.003 C 
HETATM   23  C32 UNL     1       0.377  51.191 -22.753  1.00  0.00     0.020 C 
ENDROOT
BRANCH   3  24
HETATM   24  O1  UNL     1      -0.844  53.820 -25.242  1.00  0.00    -0.377 OA
HETATM   25  H2  UNL     1      -0.366  54.574 -25.624  1.00  0.00     0.211 HD
ENDBRANCH   3  24
BRANCH  13  26
HETATM   26  O2  UNL     1      -8.593  47.629 -24.088  1.00  0.00    -0.271 OA
BRANCH  26  27
HETATM   27  C13 UNL     1      -9.271  46.395 -23.927  1.00  0.00     0.303 C 
BRANCH  27  28
HETATM   28  C14 UNL     1     -10.442  46.531 -22.954  1.00  0.00     0.244 C 
HETATM   29  O3  UNL     1     -10.408  47.200 -21.924  1.00  0.00    -0.271 OA
HETATM   30  N2  UNL     1     -11.576  45.847 -23.353  1.00  0.00    -0.346 N 
HETATM   31  H16 UNL     1     -11.489  45.151 -24.087  1.00  0.00     0.163 HD
BRANCH  30  32
HETATM   32  C15 UNL     1     -12.743  45.720 -22.462  1.00  0.00     0.180 C 
BRANCH  32  33
HETATM   33  C16 UNL     1     -13.972  46.303 -23.200  1.00  0.00     0.241 C 
HETATM   34  O4  UNL     1     -14.543  47.343 -22.890  1.00  0.00    -0.271 OA
HETATM   35  N3  UNL     1     -14.314  45.579 -24.334  1.00  0.00    -0.353 N 
HETATM   36  H18 UNL     1     -13.812  44.710 -24.477  1.00  0.00     0.163 HD
BRANCH  35  37
HETATM   37  C17 UNL     1     -15.572  45.814 -25.054  1.00  0.00     0.103 C 
BRANCH  37  38
HETATM   38  C18 UNL     1     -15.322  45.961 -26.576  1.00  0.00     0.096 C 
BRANCH  38  39
HETATM   39  S1  UNL     1     -16.329  44.842 -27.609  1.00  0.00    -0.180 SA
HETATM   40  H22 UNL     1     -17.508  45.120 -27.021  1.00  0.00     0.101 HD
ENDBRANCH  38  39
ENDBRANCH  37  38
BRANCH  37  41
HETATM   41  C19 UNL     1     -16.246  47.067 -24.481  1.00  0.00     0.136 C 
BRANCH  41  42
HETATM   42  C20 UNL     1     -17.666  46.805 -24.067  1.00  0.00     0.141 C 
HETATM   43  O5  UNL     1     -18.055  46.324 -23.018  1.00  0.00    -0.650 OA
BRANCH  42  44
HETATM   44  O6  UNL     1     -18.544  47.176 -25.020  1.00  0.00    -0.776 OA
HETATM   45  H25 UNL     1     -19.423  46.975 -24.635  1.00  0.00     0.167 HD
ENDBRANCH  42  44
ENDBRANCH  41  42
ENDBRANCH  37  41
ENDBRANCH  35  37
ENDBRANCH  32  33
BRANCH  32  46
HETATM   46  C21 UNL     1     -12.899  44.267 -21.955  1.00  0.00     0.009 C 
HETATM   47  C22 UNL     1     -13.460  44.172 -20.532  1.00  0.00     0.012 C 
HETATM   48  C23 UNL     1     -11.596  43.471 -22.076  1.00  0.00     0.012 C 
ENDBRANCH  32  46
ENDBRANCH  30  32
ENDBRANCH  27  28
ENDBRANCH  26  27
ENDBRANCH  13  26
TORSDOF 13
ENDMDL
MODEL 2
REMARK minimizedAffinity -7.72872925
REMARK CNNscore 0.415828675
REMARK CNNaffinity 6.27662134
REMARK  13 active torsions:
REMARK  status: ('A' for Active; 'I' for Inactive)
REMARK    1  A    between atoms: C3_3  and  O1_4 
REMARK    2  A    between atoms: N1_14  and  O2_16 
REMARK    3  A    between atoms: O2_16  and  C13_17 
REMARK    4  A    between atoms: C13_17  and  C14_18 
REMARK       I    between atoms: C14_18  and  N2_20 
REMARK    5  A    between atoms: N2_20  and  C15_21 
REMARK    6  A    between atoms: C15_21  and  C16_22 
REMARK    7  A    between atoms: C15_21  and  C21_32 
REMARK       I    between atoms: C16_22  and  N3_24 
REMARK    8  A    between atoms: N3_24  and  C17_25 
REMARK    9  A    between atoms: C17_25  and  C18_26 
REMARK   10  A    between atoms: C17_25  and  C19_28 
REMARK   11  A    between atoms: C18_26  and  S1_27 
REMARK   12  A    between atoms: C19_28  and  C20_29 
REMARK   13  A    between atoms: C20_29  and  O6_31 
ROOT
HETATM    1  C1  UNL     1       0.145  51.107 -17.744  1.00  0.00     0.015 C 
HETATM    2  C2  UNL     1      -0.412  51.130 -18.809  1.00  0.00    -0.078 C 
HETATM    3  C3  UNL     1      -1.106  51.167 -20.108  1.00  0.00     0.128 C 
HETATM    4  C4  UNL     1      -0.197  51.697 -21.222  1.00  0.00     0.052 C 
HETATM    5  C5  UNL     1      -0.727  51.084 -22.524  1.00  0.00     0.010 C 
HETATM    6  C6  UNL     1      -1.814  50.043 -22.149  1.00  0.00     0.002 C 
HETATM    7  C7  UNL     1      -3.231  50.553 -22.515  1.00  0.00    -0.004 C 
HETATM    8  C8  UNL     1      -3.465  50.643 -24.036  1.00  0.00     0.010 C 
HETATM    9  C9  UNL     1      -3.718  49.289 -24.678  1.00  0.00     0.035 C 
HETATM   10  C10 UNL     1      -4.906  48.610 -24.052  1.00  0.00    -0.069 C 
HETATM   11  C11 UNL     1      -5.906  48.165 -24.833  1.00  0.00     0.030 C 
HETATM   12  C12 UNL     1      -7.050  47.389 -24.292  1.00  0.00     0.032 C 
HETATM   13  N1  UNL     1      -7.954  46.977 -25.136  1.00  0.00    -0.271 N 
ATOM     14  H1  UNL     1      -7.939  47.174 -26.137  1.00  0.00     0.194 HD
HETATM   15  C24 UNL     1      -7.054  47.072 -22.812  1.00  0.00     0.060 C 
HETATM   16  C25 UNL     1      -6.320  48.146 -22.019  1.00  0.00     0.020 C 
HETATM   17  C26 UNL     1      -4.875  48.445 -22.530  1.00  0.00    -0.016 C 
HETATM   18  C27 UNL     1      -3.989  47.222 -22.218  1.00  0.00     0.020 C 
HETATM   19  C28 UNL     1      -4.393  49.786 -21.835  1.00  0.00     0.002 C 
HETATM   20  C29 UNL     1      -4.154  49.713 -20.318  1.00  0.00     0.007 C 
HETATM   21  C30 UNL     1      -2.786  49.189 -19.897  1.00  0.00     0.014 C 
HETATM   22  C31 UNL     1      -1.562  49.771 -20.636  1.00  0.00     0.003 C 
HETATM   23  C32 UNL     1      -0.416  48.725 -20.513  1.00  0.00     0.020 C 
ENDROOT
BRANCH   3  24
HETATM   24  O1  UNL     1      -2.213  52.055 -19.985  1.00  0.00    -0.377 OA
HETATM   25  H2  UNL     1      -1.876  52.880 -19.599  1.00  0.00     0.211 HD
ENDBRANCH   3  24
BRANCH  13  26
HETATM   26  O2  UNL     1      -8.951  46.227 -24.494  1.00  0.00    -0.271 OA
BRANCH  26  27
HETATM   27  C13 UNL     1     -10.124  47.017 -24.398  1.00  0.00     0.303 C 
BRANCH  27  28
HETATM   28  C14 UNL     1     -11.342  46.263 -24.929  1.00  0.00     0.244 C 
HETATM   29  O3  UNL     1     -11.483  45.045 -24.859  1.00  0.00    -0.271 OA
HETATM   30  N2  UNL     1     -12.307  47.087 -25.480  1.00  0.00    -0.346 N 
HETATM   31  H16 UNL     1     -12.056  48.045 -25.702  1.00  0.00     0.163 HD
BRANCH  30  32
HETATM   32  C15 UNL     1     -13.468  46.529 -26.196  1.00  0.00     0.180 C 
BRANCH  32  33
HETATM   33  C16 UNL     1     -14.716  46.721 -25.301  1.00  0.00     0.241 C 
HETATM   34  O4  UNL     1     -14.883  47.658 -24.529  1.00  0.00    -0.271 OA
HETATM   35  N3  UNL     1     -15.699  45.768 -25.533  1.00  0.00    -0.353 N 
HETATM   36  H18 UNL     1     -15.446  45.008 -26.155  1.00  0.00     0.163 HD
BRANCH  35  37
HETATM   37  C17 UNL     1     -16.861  45.621 -24.648  1.00  0.00     0.103 C 
BRANCH  37  38
HETATM   38  C18 UNL     1     -16.915  44.201 -24.032  1.00  0.00     0.096 C 
BRANCH  38  39
HETATM   39  S1  UNL     1     -16.437  44.132 -22.271  1.00  0.00    -0.180 SA
HETATM   40  H22 UNL     1     -17.226  45.146 -21.866  1.00  0.00     0.101 HD
ENDBRANCH  38  39
ENDBRANCH  37  38
BRANCH  37  41
HETATM   41  C19 UNL     1     -18.136  45.925 -25.446  1.00  0.00     0.136 C 
BRANCH  41  42
HETATM   42  C20 UNL     1     -19.308  46.211 -24.552  1.00  0.00     0.141 C 
HETATM   43  O5  UNL     1     -19.306  46.309 -23.338  1.00  0.00    -0.650 OA
BRANCH  42  44
HETATM   44  O6  UNL     1     -20.449  46.364 -25.252  1.00  0.00    -0.776 OA
HETATM   45  H25 UNL     1     -21.129  46.559 -24.574  1.00  0.00     0.167 HD
ENDBRANCH  42  44
ENDBRANCH  41  42
ENDBRANCH  37  41
ENDBRANCH  35  37
ENDBRANCH  32  33
BRANCH  32  46
HETATM   46  C21 UNL     1     -13.576  47.117 -27.622  1.00  0.00     0.009 C 
HETATM   47  C22 UNL     1     -13.918  46.073 -28.690  1.00  0.00     0.012 C 
HETATM   48  C23 UNL     1     -12.323  47.904 -28.018  1.00  0.00     0.012 C 
ENDBRANCH  32  46
ENDBRANCH  30  32
ENDBRANCH  27  28
ENDBRANCH  26  27
ENDBRANCH  13  26
TORSDOF 13
ENDMDL
MODEL 3
REMARK minimizedAffinity -8.94872856
REMARK CNNscore 0.394969255
REMARK CNNaffinity 6.54198074
REMARK  13 active torsions:
REMARK  status: ('A' for Active; 'I' for Inactive)
REMARK    1  A    between atoms: C3_3  and  O1_4 
REMARK    2  A    between atoms: N1_14  and  O2_16 
REMARK    3  A    between atoms: O2_16  and  C13_17 
REMARK    4  A    between atoms: C13_17  and  C14_18 
REMARK       I    between atoms: C14_18  and  N2_20 
REMARK    5  A    between atoms: N2_20  and  C15_21 
REMARK    6  A    between atoms: C15_21  and  C16_22 
REMARK    7  A    between atoms: C15_21  and  C21_32 
REMARK       I    between atoms: C16_22  and  N3_24 
REMARK    8  A    between atoms: N3_24  and  C17_25 
REMARK    9  A    between atoms: C17_25  and  C18_26 
REMARK   10  A    between atoms: C17_25  and  C19_28 
REMARK   11  A    between atoms: C18_26  and  S1_27 
REMARK   12  A    between atoms: C19_28  and  C20_29 
REMARK   13  A    between atoms: C20_29  and  O6_31 
ROOT
HETATM    1  C1  UNL     1       1.300  54.717 -22.973  1.00  0.00     0.015 C 
HETATM    2  C2  UNL     1       0.730  53.962 -23.714  1.00  0.00    -0.078 C 
HETATM    3  C3  UNL     1       0.022  53.047 -24.626  1.00  0.00     0.128 C 
HETATM    4  C4  UNL     1       0.983  52.367 -25.607  1.00  0.00     0.052 C 
HETATM    5  C5  UNL     1       0.320  51.040 -25.992  1.00  0.00     0.010 C 
HETATM    6  C6  UNL     1      -0.926  50.853 -25.088  1.00  0.00     0.002 C 
HETATM    7  C7  UNL     1      -2.238  51.052 -25.889  1.00  0.00    -0.004 C 
HETATM    8  C8  UNL     1      -2.489  49.934 -26.921  1.00  0.00     0.010 C 
HETATM    9  C9  UNL     1      -2.997  48.649 -26.290  1.00  0.00     0.035 C 
HETATM   10  C10 UNL     1      -4.272  48.889 -25.526  1.00  0.00    -0.069 C 
HETATM   11  C11 UNL     1      -5.354  48.134 -25.785  1.00  0.00     0.030 C 
HETATM   12  C12 UNL     1      -6.605  48.245 -24.992  1.00  0.00     0.032 C 
HETATM   13  N1  UNL     1      -7.589  47.447 -25.302  1.00  0.00    -0.271 N 
ATOM     14  H1  UNL     1      -7.564  46.773 -26.067  1.00  0.00     0.194 HD
HETATM   15  C24 UNL     1      -6.629  49.225 -23.840  1.00  0.00     0.060 C 
HETATM   16  C25 UNL     1      -5.695  50.400 -24.099  1.00  0.00     0.020 C 
HETATM   17  C26 UNL     1      -4.232  49.989 -24.462  1.00  0.00    -0.016 C 
HETATM   18  C27 UNL     1      -3.573  49.388 -23.204  1.00  0.00     0.020 C 
HETATM   19  C28 UNL     1      -3.501  51.279 -25.023  1.00  0.00     0.002 C 
HETATM   20  C29 UNL     1      -3.242  52.403 -24.005  1.00  0.00     0.007 C 
HETATM   21  C30 UNL     1      -1.979  52.246 -23.166  1.00  0.00     0.014 C 
HETATM   22  C31 UNL     1      -0.690  51.853 -23.918  1.00  0.00     0.003 C 
HETATM   23  C32 UNL     1       0.253  51.175 -22.881  1.00  0.00     0.020 C 
ENDROOT
BRANCH   3  24
HETATM   24  O1  UNL     1      -0.904  53.820 -25.384  1.00  0.00    -0.377 OA
HETATM   25  H2  UNL     1      -0.416  54.576 -25.749  1.00  0.00     0.211 HD
ENDBRANCH   3  24
BRANCH  13  26
HETATM   26  O2  UNL     1      -8.688  47.634 -24.450  1.00  0.00    -0.271 OA
BRANCH  26  27
HETATM   27  C13 UNL     1      -9.777  48.124 -25.213  1.00  0.00     0.303 C 
BRANCH  27  28
HETATM   28  C14 UNL     1     -10.748  47.000 -25.572  1.00  0.00     0.244 C 
HETATM   29  O3  UNL     1     -10.451  45.808 -25.578  1.00  0.00    -0.271 OA
HETATM   30  N2  UNL     1     -12.024  47.444 -25.869  1.00  0.00    -0.346 N 
HETATM   31  H16 UNL     1     -12.161  48.433 -26.054  1.00  0.00     0.163 HD
BRANCH  30  32
HETATM   32  C15 UNL     1     -13.046  46.526 -26.403  1.00  0.00     0.180 C 
BRANCH  32  33
HETATM   33  C16 UNL     1     -14.298  46.629 -25.500  1.00  0.00     0.241 C 
HETATM   34  O4  UNL     1     -14.427  47.423 -24.575  1.00  0.00    -0.271 OA
HETATM   35  N3  UNL     1     -15.328  45.791 -25.906  1.00  0.00    -0.353 N 
HETATM   36  H18 UNL     1     -15.106  45.140 -26.650  1.00  0.00     0.163 HD
BRANCH  35  37
HETATM   37  C17 UNL     1     -16.513  45.558 -25.071  1.00  0.00     0.103 C 
BRANCH  37  38
HETATM   38  C18 UNL     1     -17.522  44.625 -25.787  1.00  0.00     0.096 C 
BRANCH  38  39
HETATM   39  S1  UNL     1     -16.746  43.377 -26.870  1.00  0.00    -0.180 SA
HETATM   40  H22 UNL     1     -15.844  42.942 -25.970  1.00  0.00     0.101 HD
ENDBRANCH  38  39
ENDBRANCH  37  38
BRANCH  37  41
HETATM   41  C19 UNL     1     -17.155  46.909 -24.731  1.00  0.00     0.136 C 
BRANCH  41  42
HETATM   42  C20 UNL     1     -18.535  46.751 -24.159  1.00  0.00     0.141 C 
HETATM   43  O5  UNL     1     -18.834  46.485 -23.009  1.00  0.00    -0.650 OA
BRANCH  42  44
HETATM   44  O6  UNL     1     -19.490  46.942 -25.091  1.00  0.00    -0.776 OA
HETATM   45  H25 UNL     1     -20.333  46.831 -24.604  1.00  0.00     0.167 HD
ENDBRANCH  42  44
ENDBRANCH  41  42
ENDBRANCH  37  41
ENDBRANCH  35  37
ENDBRANCH  32  33
BRANCH  32  46
HETATM   46  C21 UNL     1     -13.289  46.784 -27.909  1.00  0.00     0.009 C 
HETATM   47  C22 UNL     1     -14.277  45.800 -28.546  1.00  0.00     0.012 C 
HETATM   48  C23 UNL     1     -11.983  46.829 -28.706  1.00  0.00     0.012 C 
ENDBRANCH  32  46
ENDBRANCH  30  32
ENDBRANCH  27  28
ENDBRANCH  26  27
ENDBRANCH  13  26
TORSDOF 13
ENDMDL
MODEL 4
REMARK minimizedAffinity -8.44678593
REMARK CNNscore 0.347708791
REMARK CNNaffinity 7.11537361
REMARK  13 active torsions:
REMARK  status: ('A' for Active; 'I' for Inactive)
REMARK    1  A    between atoms: C3_3  and  O1_4 
REMARK    2  A    between atoms: N1_14  and  O2_16 
REMARK    3  A    between atoms: O2_16  and  C13_17 
REMARK    4  A    between atoms: C13_17  and  C14_18 
REMARK       I    between atoms: C14_18  and  N2_20 
REMARK    5  A    between atoms: N2_20  and  C15_21 
REMARK    6  A    between atoms: C15_21  and  C16_22 
REMARK    7  A    between atoms: C15_21  and  C21_32 
REMARK       I    between atoms: C16_22  and  N3_24 
REMARK    8  A    between atoms: N3_24  and  C17_25 
REMARK    9  A    between atoms: C17_25  and  C18_26 
REMARK   10  A    between atoms: C17_25  and  C19_28 
REMARK   11  A    between atoms: C18_26  and  S1_27 
REMARK   12  A    between atoms: C19_28  and  C20_29 
REMARK   13  A    between atoms: C20_29  and  O6_31 
ROOT
HETATM    1  C1  UNL     1      -5.380  48.601 -24.767  1.00  0.00     0.015 C 
HETATM    2  C2  UNL     1      -4.378  49.206 -24.495  1.00  0.00    -0.078 C 
HETATM    3  C3  UNL     1      -3.142  49.934 -24.159  1.00  0.00     0.128 C 
HETATM    4  C4  UNL     1      -2.779  50.962 -25.235  1.00  0.00     0.052 C 
HETATM    5  C5  UNL     1      -1.966  52.049 -24.522  1.00  0.00     0.010 C 
HETATM    6  C6  UNL     1      -2.024  51.761 -23.000  1.00  0.00     0.002 C 
HETATM    7  C7  UNL     1      -0.663  51.238 -22.473  1.00  0.00    -0.004 C 
HETATM    8  C8  UNL     1       0.444  52.310 -22.497  1.00  0.00     0.010 C 
HETATM    9  C9  UNL     1       0.321  53.315 -21.363  1.00  0.00     0.035 C 
HETATM   10  C10 UNL     1       0.353  52.625 -20.026  1.00  0.00    -0.069 C 
HETATM   11  C11 UNL     1       1.231  53.029 -19.091  1.00  0.00     0.030 C 
HETATM   12  C12 UNL     1       1.240  52.466 -17.717  1.00  0.00     0.032 C 
HETATM   13  N1  UNL     1       2.111  52.945 -16.873  1.00  0.00    -0.271 N 
ATOM     14  H1  UNL     1       2.801  53.660 -17.103  1.00  0.00     0.194 HD
HETATM   15  C24 UNL     1       0.195  51.429 -17.369  1.00  0.00     0.060 C 
HETATM   16  C25 UNL     1      -0.213  50.628 -18.600  1.00  0.00     0.020 C 
HETATM   17  C26 UNL     1      -0.664  51.501 -19.813  1.00  0.00    -0.016 C 
HETATM   18  C27 UNL     1      -2.012  52.161 -19.459  1.00  0.00     0.020 C 
HETATM   19  C28 UNL     1      -0.722  50.555 -21.084  1.00  0.00     0.002 C 
HETATM   20  C29 UNL     1      -1.822  49.480 -21.076  1.00  0.00     0.007 C 
HETATM   21  C30 UNL     1      -3.192  49.945 -21.556  1.00  0.00     0.014 C 
HETATM   22  C31 UNL     1      -3.227  50.783 -22.852  1.00  0.00     0.003 C 
HETATM   23  C32 UNL     1      -4.537  51.623 -22.816  1.00  0.00     0.020 C 
ENDROOT
BRANCH   3  24
HETATM   24  O1  UNL     1      -2.083  48.984 -24.086  1.00  0.00    -0.377 OA
HETATM   25  H2  UNL     1      -2.119  48.452 -24.897  1.00  0.00     0.211 HD
ENDBRANCH   3  24
BRANCH  13  26
HETATM   26  O2  UNL     1       1.979  52.353 -15.608  1.00  0.00    -0.271 OA
BRANCH  26  27
HETATM   27  C13 UNL     1       3.250  51.883 -15.191  1.00  0.00     0.303 C 
BRANCH  27  28
HETATM   28  C14 UNL     1       3.194  51.329 -13.768  1.00  0.00     0.244 C 
HETATM   29  O3  UNL     1       3.918  50.430 -13.350  1.00  0.00    -0.271 OA
HETATM   30  N2  UNL     1       2.259  51.958 -12.965  1.00  0.00    -0.346 N 
HETATM   31  H16 UNL     1       1.552  52.537 -13.408  1.00  0.00     0.163 HD
BRANCH  30  32
HETATM   32  C15 UNL     1       1.942  51.446 -11.620  1.00  0.00     0.180 C 
BRANCH  32  33
HETATM   33  C16 UNL     1       1.993  52.637 -10.633  1.00  0.00     0.241 C 
HETATM   34  O4  UNL     1       2.287  52.547  -9.447  1.00  0.00    -0.271 OA
HETATM   35  N3  UNL     1       1.773  53.861 -11.251  1.00  0.00    -0.353 N 
HETATM   36  H18 UNL     1       1.492  53.825 -12.225  1.00  0.00     0.163 HD
BRANCH  35  37
HETATM   37  C17 UNL     1       1.552  55.090 -10.480  1.00  0.00     0.103 C 
BRANCH  37  38
HETATM   38  C18 UNL     1       2.878  55.610  -9.872  1.00  0.00     0.096 C 
BRANCH  38  39
HETATM   39  S1  UNL     1       4.289  55.595 -11.032  1.00  0.00    -0.180 SA
HETATM   40  H22 UNL     1       3.649  56.205 -12.048  1.00  0.00     0.101 HD
ENDBRANCH  38  39
ENDBRANCH  37  38
BRANCH  37  41
HETATM   41  C19 UNL     1       0.515  54.811  -9.385  1.00  0.00     0.136 C 
BRANCH  41  42
HETATM   42  C20 UNL     1      -0.823  55.413  -9.708  1.00  0.00     0.141 C 
HETATM   43  O5  UNL     1      -1.427  56.259  -9.073  1.00  0.00    -0.650 OA
BRANCH  42  44
HETATM   44  O6  UNL     1      -1.342  54.904 -10.843  1.00  0.00    -0.776 OA
HETATM   45  H25 UNL     1      -2.193  55.377 -10.956  1.00  0.00     0.167 HD
ENDBRANCH  42  44
ENDBRANCH  41  42
ENDBRANCH  37  41
ENDBRANCH  35  37
ENDBRANCH  32  33
BRANCH  32  46
HETATM   46  C21 UNL     1       0.618  50.646 -11.629  1.00  0.00     0.009 C 
HETATM   47  C22 UNL     1       0.820  49.128 -11.596  1.00  0.00     0.012 C 
HETATM   48  C23 UNL     1      -0.289  51.044 -12.796  1.00  0.00     0.012 C 
ENDBRANCH  32  46
ENDBRANCH  30  32
ENDBRANCH  27  28
ENDBRANCH  26  27
ENDBRANCH  13  26
TORSDOF 13
ENDMDL
MODEL 5
REMARK minimizedAffinity -8.90830612
REMARK CNNscore 0.312009722
REMARK CNNaffinity 7.29416895
REMARK  13 active torsions:
REMARK  status: ('A' for Active; 'I' for Inactive)
REMARK    1  A    between atoms: C3_3  and  O1_4 
REMARK    2  A    between atoms: N1_14  and  O2_16 
REMARK    3  A    between atoms: O2_16  and  C13_17 
REMARK    4  A    between atoms: C13_17  and  C14_18 
REMARK       I    between atoms: C14_18  and  N2_20 
REMARK    5  A    between atoms: N2_20  and  C15_21 
REMARK    6  A    between atoms: C15_21  and  C16_22 
REMARK    7  A    between atoms: C15_21  and  C21_32 
REMARK       I    between atoms: C16_22  and  N3_24 
REMARK    8  A    between atoms: N3_24  and  C17_25 
REMARK    9  A    between atoms: C17_25  and  C18_26 
REMARK   10  A    between atoms: C17_25  and  C19_28 
REMARK   11  A    between atoms: C18_26  and  S1_27 
REMARK   12  A    between atoms: C19_28  and  C20_29 
REMARK   13  A    between atoms: C20_29  and  O6_31 
ROOT
HETATM    1  C1  UNL     1      -0.209  53.311 -28.723  1.00  0.00     0.015 C 
HETATM    2  C2  UNL     1      -0.615  52.794 -27.717  1.00  0.00    -0.078 C 
HETATM    3  C3  UNL     1      -1.120  52.174 -26.480  1.00  0.00     0.128 C 
HETATM    4  C4  UNL     1      -1.765  50.811 -26.751  1.00  0.00     0.052 C 
HETATM    5  C5  UNL     1      -1.627  50.014 -25.448  1.00  0.00     0.010 C 
HETATM    6  C6  UNL     1      -0.729  50.833 -24.486  1.00  0.00     0.002 C 
HETATM    7  C7  UNL     1      -1.555  51.441 -23.324  1.00  0.00    -0.004 C 
HETATM    8  C8  UNL     1      -2.092  50.377 -22.345  1.00  0.00     0.010 C 
HETATM    9  C9  UNL     1      -1.026  49.855 -21.396  1.00  0.00     0.035 C 
HETATM   10  C10 UNL     1      -0.419  50.977 -20.597  1.00  0.00    -0.069 C 
HETATM   11  C11 UNL     1      -0.382  50.893 -19.255  1.00  0.00     0.030 C 
HETATM   12  C12 UNL     1       0.300  51.910 -18.416  1.00  0.00     0.032 C 
HETATM   13  N1  UNL     1       0.307  51.724 -17.125  1.00  0.00    -0.271 N 
ATOM     14  H1  UNL     1      -0.147  50.940 -16.655  1.00  0.00     0.194 HD
HETATM   15  C24 UNL     1       0.999  53.055 -19.118  1.00  0.00     0.060 C 
HETATM   16  C25 UNL     1       0.322  53.379 -20.443  1.00  0.00     0.020 C 
HETATM   17  C26 UNL     1       0.152  52.152 -21.394  1.00  0.00    -0.016 C 
HETATM   18  C27 UNL     1       1.548  51.732 -21.896  1.00  0.00     0.020 C 
HETATM   19  C28 UNL     1      -0.848  52.579 -22.548  1.00  0.00     0.002 C 
HETATM   20  C29 UNL     1      -0.328  53.639 -23.534  1.00  0.00     0.007 C 
HETATM   21  C30 UNL     1       0.519  53.103 -24.682  1.00  0.00     0.014 C 
HETATM   22  C31 UNL     1      -0.019  51.858 -25.419  1.00  0.00     0.003 C 
HETATM   23  C32 UNL     1       1.203  51.153 -26.077  1.00  0.00     0.020 C 
ENDROOT
BRANCH   3  24
HETATM   24  O1  UNL     1      -2.120  53.033 -25.940  1.00  0.00    -0.377 OA
HETATM   25  H2  UNL     1      -2.740  53.239 -26.659  1.00  0.00     0.211 HD
ENDBRANCH   3  24
BRANCH  13  26
HETATM   26  O2  UNL     1       1.017  52.737 -16.465  1.00  0.00    -0.271 OA
BRANCH  26  27
HETATM   27  C13 UNL     1       2.149  52.161 -15.835  1.00  0.00     0.303 C 
BRANCH  27  28
HETATM   28  C14 UNL     1       1.796  51.628 -14.447  1.00  0.00     0.244 C 
HETATM   29  O3  UNL     1       2.185  50.551 -14.003  1.00  0.00    -0.271 OA
HETATM   30  N2  UNL     1       1.008  52.490 -13.705  1.00  0.00    -0.346 N 
HETATM   31  H16 UNL     1       0.546  53.257 -14.185  1.00  0.00     0.163 HD
BRANCH  30  32
HETATM   32  C15 UNL     1       0.426  52.075 -12.417  1.00  0.00     0.180 C 
BRANCH  32  33
HETATM   33  C16 UNL     1       1.318  52.642 -11.287  1.00  0.00     0.241 C 
HETATM   34  O4  UNL     1       2.050  51.967 -10.571  1.00  0.00    -0.271 OA
HETATM   35  N3  UNL     1       1.293  54.029 -11.223  1.00  0.00    -0.353 N 
HETATM   36  H18 UNL     1       0.621  54.491 -11.825  1.00  0.00     0.163 HD
BRANCH  35  37
HETATM   37  C17 UNL     1       1.878  54.764 -10.095  1.00  0.00     0.103 C 
BRANCH  37  38
HETATM   38  C18 UNL     1       0.775  55.400  -9.213  1.00  0.00     0.096 C 
BRANCH  38  39
HETATM   39  S1  UNL     1      -0.050  54.224  -8.085  1.00  0.00    -0.180 SA
HETATM   40  H22 UNL     1       1.079  53.685  -7.586  1.00  0.00     0.101 HD
ENDBRANCH  38  39
ENDBRANCH  37  38
BRANCH  37  41
HETATM   41  C19 UNL     1       2.834  55.833 -10.641  1.00  0.00     0.136 C 
BRANCH  41  42
HETATM   42  C20 UNL     1       4.055  55.991  -9.781  1.00  0.00     0.141 C 
HETATM   43  O5  UNL     1       4.146  56.598  -8.729  1.00  0.00    -0.650 OA
BRANCH  42  44
HETATM   44  O6  UNL     1       5.124  55.358 -10.304  1.00  0.00    -0.776 OA
HETATM   45  H25 UNL     1       5.843  55.516  -9.658  1.00  0.00     0.167 HD
ENDBRANCH  42  44
ENDBRANCH  41  42
ENDBRANCH  37  41
ENDBRANCH  35  37
ENDBRANCH  32  33
BRANCH  32  46
HETATM   46  C21 UNL     1      -1.071  52.454 -12.336  1.00  0.00     0.009 C 
HETATM   47  C22 UNL     1      -1.706  52.153 -10.974  1.00  0.00     0.012 C 
HETATM   48  C23 UNL     1      -1.889  51.820 -13.465  1.00  0.00     0.012 C 
ENDBRANCH  32  46
ENDBRANCH  30  32
ENDBRANCH  27  28
ENDBRANCH  26  27
ENDBRANCH  13  26
TORSDOF 13
ENDMDL
MODEL 6
REMARK minimizedAffinity -8.87121391
REMARK CNNscore 0.299766779
REMARK CNNaffinity 6.86926699
REMARK  13 active torsions:
REMARK  status: ('A' for Active; 'I' for Inactive)
REMARK    1  A    between atoms: C3_3  and  O1_4 
REMARK    2  A    between atoms: N1_14  and  O2_16 
REMARK    3  A    between atoms: O2_16  and  C13_17 
REMARK    4  A    between atoms: C13_17  and  C14_18 
REMARK       I    between atoms: C14_18  and  N2_20 
REMARK    5  A    between atoms: N2_20  and  C15_21 
REMARK    6  A    between atoms: C15_21  and  C16_22 
REMARK    7  A    between atoms: C15_21  and  C21_32 
REMARK       I    between atoms: C16_22  and  N3_24 
REMARK    8  A    between atoms: N3_24  and  C17_25 
REMARK    9  A    between atoms: C17_25  and  C18_26 
REMARK   10  A    between atoms: C17_25  and  C19_28 
REMARK   11  A    between atoms: C18_26  and  S1_27 
REMARK   12  A    between atoms: C19_28  and  C20_29 
REMARK   13  A    between atoms: C20_29  and  O6_31 
ROOT
HETATM    1  C1  UNL     1      -4.789  48.527 -24.327  1.00  0.00     0.015 C 
HETATM    2  C2  UNL     1      -3.856  49.169 -23.924  1.00  0.00    -0.078 C 
HETATM    3  C3  UNL     1      -2.704  49.943 -23.429  1.00  0.00     0.128 C 
HETATM    4  C4  UNL     1      -2.376  51.123 -24.349  1.00  0.00     0.052 C 
HETATM    5  C5  UNL     1      -1.694  52.170 -23.461  1.00  0.00     0.010 C 
HETATM    6  C6  UNL     1      -1.803  51.689 -21.991  1.00  0.00     0.002 C 
HETATM    7  C7  UNL     1      -0.431  51.211 -21.451  1.00  0.00    -0.004 C 
HETATM    8  C8  UNL     1       0.582  52.360 -21.279  1.00  0.00     0.010 C 
HETATM    9  C9  UNL     1       0.318  53.201 -20.041  1.00  0.00     0.035 C 
HETATM   10  C10 UNL     1       0.341  52.353 -18.798  1.00  0.00    -0.069 C 
HETATM   11  C11 UNL     1       1.135  52.703 -17.770  1.00  0.00     0.030 C 
HETATM   12  C12 UNL     1       1.122  51.974 -16.476  1.00  0.00     0.032 C 
HETATM   13  N1  UNL     1       1.907  52.409 -15.530  1.00  0.00    -0.271 N 
ATOM     14  H1  UNL     1       2.546  53.198 -15.630  1.00  0.00     0.194 HD
HETATM   15  C24 UNL     1       0.152  50.824 -16.320  1.00  0.00     0.060 C 
HETATM   16  C25 UNL     1      -0.125  50.155 -17.661  1.00  0.00     0.020 C 
HETATM   17  C26 UNL     1      -0.587  51.137 -18.784  1.00  0.00    -0.016 C 
HETATM   18  C27 UNL     1      -2.001  51.641 -18.434  1.00  0.00     0.020 C 
HETATM   19  C28 UNL     1      -0.501  50.356 -20.162  1.00  0.00     0.002 C 
HETATM   20  C29 UNL     1      -1.506  49.207 -20.350  1.00  0.00     0.007 C 
HETATM   21  C30 UNL     1      -2.885  49.622 -20.851  1.00  0.00     0.014 C 
HETATM   22  C31 UNL     1      -2.926  50.610 -22.035  1.00  0.00     0.003 C 
HETATM   23  C32 UNL     1      -4.302  51.336 -21.976  1.00  0.00     0.020 C 
ENDROOT
BRANCH   3  24
HETATM   24  O1  UNL     1      -1.575  49.075 -23.408  1.00  0.00    -0.377 OA
HETATM   25  H2  UNL     1      -1.525  48.648 -24.278  1.00  0.00     0.211 HD
ENDBRANCH   3  24
BRANCH  13  26
HETATM   26  O2  UNL     1       1.762  51.654 -14.356  1.00  0.00    -0.271 OA
BRANCH  26  27
HETATM   27  C13 UNL     1       2.930  51.810 -13.569  1.00  0.00     0.303 C 
BRANCH  27  28
HETATM   28  C14 UNL     1       2.578  52.146 -12.120  1.00  0.00     0.244 C 
HETATM   29  O3  UNL     1       1.886  51.435 -11.396  1.00  0.00    -0.271 OA
HETATM   30  N2  UNL     1       3.140  53.329 -11.674  1.00  0.00    -0.346 N 
HETATM   31  H16 UNL     1       3.520  53.973 -12.360  1.00  0.00     0.163 HD
BRANCH  30  32
HETATM   32  C15 UNL     1       2.772  53.901 -10.366  1.00  0.00     0.180 C 
BRANCH  32  33
HETATM   33  C16 UNL     1       3.765  53.356  -9.312  1.00  0.00     0.241 C 
HETATM   34  O4  UNL     1       3.440  52.858  -8.240  1.00  0.00    -0.271 OA
HETATM   35  N3  UNL     1       5.084  53.388  -9.744  1.00  0.00    -0.353 N 
HETATM   36  H18 UNL     1       5.254  53.862 -10.625  1.00  0.00     0.163 HD
BRANCH  35  37
HETATM   37  C17 UNL     1       6.206  53.135  -8.832  1.00  0.00     0.103 C 
BRANCH  37  38
HETATM   38  C18 UNL     1       6.357  51.620  -8.544  1.00  0.00     0.096 C 
BRANCH  38  39
HETATM   39  S1  UNL     1       7.158  51.240  -6.947  1.00  0.00    -0.180 SA
HETATM   40  H22 UNL     1       6.397  52.064  -6.202  1.00  0.00     0.101 HD
ENDBRANCH  38  39
ENDBRANCH  37  38
BRANCH  37  41
HETATM   41  C19 UNL     1       5.980  53.924  -7.536  1.00  0.00     0.136 C 
BRANCH  41  42
HETATM   42  C20 UNL     1       6.710  55.237  -7.539  1.00  0.00     0.141 C 
HETATM   43  O5  UNL     1       6.742  56.069  -6.650  1.00  0.00    -0.650 OA
BRANCH  42  44
HETATM   44  O6  UNL     1       7.381  55.435  -8.691  1.00  0.00    -0.776 OA
HETATM   45  H25 UNL     1       7.823  56.302  -8.571  1.00  0.00     0.167 HD
ENDBRANCH  42  44
ENDBRANCH  41  42
ENDBRANCH  37  41
ENDBRANCH  35  37
ENDBRANCH  32  33
BRANCH  32  46
HETATM   46  C21 UNL     1       2.666  55.442 -10.445  1.00  0.00     0.009 C 
HETATM   47  C22 UNL     1       3.769  56.089 -11.291  1.00  0.00     0.012 C 
HETATM   48  C23 UNL     1       2.601  56.089  -9.059  1.00  0.00     0.012 C 
ENDBRANCH  32  46
ENDBRANCH  30  32
ENDBRANCH  27  28
ENDBRANCH  26  27
ENDBRANCH  13  26
TORSDOF 13
ENDMDL
MODEL 7
REMARK minimizedAffinity -8.29113102
REMARK CNNscore 0.276658565
REMARK CNNaffinity 5.88726854
REMARK  13 active torsions:
REMARK  status: ('A' for Active; 'I' for Inactive)
REMARK    1  A    between atoms: C3_3  and  O1_4 
REMARK    2  A    between atoms: N1_14  and  O2_16 
REMARK    3  A    between atoms: O2_16  and  C13_17 
REMARK    4  A    between atoms: C13_17  and  C14_18 
REMARK       I    between atoms: C14_18  and  N2_20 
REMARK    5  A    between atoms: N2_20  and  C15_21 
REMARK    6  A    between atoms: C15_21  and  C16_22 
REMARK    7  A    between atoms: C15_21  and  C21_32 
REMARK       I    between atoms: C16_22  and  N3_24 
REMARK    8  A    between atoms: N3_24  and  C17_25 
REMARK    9  A    between atoms: C17_25  and  C18_26 
REMARK   10  A    between atoms: C17_25  and  C19_28 
REMARK   11  A    between atoms: C18_26  and  S1_27 
REMARK   12  A    between atoms: C19_28  and  C20_29 
REMARK   13  A    between atoms: C20_29  and  O6_31 
ROOT
HETATM    1  C1  UNL     1      -0.072  53.685 -25.891  1.00  0.00     0.015 C 
HETATM    2  C2  UNL     1      -0.449  52.715 -25.290  1.00  0.00    -0.078 C 
HETATM    3  C3  UNL     1      -0.909  51.518 -24.565  1.00  0.00     0.128 C 
HETATM    4  C4  UNL     1      -0.212  51.374 -23.208  1.00  0.00     0.052 C 
HETATM    5  C5  UNL     1      -1.180  50.583 -22.321  1.00  0.00     0.010 C 
HETATM    6  C6  UNL     1      -2.518  50.438 -23.091  1.00  0.00     0.002 C 
HETATM    7  C7  UNL     1      -2.729  48.985 -23.587  1.00  0.00    -0.004 C 
HETATM    8  C8  UNL     1      -2.976  47.986 -22.438  1.00  0.00     0.010 C 
HETATM    9  C9  UNL     1      -4.386  48.066 -21.878  1.00  0.00     0.035 C 
HETATM   10  C10 UNL     1      -5.409  47.818 -22.954  1.00  0.00    -0.069 C 
HETATM   11  C11 UNL     1      -6.351  46.876 -22.771  1.00  0.00     0.030 C 
HETATM   12  C12 UNL     1      -7.453  46.659 -23.743  1.00  0.00     0.032 C 
HETATM   13  N1  UNL     1      -8.335  45.741 -23.461  1.00  0.00    -0.271 N 
ATOM     14  H1  UNL     1      -8.303  45.148 -22.632  1.00  0.00     0.194 HD
HETATM   15  C24 UNL     1      -7.516  47.562 -24.956  1.00  0.00     0.060 C 
HETATM   16  C25 UNL     1      -6.126  48.037 -25.358  1.00  0.00     0.020 C 
HETATM   17  C26 UNL     1      -5.315  48.701 -24.201  1.00  0.00    -0.016 C 
HETATM   18  C27 UNL     1      -5.976  50.051 -23.859  1.00  0.00     0.020 C 
HETATM   19  C28 UNL     1      -3.809  48.822 -24.684  1.00  0.00     0.002 C 
HETATM   20  C29 UNL     1      -3.546  49.815 -25.829  1.00  0.00     0.007 C 
HETATM   21  C30 UNL     1      -3.361  51.267 -25.404  1.00  0.00     0.014 C 
HETATM   22  C31 UNL     1      -2.427  51.525 -24.203  1.00  0.00     0.003 C 
HETATM   23  C32 UNL     1      -2.847  52.891 -23.584  1.00  0.00     0.020 C 
ENDROOT
BRANCH   3  24
HETATM   24  O1  UNL     1      -0.575  50.379 -25.352  1.00  0.00    -0.377 OA
HETATM   25  H2  UNL     1       0.362  50.461 -25.593  1.00  0.00     0.211 HD
ENDBRANCH   3  24
BRANCH  13  26
HETATM   26  O2  UNL     1      -9.336  45.673 -24.442  1.00  0.00    -0.271 OA
BRANCH  26  27
HETATM   27  C13 UNL     1     -10.474  46.381 -23.981  1.00  0.00     0.303 C 
BRANCH  27  28
HETATM   28  C14 UNL     1     -11.489  46.585 -25.104  1.00  0.00     0.244 C 
HETATM   29  O3  UNL     1     -11.691  47.659 -25.664  1.00  0.00    -0.271 OA
HETATM   30  N2  UNL     1     -12.156  45.427 -25.465  1.00  0.00    -0.346 N 
HETATM   31  H16 UNL     1     -12.108  44.627 -24.842  1.00  0.00     0.163 HD
BRANCH  30  32
HETATM   32  C15 UNL     1     -13.290  45.462 -26.406  1.00  0.00     0.180 C 
BRANCH  32  33
HETATM   33  C16 UNL     1     -14.463  46.194 -25.710  1.00  0.00     0.241 C 
HETATM   34  O4  UNL     1     -14.513  47.403 -25.516  1.00  0.00    -0.271 OA
HETATM   35  N3  UNL     1     -15.525  45.351 -25.411  1.00  0.00    -0.353 N 
HETATM   36  H18 UNL     1     -15.366  44.362 -25.567  1.00  0.00     0.163 HD
BRANCH  35  37
HETATM   37  C17 UNL     1     -16.637  45.778 -24.554  1.00  0.00     0.103 C 
BRANCH  37  38
HETATM   38  C18 UNL     1     -16.683  44.948 -23.247  1.00  0.00     0.096 C 
BRANCH  38  39
HETATM   39  S1  UNL     1     -16.676  45.954 -21.723  1.00  0.00    -0.180 SA
HETATM   40  H22 UNL     1     -17.655  46.797 -22.100  1.00  0.00     0.101 HD
ENDBRANCH  38  39
ENDBRANCH  37  38
BRANCH  37  41
HETATM   41  C19 UNL     1     -17.949  45.646 -25.339  1.00  0.00     0.136 C 
BRANCH  41  42
HETATM   42  C20 UNL     1     -19.058  46.453 -24.726  1.00  0.00     0.141 C 
HETATM   43  O5  UNL     1     -19.172  47.665 -24.713  1.00  0.00    -0.650 OA
BRANCH  42  44
HETATM   44  O6  UNL     1     -19.989  45.668 -24.149  1.00  0.00    -0.776 OA
HETATM   45  H25 UNL     1     -20.658  46.296 -23.804  1.00  0.00     0.167 HD
ENDBRANCH  42  44
ENDBRANCH  41  42
ENDBRANCH  37  41
ENDBRANCH  35  37
ENDBRANCH  32  33
BRANCH  32  46
HETATM   46  C21 UNL     1     -12.859  46.045 -27.772  1.00  0.00     0.009 C 
HETATM   47  C22 UNL     1     -14.012  46.170 -28.774  1.00  0.00     0.012 C 
HETATM   48  C23 UNL     1     -11.691  45.271 -28.388  1.00  0.00     0.012 C 
ENDBRANCH  32  46
ENDBRANCH  30  32
ENDBRANCH  27  28
ENDBRANCH  26  27
ENDBRANCH  13  26
TORSDOF 13
ENDMDL
MODEL 8
REMARK minimizedAffinity -8.07780361
REMARK CNNscore 0.264825374
REMARK CNNaffinity 6.85171747
REMARK  13 active torsions:
REMARK  status: ('A' for Active; 'I' for Inactive)
REMARK    1  A    between atoms: C3_3  and  O1_4 
REMARK    2  A    between atoms: N1_14  and  O2_16 
REMARK    3  A    between atoms: O2_16  and  C13_17 
REMARK    4  A    between atoms: C13_17  and  C14_18 
REMARK       I    between atoms: C14_18  and  N2_20 
REMARK    5  A    between atoms: N2_20  and  C15_21 
REMARK    6  A    between atoms: C15_21  and  C16_22 
REMARK    7  A    between atoms: C15_21  and  C21_32 
REMARK       I    between atoms: C16_22  and  N3_24 
REMARK    8  A    between atoms: N3_24  and  C17_25 
REMARK    9  A    between atoms: C17_25  and  C18_26 
REMARK   10  A    between atoms: C17_25  and  C19_28 
REMARK   11  A    between atoms: C18_26  and  S1_27 
REMARK   12  A    between atoms: C19_28  and  C20_29 
REMARK   13  A    between atoms: C20_29  and  O6_31 
ROOT
HETATM    1  C1  UNL     1       0.869  52.321 -28.202  1.00  0.00     0.015 C 
HETATM    2  C2  UNL     1       0.003  52.409 -27.373  1.00  0.00    -0.078 C 
HETATM    3  C3  UNL     1      -1.051  52.528 -26.350  1.00  0.00     0.128 C 
HETATM    4  C4  UNL     1      -2.442  52.646 -26.980  1.00  0.00     0.052 C 
HETATM    5  C5  UNL     1      -3.424  52.099 -25.937  1.00  0.00     0.010 C 
HETATM    6  C6  UNL     1      -2.592  51.479 -24.784  1.00  0.00     0.002 C 
HETATM    7  C7  UNL     1      -2.657  52.357 -23.508  1.00  0.00    -0.004 C 
HETATM    8  C8  UNL     1      -4.053  52.365 -22.853  1.00  0.00     0.010 C 
HETATM    9  C9  UNL     1      -4.348  51.096 -22.071  1.00  0.00     0.035 C 
HETATM   10  C10 UNL     1      -3.317  50.874 -20.996  1.00  0.00    -0.069 C 
HETATM   11  C11 UNL     1      -3.713  50.680 -19.726  1.00  0.00     0.030 C 
HETATM   12  C12 UNL     1      -2.756  50.345 -18.640  1.00  0.00     0.032 C 
HETATM   13  N1  UNL     1      -3.242  50.146 -17.447  1.00  0.00    -0.271 N 
ATOM     14  H1  UNL     1      -4.230  50.231 -17.207  1.00  0.00     0.194 HD
HETATM   15  C24 UNL     1      -1.296  50.190 -19.006  1.00  0.00     0.060 C 
HETATM   16  C25 UNL     1      -0.935  51.062 -20.201  1.00  0.00     0.020 C 
HETATM   17  C26 UNL     1      -1.854  50.856 -21.447  1.00  0.00    -0.016 C 
HETATM   18  C27 UNL     1      -1.570  49.459 -22.032  1.00  0.00     0.020 C 
HETATM   19  C28 UNL     1      -1.568  52.049 -22.451  1.00  0.00     0.002 C 
HETATM   20  C29 UNL     1      -0.180  52.055 -23.114  1.00  0.00     0.007 C 
HETATM   21  C30 UNL     1      -0.047  51.184 -24.358  1.00  0.00     0.014 C 
HETATM   22  C31 UNL     1      -1.176  51.292 -25.405  1.00  0.00     0.003 C 
HETATM   23  C32 UNL     1      -1.173  49.964 -26.218  1.00  0.00     0.020 C 
ENDROOT
BRANCH   3  24
HETATM   24  O1  UNL     1      -0.803  53.718 -25.607  1.00  0.00    -0.377 OA
HETATM   25  H2  UNL     1      -0.677  54.435 -26.249  1.00  0.00     0.211 HD
ENDBRANCH   3  24
BRANCH  13  26
HETATM   26  O2  UNL     1      -2.234  49.801 -16.534  1.00  0.00    -0.271 OA
BRANCH  26  27
HETATM   27  C13 UNL     1      -2.535  48.530 -15.985  1.00  0.00     0.303 C 
BRANCH  27  28
HETATM   28  C14 UNL     1      -1.545  48.156 -14.883  1.00  0.00     0.244 C 
HETATM   29  O3  UNL     1      -1.771  48.279 -13.682  1.00  0.00    -0.271 OA
HETATM   30  N2  UNL     1      -0.357  47.631 -15.360  1.00  0.00    -0.346 N 
HETATM   31  H16 UNL     1      -0.139  47.745 -16.345  1.00  0.00     0.163 HD
BRANCH  30  32
HETATM   32  C15 UNL     1       0.781  47.376 -14.459  1.00  0.00     0.180 C 
BRANCH  32  33
HETATM   33  C16 UNL     1       0.995  48.640 -13.593  1.00  0.00     0.241 C 
HETATM   34  O4  UNL     1       0.553  48.792 -12.459  1.00  0.00    -0.271 OA
HETATM   35  N3  UNL     1       1.839  49.567 -14.189  1.00  0.00    -0.353 N 
HETATM   36  H18 UNL     1       2.113  49.371 -15.146  1.00  0.00     0.163 HD
BRANCH  35  37
HETATM   37  C17 UNL     1       2.000  50.925 -13.656  1.00  0.00     0.103 C 
BRANCH  37  38
HETATM   38  C18 UNL     1       1.937  51.978 -14.790  1.00  0.00     0.096 C 
BRANCH  38  39
HETATM   39  S1  UNL     1       1.063  51.410 -16.290  1.00  0.00    -0.180 SA
HETATM   40  H22 UNL     1      -0.026  50.938 -15.654  1.00  0.00     0.101 HD
ENDBRANCH  38  39
ENDBRANCH  37  38
BRANCH  37  41
HETATM   41  C19 UNL     1       3.333  51.007 -12.900  1.00  0.00     0.136 C 
BRANCH  41  42
HETATM   42  C20 UNL     1       4.067  49.697 -12.905  1.00  0.00     0.141 C 
HETATM   43  O5  UNL     1       4.026  48.822 -12.059  1.00  0.00    -0.650 OA
BRANCH  42  44
HETATM   44  O6  UNL     1       4.831  49.553 -14.006  1.00  0.00    -0.776 OA
HETATM   45  H25 UNL     1       5.241  48.669 -13.906  1.00  0.00     0.167 HD
ENDBRANCH  42  44
ENDBRANCH  41  42
ENDBRANCH  37  41
ENDBRANCH  35  37
ENDBRANCH  32  33
BRANCH  32  46
HETATM   46  C21 UNL     1       0.582  46.058 -13.674  1.00  0.00     0.009 C 
HETATM   47  C22 UNL     1      -0.446  45.116 -14.310  1.00  0.00     0.012 C 
HETATM   48  C23 UNL     1       0.246  46.308 -12.201  1.00  0.00     0.012 C 
ENDBRANCH  32  46
ENDBRANCH  30  32
ENDBRANCH  27  28
ENDBRANCH  26  27
ENDBRANCH  13  26
TORSDOF 13
ENDMDL
MODEL 9
REMARK minimizedAffinity -9.22457409
REMARK CNNscore 0.258831501
REMARK CNNaffinity 6.57790518
REMARK  13 active torsions:
REMARK  status: ('A' for Active; 'I' for Inactive)
REMARK    1  A    between atoms: C3_3  and  O1_4 
REMARK    2  A    between atoms: N1_14  and  O2_16 
REMARK    3  A    between atoms: O2_16  and  C13_17 
REMARK    4  A    between atoms: C13_17  and  C14_18 
REMARK       I    between atoms: C14_18  and  N2_20 
REMARK    5  A    between atoms: N2_20  and  C15_21 
REMARK    6  A    between atoms: C15_21  and  C16_22 
REMARK    7  A    between atoms: C15_21  and  C21_32 
REMARK       I    between atoms: C16_22  and  N3_24 
REMARK    8  A    between atoms: N3_24  and  C17_25 
REMARK    9  A    between atoms: C17_25  and  C18_26 
REMARK   10  A    between atoms: C17_25  and  C19_28 
REMARK   11  A    between atoms: C18_26  and  S1_27 
REMARK   12  A    between atoms: C19_28  and  C20_29 
REMARK   13  A    between atoms: C20_29  and  O6_31 
ROOT
HETATM    1  C1  UNL     1      -5.053  48.490 -24.416  1.00  0.00     0.015 C 
HETATM    2  C2  UNL     1      -4.068  49.052 -24.016  1.00  0.00    -0.078 C 
HETATM    3  C3  UNL     1      -2.855  49.728 -23.523  1.00  0.00     0.128 C 
HETATM    4  C4  UNL     1      -2.337  50.764 -24.524  1.00  0.00     0.052 C 
HETATM    5  C5  UNL     1      -1.574  51.805 -23.695  1.00  0.00     0.010 C 
HETATM    6  C6  UNL     1      -1.817  51.486 -22.197  1.00  0.00     0.002 C 
HETATM    7  C7  UNL     1      -0.544  50.903 -21.532  1.00  0.00    -0.004 C 
HETATM    8  C8  UNL     1       0.595  51.934 -21.403  1.00  0.00     0.010 C 
HETATM    9  C9  UNL     1       0.376  52.918 -20.265  1.00  0.00     0.035 C 
HETATM   10  C10 UNL     1       0.231  52.199 -18.951  1.00  0.00    -0.069 C 
HETATM   11  C11 UNL     1       1.009  52.550 -17.912  1.00  0.00     0.030 C 
HETATM   12  C12 UNL     1       0.840  51.959 -16.560  1.00  0.00     0.032 C 
HETATM   13  N1  UNL     1       1.625  52.387 -15.611  1.00  0.00    -0.271 N 
ATOM     14  H1  UNL     1       2.361  53.081 -15.742  1.00  0.00     0.194 HD
HETATM   15  C24 UNL     1      -0.272  50.953 -16.361  1.00  0.00     0.060 C 
HETATM   16  C25 UNL     1      -0.563  50.194 -17.650  1.00  0.00     0.020 C 
HETATM   17  C26 UNL     1      -0.842  51.109 -18.884  1.00  0.00    -0.016 C 
HETATM   18  C27 UNL     1      -2.198  51.811 -18.669  1.00  0.00     0.020 C 
HETATM   19  C28 UNL     1      -0.785  50.193 -20.177  1.00  0.00     0.002 C 
HETATM   20  C29 UNL     1      -1.915  49.160 -20.322  1.00  0.00     0.007 C 
HETATM   21  C30 UNL     1      -3.204  49.684 -20.943  1.00  0.00     0.014 C 
HETATM   22  C31 UNL     1      -3.061  50.550 -22.212  1.00  0.00     0.003 C 
HETATM   23  C32 UNL     1      -4.337  51.438 -22.305  1.00  0.00     0.020 C 
ENDROOT
BRANCH   3  24
HETATM   24  O1  UNL     1      -1.845  48.738 -23.353  1.00  0.00    -0.377 OA
HETATM   25  H2  UNL     1      -1.805  48.224 -24.176  1.00  0.00     0.211 HD
ENDBRANCH   3  24
BRANCH  13  26
HETATM   26  O2  UNL     1       1.328  51.773 -14.385  1.00  0.00    -0.271 OA
BRANCH  26  27
HETATM   27  C13 UNL     1       0.032  52.175 -13.977  1.00  0.00     0.303 C 
BRANCH  27  28
HETATM   28  C14 UNL     1      -0.023  52.417 -12.469  1.00  0.00     0.244 C 
HETATM   29  O3  UNL     1       0.893  52.151 -11.695  1.00  0.00    -0.271 OA
HETATM   30  N2  UNL     1      -1.203  53.001 -12.044  1.00  0.00    -0.346 N 
HETATM   31  H16 UNL     1      -1.996  53.006 -12.678  1.00  0.00     0.163 HD
BRANCH  30  32
HETATM   32  C15 UNL     1      -1.506  53.150 -10.610  1.00  0.00     0.180 C 
BRANCH  32  33
HETATM   33  C16 UNL     1      -0.930  54.507 -10.140  1.00  0.00     0.241 C 
HETATM   34  O4  UNL     1      -1.522  55.578 -10.210  1.00  0.00    -0.271 OA
HETATM   35  N3  UNL     1       0.307  54.384  -9.521  1.00  0.00    -0.353 N 
HETATM   36  H18 UNL     1       0.734  53.465  -9.555  1.00  0.00     0.163 HD
BRANCH  35  37
HETATM   37  C17 UNL     1       1.135  55.553  -9.204  1.00  0.00     0.103 C 
BRANCH  37  38
HETATM   38  C18 UNL     1       2.516  55.462  -9.900  1.00  0.00     0.096 C 
BRANCH  38  39
HETATM   39  S1  UNL     1       3.927  55.889  -8.822  1.00  0.00    -0.180 SA
HETATM   40  H22 UNL     1       3.564  55.106  -7.789  1.00  0.00     0.101 HD
ENDBRANCH  38  39
ENDBRANCH  37  38
BRANCH  37  41
HETATM   41  C19 UNL     1       1.290  55.655  -7.681  1.00  0.00     0.136 C 
BRANCH  41  42
HETATM   42  C20 UNL     1       0.567  56.845  -7.118  1.00  0.00     0.141 C 
HETATM   43  O5  UNL     1      -0.500  57.304  -7.483  1.00  0.00    -0.650 OA
BRANCH  42  44
HETATM   44  O6  UNL     1       1.243  57.406  -6.095  1.00  0.00    -0.776 OA
HETATM   45  H25 UNL     1       0.674  58.149  -5.805  1.00  0.00     0.167 HD
ENDBRANCH  42  44
ENDBRANCH  41  42
ENDBRANCH  37  41
ENDBRANCH  35  37
ENDBRANCH  32  33
BRANCH  32  46
HETATM   46  C21 UNL     1      -3.013  52.937 -10.337  1.00  0.00     0.009 C 
HETATM   47  C22 UNL     1      -3.348  51.538  -9.806  1.00  0.00     0.012 C 
HETATM   48  C23 UNL     1      -3.874  53.271 -11.558  1.00  0.00     0.012 C 
ENDBRANCH  32  46
ENDBRANCH  30  32
ENDBRANCH  27  28
ENDBRANCH  26  27
ENDBRANCH  13  26
TORSDOF 13
ENDMDL
