MODEL 1
REMARK minimizedAffinity -6.20239067
REMARK CNNscore 0.65720737
REMARK CNNaffinity 6.86727953
REMARK  16 active torsions:
REMARK  status: ('A' for Active; 'I' for Inactive)
REMARK    1  A    between atoms: C2_2  and  C3_3 
REMARK    2  A    between atoms: C3_3  and  C4_4 
REMARK    3  A    between atoms: C4_4  and  C5_5 
REMARK    4  A    between atoms: C5_5  and  C6_6 
REMARK    5  A    between atoms: C8_8  and  C9_9 
REMARK    6  A    between atoms: C20_23  and  C21_24 
REMARK    7  A    between atoms: C21_24  and  N1_25 
REMARK    8  A    between atoms: N1_25  and  C22_26 
REMARK    9  A    between atoms: C22_26  and  C23_27 
REMARK   10  A    between atoms: C23_27  and  C24_28 
REMARK   11  A    between atoms: C24_28  and  O4_29 
REMARK   12  A    between atoms: C29_34  and  O5_35 
REMARK   13  A    between atoms: C30_36  and  O6_37 
REMARK   14  A    between atoms: C34_41  and  C35_42 
REMARK   15  A    between atoms: C41_48  and  O7_49 
REMARK   16  A    between atoms: C42_50  and  O8_51 
ROOT
HETATM    1  C6  UNL     1       0.147  11.646  18.790  1.00  0.00     0.016 C 
HETATM    2  C7  UNL     1      -0.912  12.736  18.719  1.00  0.00     0.027 C 
HETATM    3  C8  UNL     1      -1.217  13.201  17.253  1.00  0.00     0.051 C 
HETATM    4  C10 UNL     1      -2.584  13.991  17.296  1.00  0.00     0.041 C 
HETATM    5  C11 UNL     1      -2.575  15.241  18.186  1.00  0.00     0.010 C 
HETATM    6  C12 UNL     1      -4.009  15.567  18.576  1.00  0.00     0.013 C 
HETATM    7  C13 UNL     1      -4.948  15.789  17.372  1.00  0.00    -0.002 C 
HETATM    8  C14 UNL     1      -5.350  17.289  17.411  1.00  0.00     0.019 C 
HETATM    9  C15 UNL     1      -6.172  14.831  17.440  1.00  0.00     0.036 C 
HETATM   10  C16 UNL     1      -7.260  14.829  18.454  1.00  0.00    -0.035 C 
HETATM   11  C17 UNL     1      -7.568  15.616  19.483  1.00  0.00     0.088 C 
HETATM   12  C18 UNL     1      -8.868  15.144  19.969  1.00  0.00     0.284 C 
HETATM   13  O2  UNL     1      -9.439  15.552  20.961  1.00  0.00    -0.260 OA
HETATM   14  O3  UNL     1      -9.340  14.169  19.141  1.00  0.00    -0.304 OA
HETATM   15  C19 UNL     1      -8.289  13.762  18.277  1.00  0.00     0.192 C 
HETATM   16  C20 UNL     1      -8.731  13.590  16.829  1.00  0.00    -0.022 C 
HETATM   17  C26 UNL     1      -8.009  14.130  15.818  1.00  0.00    -0.014 C 
HETATM   18  C27 UNL     1      -6.831  15.037  16.067  1.00  0.00     0.021 C 
HETATM   19  C28 UNL     1      -5.642  14.937  15.116  1.00  0.00     0.051 C 
HETATM   20  C29 UNL     1      -4.378  15.383  15.941  1.00  0.00     0.098 C 
HETATM   21  C30 UNL     1      -3.144  14.357  15.905  1.00  0.00     0.095 C 
HETATM   22  C31 UNL     1      -3.413  13.023  15.213  1.00  0.00     0.049 C 
HETATM   23  C32 UNL     1      -2.185  12.112  15.029  1.00  0.00     0.025 C 
HETATM   24  C33 UNL     1      -2.605  10.772  14.350  1.00  0.00     0.012 C 
HETATM   25  C34 UNL     1      -3.804  10.004  14.979  1.00  0.00    -0.011 C 
HETATM   26  C38 UNL     1      -3.548   9.402  16.380  1.00  0.00     0.005 C 
HETATM   27  C39 UNL     1      -2.841  10.296  17.407  1.00  0.00     0.010 C 
HETATM   28  C40 UNL     1      -1.396  10.582  16.980  1.00  0.00     0.051 C 
HETATM   29  C41 UNL     1      -0.353  10.365  18.106  1.00  0.00     0.129 C 
HETATM   30  C42 UNL     1      -1.224  11.953  16.260  1.00  0.00     0.082 C 
ENDROOT
BRANCH  16  31
HETATM   31  C21 UNL     1      -9.994  12.771  16.669  1.00  0.00     0.306 C 
BRANCH  31  32
HETATM   32  N1  UNL     1     -10.128  12.108  15.370  1.00  0.00     0.087 N 
HETATM   33  H29 UNL     1     -10.643  12.732  14.747  1.00  0.00     0.316 HD
BRANCH  32  34
HETATM   34  C22 UNL     1     -10.903  10.868  15.506  1.00  0.00     0.272 C 
BRANCH  34  35
HETATM   35  C23 UNL     1     -10.379   9.800  14.538  1.00  0.00     0.056 C 
BRANCH  35  36
HETATM   36  C24 UNL     1      -9.409   8.858  15.237  1.00  0.00     0.168 C 
BRANCH  36  37
HETATM   37  O4  UNL     1      -9.988   7.571  15.455  1.00  0.00    -0.396 OA
HETATM   38  C25 UNL     1     -10.597   7.028  14.288  1.00  0.00     0.201 C 
ENDBRANCH  36  37
ENDBRANCH  35  36
ENDBRANCH  34  35
ENDBRANCH  32  34
ENDBRANCH  31  32
ENDBRANCH  16  31
BRANCH  20  39
HETATM   39  O5  UNL     1      -3.911  16.586  15.274  1.00  0.00    -0.386 OA
HETATM   40  H43 UNL     1      -3.112  16.883  15.756  1.00  0.00     0.210 HD
ENDBRANCH  20  39
BRANCH  21  41
HETATM   41  O6  UNL     1      -2.100  14.996  15.149  1.00  0.00    -0.386 OA
HETATM   42  H44 UNL     1      -2.541  15.463  14.408  1.00  0.00     0.210 HD
ENDBRANCH  21  41
BRANCH   3  43
HETATM   43  C9  UNL     1      -0.106  14.187  16.839  1.00  0.00     0.244 C 
HETATM   44  O1  UNL     1       1.090  14.009  17.072  1.00  0.00    -0.306 OA
ENDBRANCH   3  43
BRANCH  30  45
HETATM   45  O8  UNL     1       0.107  11.878  15.664  1.00  0.00    -0.388 OA
HETATM   46  H65 UNL     1       0.542  11.035  15.920  1.00  0.00     0.210 HD
ENDBRANCH  30  45
BRANCH   1  47
HETATM   47  C5  UNL     1       0.576  11.318  20.243  1.00  0.00     0.007 C 
BRANCH  47  48
HETATM   48  C4  UNL     1       2.084  11.297  20.528  1.00  0.00     0.000 C 
BRANCH  48  49
HETATM   49  C3  UNL     1       2.647   9.906  20.820  1.00  0.00    -0.000 C 
BRANCH  49  50
HETATM   50  C2  UNL     1       2.708   9.638  22.328  1.00  0.00    -0.005 C 
HETATM   51  C1  UNL     1       2.179   8.255  22.663  1.00  0.00     0.005 C 
ENDBRANCH  49  50
ENDBRANCH  48  49
ENDBRANCH  47  48
ENDBRANCH   1  47
BRANCH  25  52
HETATM   52  C35 UNL     1      -4.364   8.947  13.968  1.00  0.00    -0.019 C 
HETATM   53  C36 UNL     1      -3.401   7.798  13.670  1.00  0.00     0.010 C 
HETATM   54  C37 UNL     1      -5.722   8.398  14.407  1.00  0.00     0.010 C 
ENDBRANCH  25  52
BRANCH  29  55
HETATM   55  O7  UNL     1       0.790   9.750  17.479  1.00  0.00    -0.395 OA
HETATM   56  H64 UNL     1       1.461   9.595  18.169  1.00  0.00     0.210 HD
ENDBRANCH  29  55
TORSDOF 16
ENDMDL
MODEL 2
REMARK minimizedAffinity -6.35495424
REMARK CNNscore 0.327193141
REMARK CNNaffinity 6.92418051
REMARK  16 active torsions:
REMARK  status: ('A' for Active; 'I' for Inactive)
REMARK    1  A    between atoms: C2_2  and  C3_3 
REMARK    2  A    between atoms: C3_3  and  C4_4 
REMARK    3  A    between atoms: C4_4  and  C5_5 
REMARK    4  A    between atoms: C5_5  and  C6_6 
REMARK    5  A    between atoms: C8_8  and  C9_9 
REMARK    6  A    between atoms: C20_23  and  C21_24 
REMARK    7  A    between atoms: C21_24  and  N1_25 
REMARK    8  A    between atoms: N1_25  and  C22_26 
REMARK    9  A    between atoms: C22_26  and  C23_27 
REMARK   10  A    between atoms: C23_27  and  C24_28 
REMARK   11  A    between atoms: C24_28  and  O4_29 
REMARK   12  A    between atoms: C29_34  and  O5_35 
REMARK   13  A    between atoms: C30_36  and  O6_37 
REMARK   14  A    between atoms: C34_41  and  C35_42 
REMARK   15  A    between atoms: C41_48  and  O7_49 
REMARK   16  A    between atoms: C42_50  and  O8_51 
ROOT
HETATM    1  C6  UNL     1     -16.038   7.185  20.078  1.00  0.00     0.016 C 
HETATM    2  C7  UNL     1     -15.436   7.309  18.686  1.00  0.00     0.027 C 
HETATM    3  C8  UNL     1     -15.213   8.796  18.244  1.00  0.00     0.051 C 
HETATM    4  C10 UNL     1     -14.226   8.768  17.011  1.00  0.00     0.041 C 
HETATM    5  C11 UNL     1     -14.746   7.996  15.792  1.00  0.00     0.010 C 
HETATM    6  C12 UNL     1     -13.555   7.577  14.941  1.00  0.00     0.013 C 
HETATM    7  C13 UNL     1     -12.674   8.755  14.478  1.00  0.00    -0.002 C 
HETATM    8  C14 UNL     1     -12.840   8.835  12.936  1.00  0.00     0.019 C 
HETATM    9  C15 UNL     1     -11.197   8.551  14.920  1.00  0.00     0.036 C 
HETATM   10  C16 UNL     1     -10.256   7.496  14.457  1.00  0.00    -0.035 C 
HETATM   11  C17 UNL     1     -10.324   6.530  13.543  1.00  0.00     0.088 C 
HETATM   12  C18 UNL     1      -8.980   5.949  13.478  1.00  0.00     0.284 C 
HETATM   13  O2  UNL     1      -8.665   4.975  12.823  1.00  0.00    -0.260 OA
HETATM   14  O3  UNL     1      -8.132   6.665  14.269  1.00  0.00    -0.304 OA
HETATM   15  C19 UNL     1      -8.903   7.533  15.088  1.00  0.00     0.192 C 
HETATM   16  C20 UNL     1      -8.327   8.939  15.188  1.00  0.00    -0.022 C 
HETATM   17  C26 UNL     1      -9.119  10.024  15.018  1.00  0.00    -0.014 C 
HETATM   18  C27 UNL     1     -10.559   9.907  14.584  1.00  0.00     0.021 C 
HETATM   19  C28 UNL     1     -11.562  10.895  15.174  1.00  0.00     0.051 C 
HETATM   20  C29 UNL     1     -12.957  10.167  15.160  1.00  0.00     0.098 C 
HETATM   21  C30 UNL     1     -13.736  10.162  16.564  1.00  0.00     0.095 C 
HETATM   22  C31 UNL     1     -12.959  10.719  17.754  1.00  0.00     0.049 C 
HETATM   23  C32 UNL     1     -13.763  10.871  19.059  1.00  0.00     0.025 C 
HETATM   24  C33 UNL     1     -12.845  11.408  20.198  1.00  0.00     0.012 C 
HETATM   25  C34 UNL     1     -11.499  10.663  20.434  1.00  0.00    -0.011 C 
HETATM   26  C38 UNL     1     -11.622   9.226  20.990  1.00  0.00     0.005 C 
HETATM   27  C39 UNL     1     -12.673   8.314  20.344  1.00  0.00     0.010 C 
HETATM   28  C40 UNL     1     -14.090   8.825  20.632  1.00  0.00     0.051 C 
HETATM   29  C41 UNL     1     -15.064   7.729  21.135  1.00  0.00     0.129 C 
HETATM   30  C42 UNL     1     -14.689   9.673  19.470  1.00  0.00     0.082 C 
ENDROOT
BRANCH  16  31
HETATM   31  C21 UNL     1      -6.846   8.972  15.503  1.00  0.00     0.306 C 
BRANCH  31  32
HETATM   32  N1  UNL     1      -5.974   8.722  14.352  1.00  0.00     0.087 N 
HETATM   33  H29 UNL     1      -6.271   7.850  13.912  1.00  0.00     0.316 HD
BRANCH  32  34
HETATM   34  C22 UNL     1      -4.583   8.553  14.791  1.00  0.00     0.272 C 
BRANCH  34  35
HETATM   35  C23 UNL     1      -3.703   8.100  13.621  1.00  0.00     0.056 C 
BRANCH  35  36
HETATM   36  C24 UNL     1      -3.556   6.586  13.601  1.00  0.00     0.168 C 
BRANCH  36  37
HETATM   37  O4  UNL     1      -4.772   5.932  13.967  1.00  0.00    -0.396 OA
HETATM   38  C25 UNL     1      -5.113   4.859  13.095  1.00  0.00     0.201 C 
ENDBRANCH  36  37
ENDBRANCH  35  36
ENDBRANCH  34  35
ENDBRANCH  32  34
ENDBRANCH  31  32
ENDBRANCH  16  31
BRANCH  20  39
HETATM   39  O5  UNL     1     -13.774  10.959  14.258  1.00  0.00    -0.386 OA
HETATM   40  H43 UNL     1     -14.660  10.540  14.238  1.00  0.00     0.210 HD
ENDBRANCH  20  39
BRANCH  21  41
HETATM   41  O6  UNL     1     -14.883  11.016  16.401  1.00  0.00    -0.386 OA
HETATM   42  H44 UNL     1     -14.586  11.776  15.858  1.00  0.00     0.210 HD
ENDBRANCH  21  41
BRANCH   3  43
HETATM   43  C9  UNL     1     -16.571   9.344  17.759  1.00  0.00     0.244 C 
HETATM   44  O1  UNL     1     -17.656   8.834  18.040  1.00  0.00    -0.306 OA
ENDBRANCH   3  43
BRANCH  30  45
HETATM   45  O8  UNL     1     -15.860  10.314  20.064  1.00  0.00    -0.388 OA
HETATM   46  H65 UNL     1     -15.981  10.002  20.986  1.00  0.00     0.210 HD
ENDBRANCH  30  45
BRANCH   1  47
HETATM   47  C5  UNL     1     -16.423   5.727  20.438  1.00  0.00     0.007 C 
BRANCH  47  48
HETATM   48  C4  UNL     1     -15.420   4.940  21.292  1.00  0.00     0.000 C 
BRANCH  48  49
HETATM   49  C3  UNL     1     -16.000   4.399  22.599  1.00  0.00    -0.000 C 
BRANCH  49  50
HETATM   50  C2  UNL     1     -15.042   3.400  23.257  1.00  0.00    -0.005 C 
HETATM   51  C1  UNL     1     -13.798   3.191  22.412  1.00  0.00     0.005 C 
ENDBRANCH  49  50
ENDBRANCH  48  49
ENDBRANCH  47  48
ENDBRANCH   1  47
BRANCH  25  52
HETATM   52  C35 UNL     1     -10.526  11.551  21.284  1.00  0.00    -0.019 C 
HETATM   53  C36 UNL     1      -9.896  12.705  20.506  1.00  0.00     0.010 C 
HETATM   54  C37 UNL     1     -11.194  12.073  22.557  1.00  0.00     0.010 C 
ENDBRANCH  25  52
BRANCH  29  55
HETATM   55  O7  UNL     1     -15.864   8.345  22.163  1.00  0.00    -0.395 OA
HETATM   56  H64 UNL     1     -16.483   7.672  22.503  1.00  0.00     0.210 HD
ENDBRANCH  29  55
TORSDOF 16
ENDMDL
MODEL 3
REMARK minimizedAffinity -6.1173625
REMARK CNNscore 0.304943532
REMARK CNNaffinity 6.49482203
REMARK  16 active torsions:
REMARK  status: ('A' for Active; 'I' for Inactive)
REMARK    1  A    between atoms: C2_2  and  C3_3 
REMARK    2  A    between atoms: C3_3  and  C4_4 
REMARK    3  A    between atoms: C4_4  and  C5_5 
REMARK    4  A    between atoms: C5_5  and  C6_6 
REMARK    5  A    between atoms: C8_8  and  C9_9 
REMARK    6  A    between atoms: C20_23  and  C21_24 
REMARK    7  A    between atoms: C21_24  and  N1_25 
REMARK    8  A    between atoms: N1_25  and  C22_26 
REMARK    9  A    between atoms: C22_26  and  C23_27 
REMARK   10  A    between atoms: C23_27  and  C24_28 
REMARK   11  A    between atoms: C24_28  and  O4_29 
REMARK   12  A    between atoms: C29_34  and  O5_35 
REMARK   13  A    between atoms: C30_36  and  O6_37 
REMARK   14  A    between atoms: C34_41  and  C35_42 
REMARK   15  A    between atoms: C41_48  and  O7_49 
REMARK   16  A    between atoms: C42_50  and  O8_51 
ROOT
HETATM    1  C6  UNL     1     -14.253  -9.129  30.913  1.00  0.00     0.016 C 
HETATM    2  C7  UNL     1     -13.735 -10.391  30.239  1.00  0.00     0.027 C 
HETATM    3  C8  UNL     1     -14.792 -11.060  29.294  1.00  0.00     0.051 C 
HETATM    4  C10 UNL     1     -14.008 -12.072  28.368  1.00  0.00     0.041 C 
HETATM    5  C11 UNL     1     -13.279 -13.194  29.117  1.00  0.00     0.010 C 
HETATM    6  C12 UNL     1     -12.165 -13.725  28.227  1.00  0.00     0.013 C 
HETATM    7  C13 UNL     1     -12.652 -14.241  26.858  1.00  0.00    -0.002 C 
HETATM    8  C14 UNL     1     -12.408 -15.775  26.864  1.00  0.00     0.019 C 
HETATM    9  C15 UNL     1     -11.915 -13.514  25.696  1.00  0.00     0.036 C 
HETATM   10  C16 UNL     1     -10.469 -13.593  25.357  1.00  0.00    -0.035 C 
HETATM   11  C17 UNL     1      -9.446 -14.305  25.826  1.00  0.00     0.088 C 
HETATM   12  C18 UNL     1      -8.321 -14.020  24.931  1.00  0.00     0.284 C 
HETATM   13  O2  UNL     1      -7.181 -14.412  25.086  1.00  0.00    -0.260 OA
HETATM   14  O3  UNL     1      -8.745 -13.242  23.895  1.00  0.00    -0.304 OA
HETATM   15  C19 UNL     1     -10.043 -12.752  24.200  1.00  0.00     0.192 C 
HETATM   16  C20 UNL     1     -11.006 -12.822  23.022  1.00  0.00    -0.022 C 
HETATM   17  C26 UNL     1     -12.251 -13.332  23.176  1.00  0.00    -0.014 C 
HETATM   18  C27 UNL     1     -12.698 -13.983  24.461  1.00  0.00     0.021 C 
HETATM   19  C28 UNL     1     -14.147 -13.778  24.895  1.00  0.00     0.051 C 
HETATM   20  C29 UNL     1     -14.158 -13.901  26.464  1.00  0.00     0.098 C 
HETATM   21  C30 UNL     1     -14.862 -12.681  27.237  1.00  0.00     0.095 C 
HETATM   22  C31 UNL     1     -15.282 -11.501  26.365  1.00  0.00     0.049 C 
HETATM   23  C32 UNL     1     -16.107 -10.412  27.077  1.00  0.00     0.025 C 
HETATM   24  C33 UNL     1     -16.434  -9.251  26.088  1.00  0.00     0.012 C 
HETATM   25  C34 UNL     1     -15.244  -8.644  25.290  1.00  0.00    -0.011 C 
HETATM   26  C38 UNL     1     -14.212  -7.856  26.130  1.00  0.00     0.005 C 
HETATM   27  C39 UNL     1     -13.751  -8.491  27.447  1.00  0.00     0.010 C 
HETATM   28  C40 UNL     1     -14.905  -8.561  28.455  1.00  0.00     0.051 C 
HETATM   29  C41 UNL     1     -14.540  -8.040  29.868  1.00  0.00     0.129 C 
HETATM   30  C42 UNL     1     -15.610  -9.950  28.491  1.00  0.00     0.082 C 
ENDROOT
BRANCH  16  31
HETATM   31  C21 UNL     1     -10.438 -12.262  21.735  1.00  0.00     0.306 C 
BRANCH  31  32
HETATM   32  N1  UNL     1      -9.297 -11.361  21.914  1.00  0.00     0.087 N 
HETATM   33  H29 UNL     1      -9.128 -11.258  22.916  1.00  0.00     0.316 HD
BRANCH  32  34
HETATM   34  C22 UNL     1      -9.605 -10.031  21.372  1.00  0.00     0.272 C 
BRANCH  34  35
HETATM   35  C23 UNL     1      -9.102  -9.913  19.929  1.00  0.00     0.056 C 
BRANCH  35  36
HETATM   36  C24 UNL     1      -8.876  -8.457  19.546  1.00  0.00     0.168 C 
BRANCH  36  37
HETATM   37  O4  UNL     1      -9.298  -8.192  18.207  1.00  0.00    -0.396 OA
HETATM   38  C25 UNL     1     -10.174  -9.188  17.690  1.00  0.00     0.201 C 
ENDBRANCH  36  37
ENDBRANCH  35  36
ENDBRANCH  34  35
ENDBRANCH  32  34
ENDBRANCH  31  32
ENDBRANCH  16  31
BRANCH  20  39
HETATM   39  O5  UNL     1     -14.979 -15.067  26.735  1.00  0.00    -0.386 OA
HETATM   40  H43 UNL     1     -15.020 -15.162  27.709  1.00  0.00     0.210 HD
ENDBRANCH  20  39
BRANCH  21  41
HETATM   41  O6  UNL     1     -16.073 -13.204  27.813  1.00  0.00    -0.386 OA
HETATM   42  H44 UNL     1     -16.450 -13.821  27.150  1.00  0.00     0.210 HD
ENDBRANCH  21  41
BRANCH   3  43
HETATM   43  C9  UNL     1     -15.757 -11.873  30.183  1.00  0.00     0.244 C 
HETATM   44  O1  UNL     1     -15.396 -12.772  30.942  1.00  0.00    -0.306 OA
ENDBRANCH   3  43
BRANCH  30  45
HETATM   45  O8  UNL     1     -16.840  -9.706  29.240  1.00  0.00    -0.388 OA
HETATM   46  H65 UNL     1     -16.861  -8.777  29.556  1.00  0.00     0.210 HD
ENDBRANCH  30  45
BRANCH   1  47
HETATM   47  C5  UNL     1     -13.275  -8.573  31.979  1.00  0.00     0.007 C 
BRANCH  47  48
HETATM   48  C4  UNL     1     -13.067  -7.052  31.995  1.00  0.00     0.000 C 
BRANCH  48  49
HETATM   49  C3  UNL     1     -11.847  -6.579  31.205  1.00  0.00    -0.000 C 
BRANCH  49  50
HETATM   50  C2  UNL     1     -12.011  -5.124  30.752  1.00  0.00    -0.005 C 
HETATM   51  C1  UNL     1     -13.003  -4.383  31.631  1.00  0.00     0.005 C 
ENDBRANCH  49  50
ENDBRANCH  48  49
ENDBRANCH  47  48
ENDBRANCH   1  47
BRANCH  25  52
HETATM   52  C35 UNL     1     -15.772  -7.820  24.067  1.00  0.00    -0.019 C 
HETATM   53  C36 UNL     1     -15.231  -8.292  22.718  1.00  0.00     0.010 C 
HETATM   54  C37 UNL     1     -17.300  -7.762  24.033  1.00  0.00     0.010 C 
ENDBRANCH  25  52
BRANCH  29  55
HETATM   55  O7  UNL     1     -15.689  -7.305  30.333  1.00  0.00    -0.395 OA
HETATM   56  H64 UNL     1     -15.482  -6.959  31.220  1.00  0.00     0.210 HD
ENDBRANCH  29  55
TORSDOF 16
ENDMDL
MODEL 4
REMARK minimizedAffinity -7.23688269
REMARK CNNscore 0.296858162
REMARK CNNaffinity 7.04444122
REMARK  16 active torsions:
REMARK  status: ('A' for Active; 'I' for Inactive)
REMARK    1  A    between atoms: C2_2  and  C3_3 
REMARK    2  A    between atoms: C3_3  and  C4_4 
REMARK    3  A    between atoms: C4_4  and  C5_5 
REMARK    4  A    between atoms: C5_5  and  C6_6 
REMARK    5  A    between atoms: C8_8  and  C9_9 
REMARK    6  A    between atoms: C20_23  and  C21_24 
REMARK    7  A    between atoms: C21_24  and  N1_25 
REMARK    8  A    between atoms: N1_25  and  C22_26 
REMARK    9  A    between atoms: C22_26  and  C23_27 
REMARK   10  A    between atoms: C23_27  and  C24_28 
REMARK   11  A    between atoms: C24_28  and  O4_29 
REMARK   12  A    between atoms: C29_34  and  O5_35 
REMARK   13  A    between atoms: C30_36  and  O6_37 
REMARK   14  A    between atoms: C34_41  and  C35_42 
REMARK   15  A    between atoms: C41_48  and  O7_49 
REMARK   16  A    between atoms: C42_50  and  O8_51 
ROOT
HETATM    1  C6  UNL     1       0.587   6.681  11.464  1.00  0.00     0.016 C 
HETATM    2  C7  UNL     1      -0.397   7.556  12.226  1.00  0.00     0.027 C 
HETATM    3  C8  UNL     1      -0.246   7.437  13.782  1.00  0.00     0.051 C 
HETATM    4  C10 UNL     1      -1.005   8.671  14.413  1.00  0.00     0.041 C 
HETATM    5  C11 UNL     1      -2.504   8.732  14.097  1.00  0.00     0.010 C 
HETATM    6  C12 UNL     1      -2.974  10.170  14.264  1.00  0.00     0.013 C 
HETATM    7  C13 UNL     1      -2.712  10.754  15.667  1.00  0.00    -0.002 C 
HETATM    8  C14 UNL     1      -4.108  10.974  16.309  1.00  0.00     0.019 C 
HETATM    9  C15 UNL     1      -1.873  12.061  15.576  1.00  0.00     0.036 C 
HETATM   10  C16 UNL     1      -2.285  13.356  14.972  1.00  0.00    -0.035 C 
HETATM   11  C17 UNL     1      -3.418  13.812  14.443  1.00  0.00     0.088 C 
HETATM   12  C18 UNL     1      -3.192  15.237  14.186  1.00  0.00     0.284 C 
HETATM   13  O2  UNL     1      -3.966  15.982  13.617  1.00  0.00    -0.260 OA
HETATM   14  O3  UNL     1      -1.974  15.604  14.678  1.00  0.00    -0.304 OA
HETATM   15  C19 UNL     1      -1.247  14.428  15.004  1.00  0.00     0.192 C 
HETATM   16  C20 UNL     1      -0.520  14.520  16.340  1.00  0.00    -0.022 C 
HETATM   17  C26 UNL     1      -0.607  13.515  17.243  1.00  0.00    -0.014 C 
HETATM   18  C27 UNL     1      -1.526  12.335  17.047  1.00  0.00     0.021 C 
HETATM   19  C28 UNL     1      -1.043  10.970  17.529  1.00  0.00     0.051 C 
HETATM   20  C29 UNL     1      -1.766   9.903  16.626  1.00  0.00     0.098 C 
HETATM   21  C30 UNL     1      -0.795   8.827  15.935  1.00  0.00     0.095 C 
HETATM   22  C31 UNL     1       0.700   9.073  16.115  1.00  0.00     0.049 C 
HETATM   23  C32 UNL     1       1.623   7.953  15.600  1.00  0.00     0.025 C 
HETATM   24  C33 UNL     1       3.117   8.347  15.808  1.00  0.00     0.012 C 
HETATM   25  C34 UNL     1       3.560   9.745  15.286  1.00  0.00    -0.011 C 
HETATM   26  C38 UNL     1       3.561   9.912  13.749  1.00  0.00     0.005 C 
HETATM   27  C39 UNL     1       2.341   9.378  12.987  1.00  0.00     0.010 C 
HETATM   28  C40 UNL     1       2.264   7.849  13.081  1.00  0.00     0.051 C 
HETATM   29  C41 UNL     1       2.030   7.145  11.720  1.00  0.00     0.129 C 
HETATM   30  C42 UNL     1       1.293   7.347  14.191  1.00  0.00     0.082 C 
ENDROOT
BRANCH  16  31
HETATM   31  C21 UNL     1       0.281  15.792  16.514  1.00  0.00     0.306 C 
BRANCH  31  32
HETATM   32  N1  UNL     1       1.111  16.151  15.360  1.00  0.00     0.087 N 
HETATM   33  H29 UNL     1       0.586  15.934  14.512  1.00  0.00     0.316 HD
BRANCH  32  34
HETATM   34  C22 UNL     1       2.341  15.350  15.346  1.00  0.00     0.272 C 
BRANCH  34  35
HETATM   35  C23 UNL     1       2.408  14.494  14.076  1.00  0.00     0.056 C 
BRANCH  35  36
HETATM   36  C24 UNL     1       1.778  15.217  12.894  1.00  0.00     0.168 C 
BRANCH  36  37
HETATM   37  O4  UNL     1       2.426  14.886  11.666  1.00  0.00    -0.396 OA
HETATM   38  C25 UNL     1       1.847  15.533  10.537  1.00  0.00     0.201 C 
ENDBRANCH  36  37
ENDBRANCH  35  36
ENDBRANCH  34  35
ENDBRANCH  32  34
ENDBRANCH  31  32
ENDBRANCH  16  31
BRANCH  20  39
HETATM   39  O5  UNL     1      -2.601   9.150  17.545  1.00  0.00    -0.386 OA
HETATM   40  H43 UNL     1      -3.055   8.463  17.014  1.00  0.00     0.210 HD
ENDBRANCH  20  39
BRANCH  21  41
HETATM   41  O6  UNL     1      -1.071   7.561  16.563  1.00  0.00    -0.386 OA
HETATM   42  H44 UNL     1      -1.211   7.751  17.515  1.00  0.00     0.210 HD
ENDBRANCH  21  41
BRANCH   3  43
HETATM   43  C9  UNL     1      -0.976   6.150  14.221  1.00  0.00     0.244 C 
HETATM   44  O1  UNL     1      -1.727   5.505  13.489  1.00  0.00    -0.306 OA
ENDBRANCH   3  43
BRANCH  30  45
HETATM   45  O8  UNL     1       1.612   5.928  14.329  1.00  0.00    -0.388 OA
HETATM   46  H65 UNL     1       2.289   5.672  13.666  1.00  0.00     0.210 HD
ENDBRANCH  30  45
BRANCH   1  47
HETATM   47  C5  UNL     1       0.318   6.662   9.938  1.00  0.00     0.007 C 
BRANCH  47  48
HETATM   48  C4  UNL     1       0.125   8.024   9.256  1.00  0.00     0.000 C 
BRANCH  48  49
HETATM   49  C3  UNL     1       1.273   8.429   8.332  1.00  0.00    -0.000 C 
BRANCH  49  50
HETATM   50  C2  UNL     1       2.103   7.211   7.911  1.00  0.00    -0.005 C 
HETATM   51  C1  UNL     1       1.919   6.903   6.436  1.00  0.00     0.005 C 
ENDBRANCH  49  50
ENDBRANCH  48  49
ENDBRANCH  47  48
ENDBRANCH   1  47
BRANCH  25  52
HETATM   52  C35 UNL     1       4.925  10.161  15.932  1.00  0.00    -0.019 C 
HETATM   53  C36 UNL     1       6.032  10.450  14.919  1.00  0.00     0.010 C 
HETATM   54  C37 UNL     1       4.768  11.339  16.894  1.00  0.00     0.010 C 
ENDBRANCH  25  52
BRANCH  29  55
HETATM   55  O7  UNL     1       2.855   5.964  11.733  1.00  0.00    -0.395 OA
HETATM   56  H64 UNL     1       2.731   5.505  10.881  1.00  0.00     0.210 HD
ENDBRANCH  29  55
TORSDOF 16
ENDMDL
MODEL 5
REMARK minimizedAffinity -6.59371948
REMARK CNNscore 0.288618594
REMARK CNNaffinity 6.65947151
REMARK  16 active torsions:
REMARK  status: ('A' for Active; 'I' for Inactive)
REMARK    1  A    between atoms: C2_2  and  C3_3 
REMARK    2  A    between atoms: C3_3  and  C4_4 
REMARK    3  A    between atoms: C4_4  and  C5_5 
REMARK    4  A    between atoms: C5_5  and  C6_6 
REMARK    5  A    between atoms: C8_8  and  C9_9 
REMARK    6  A    between atoms: C20_23  and  C21_24 
REMARK    7  A    between atoms: C21_24  and  N1_25 
REMARK    8  A    between atoms: N1_25  and  C22_26 
REMARK    9  A    between atoms: C22_26  and  C23_27 
REMARK   10  A    between atoms: C23_27  and  C24_28 
REMARK   11  A    between atoms: C24_28  and  O4_29 
REMARK   12  A    between atoms: C29_34  and  O5_35 
REMARK   13  A    between atoms: C30_36  and  O6_37 
REMARK   14  A    between atoms: C34_41  and  C35_42 
REMARK   15  A    between atoms: C41_48  and  O7_49 
REMARK   16  A    between atoms: C42_50  and  O8_51 
ROOT
HETATM    1  C6  UNL     1     -13.781  -9.713  29.917  1.00  0.00     0.016 C 
HETATM    2  C7  UNL     1     -12.832 -10.567  29.089  1.00  0.00     0.027 C 
HETATM    3  C8  UNL     1     -13.576 -11.516  28.088  1.00  0.00     0.051 C 
HETATM    4  C10 UNL     1     -12.505 -12.007  27.035  1.00  0.00     0.041 C 
HETATM    5  C11 UNL     1     -11.331 -12.792  27.633  1.00  0.00     0.010 C 
HETATM    6  C12 UNL     1     -10.157 -12.715  26.668  1.00  0.00     0.013 C 
HETATM    7  C13 UNL     1     -10.474 -13.244  25.255  1.00  0.00    -0.002 C 
HETATM    8  C14 UNL     1      -9.618 -14.527  25.074  1.00  0.00     0.019 C 
HETATM    9  C15 UNL     1     -10.179 -12.161  24.178  1.00  0.00     0.036 C 
HETATM   10  C16 UNL     1      -8.855 -11.594  23.809  1.00  0.00    -0.035 C 
HETATM   11  C17 UNL     1      -7.601 -11.856  24.173  1.00  0.00     0.088 C 
HETATM   12  C18 UNL     1      -6.755 -11.038  23.301  1.00  0.00     0.284 C 
HETATM   13  O2  UNL     1      -5.547 -10.931  23.391  1.00  0.00    -0.260 OA
HETATM   14  O3  UNL     1      -7.528 -10.407  22.373  1.00  0.00    -0.304 OA
HETATM   15  C19 UNL     1      -8.890 -10.538  22.754  1.00  0.00     0.192 C 
HETATM   16  C20 UNL     1      -9.811 -10.883  21.591  1.00  0.00    -0.022 C 
HETATM   17  C26 UNL     1     -10.721 -11.880  21.703  1.00  0.00    -0.014 C 
HETATM   18  C27 UNL     1     -10.776 -12.786  22.908  1.00  0.00     0.021 C 
HETATM   19  C28 UNL     1     -12.149 -13.251  23.385  1.00  0.00     0.051 C 
HETATM   20  C29 UNL     1     -12.008 -13.526  24.929  1.00  0.00     0.098 C 
HETATM   21  C30 UNL     1     -13.102 -12.798  25.852  1.00  0.00     0.095 C 
HETATM   22  C31 UNL     1     -14.027 -11.820  25.135  1.00  0.00     0.049 C 
HETATM   23  C32 UNL     1     -15.181 -11.254  25.984  1.00  0.00     0.025 C 
HETATM   24  C33 UNL     1     -16.021 -10.242  25.147  1.00  0.00     0.012 C 
HETATM   25  C34 UNL     1     -15.242  -9.114  24.409  1.00  0.00    -0.011 C 
HETATM   26  C38 UNL     1     -14.577  -8.058  25.321  1.00  0.00     0.005 C 
HETATM   27  C39 UNL     1     -13.810  -8.573  26.545  1.00  0.00     0.010 C 
HETATM   28  C40 UNL     1     -14.766  -9.222  27.555  1.00  0.00     0.051 C 
HETATM   29  C41 UNL     1     -14.559  -8.743  29.014  1.00  0.00     0.129 C 
HETATM   30  C42 UNL     1     -14.829 -10.774  27.436  1.00  0.00     0.082 C 
ENDROOT
BRANCH  16  31
HETATM   31  C21 UNL     1      -9.609 -10.009  20.372  1.00  0.00     0.306 C 
BRANCH  31  32
HETATM   32  N1  UNL     1     -10.060 -10.607  19.113  1.00  0.00     0.087 N 
HETATM   33  H29 UNL     1      -9.235 -10.874  18.574  1.00  0.00     0.316 HD
BRANCH  32  34
HETATM   34  C22 UNL     1     -10.816  -9.627  18.322  1.00  0.00     0.272 C 
BRANCH  34  35
HETATM   35  C23 UNL     1     -12.252 -10.114  18.097  1.00  0.00     0.056 C 
BRANCH  35  36
HETATM   36  C24 UNL     1     -13.124  -9.003  17.531  1.00  0.00     0.168 C 
BRANCH  36  37
HETATM   37  O4  UNL     1     -14.285  -8.781  18.333  1.00  0.00    -0.396 OA
HETATM   38  C25 UNL     1     -14.290  -9.549  19.532  1.00  0.00     0.201 C 
ENDBRANCH  36  37
ENDBRANCH  35  36
ENDBRANCH  34  35
ENDBRANCH  32  34
ENDBRANCH  31  32
ENDBRANCH  16  31
BRANCH  20  39
HETATM   39  O5  UNL     1     -12.254 -14.950  25.071  1.00  0.00    -0.386 OA
HETATM   40  H43 UNL     1     -12.190 -15.153  26.027  1.00  0.00     0.210 HD
ENDBRANCH  20  39
BRANCH  21  41
HETATM   41  O6  UNL     1     -13.949 -13.835  26.381  1.00  0.00    -0.386 OA
HETATM   42  H44 UNL     1     -14.079 -14.482  25.655  1.00  0.00     0.210 HD
ENDBRANCH  21  41
BRANCH   3  43
HETATM   43  C9  UNL     1     -14.059 -12.744  28.887  1.00  0.00     0.244 C 
HETATM   44  O1  UNL     1     -14.614 -12.673  29.984  1.00  0.00    -0.306 OA
ENDBRANCH   3  43
BRANCH  30  45
HETATM   45  O8  UNL     1     -16.000 -11.144  28.228  1.00  0.00    -0.388 OA
HETATM   46  H65 UNL     1     -16.382 -10.347  28.653  1.00  0.00     0.210 HD
ENDBRANCH  30  45
BRANCH   1  47
HETATM   47  C5  UNL     1     -13.054  -8.911  31.027  1.00  0.00     0.007 C 
BRANCH  47  48
HETATM   48  C4  UNL     1     -13.921  -7.971  31.876  1.00  0.00     0.000 C 
BRANCH  48  49
HETATM   49  C3  UNL     1     -13.536  -6.496  31.768  1.00  0.00    -0.000 C 
BRANCH  49  50
HETATM   50  C2  UNL     1     -12.098  -6.335  31.263  1.00  0.00    -0.005 C 
HETATM   51  C1  UNL     1     -11.933  -5.048  30.473  1.00  0.00     0.005 C 
ENDBRANCH  49  50
ENDBRANCH  48  49
ENDBRANCH  47  48
ENDBRANCH   1  47
BRANCH  25  52
HETATM   52  C35 UNL     1     -16.140  -8.466  23.301  1.00  0.00    -0.019 C 
HETATM   53  C36 UNL     1     -16.673  -9.461  22.271  1.00  0.00     0.010 C 
HETATM   54  C37 UNL     1     -17.291  -7.657  23.899  1.00  0.00     0.010 C 
ENDBRANCH  25  52
BRANCH  29  55
HETATM   55  O7  UNL     1     -15.876  -8.608  29.582  1.00  0.00    -0.395 OA
HETATM   56  H64 UNL     1     -15.775  -8.299  30.501  1.00  0.00     0.210 HD
ENDBRANCH  29  55
TORSDOF 16
ENDMDL
MODEL 6
REMARK minimizedAffinity -7.36495495
REMARK CNNscore 0.278860152
REMARK CNNaffinity 7.02905464
REMARK  16 active torsions:
REMARK  status: ('A' for Active; 'I' for Inactive)
REMARK    1  A    between atoms: C2_2  and  C3_3 
REMARK    2  A    between atoms: C3_3  and  C4_4 
REMARK    3  A    between atoms: C4_4  and  C5_5 
REMARK    4  A    between atoms: C5_5  and  C6_6 
REMARK    5  A    between atoms: C8_8  and  C9_9 
REMARK    6  A    between atoms: C20_23  and  C21_24 
REMARK    7  A    between atoms: C21_24  and  N1_25 
REMARK    8  A    between atoms: N1_25  and  C22_26 
REMARK    9  A    between atoms: C22_26  and  C23_27 
REMARK   10  A    between atoms: C23_27  and  C24_28 
REMARK   11  A    between atoms: C24_28  and  O4_29 
REMARK   12  A    between atoms: C29_34  and  O5_35 
REMARK   13  A    between atoms: C30_36  and  O6_37 
REMARK   14  A    between atoms: C34_41  and  C35_42 
REMARK   15  A    between atoms: C41_48  and  O7_49 
REMARK   16  A    between atoms: C42_50  and  O8_51 
ROOT
HETATM    1  C6  UNL     1       0.661   7.120  10.523  1.00  0.00     0.016 C 
HETATM    2  C7  UNL     1      -0.380   7.700  11.468  1.00  0.00     0.027 C 
HETATM    3  C8  UNL     1      -0.203   7.215  12.949  1.00  0.00     0.051 C 
HETATM    4  C10 UNL     1      -1.049   8.192  13.858  1.00  0.00     0.041 C 
HETATM    5  C11 UNL     1      -2.551   8.211  13.553  1.00  0.00     0.010 C 
HETATM    6  C12 UNL     1      -3.131   9.522  14.065  1.00  0.00     0.013 C 
HETATM    7  C13 UNL     1      -2.899   9.762  15.571  1.00  0.00    -0.002 C 
HETATM    8  C14 UNL     1      -4.302   9.707  16.236  1.00  0.00     0.019 C 
HETATM    9  C15 UNL     1      -2.166  11.112  15.812  1.00  0.00     0.036 C 
HETATM   10  C16 UNL     1      -2.685  12.480  15.542  1.00  0.00    -0.035 C 
HETATM   11  C17 UNL     1      -3.856  12.962  15.131  1.00  0.00     0.088 C 
HETATM   12  C18 UNL     1      -3.744  14.419  15.235  1.00  0.00     0.284 C 
HETATM   13  O2  UNL     1      -4.581  15.218  14.861  1.00  0.00    -0.260 OA
HETATM   14  O3  UNL     1      -2.554  14.748  15.812  1.00  0.00    -0.304 OA
HETATM   15  C19 UNL     1      -1.733  13.589  15.845  1.00  0.00     0.192 C 
HETATM   16  C20 UNL     1      -1.001  13.406  17.169  1.00  0.00    -0.022 C 
HETATM   17  C26 UNL     1      -0.999  12.206  17.796  1.00  0.00    -0.014 C 
HETATM   18  C27 UNL     1      -1.825  11.042  17.308  1.00  0.00     0.021 C 
HETATM   19  C28 UNL     1      -1.232   9.643  17.443  1.00  0.00     0.051 C 
HETATM   20  C29 UNL     1      -1.880   8.778  16.299  1.00  0.00     0.098 C 
HETATM   21  C30 UNL     1      -0.835   7.984  15.372  1.00  0.00     0.095 C 
HETATM   22  C31 UNL     1       0.638   8.295  15.621  1.00  0.00     0.049 C 
HETATM   23  C32 UNL     1       1.641   7.412  14.854  1.00  0.00     0.025 C 
HETATM   24  C33 UNL     1       3.101   7.859  15.165  1.00  0.00     0.012 C 
HETATM   25  C34 UNL     1       3.428   9.373  15.007  1.00  0.00    -0.011 C 
HETATM   26  C38 UNL     1       3.398   9.912  13.558  1.00  0.00     0.005 C 
HETATM   27  C39 UNL     1       2.216   9.488  12.678  1.00  0.00     0.010 C 
HETATM   28  C40 UNL     1       2.260   7.982  12.392  1.00  0.00     0.051 C 
HETATM   29  C41 UNL     1       2.065   7.619  10.898  1.00  0.00     0.129 C 
HETATM   30  C42 UNL     1       1.343   7.148  13.336  1.00  0.00     0.082 C 
ENDROOT
BRANCH  16  31
HETATM   31  C21 UNL     1      -0.300  14.656  17.657  1.00  0.00     0.306 C 
BRANCH  31  32
HETATM   32  N1  UNL     1      -1.055  15.895  17.456  1.00  0.00     0.087 N 
HETATM   33  H29 UNL     1      -0.496  16.515  16.868  1.00  0.00     0.316 HD
BRANCH  32  34
HETATM   34  C22 UNL     1      -1.277  16.573  18.740  1.00  0.00     0.272 C 
BRANCH  34  35
HETATM   35  C23 UNL     1      -1.264  15.560  19.890  1.00  0.00     0.056 C 
BRANCH  35  36
HETATM   36  C24 UNL     1      -2.621  15.492  20.575  1.00  0.00     0.168 C 
BRANCH  36  37
HETATM   37  O4  UNL     1      -2.526  15.799  21.967  1.00  0.00    -0.396 OA
HETATM   38  C25 UNL     1      -3.750  15.603  22.667  1.00  0.00     0.201 C 
ENDBRANCH  36  37
ENDBRANCH  35  36
ENDBRANCH  34  35
ENDBRANCH  32  34
ENDBRANCH  31  32
ENDBRANCH  16  31
BRANCH  20  39
HETATM   39  O5  UNL     1      -2.642   7.758  16.997  1.00  0.00    -0.386 OA
HETATM   40  H43 UNL     1      -3.048   7.190  16.310  1.00  0.00     0.210 HD
ENDBRANCH  20  39
BRANCH  21  41
HETATM   41  O6  UNL     1      -1.004   6.586  15.668  1.00  0.00    -0.386 OA
HETATM   42  H44 UNL     1      -1.148   6.523  16.636  1.00  0.00     0.210 HD
ENDBRANCH  21  41
BRANCH   3  43
HETATM   43  C9  UNL     1      -0.825   5.806  13.051  1.00  0.00     0.244 C 
HETATM   44  O1  UNL     1      -0.324   4.881  13.689  1.00  0.00    -0.306 OA
ENDBRANCH   3  43
BRANCH  30  45
HETATM   45  O8  UNL     1       1.774   5.768  13.123  1.00  0.00    -0.388 OA
HETATM   46  H65 UNL     1       2.461   5.736  12.423  1.00  0.00     0.210 HD
ENDBRANCH  30  45
BRANCH   1  47
HETATM   47  C5  UNL     1       0.377   7.456   9.037  1.00  0.00     0.007 C 
BRANCH  47  48
HETATM   48  C4  UNL     1       1.199   8.596   8.419  1.00  0.00     0.000 C 
BRANCH  48  49
HETATM   49  C3  UNL     1       2.323   8.129   7.496  1.00  0.00    -0.000 C 
BRANCH  49  50
HETATM   50  C2  UNL     1       1.822   7.072   6.505  1.00  0.00    -0.005 C 
HETATM   51  C1  UNL     1       2.546   5.751   6.697  1.00  0.00     0.005 C 
ENDBRANCH  49  50
ENDBRANCH  48  49
ENDBRANCH  47  48
ENDBRANCH   1  47
BRANCH  25  52
HETATM   52  C35 UNL     1       4.763   9.723  15.747  1.00  0.00    -0.019 C 
HETATM   53  C36 UNL     1       5.983   8.966  15.223  1.00  0.00     0.010 C 
HETATM   54  C37 UNL     1       5.037  11.227  15.753  1.00  0.00     0.010 C 
ENDBRANCH  25  52
BRANCH  29  55
HETATM   55  O7  UNL     1       2.980   6.539  10.626  1.00  0.00    -0.395 OA
HETATM   56  H64 UNL     1       2.883   6.295   9.687  1.00  0.00     0.210 HD
ENDBRANCH  29  55
TORSDOF 16
ENDMDL
MODEL 7
REMARK minimizedAffinity -6.31946039
REMARK CNNscore 0.276850611
REMARK CNNaffinity 7.03522348
REMARK  16 active torsions:
REMARK  status: ('A' for Active; 'I' for Inactive)
REMARK    1  A    between atoms: C2_2  and  C3_3 
REMARK    2  A    between atoms: C3_3  and  C4_4 
REMARK    3  A    between atoms: C4_4  and  C5_5 
REMARK    4  A    between atoms: C5_5  and  C6_6 
REMARK    5  A    between atoms: C8_8  and  C9_9 
REMARK    6  A    between atoms: C20_23  and  C21_24 
REMARK    7  A    between atoms: C21_24  and  N1_25 
REMARK    8  A    between atoms: N1_25  and  C22_26 
REMARK    9  A    between atoms: C22_26  and  C23_27 
REMARK   10  A    between atoms: C23_27  and  C24_28 
REMARK   11  A    between atoms: C24_28  and  O4_29 
REMARK   12  A    between atoms: C29_34  and  O5_35 
REMARK   13  A    between atoms: C30_36  and  O6_37 
REMARK   14  A    between atoms: C34_41  and  C35_42 
REMARK   15  A    between atoms: C41_48  and  O7_49 
REMARK   16  A    between atoms: C42_50  and  O8_51 
ROOT
HETATM    1  C6  UNL     1       1.196   6.933  11.696  1.00  0.00     0.016 C 
HETATM    2  C7  UNL     1       0.339   7.973  12.402  1.00  0.00     0.027 C 
HETATM    3  C8  UNL     1       0.668   8.106  13.929  1.00  0.00     0.051 C 
HETATM    4  C10 UNL     1       0.032   9.465  14.421  1.00  0.00     0.041 C 
HETATM    5  C11 UNL     1      -1.491   9.554  14.267  1.00  0.00     0.010 C 
HETATM    6  C12 UNL     1      -1.889  11.022  14.237  1.00  0.00     0.013 C 
HETATM    7  C13 UNL     1      -1.443  11.815  15.483  1.00  0.00    -0.002 C 
HETATM    8  C14 UNL     1      -2.746  12.213  16.229  1.00  0.00     0.019 C 
HETATM    9  C15 UNL     1      -0.577  13.042  15.079  1.00  0.00     0.036 C 
HETATM   10  C16 UNL     1      -1.013  14.240  14.312  1.00  0.00    -0.035 C 
HETATM   11  C17 UNL     1      -2.185  14.662  13.842  1.00  0.00     0.088 C 
HETATM   12  C18 UNL     1      -1.942  16.011  13.323  1.00  0.00     0.284 C 
HETATM   13  O2  UNL     1      -2.752  16.692  12.725  1.00  0.00    -0.260 OA
HETATM   14  O3  UNL     1      -0.663  16.388  13.607  1.00  0.00    -0.304 OA
HETATM   15  C19 UNL     1       0.057  15.246  14.046  1.00  0.00     0.192 C 
HETATM   16  C20 UNL     1       0.939  15.518  15.258  1.00  0.00    -0.022 C 
HETATM   17  C26 UNL     1       0.926  14.682  16.323  1.00  0.00    -0.014 C 
HETATM   18  C27 UNL     1      -0.049  13.537  16.434  1.00  0.00     0.021 C 
HETATM   19  C28 UNL     1       0.440  12.246  17.085  1.00  0.00     0.051 C 
HETATM   20  C29 UNL     1      -0.420  11.085  16.462  1.00  0.00     0.098 C 
HETATM   21  C30 UNL     1       0.425   9.859  15.861  1.00  0.00     0.095 C 
HETATM   22  C31 UNL     1       1.939  10.052  15.831  1.00  0.00     0.049 C 
HETATM   23  C32 UNL     1       2.756   8.814  15.415  1.00  0.00     0.025 C 
HETATM   24  C33 UNL     1       4.277   9.157  15.386  1.00  0.00     0.012 C 
HETATM   25  C34 UNL     1       4.702  10.424  14.587  1.00  0.00    -0.011 C 
HETATM   26  C38 UNL     1       4.527  10.334  13.054  1.00  0.00     0.005 C 
HETATM   27  C39 UNL     1       3.209   9.748  12.533  1.00  0.00     0.010 C 
HETATM   28  C40 UNL     1       3.091   8.261  12.895  1.00  0.00     0.051 C 
HETATM   29  C41 UNL     1       2.673   7.356  11.708  1.00  0.00     0.129 C 
HETATM   30  C42 UNL     1       2.241   8.002  14.175  1.00  0.00     0.082 C 
ENDROOT
BRANCH  16  31
HETATM   31  C21 UNL     1       1.798  16.757  15.122  1.00  0.00     0.306 C 
BRANCH  31  32
HETATM   32  N1  UNL     1       1.060  18.020  15.196  1.00  0.00     0.087 N 
HETATM   33  H29 UNL     1       1.610  18.738  14.721  1.00  0.00     0.316 HD
BRANCH  32  34
HETATM   34  C22 UNL     1       0.894  18.435  16.595  1.00  0.00     0.272 C 
BRANCH  34  35
HETATM   35  C23 UNL     1      -0.574  18.309  17.020  1.00  0.00     0.056 C 
BRANCH  35  36
HETATM   36  C24 UNL     1      -1.501  18.898  15.966  1.00  0.00     0.168 C 
BRANCH  36  37
HETATM   37  O4  UNL     1      -2.735  18.182  15.889  1.00  0.00    -0.396 OA
HETATM   38  C25 UNL     1      -3.876  19.020  16.036  1.00  0.00     0.201 C 
ENDBRANCH  36  37
ENDBRANCH  35  36
ENDBRANCH  34  35
ENDBRANCH  32  34
ENDBRANCH  31  32
ENDBRANCH  16  31
BRANCH  20  39
HETATM   39  O5  UNL     1      -1.165  10.540  17.583  1.00  0.00    -0.386 OA
HETATM   40  H43 UNL     1      -1.702   9.800  17.231  1.00  0.00     0.210 HD
ENDBRANCH  20  39
BRANCH  21  41
HETATM   41  O6  UNL     1       0.183   8.732  16.723  1.00  0.00    -0.386 OA
HETATM   42  H44 UNL     1       0.163   9.083  17.638  1.00  0.00     0.210 HD
ENDBRANCH  21  41
BRANCH   3  43
HETATM   43  C9  UNL     1      -0.047   6.950  14.659  1.00  0.00     0.244 C 
HETATM   44  O1  UNL     1      -0.882   6.217  14.128  1.00  0.00    -0.306 OA
ENDBRANCH   3  43
BRANCH  30  45
HETATM   45  O8  UNL     1       2.526   6.611  14.516  1.00  0.00    -0.388 OA
HETATM   46  H65 UNL     1       3.111   6.212  13.836  1.00  0.00     0.210 HD
ENDBRANCH  30  45
BRANCH   1  47
HETATM   47  C5  UNL     1       0.748   6.677  10.235  1.00  0.00     0.007 C 
BRANCH  47  48
HETATM   48  C4  UNL     1       0.207   7.885   9.458  1.00  0.00     0.000 C 
BRANCH  48  49
HETATM   49  C3  UNL     1       1.168   8.434   8.404  1.00  0.00    -0.000 C 
BRANCH  49  50
HETATM   50  C2  UNL     1       2.166   7.362   7.954  1.00  0.00    -0.005 C 
HETATM   51  C1  UNL     1       1.897   6.926   6.524  1.00  0.00     0.005 C 
ENDBRANCH  49  50
ENDBRANCH  48  49
ENDBRANCH  47  48
ENDBRANCH   1  47
BRANCH  25  52
HETATM   52  C35 UNL     1       6.148  10.867  14.998  1.00  0.00    -0.019 C 
HETATM   53  C36 UNL     1       6.660  10.211  16.279  1.00  0.00     0.010 C 
HETATM   54  C37 UNL     1       7.152  10.666  13.863  1.00  0.00     0.010 C 
ENDBRANCH  25  52
BRANCH  29  55
HETATM   55  O7  UNL     1       3.454   6.151  11.830  1.00  0.00    -0.395 OA
HETATM   56  H64 UNL     1       3.215   5.565  11.088  1.00  0.00     0.210 HD
ENDBRANCH  29  55
TORSDOF 16
ENDMDL
MODEL 8
REMARK minimizedAffinity -5.85606766
REMARK CNNscore 0.274500012
REMARK CNNaffinity 6.10800314
REMARK  16 active torsions:
REMARK  status: ('A' for Active; 'I' for Inactive)
REMARK    1  A    between atoms: C2_2  and  C3_3 
REMARK    2  A    between atoms: C3_3  and  C4_4 
REMARK    3  A    between atoms: C4_4  and  C5_5 
REMARK    4  A    between atoms: C5_5  and  C6_6 
REMARK    5  A    between atoms: C8_8  and  C9_9 
REMARK    6  A    between atoms: C20_23  and  C21_24 
REMARK    7  A    between atoms: C21_24  and  N1_25 
REMARK    8  A    between atoms: N1_25  and  C22_26 
REMARK    9  A    between atoms: C22_26  and  C23_27 
REMARK   10  A    between atoms: C23_27  and  C24_28 
REMARK   11  A    between atoms: C24_28  and  O4_29 
REMARK   12  A    between atoms: C29_34  and  O5_35 
REMARK   13  A    between atoms: C30_36  and  O6_37 
REMARK   14  A    between atoms: C34_41  and  C35_42 
REMARK   15  A    between atoms: C41_48  and  O7_49 
REMARK   16  A    between atoms: C42_50  and  O8_51 
ROOT
HETATM    1  C6  UNL     1       0.262   7.918  14.954  1.00  0.00     0.016 C 
HETATM    2  C7  UNL     1       0.246   9.439  15.002  1.00  0.00     0.027 C 
HETATM    3  C8  UNL     1       1.543  10.046  15.641  1.00  0.00     0.051 C 
HETATM    4  C10 UNL     1       1.577  11.575  15.248  1.00  0.00     0.041 C 
HETATM    5  C11 UNL     1       0.384  12.394  15.755  1.00  0.00     0.010 C 
HETATM    6  C12 UNL     1       0.245  13.636  14.886  1.00  0.00     0.013 C 
HETATM    7  C13 UNL     1       1.509  14.519  14.852  1.00  0.00    -0.002 C 
HETATM    8  C14 UNL     1       1.126  15.845  15.564  1.00  0.00     0.019 C 
HETATM    9  C15 UNL     1       1.998  14.733  13.391  1.00  0.00     0.036 C 
HETATM   10  C16 UNL     1       1.297  15.469  12.306  1.00  0.00    -0.035 C 
HETATM   11  C17 UNL     1       0.179  16.191  12.248  1.00  0.00     0.088 C 
HETATM   12  C18 UNL     1       0.153  16.777  10.905  1.00  0.00     0.284 C 
HETATM   13  O2  UNL     1      -0.761  17.427  10.438  1.00  0.00    -0.260 OA
HETATM   14  O3  UNL     1       1.312  16.479  10.252  1.00  0.00    -0.304 OA
HETATM   15  C19 UNL     1       2.001  15.479  10.990  1.00  0.00     0.192 C 
HETATM   16  C20 UNL     1       3.496  15.742  11.112  1.00  0.00    -0.022 C 
HETATM   17  C26 UNL     1       4.119  15.642  12.310  1.00  0.00    -0.014 C 
HETATM   18  C27 UNL     1       3.361  15.411  13.593  1.00  0.00     0.021 C 
HETATM   19  C28 UNL     1       4.011  14.528  14.655  1.00  0.00     0.051 C 
HETATM   20  C29 UNL     1       2.832  13.891  15.480  1.00  0.00     0.098 C 
HETATM   21  C30 UNL     1       2.890  12.293  15.627  1.00  0.00     0.095 C 
HETATM   22  C31 UNL     1       3.981  11.594  14.822  1.00  0.00     0.049 C 
HETATM   23  C32 UNL     1       4.144  10.087  15.095  1.00  0.00     0.025 C 
HETATM   24  C33 UNL     1       5.259   9.491  14.183  1.00  0.00     0.012 C 
HETATM   25  C34 UNL     1       5.165   9.794  12.659  1.00  0.00    -0.011 C 
HETATM   26  C38 UNL     1       3.980   9.131  11.920  1.00  0.00     0.005 C 
HETATM   27  C39 UNL     1       2.607   9.195  12.601  1.00  0.00     0.010 C 
HETATM   28  C40 UNL     1       2.599   8.372  13.895  1.00  0.00     0.051 C 
HETATM   29  C41 UNL     1       1.383   7.421  14.029  1.00  0.00     0.129 C 
HETATM   30  C42 UNL     1       2.832   9.230  15.175  1.00  0.00     0.082 C 
ENDROOT
BRANCH  16  31
HETATM   31  C21 UNL     1       4.165  16.091   9.799  1.00  0.00     0.306 C 
BRANCH  31  32
HETATM   32  N1  UNL     1       4.141  17.517   9.464  1.00  0.00     0.087 N 
HETATM   33  H29 UNL     1       3.490  17.982  10.099  1.00  0.00     0.316 HD
BRANCH  32  34
HETATM   34  C22 UNL     1       3.650  17.713   8.094  1.00  0.00     0.272 C 
BRANCH  34  35
HETATM   35  C23 UNL     1       4.399  16.795   7.121  1.00  0.00     0.056 C 
BRANCH  35  36
HETATM   36  C24 UNL     1       4.031  17.111   5.678  1.00  0.00     0.168 C 
BRANCH  36  37
HETATM   37  O4  UNL     1       3.223  16.084   5.102  1.00  0.00    -0.396 OA
HETATM   38  C25 UNL     1       1.862  16.470   4.940  1.00  0.00     0.201 C 
ENDBRANCH  36  37
ENDBRANCH  35  36
ENDBRANCH  34  35
ENDBRANCH  32  34
ENDBRANCH  31  32
ENDBRANCH  16  31
BRANCH  20  39
HETATM   39  O5  UNL     1       2.999  14.418  16.823  1.00  0.00    -0.386 OA
HETATM   40  H43 UNL     1       2.286  14.027  17.370  1.00  0.00     0.210 HD
ENDBRANCH  20  39
BRANCH  21  41
HETATM   41  O6  UNL     1       3.175  12.018  17.011  1.00  0.00    -0.386 OA
HETATM   42  H44 UNL     1       3.826  12.692  17.298  1.00  0.00     0.210 HD
ENDBRANCH  21  41
BRANCH   3  43
HETATM   43  C9  UNL     1       1.393   9.947  17.173  1.00  0.00     0.244 C 
HETATM   44  O1  UNL     1       2.309   9.632  17.932  1.00  0.00    -0.306 OA
ENDBRANCH   3  43
BRANCH  30  45
HETATM   45  O8  UNL     1       3.112   8.246  16.218  1.00  0.00    -0.388 OA
HETATM   46  H65 UNL     1       3.022   7.339  15.854  1.00  0.00     0.210 HD
ENDBRANCH  30  45
BRANCH   1  47
HETATM   47  C5  UNL     1      -1.090   7.317  14.491  1.00  0.00     0.007 C 
BRANCH  47  48
HETATM   48  C4  UNL     1      -2.217   8.313  14.183  1.00  0.00     0.000 C 
BRANCH  48  49
HETATM   49  C3  UNL     1      -3.037   7.966  12.941  1.00  0.00    -0.000 C 
BRANCH  49  50
HETATM   50  C2  UNL     1      -4.517   8.310  13.141  1.00  0.00    -0.005 C 
HETATM   51  C1  UNL     1      -4.745   9.004  14.473  1.00  0.00     0.005 C 
ENDBRANCH  49  50
ENDBRANCH  48  49
ENDBRANCH  47  48
ENDBRANCH   1  47
BRANCH  25  52
HETATM   52  C35 UNL     1       6.539   9.510  11.961  1.00  0.00    -0.019 C 
HETATM   53  C36 UNL     1       6.564   9.854  10.472  1.00  0.00     0.010 C 
HETATM   54  C37 UNL     1       7.700  10.194  12.682  1.00  0.00     0.010 C 
ENDBRANCH  25  52
BRANCH  29  55
HETATM   55  O7  UNL     1       1.890   6.200  14.603  1.00  0.00    -0.395 OA
HETATM   56  H64 UNL     1       1.144   5.579  14.691  1.00  0.00     0.210 HD
ENDBRANCH  29  55
TORSDOF 16
ENDMDL
MODEL 9
REMARK minimizedAffinity -6.36801004
REMARK CNNscore 0.268104166
REMARK CNNaffinity 6.81165552
REMARK  16 active torsions:
REMARK  status: ('A' for Active; 'I' for Inactive)
REMARK    1  A    between atoms: C2_2  and  C3_3 
REMARK    2  A    between atoms: C3_3  and  C4_4 
REMARK    3  A    between atoms: C4_4  and  C5_5 
REMARK    4  A    between atoms: C5_5  and  C6_6 
REMARK    5  A    between atoms: C8_8  and  C9_9 
REMARK    6  A    between atoms: C20_23  and  C21_24 
REMARK    7  A    between atoms: C21_24  and  N1_25 
REMARK    8  A    between atoms: N1_25  and  C22_26 
REMARK    9  A    between atoms: C22_26  and  C23_27 
REMARK   10  A    between atoms: C23_27  and  C24_28 
REMARK   11  A    between atoms: C24_28  and  O4_29 
REMARK   12  A    between atoms: C29_34  and  O5_35 
REMARK   13  A    between atoms: C30_36  and  O6_37 
REMARK   14  A    between atoms: C34_41  and  C35_42 
REMARK   15  A    between atoms: C41_48  and  O7_49 
REMARK   16  A    between atoms: C42_50  and  O8_51 
ROOT
HETATM    1  C6  UNL     1       1.098   6.914  11.693  1.00  0.00     0.016 C 
HETATM    2  C7  UNL     1       0.256   7.960  12.409  1.00  0.00     0.027 C 
HETATM    3  C8  UNL     1       0.597   8.082  13.934  1.00  0.00     0.051 C 
HETATM    4  C10 UNL     1      -0.022   9.447  14.437  1.00  0.00     0.041 C 
HETATM    5  C11 UNL     1      -1.545   9.551  14.293  1.00  0.00     0.010 C 
HETATM    6  C12 UNL     1      -1.928  11.024  14.273  1.00  0.00     0.013 C 
HETATM    7  C13 UNL     1      -1.466  11.807  15.518  1.00  0.00    -0.002 C 
HETATM    8  C14 UNL     1      -2.759  12.214  16.275  1.00  0.00     0.019 C 
HETATM    9  C15 UNL     1      -0.590  13.027  15.113  1.00  0.00     0.036 C 
HETATM   10  C16 UNL     1      -1.019  14.232  14.355  1.00  0.00    -0.035 C 
HETATM   11  C17 UNL     1      -2.190  14.668  13.894  1.00  0.00     0.088 C 
HETATM   12  C18 UNL     1      -1.937  16.016  13.379  1.00  0.00     0.284 C 
HETATM   13  O2  UNL     1      -2.744  16.708  12.789  1.00  0.00    -0.260 OA
HETATM   14  O3  UNL     1      -0.653  16.380  13.656  1.00  0.00    -0.304 OA
HETATM   15  C19 UNL     1       0.059  15.228  14.085  1.00  0.00     0.192 C 
HETATM   16  C20 UNL     1       0.952  15.486  15.292  1.00  0.00    -0.022 C 
HETATM   17  C26 UNL     1       0.938  14.646  16.354  1.00  0.00    -0.014 C 
HETATM   18  C27 UNL     1      -0.048  13.510  16.467  1.00  0.00     0.021 C 
HETATM   19  C28 UNL     1       0.433  12.212  17.109  1.00  0.00     0.051 C 
HETATM   20  C29 UNL     1      -0.444  11.062  16.487  1.00  0.00     0.098 C 
HETATM   21  C30 UNL     1       0.385   9.830  15.875  1.00  0.00     0.095 C 
HETATM   22  C31 UNL     1       1.900  10.008  15.835  1.00  0.00     0.049 C 
HETATM   23  C32 UNL     1       2.703   8.764  15.408  1.00  0.00     0.025 C 
HETATM   24  C33 UNL     1       4.226   9.092  15.370  1.00  0.00     0.012 C 
HETATM   25  C34 UNL     1       4.659  10.357  14.574  1.00  0.00    -0.011 C 
HETATM   26  C38 UNL     1       4.472  10.276  13.041  1.00  0.00     0.005 C 
HETATM   27  C39 UNL     1       3.144   9.705  12.528  1.00  0.00     0.010 C 
HETATM   28  C40 UNL     1       3.014   8.218  12.884  1.00  0.00     0.051 C 
HETATM   29  C41 UNL     1       2.579   7.322  11.696  1.00  0.00     0.129 C 
HETATM   30  C42 UNL     1       2.171   7.962  14.169  1.00  0.00     0.082 C 
ENDROOT
BRANCH  16  31
HETATM   31  C21 UNL     1       1.823  16.717  15.155  1.00  0.00     0.306 C 
BRANCH  31  32
HETATM   32  N1  UNL     1       2.622  17.032  16.342  1.00  0.00     0.087 N 
HETATM   33  H29 UNL     1       2.548  18.035  16.518  1.00  0.00     0.316 HD
BRANCH  32  34
HETATM   34  C22 UNL     1       4.037  16.720  16.104  1.00  0.00     0.272 C 
BRANCH  34  35
HETATM   35  C23 UNL     1       4.522  15.647  17.087  1.00  0.00     0.056 C 
BRANCH  35  36
HETATM   36  C24 UNL     1       3.951  15.881  18.478  1.00  0.00     0.168 C 
BRANCH  36  37
HETATM   37  O4  UNL     1       3.908  14.675  19.241  1.00  0.00    -0.396 OA
HETATM   38  C25 UNL     1       3.803  13.507  18.433  1.00  0.00     0.201 C 
ENDBRANCH  36  37
ENDBRANCH  35  36
ENDBRANCH  34  35
ENDBRANCH  32  34
ENDBRANCH  31  32
ENDBRANCH  16  31
BRANCH  20  39
HETATM   39  O5  UNL     1      -1.186  10.520  17.611  1.00  0.00    -0.386 OA
HETATM   40  H43 UNL     1      -1.733   9.787  17.259  1.00  0.00     0.210 HD
ENDBRANCH  20  39
BRANCH  21  41
HETATM   41  O6  UNL     1       0.138   8.702  16.734  1.00  0.00    -0.386 OA
HETATM   42  H44 UNL     1       0.127   9.049  17.651  1.00  0.00     0.210 HD
ENDBRANCH  21  41
BRANCH   3  43
HETATM   43  C9  UNL     1      -0.125   6.931  14.664  1.00  0.00     0.244 C 
HETATM   44  O1  UNL     1      -0.972   6.210  14.137  1.00  0.00    -0.306 OA
ENDBRANCH   3  43
BRANCH  30  45
HETATM   45  O8  UNL     1       2.444   6.567  14.502  1.00  0.00    -0.388 OA
HETATM   46  H65 UNL     1       3.020   6.165  13.816  1.00  0.00     0.210 HD
ENDBRANCH  30  45
BRANCH   1  47
HETATM   47  C5  UNL     1       0.637   6.669  10.234  1.00  0.00     0.007 C 
BRANCH  47  48
HETATM   48  C4  UNL     1       0.187   7.901   9.437  1.00  0.00     0.000 C 
BRANCH  48  49
HETATM   49  C3  UNL     1       1.195   8.370   8.388  1.00  0.00    -0.000 C 
BRANCH  49  50
HETATM   50  C2  UNL     1       2.125   7.228   7.964  1.00  0.00    -0.005 C 
HETATM   51  C1  UNL     1       1.927   6.872   6.501  1.00  0.00     0.005 C 
ENDBRANCH  49  50
ENDBRANCH  48  49
ENDBRANCH  47  48
ENDBRANCH   1  47
BRANCH  25  52
HETATM   52  C35 UNL     1       6.111  10.784  14.976  1.00  0.00    -0.019 C 
HETATM   53  C36 UNL     1       6.631  10.108  16.245  1.00  0.00     0.010 C 
HETATM   54  C37 UNL     1       7.103  10.590  13.829  1.00  0.00     0.010 C 
ENDBRANCH  25  52
BRANCH  29  55
HETATM   55  O7  UNL     1       3.348   6.109  11.808  1.00  0.00    -0.395 OA
HETATM   56  H64 UNL     1       3.098   5.528  11.065  1.00  0.00     0.210 HD
ENDBRANCH  29  55
TORSDOF 16
ENDMDL
