MODEL 1
REMARK minimizedAffinity -9.61377525
REMARK  9 active torsions:
REMARK  status: ('A' for Active; 'I' for Inactive)
REMARK    1  A    between atoms: C3_3  and  O1_4 
REMARK    2  A    between atoms: N1_14  and  O2_16 
REMARK    3  A    between atoms: O2_16  and  C13_17 
REMARK    4  A    between atoms: C13_17  and  C14_18 
REMARK       I    between atoms: C14_18  and  N2_20 
REMARK    5  A    between atoms: N2_20  and  C15_21 
REMARK    6  A    between atoms: C15_21  and  C16_22 
REMARK    7  A    between atoms: C15_21  and  C17_25 
REMARK    8  A    between atoms: C16_22  and  O5_24 
REMARK    9  A    between atoms: C17_25  and  C19_27 
ROOT
HETATM    1  C1  UNL     1      -7.832   4.960  15.898  1.00  0.00     0.015 C 
HETATM    2  C2  UNL     1      -7.194   5.621  15.124  1.00  0.00    -0.078 C 
HETATM    3  C3  UNL     1      -6.426   6.431  14.167  1.00  0.00     0.128 C 
HETATM    4  C4  UNL     1      -6.531   7.949  14.460  1.00  0.00     0.052 C 
HETATM    5  C5  UNL     1      -5.173   8.564  14.061  1.00  0.00     0.010 C 
HETATM    6  C6  UNL     1      -4.413   7.420  13.396  1.00  0.00     0.002 C 
HETATM    7  C7  UNL     1      -2.887   7.517  13.283  1.00  0.00    -0.004 C 
HETATM    8  C8  UNL     1      -2.462   8.783  12.528  1.00  0.00     0.010 C 
HETATM    9  C9  UNL     1      -0.946   8.860  12.394  1.00  0.00     0.035 C 
HETATM   10  C10 UNL     1      -0.368   7.624  11.746  1.00  0.00    -0.069 C 
HETATM   11  C11 UNL     1       0.490   7.755  10.719  1.00  0.00     0.030 C 
HETATM   12  C12 UNL     1       1.194   6.591  10.126  1.00  0.00     0.032 C 
HETATM   13  N1  UNL     1       1.990   6.812   9.118  1.00  0.00    -0.271 N 
ATOM     14  H1  UNL     1       2.125   7.724   8.685  1.00  0.00     0.194 HD
HETATM   15  C21 UNL     1       0.992   5.241  10.780  1.00  0.00     0.060 C 
HETATM   16  C22 UNL     1      -0.411   5.126  11.357  1.00  0.00     0.020 C 
HETATM   17  C23 UNL     1      -0.789   6.273  12.338  1.00  0.00    -0.016 C 
HETATM   18  C24 UNL     1      -0.027   6.070  13.667  1.00  0.00     0.020 C 
HETATM   19  C25 UNL     1      -2.353   6.250  12.544  1.00  0.00     0.002 C 
HETATM   20  C26 UNL     1      -2.886   4.940  13.186  1.00  0.00     0.007 C 
HETATM   21  C27 UNL     1      -4.412   4.935  13.389  1.00  0.00     0.014 C 
HETATM   22  C28 UNL     1      -4.892   6.169  14.170  1.00  0.00     0.003 C 
HETATM   23  C29 UNL     1      -4.345   6.105  15.625  1.00  0.00     0.020 C 
ENDROOT
BRANCH   3  24
HETATM   24  O1  UNL     1      -6.960   6.200  12.862  1.00  0.00    -0.377 OA
HETATM   25  H2  UNL     1      -7.923   6.324  12.923  1.00  0.00     0.211 HD
ENDBRANCH   3  24
BRANCH  13  26
HETATM   26  O2  UNL     1       2.636   5.641   8.703  1.00  0.00    -0.271 OA
BRANCH  26  27
HETATM   27  C13 UNL     1       3.527   5.217   9.730  1.00  0.00     0.303 C 
BRANCH  27  28
HETATM   28  C14 UNL     1       4.321   6.402  10.269  1.00  0.00     0.244 C 
HETATM   29  O3  UNL     1       4.531   7.413   9.603  1.00  0.00    -0.271 OA
HETATM   30  N2  UNL     1       4.743   6.269  11.571  1.00  0.00    -0.344 N 
HETATM   31  H16 UNL     1       4.539   5.397  12.056  1.00  0.00     0.163 HD
BRANCH  30  32
HETATM   32  C15 UNL     1       5.541   7.280  12.262  1.00  0.00     0.186 C 
BRANCH  32  33
HETATM   33  C16 UNL     1       6.655   7.722  11.312  1.00  0.00     0.163 C 
HETATM   34  O4  UNL     1       7.096   8.858  11.198  1.00  0.00    -0.648 OA
BRANCH  33  35
HETATM   35  O5  UNL     1       7.156   6.721  10.563  1.00  0.00    -0.775 OA
HETATM   36  H18 UNL     1       7.838   7.153  10.007  1.00  0.00     0.167 HD
ENDBRANCH  33  35
ENDBRANCH  32  33
BRANCH  32  37
HETATM   37  C17 UNL     1       4.675   8.451  12.787  1.00  0.00     0.014 C 
HETATM   38  C18 UNL     1       4.727   9.636  11.813  1.00  0.00     0.012 C 
BRANCH  37  39
HETATM   39  C19 UNL     1       3.198   8.112  13.088  1.00  0.00     0.002 C 
HETATM   40  C20 UNL     1       2.515   9.052  14.070  1.00  0.00     0.005 C 
ENDBRANCH  37  39
ENDBRANCH  32  37
ENDBRANCH  30  32
ENDBRANCH  27  28
ENDBRANCH  26  27
ENDBRANCH  13  26
TORSDOF 9
ENDMDL
MODEL 2
REMARK minimizedAffinity -9.48428249
REMARK  9 active torsions:
REMARK  status: ('A' for Active; 'I' for Inactive)
REMARK    1  A    between atoms: C3_3  and  O1_4 
REMARK    2  A    between atoms: N1_14  and  O2_16 
REMARK    3  A    between atoms: O2_16  and  C13_17 
REMARK    4  A    between atoms: C13_17  and  C14_18 
REMARK       I    between atoms: C14_18  and  N2_20 
REMARK    5  A    between atoms: N2_20  and  C15_21 
REMARK    6  A    between atoms: C15_21  and  C16_22 
REMARK    7  A    between atoms: C15_21  and  C17_25 
REMARK    8  A    between atoms: C16_22  and  O5_24 
REMARK    9  A    between atoms: C17_25  and  C19_27 
ROOT
HETATM    1  C1  UNL     1      -8.380   7.958  16.048  1.00  0.00     0.015 C 
HETATM    2  C2  UNL     1      -7.447   7.285  15.701  1.00  0.00    -0.078 C 
HETATM    3  C3  UNL     1      -6.308   6.452  15.288  1.00  0.00     0.128 C 
HETATM    4  C4  UNL     1      -6.727   5.317  14.319  1.00  0.00     0.052 C 
HETATM    5  C5  UNL     1      -5.540   5.108  13.356  1.00  0.00     0.010 C 
HETATM    6  C6  UNL     1      -4.430   5.997  13.912  1.00  0.00     0.002 C 
HETATM    7  C7  UNL     1      -3.277   6.402  12.988  1.00  0.00    -0.004 C 
HETATM    8  C8  UNL     1      -2.564   5.171  12.412  1.00  0.00     0.010 C 
HETATM    9  C9  UNL     1      -1.401   5.578  11.516  1.00  0.00     0.035 C 
HETATM   10  C10 UNL     1      -0.425   6.486  12.228  1.00  0.00    -0.069 C 
HETATM   11  C11 UNL     1       0.889   6.204  12.189  1.00  0.00     0.030 C 
HETATM   12  C12 UNL     1       1.910   7.122  12.752  1.00  0.00     0.032 C 
HETATM   13  N1  UNL     1       3.158   6.754  12.689  1.00  0.00    -0.271 N 
ATOM     14  H1  UNL     1       3.474   5.859  12.318  1.00  0.00     0.194 HD
HETATM   15  C21 UNL     1       1.434   8.453  13.295  1.00  0.00     0.060 C 
HETATM   16  C22 UNL     1       0.045   8.321  13.902  1.00  0.00     0.020 C 
HETATM   17  C23 UNL     1      -1.014   7.711  12.938  1.00  0.00    -0.016 C 
HETATM   18  C24 UNL     1      -1.380   8.761  11.866  1.00  0.00     0.020 C 
HETATM   19  C25 UNL     1      -2.266   7.276  13.793  1.00  0.00     0.002 C 
HETATM   20  C26 UNL     1      -2.973   8.452  14.521  1.00  0.00     0.007 C 
HETATM   21  C27 UNL     1      -4.197   8.014  15.345  1.00  0.00     0.014 C 
HETATM   22  C28 UNL     1      -5.197   7.205  14.502  1.00  0.00     0.003 C 
HETATM   23  C29 UNL     1      -5.818   8.125  13.411  1.00  0.00     0.020 C 
ENDROOT
BRANCH   3  24
HETATM   24  O1  UNL     1      -5.756   5.845  16.459  1.00  0.00    -0.377 OA
HETATM   25  H2  UNL     1      -6.494   5.435  16.941  1.00  0.00     0.211 HD
ENDBRANCH   3  24
BRANCH  13  26
HETATM   26  O2  UNL     1       4.015   7.741  13.195  1.00  0.00    -0.271 OA
BRANCH  26  27
HETATM   27  C13 UNL     1       4.905   8.151  12.162  1.00  0.00     0.303 C 
BRANCH  27  28
HETATM   28  C14 UNL     1       4.659   7.342  10.894  1.00  0.00     0.244 C 
HETATM   29  O3  UNL     1       5.224   6.273  10.673  1.00  0.00    -0.271 OA
HETATM   30  N2  UNL     1       3.723   7.878  10.041  1.00  0.00    -0.344 N 
HETATM   31  H16 UNL     1       3.304   8.772  10.288  1.00  0.00     0.163 HD
BRANCH  30  32
HETATM   32  C15 UNL     1       3.365   7.270   8.760  1.00  0.00     0.186 C 
BRANCH  32  33
HETATM   33  C16 UNL     1       3.188   5.769   8.990  1.00  0.00     0.163 C 
HETATM   34  O4  UNL     1       3.816   4.875   8.438  1.00  0.00    -0.648 OA
BRANCH  33  35
HETATM   35  O5  UNL     1       2.240   5.469   9.900  1.00  0.00    -0.775 OA
HETATM   36  H18 UNL     1       2.235   4.490   9.930  1.00  0.00     0.167 HD
ENDBRANCH  33  35
ENDBRANCH  32  33
BRANCH  32  37
HETATM   37  C17 UNL     1       2.131   7.946   8.116  1.00  0.00     0.014 C 
HETATM   38  C18 UNL     1       1.671   7.158   6.881  1.00  0.00     0.012 C 
BRANCH  37  39
HETATM   39  C19 UNL     1       0.920   8.167   9.050  1.00  0.00     0.002 C 
HETATM   40  C20 UNL     1      -0.388   8.473   8.338  1.00  0.00     0.005 C 
ENDBRANCH  37  39
ENDBRANCH  32  37
ENDBRANCH  30  32
ENDBRANCH  27  28
ENDBRANCH  26  27
ENDBRANCH  13  26
TORSDOF 9
ENDMDL
MODEL 3
REMARK minimizedAffinity -9.44151974
REMARK  9 active torsions:
REMARK  status: ('A' for Active; 'I' for Inactive)
REMARK    1  A    between atoms: C3_3  and  O1_4 
REMARK    2  A    between atoms: N1_14  and  O2_16 
REMARK    3  A    between atoms: O2_16  and  C13_17 
REMARK    4  A    between atoms: C13_17  and  C14_18 
REMARK       I    between atoms: C14_18  and  N2_20 
REMARK    5  A    between atoms: N2_20  and  C15_21 
REMARK    6  A    between atoms: C15_21  and  C16_22 
REMARK    7  A    between atoms: C15_21  and  C17_25 
REMARK    8  A    between atoms: C16_22  and  O5_24 
REMARK    9  A    between atoms: C17_25  and  C19_27 
ROOT
HETATM    1  C1  UNL     1       3.771   9.154  12.129  1.00  0.00     0.015 C 
HETATM    2  C2  UNL     1       2.864   8.489  11.705  1.00  0.00    -0.078 C 
HETATM    3  C3  UNL     1       1.756   7.683  11.173  1.00  0.00     0.128 C 
HETATM    4  C4  UNL     1       2.242   6.354  10.541  1.00  0.00     0.052 C 
HETATM    5  C5  UNL     1       1.135   5.314  10.809  1.00  0.00     0.010 C 
HETATM    6  C6  UNL     1      -0.010   6.119  11.421  1.00  0.00     0.002 C 
HETATM    7  C7  UNL     1      -1.083   5.378  12.226  1.00  0.00    -0.004 C 
HETATM    8  C8  UNL     1      -1.756   4.285  11.385  1.00  0.00     0.010 C 
HETATM    9  C9  UNL     1      -2.842   3.570  12.181  1.00  0.00     0.035 C 
HETATM   10  C10 UNL     1      -3.865   4.532  12.739  1.00  0.00    -0.069 C 
HETATM   11  C11 UNL     1      -5.174   4.285  12.553  1.00  0.00     0.030 C 
HETATM   12  C12 UNL     1      -6.230   5.114  13.185  1.00  0.00     0.032 C 
HETATM   13  N1  UNL     1      -7.472   4.815  12.929  1.00  0.00    -0.271 N 
ATOM     14  H1  UNL     1      -7.763   4.077  12.289  1.00  0.00     0.194 HD
HETATM   15  C21 UNL     1      -5.790   6.205  14.139  1.00  0.00     0.060 C 
HETATM   16  C22 UNL     1      -4.454   6.792  13.706  1.00  0.00     0.020 C 
HETATM   17  C23 UNL     1      -3.326   5.736  13.522  1.00  0.00    -0.016 C 
HETATM   18  C24 UNL     1      -2.868   5.241  14.912  1.00  0.00     0.020 C 
HETATM   19  C25 UNL     1      -2.149   6.408  12.715  1.00  0.00     0.002 C 
HETATM   20  C26 UNL     1      -1.495   7.614  13.441  1.00  0.00     0.007 C 
HETATM   21  C27 UNL     1      -0.342   8.255  12.646  1.00  0.00     0.014 C 
HETATM   22  C28 UNL     1       0.716   7.219  12.233  1.00  0.00     0.003 C 
HETATM   23  C29 UNL     1       1.428   6.670  13.502  1.00  0.00     0.020 C 
ENDROOT
BRANCH   3  24
HETATM   24  O1  UNL     1       1.108   8.442  10.149  1.00  0.00    -0.377 OA
HETATM   25  H2  UNL     1       1.803   8.753   9.543  1.00  0.00     0.211 HD
ENDBRANCH   3  24
BRANCH  13  26
HETATM   26  O2  UNL     1      -8.359   5.633  13.641  1.00  0.00    -0.271 OA
BRANCH  26  27
HETATM   27  C13 UNL     1      -9.261   6.241  12.722  1.00  0.00     0.303 C 
BRANCH  27  28
HETATM   28  C14 UNL     1     -10.376   6.964  13.469  1.00  0.00     0.244 C 
HETATM   29  O3  UNL     1     -10.334   7.168  14.680  1.00  0.00    -0.271 OA
HETATM   30  N2  UNL     1     -11.408   7.408  12.676  1.00  0.00    -0.344 N 
HETATM   31  H16 UNL     1     -11.377   7.192  11.681  1.00  0.00     0.163 HD
BRANCH  30  32
HETATM   32  C15 UNL     1     -12.584   8.098  13.203  1.00  0.00     0.186 C 
BRANCH  32  33
HETATM   33  C16 UNL     1     -12.518   9.553  12.739  1.00  0.00     0.163 C 
HETATM   34  O4  UNL     1     -12.888  10.530  13.376  1.00  0.00    -0.648 OA
BRANCH  33  35
HETATM   35  O5  UNL     1     -11.991   9.704  11.509  1.00  0.00    -0.775 OA
HETATM   36  H18 UNL     1     -12.025  10.671  11.348  1.00  0.00     0.167 HD
ENDBRANCH  33  35
ENDBRANCH  32  33
BRANCH  32  37
HETATM   37  C17 UNL     1     -13.903   7.384  12.817  1.00  0.00     0.014 C 
HETATM   38  C18 UNL     1     -14.293   6.358  13.890  1.00  0.00     0.012 C 
BRANCH  37  39
HETATM   39  C19 UNL     1     -15.111   8.307  12.542  1.00  0.00     0.002 C 
HETATM   40  C20 UNL     1     -16.401   7.892  13.231  1.00  0.00     0.005 C 
ENDBRANCH  37  39
ENDBRANCH  32  37
ENDBRANCH  30  32
ENDBRANCH  27  28
ENDBRANCH  26  27
ENDBRANCH  13  26
TORSDOF 9
ENDMDL
MODEL 4
REMARK minimizedAffinity -9.14964962
REMARK  9 active torsions:
REMARK  status: ('A' for Active; 'I' for Inactive)
REMARK    1  A    between atoms: C3_3  and  O1_4 
REMARK    2  A    between atoms: N1_14  and  O2_16 
REMARK    3  A    between atoms: O2_16  and  C13_17 
REMARK    4  A    between atoms: C13_17  and  C14_18 
REMARK       I    between atoms: C14_18  and  N2_20 
REMARK    5  A    between atoms: N2_20  and  C15_21 
REMARK    6  A    between atoms: C15_21  and  C16_22 
REMARK    7  A    between atoms: C15_21  and  C17_25 
REMARK    8  A    between atoms: C16_22  and  O5_24 
REMARK    9  A    between atoms: C17_25  and  C19_27 
ROOT
HETATM    1  C1  UNL     1      -5.369   9.589  15.902  1.00  0.00     0.015 C 
HETATM    2  C2  UNL     1      -4.591   8.717  15.625  1.00  0.00    -0.078 C 
HETATM    3  C3  UNL     1      -3.638   7.645  15.300  1.00  0.00     0.128 C 
HETATM    4  C4  UNL     1      -4.342   6.292  15.025  1.00  0.00     0.052 C 
HETATM    5  C5  UNL     1      -3.498   5.573  13.952  1.00  0.00     0.010 C 
HETATM    6  C6  UNL     1      -2.260   6.451  13.784  1.00  0.00     0.002 C 
HETATM    7  C7  UNL     1      -1.427   6.312  12.505  1.00  0.00    -0.004 C 
HETATM    8  C8  UNL     1      -0.935   4.871  12.312  1.00  0.00     0.010 C 
HETATM    9  C9  UNL     1      -0.084   4.744  11.055  1.00  0.00     0.035 C 
HETATM   10  C10 UNL     1       1.073   5.716  11.049  1.00  0.00    -0.069 C 
HETATM   11  C11 UNL     1       2.312   5.268  10.781  1.00  0.00     0.030 C 
HETATM   12  C12 UNL     1       3.467   6.187  10.630  1.00  0.00     0.032 C 
HETATM   13  N1  UNL     1       4.635   5.661  10.393  1.00  0.00    -0.271 N 
ATOM     14  H1  UNL     1       4.813   4.658  10.349  1.00  0.00     0.194 HD
HETATM   15  C21 UNL     1       3.194   7.675  10.690  1.00  0.00     0.060 C 
HETATM   16  C22 UNL     1       2.045   7.973  11.643  1.00  0.00     0.020 C 
HETATM   17  C23 UNL     1       0.739   7.187  11.329  1.00  0.00    -0.016 C 
HETATM   18  C24 UNL     1       0.087   7.783  10.062  1.00  0.00     0.020 C 
HETATM   19  C25 UNL     1      -0.209   7.285  12.586  1.00  0.00     0.002 C 
HETATM   20  C26 UNL     1      -0.651   8.733  12.932  1.00  0.00     0.007 C 
HETATM   21  C27 UNL     1      -1.583   8.813  14.155  1.00  0.00     0.014 C 
HETATM   22  C28 UNL     1      -2.799   7.883  14.011  1.00  0.00     0.003 C 
HETATM   23  C29 UNL     1      -3.702   8.387  12.849  1.00  0.00     0.020 C 
ENDROOT
BRANCH   3  24
HETATM   24  O1  UNL     1      -2.773   7.467  16.423  1.00  0.00    -0.377 OA
HETATM   25  H2  UNL     1      -3.340   7.376  17.207  1.00  0.00     0.211 HD
ENDBRANCH   3  24
BRANCH  13  26
HETATM   26  O2  UNL     1       5.618   6.642  10.207  1.00  0.00    -0.271 OA
BRANCH  26  27
HETATM   27  C13 UNL     1       6.663   6.431  11.152  1.00  0.00     0.303 C 
BRANCH  27  28
HETATM   28  C14 UNL     1       6.796   7.635  12.077  1.00  0.00     0.244 C 
HETATM   29  O3  UNL     1       7.513   8.597  11.809  1.00  0.00    -0.271 OA
HETATM   30  N2  UNL     1       6.019   7.581  13.210  1.00  0.00    -0.344 N 
HETATM   31  H16 UNL     1       5.457   6.746  13.368  1.00  0.00     0.163 HD
BRANCH  30  32
HETATM   32  C15 UNL     1       6.024   8.622  14.236  1.00  0.00     0.186 C 
BRANCH  32  33
HETATM   33  C16 UNL     1       4.996   8.234  15.299  1.00  0.00     0.163 C 
HETATM   34  O4  UNL     1       4.147   8.970  15.783  1.00  0.00    -0.648 OA
BRANCH  33  35
HETATM   35  O5  UNL     1       5.084   6.949  15.693  1.00  0.00    -0.775 OA
HETATM   36  H18 UNL     1       4.383   6.855  16.371  1.00  0.00     0.167 HD
ENDBRANCH  33  35
ENDBRANCH  32  33
BRANCH  32  37
HETATM   37  C17 UNL     1       7.441   8.871  14.808  1.00  0.00     0.014 C 
HETATM   38  C18 UNL     1       7.369   9.786  16.040  1.00  0.00     0.012 C 
BRANCH  37  39
HETATM   39  C19 UNL     1       8.253   7.607  15.169  1.00  0.00     0.002 C 
HETATM   40  C20 UNL     1       9.276   7.801  16.278  1.00  0.00     0.005 C 
ENDBRANCH  37  39
ENDBRANCH  32  37
ENDBRANCH  30  32
ENDBRANCH  27  28
ENDBRANCH  26  27
ENDBRANCH  13  26
TORSDOF 9
ENDMDL
MODEL 5
REMARK minimizedAffinity -9.14042854
REMARK  9 active torsions:
REMARK  status: ('A' for Active; 'I' for Inactive)
REMARK    1  A    between atoms: C3_3  and  O1_4 
REMARK    2  A    between atoms: N1_14  and  O2_16 
REMARK    3  A    between atoms: O2_16  and  C13_17 
REMARK    4  A    between atoms: C13_17  and  C14_18 
REMARK       I    between atoms: C14_18  and  N2_20 
REMARK    5  A    between atoms: N2_20  and  C15_21 
REMARK    6  A    between atoms: C15_21  and  C16_22 
REMARK    7  A    between atoms: C15_21  and  C17_25 
REMARK    8  A    between atoms: C16_22  and  O5_24 
REMARK    9  A    between atoms: C17_25  and  C19_27 
ROOT
HETATM    1  C1  UNL     1       2.712   8.827  12.062  1.00  0.00     0.015 C 
HETATM    2  C2  UNL     1       1.762   8.162  11.749  1.00  0.00    -0.078 C 
HETATM    3  C3  UNL     1       0.601   7.352  11.352  1.00  0.00     0.128 C 
HETATM    4  C4  UNL     1       0.986   5.888  11.022  1.00  0.00     0.052 C 
HETATM    5  C5  UNL     1      -0.209   5.015  11.456  1.00  0.00     0.010 C 
HETATM    6  C6  UNL     1      -1.294   6.015  11.849  1.00  0.00     0.002 C 
HETATM    7  C7  UNL     1      -2.442   5.542  12.748  1.00  0.00    -0.004 C 
HETATM    8  C8  UNL     1      -3.187   4.354  12.124  1.00  0.00     0.010 C 
HETATM    9  C9  UNL     1      -4.344   3.906  13.008  1.00  0.00     0.035 C 
HETATM   10  C10 UNL     1      -5.294   5.038  13.321  1.00  0.00    -0.069 C 
HETATM   11  C11 UNL     1      -6.615   4.862  13.141  1.00  0.00     0.030 C 
HETATM   12  C12 UNL     1      -7.610   5.883  13.553  1.00  0.00     0.032 C 
HETATM   13  N1  UNL     1      -8.868   5.635  13.318  1.00  0.00    -0.271 N 
ATOM     14  H1  UNL     1      -9.207   4.805  12.831  1.00  0.00     0.194 HD
HETATM   15  C21 UNL     1      -7.100   7.109  14.280  1.00  0.00     0.060 C 
HETATM   16  C22 UNL     1      -5.711   7.488  13.785  1.00  0.00     0.020 C 
HETATM   17  C23 UNL     1      -4.672   6.332  13.861  1.00  0.00    -0.016 C 
HETATM   18  C24 UNL     1      -4.285   6.101  15.339  1.00  0.00     0.020 C 
HETATM   19  C25 UNL     1      -3.427   6.730  12.978  1.00  0.00     0.002 C 
HETATM   20  C26 UNL     1      -2.688   8.005  13.466  1.00  0.00     0.007 C 
HETATM   21  C27 UNL     1      -1.471   8.377  12.601  1.00  0.00     0.014 C 
HETATM   22  C28 UNL     1      -0.495   7.198  12.446  1.00  0.00     0.003 C 
HETATM   23  C29 UNL     1       0.143   6.870  13.826  1.00  0.00     0.020 C 
ENDROOT
BRANCH   3  24
HETATM   24  O1  UNL     1       0.039   7.932  10.172  1.00  0.00    -0.377 OA
HETATM   25  H2  UNL     1       0.769   8.056   9.542  1.00  0.00     0.211 HD
ENDBRANCH   3  24
BRANCH  13  26
HETATM   26  O2  UNL     1      -9.697   6.648  13.815  1.00  0.00    -0.271 OA
BRANCH  26  27
HETATM   27  C13 UNL     1     -10.621   7.027  12.799  1.00  0.00     0.303 C 
BRANCH  27  28
HETATM   28  C14 UNL     1     -11.871   7.643  13.417  1.00  0.00     0.244 C 
HETATM   29  O3  UNL     1     -11.819   8.460  14.333  1.00  0.00    -0.271 OA
HETATM   30  N2  UNL     1     -13.054   7.248  12.839  1.00  0.00    -0.344 N 
HETATM   31  H16 UNL     1     -13.017   6.560  12.089  1.00  0.00     0.163 HD
BRANCH  30  32
HETATM   32  C15 UNL     1     -14.363   7.702  13.304  1.00  0.00     0.186 C 
BRANCH  32  33
HETATM   33  C16 UNL     1     -15.078   8.355  12.120  1.00  0.00     0.163 C 
HETATM   34  O4  UNL     1     -15.034   9.539  11.815  1.00  0.00    -0.648 OA
BRANCH  33  35
HETATM   35  O5  UNL     1     -15.803   7.491  11.383  1.00  0.00    -0.775 OA
HETATM   36  H18 UNL     1     -16.203   8.047  10.683  1.00  0.00     0.167 HD
ENDBRANCH  33  35
ENDBRANCH  32  33
BRANCH  32  37
HETATM   37  C17 UNL     1     -15.177   6.563  13.966  1.00  0.00     0.014 C 
HETATM   38  C18 UNL     1     -14.240   5.451  14.458  1.00  0.00     0.012 C 
BRANCH  37  39
HETATM   39  C19 UNL     1     -16.107   6.986  15.125  1.00  0.00     0.002 C 
HETATM   40  C20 UNL     1     -16.229   5.969  16.248  1.00  0.00     0.005 C 
ENDBRANCH  37  39
ENDBRANCH  32  37
ENDBRANCH  30  32
ENDBRANCH  27  28
ENDBRANCH  26  27
ENDBRANCH  13  26
TORSDOF 9
ENDMDL
MODEL 6
REMARK minimizedAffinity -9.0876627
REMARK  9 active torsions:
REMARK  status: ('A' for Active; 'I' for Inactive)
REMARK    1  A    between atoms: C3_3  and  O1_4 
REMARK    2  A    between atoms: N1_14  and  O2_16 
REMARK    3  A    between atoms: O2_16  and  C13_17 
REMARK    4  A    between atoms: C13_17  and  C14_18 
REMARK       I    between atoms: C14_18  and  N2_20 
REMARK    5  A    between atoms: N2_20  and  C15_21 
REMARK    6  A    between atoms: C15_21  and  C16_22 
REMARK    7  A    between atoms: C15_21  and  C17_25 
REMARK    8  A    between atoms: C16_22  and  O5_24 
REMARK    9  A    between atoms: C17_25  and  C19_27 
ROOT
HETATM    1  C1  UNL     1      -9.664   7.012  15.427  1.00  0.00     0.015 C 
HETATM    2  C2  UNL     1      -8.617   6.443  15.273  1.00  0.00    -0.078 C 
HETATM    3  C3  UNL     1      -7.340   5.737  15.094  1.00  0.00     0.128 C 
HETATM    4  C4  UNL     1      -7.461   4.530  14.131  1.00  0.00     0.052 C 
HETATM    5  C5  UNL     1      -6.114   4.431  13.385  1.00  0.00     0.010 C 
HETATM    6  C6  UNL     1      -5.219   5.463  14.068  1.00  0.00     0.002 C 
HETATM    7  C7  UNL     1      -3.979   5.970  13.324  1.00  0.00    -0.004 C 
HETATM    8  C8  UNL     1      -3.048   4.814  12.937  1.00  0.00     0.010 C 
HETATM    9  C9  UNL     1      -1.803   5.327  12.222  1.00  0.00     0.035 C 
HETATM   10  C10 UNL     1      -1.068   6.366  13.035  1.00  0.00    -0.069 C 
HETATM   11  C11 UNL     1       0.258   6.240  13.224  1.00  0.00     0.030 C 
HETATM   12  C12 UNL     1       1.061   7.291  13.897  1.00  0.00     0.032 C 
HETATM   13  N1  UNL     1       2.335   7.072  14.058  1.00  0.00    -0.271 N 
ATOM     14  H1  UNL     1       2.806   6.208  13.791  1.00  0.00     0.194 HD
HETATM   15  C21 UNL     1       0.356   8.574  14.286  1.00  0.00     0.060 C 
HETATM   16  C22 UNL     1      -1.092   8.298  14.665  1.00  0.00     0.020 C 
HETATM   17  C23 UNL     1      -1.900   7.536  13.575  1.00  0.00    -0.016 C 
HETATM   18  C24 UNL     1      -2.196   8.499  12.404  1.00  0.00     0.020 C 
HETATM   19  C25 UNL     1      -3.221   6.984  14.236  1.00  0.00     0.002 C 
HETATM   20  C26 UNL     1      -4.166   8.092  14.777  1.00  0.00     0.007 C 
HETATM   21  C27 UNL     1      -5.455   7.540  15.412  1.00  0.00     0.014 C 
HETATM   22  C28 UNL     1      -6.203   6.591  14.461  1.00  0.00     0.003 C 
HETATM   23  C29 UNL     1      -6.731   7.394  13.238  1.00  0.00     0.020 C 
ENDROOT
BRANCH   3  24
HETATM   24  O1  UNL     1      -6.927   5.240  16.369  1.00  0.00    -0.377 OA
HETATM   25  H2  UNL     1      -7.686   4.761  16.746  1.00  0.00     0.211 HD
ENDBRANCH   3  24
BRANCH  13  26
HETATM   26  O2  UNL     1       2.980   8.169  14.644  1.00  0.00    -0.271 OA
BRANCH  26  27
HETATM   27  C13 UNL     1       3.023   9.235  13.701  1.00  0.00     0.303 C 
BRANCH  27  28
HETATM   28  C14 UNL     1       4.021   8.925  12.591  1.00  0.00     0.244 C 
HETATM   29  O3  UNL     1       5.182   9.326  12.617  1.00  0.00    -0.271 OA
HETATM   30  N2  UNL     1       3.532   8.125  11.585  1.00  0.00    -0.344 N 
HETATM   31  H16 UNL     1       2.556   7.840  11.629  1.00  0.00     0.163 HD
BRANCH  30  32
HETATM   32  C15 UNL     1       4.321   7.737  10.417  1.00  0.00     0.186 C 
BRANCH  32  33
HETATM   33  C16 UNL     1       5.410   6.773  10.889  1.00  0.00     0.163 C 
HETATM   34  O4  UNL     1       6.462   6.535  10.311  1.00  0.00    -0.648 OA
BRANCH  33  35
HETATM   35  O5  UNL     1       5.125   6.166  12.057  1.00  0.00    -0.775 OA
HETATM   36  H18 UNL     1       5.896   5.583  12.221  1.00  0.00     0.167 HD
ENDBRANCH  33  35
ENDBRANCH  32  33
BRANCH  32  37
HETATM   37  C17 UNL     1       3.439   7.164   9.280  1.00  0.00     0.014 C 
HETATM   38  C18 UNL     1       2.340   6.259   9.857  1.00  0.00     0.012 C 
BRANCH  37  39
HETATM   39  C19 UNL     1       2.790   8.206   8.342  1.00  0.00     0.002 C 
HETATM   40  C20 UNL     1       2.216   7.636   7.054  1.00  0.00     0.005 C 
ENDBRANCH  37  39
ENDBRANCH  32  37
ENDBRANCH  30  32
ENDBRANCH  27  28
ENDBRANCH  26  27
ENDBRANCH  13  26
TORSDOF 9
ENDMDL
MODEL 7
REMARK minimizedAffinity -9.01433277
REMARK  9 active torsions:
REMARK  status: ('A' for Active; 'I' for Inactive)
REMARK    1  A    between atoms: C3_3  and  O1_4 
REMARK    2  A    between atoms: N1_14  and  O2_16 
REMARK    3  A    between atoms: O2_16  and  C13_17 
REMARK    4  A    between atoms: C13_17  and  C14_18 
REMARK       I    between atoms: C14_18  and  N2_20 
REMARK    5  A    between atoms: N2_20  and  C15_21 
REMARK    6  A    between atoms: C15_21  and  C16_22 
REMARK    7  A    between atoms: C15_21  and  C17_25 
REMARK    8  A    between atoms: C16_22  and  O5_24 
REMARK    9  A    between atoms: C17_25  and  C19_27 
ROOT
HETATM    1  C1  UNL     1       2.761   8.417  11.897  1.00  0.00     0.015 C 
HETATM    2  C2  UNL     1       1.765   7.811  11.609  1.00  0.00    -0.078 C 
HETATM    3  C3  UNL     1       0.547   7.073  11.242  1.00  0.00     0.128 C 
HETATM    4  C4  UNL     1       0.833   5.584  10.923  1.00  0.00     0.052 C 
HETATM    5  C5  UNL     1      -0.408   4.794  11.388  1.00  0.00     0.010 C 
HETATM    6  C6  UNL     1      -1.420   5.866  11.787  1.00  0.00     0.002 C 
HETATM    7  C7  UNL     1      -2.579   5.477  12.712  1.00  0.00    -0.004 C 
HETATM    8  C8  UNL     1      -3.410   4.333  12.116  1.00  0.00     0.010 C 
HETATM    9  C9  UNL     1      -4.577   3.970  13.025  1.00  0.00     0.035 C 
HETATM   10  C10 UNL     1      -5.447   5.164  13.341  1.00  0.00    -0.069 C 
HETATM   11  C11 UNL     1      -6.779   5.070  13.186  1.00  0.00     0.030 C 
HETATM   12  C12 UNL     1      -7.699   6.158  13.602  1.00  0.00     0.032 C 
HETATM   13  N1  UNL     1      -8.974   5.988  13.392  1.00  0.00    -0.271 N 
ATOM     14  H1  UNL     1      -9.374   5.177  12.922  1.00  0.00     0.194 HD
HETATM   15  C21 UNL     1      -7.098   7.356  14.306  1.00  0.00     0.060 C 
HETATM   16  C22 UNL     1      -5.698   7.640  13.783  1.00  0.00     0.020 C 
HETATM   17  C23 UNL     1      -4.734   6.421  13.854  1.00  0.00    -0.016 C 
HETATM   18  C24 UNL     1      -4.335   6.181  15.328  1.00  0.00     0.020 C 
HETATM   19  C25 UNL     1      -3.482   6.728  12.945  1.00  0.00     0.002 C 
HETATM   20  C26 UNL     1      -2.654   7.959  13.405  1.00  0.00     0.007 C 
HETATM   21  C27 UNL     1      -1.431   8.242  12.514  1.00  0.00     0.014 C 
HETATM   22  C28 UNL     1      -0.536   7.002  12.356  1.00  0.00     0.003 C 
HETATM   23  C29 UNL     1       0.104   6.648  13.728  1.00  0.00     0.020 C 
ENDROOT
BRANCH   3  24
HETATM   24  O1  UNL     1       0.002   7.675  10.065  1.00  0.00    -0.377 OA
HETATM   25  H2  UNL     1       0.728   7.746   9.421  1.00  0.00     0.211 HD
ENDBRANCH   3  24
BRANCH  13  26
HETATM   26  O2  UNL     1      -9.728   7.058  13.892  1.00  0.00    -0.271 OA
BRANCH  26  27
HETATM   27  C13 UNL     1     -11.092   6.656  13.984  1.00  0.00     0.303 C 
BRANCH  27  28
HETATM   28  C14 UNL     1     -11.986   7.628  13.223  1.00  0.00     0.244 C 
HETATM   29  O3  UNL     1     -11.547   8.410  12.384  1.00  0.00    -0.271 OA
HETATM   30  N2  UNL     1     -13.326   7.529  13.518  1.00  0.00    -0.344 N 
HETATM   31  H16 UNL     1     -13.613   6.862  14.233  1.00  0.00     0.163 HD
BRANCH  30  32
HETATM   32  C15 UNL     1     -14.344   8.390  12.918  1.00  0.00     0.186 C 
BRANCH  32  33
HETATM   33  C16 UNL     1     -15.389   7.488  12.261  1.00  0.00     0.163 C 
HETATM   34  O4  UNL     1     -15.841   6.450  12.727  1.00  0.00    -0.648 OA
BRANCH  33  35
HETATM   35  O5  UNL     1     -15.812   7.934  11.063  1.00  0.00    -0.775 OA
HETATM   36  H18 UNL     1     -16.458   7.259  10.767  1.00  0.00     0.167 HD
ENDBRANCH  33  35
ENDBRANCH  32  33
BRANCH  32  37
HETATM   37  C17 UNL     1     -14.942   9.388  13.939  1.00  0.00     0.014 C 
HETATM   38  C18 UNL     1     -14.758   8.865  15.371  1.00  0.00     0.012 C 
BRANCH  37  39
HETATM   39  C19 UNL     1     -14.406  10.834  13.860  1.00  0.00     0.002 C 
HETATM   40  C20 UNL     1     -13.779  11.210  12.526  1.00  0.00     0.005 C 
ENDBRANCH  37  39
ENDBRANCH  32  37
ENDBRANCH  30  32
ENDBRANCH  27  28
ENDBRANCH  26  27
ENDBRANCH  13  26
TORSDOF 9
ENDMDL
MODEL 8
REMARK minimizedAffinity -8.92293358
REMARK  9 active torsions:
REMARK  status: ('A' for Active; 'I' for Inactive)
REMARK    1  A    between atoms: C3_3  and  O1_4 
REMARK    2  A    between atoms: N1_14  and  O2_16 
REMARK    3  A    between atoms: O2_16  and  C13_17 
REMARK    4  A    between atoms: C13_17  and  C14_18 
REMARK       I    between atoms: C14_18  and  N2_20 
REMARK    5  A    between atoms: N2_20  and  C15_21 
REMARK    6  A    between atoms: C15_21  and  C16_22 
REMARK    7  A    between atoms: C15_21  and  C17_25 
REMARK    8  A    between atoms: C16_22  and  O5_24 
REMARK    9  A    between atoms: C17_25  and  C19_27 
ROOT
HETATM    1  C1  UNL     1       1.260   6.939  14.176  1.00  0.00     0.015 C 
HETATM    2  C2  UNL     1       0.249   6.650  13.596  1.00  0.00    -0.078 C 
HETATM    3  C3  UNL     1      -0.984   6.302  12.873  1.00  0.00     0.128 C 
HETATM    4  C4  UNL     1      -0.910   4.898  12.222  1.00  0.00     0.052 C 
HETATM    5  C5  UNL     1      -2.339   4.319  12.277  1.00  0.00     0.010 C 
HETATM    6  C6  UNL     1      -3.203   5.469  12.788  1.00  0.00     0.002 C 
HETATM    7  C7  UNL     1      -4.572   5.148  13.397  1.00  0.00    -0.004 C 
HETATM    8  C8  UNL     1      -5.459   4.382  12.407  1.00  0.00     0.010 C 
HETATM    9  C9  UNL     1      -6.828   4.090  13.007  1.00  0.00     0.035 C 
HETATM   10  C10 UNL     1      -7.517   5.345  13.492  1.00  0.00    -0.069 C 
HETATM   11  C11 UNL     1      -8.787   5.586  13.123  1.00  0.00     0.030 C 
HETATM   12  C12 UNL     1      -9.563   6.727  13.668  1.00  0.00     0.032 C 
HETATM   13  N1  UNL     1     -10.781   6.896  13.235  1.00  0.00    -0.271 N 
ATOM     14  H1  UNL     1     -11.217   6.321  12.516  1.00  0.00     0.194 HD
HETATM   15  C21 UNL     1      -8.909   7.573  14.741  1.00  0.00     0.060 C 
HETATM   16  C22 UNL     1      -7.405   7.650  14.523  1.00  0.00     0.020 C 
HETATM   17  C23 UNL     1      -6.707   6.264  14.416  1.00  0.00    -0.016 C 
HETATM   18  C24 UNL     1      -6.657   5.616  15.817  1.00  0.00     0.020 C 
HETATM   19  C25 UNL     1      -5.266   6.483  13.813  1.00  0.00     0.002 C 
HETATM   20  C26 UNL     1      -4.340   7.364  14.695  1.00  0.00     0.007 C 
HETATM   21  C27 UNL     1      -2.935   7.563  14.100  1.00  0.00     0.014 C 
HETATM   22  C28 UNL     1      -2.261   6.224  13.758  1.00  0.00     0.003 C 
HETATM   23  C29 UNL     1      -1.978   5.436  15.069  1.00  0.00     0.020 C 
ENDROOT
BRANCH   3  24
HETATM   24  O1  UNL     1      -1.169   7.259  11.828  1.00  0.00    -0.377 OA
HETATM   25  H2  UNL     1      -0.330   7.311  11.338  1.00  0.00     0.211 HD
ENDBRANCH   3  24
BRANCH  13  26
HETATM   26  O2  UNL     1     -11.416   7.966  13.880  1.00  0.00    -0.271 OA
BRANCH  26  27
HETATM   27  C13 UNL     1     -11.616   9.016  12.939  1.00  0.00     0.303 C 
BRANCH  27  28
HETATM   28  C14 UNL     1     -13.101   9.191  12.643  1.00  0.00     0.244 C 
HETATM   29  O3  UNL     1     -13.521  10.032  11.853  1.00  0.00    -0.271 OA
HETATM   30  N2  UNL     1     -13.926   8.305  13.295  1.00  0.00    -0.344 N 
HETATM   31  H16 UNL     1     -13.504   7.642  13.942  1.00  0.00     0.163 HD
BRANCH  30  32
HETATM   32  C15 UNL     1     -15.382   8.325  13.168  1.00  0.00     0.186 C 
BRANCH  32  33
HETATM   33  C16 UNL     1     -15.739   7.751  11.796  1.00  0.00     0.163 C 
HETATM   34  O4  UNL     1     -15.683   6.573  11.471  1.00  0.00    -0.648 OA
BRANCH  33  35
HETATM   35  O5  UNL     1     -16.146   8.681  10.910  1.00  0.00    -0.775 OA
HETATM   36  H18 UNL     1     -16.324   8.174  10.091  1.00  0.00     0.167 HD
ENDBRANCH  33  35
ENDBRANCH  32  33
BRANCH  32  37
HETATM   37  C17 UNL     1     -16.082   7.600  14.342  1.00  0.00     0.014 C 
HETATM   38  C18 UNL     1     -17.565   7.363  14.020  1.00  0.00     0.012 C 
BRANCH  37  39
HETATM   39  C19 UNL     1     -15.445   6.263  14.783  1.00  0.00     0.002 C 
HETATM   40  C20 UNL     1     -16.354   5.051  14.659  1.00  0.00     0.005 C 
ENDBRANCH  37  39
ENDBRANCH  32  37
ENDBRANCH  30  32
ENDBRANCH  27  28
ENDBRANCH  26  27
ENDBRANCH  13  26
TORSDOF 9
ENDMDL
MODEL 9
REMARK minimizedAffinity -8.79067516
REMARK  9 active torsions:
REMARK  status: ('A' for Active; 'I' for Inactive)
REMARK    1  A    between atoms: C3_3  and  O1_4 
REMARK    2  A    between atoms: N1_14  and  O2_16 
REMARK    3  A    between atoms: O2_16  and  C13_17 
REMARK    4  A    between atoms: C13_17  and  C14_18 
REMARK       I    between atoms: C14_18  and  N2_20 
REMARK    5  A    between atoms: N2_20  and  C15_21 
REMARK    6  A    between atoms: C15_21  and  C16_22 
REMARK    7  A    between atoms: C15_21  and  C17_25 
REMARK    8  A    between atoms: C16_22  and  O5_24 
REMARK    9  A    between atoms: C17_25  and  C19_27 
ROOT
HETATM    1  C1  UNL     1      -7.228   8.174  15.757  1.00  0.00     0.015 C 
HETATM    2  C2  UNL     1      -6.334   7.455  15.400  1.00  0.00    -0.078 C 
HETATM    3  C3  UNL     1      -5.241   6.568  14.974  1.00  0.00     0.128 C 
HETATM    4  C4  UNL     1      -5.743   5.392  14.098  1.00  0.00     0.052 C 
HETATM    5  C5  UNL     1      -4.619   5.095  13.084  1.00  0.00     0.010 C 
HETATM    6  C6  UNL     1      -3.457   5.982  13.525  1.00  0.00     0.002 C 
HETATM    7  C7  UNL     1      -2.349   6.300  12.516  1.00  0.00    -0.004 C 
HETATM    8  C8  UNL     1      -1.701   5.018  11.975  1.00  0.00     0.010 C 
HETATM    9  C9  UNL     1      -0.581   5.341  10.993  1.00  0.00     0.035 C 
HETATM   10  C10 UNL     1       0.457   6.259  11.595  1.00  0.00    -0.069 C 
HETATM   11  C11 UNL     1       1.759   5.938  11.500  1.00  0.00     0.030 C 
HETATM   12  C12 UNL     1       2.833   6.857  11.951  1.00  0.00     0.032 C 
HETATM   13  N1  UNL     1       4.066   6.451  11.841  1.00  0.00    -0.271 N 
ATOM     14  H1  UNL     1       4.337   5.527  11.506  1.00  0.00     0.194 HD
HETATM   15  C21 UNL     1       2.423   8.230  12.441  1.00  0.00     0.060 C 
HETATM   16  C22 UNL     1       1.068   8.173  13.131  1.00  0.00     0.020 C 
HETATM   17  C23 UNL     1      -0.059   7.539  12.264  1.00  0.00    -0.016 C 
HETATM   18  C24 UNL     1      -0.460   8.536  11.154  1.00  0.00     0.020 C 
HETATM   19  C25 UNL     1      -1.271   7.190  13.211  1.00  0.00     0.002 C 
HETATM   20  C26 UNL     1      -1.905   8.425  13.907  1.00  0.00     0.007 C 
HETATM   21  C27 UNL     1      -3.092   8.070  14.822  1.00  0.00     0.014 C 
HETATM   22  C28 UNL     1      -4.158   7.243  14.084  1.00  0.00     0.003 C 
HETATM   23  C29 UNL     1      -4.817   8.116  12.978  1.00  0.00     0.020 C 
ENDROOT
BRANCH   3  24
HETATM   24  O1  UNL     1      -4.639   6.014  16.145  1.00  0.00    -0.377 OA
HETATM   25  H2  UNL     1      -5.358   5.653  16.691  1.00  0.00     0.211 HD
ENDBRANCH   3  24
BRANCH  13  26
HETATM   26  O2  UNL     1       4.975   7.440  12.240  1.00  0.00    -0.271 OA
BRANCH  26  27
HETATM   27  C13 UNL     1       6.231   6.827  12.515  1.00  0.00     0.303 C 
BRANCH  27  28
HETATM   28  C14 UNL     1       7.133   7.783  13.286  1.00  0.00     0.244 C 
HETATM   29  O3  UNL     1       8.014   8.443  12.741  1.00  0.00    -0.271 OA
HETATM   30  N2  UNL     1       6.853   7.883  14.629  1.00  0.00    -0.344 N 
HETATM   31  H16 UNL     1       6.113   7.297  15.011  1.00  0.00     0.163 HD
BRANCH  30  32
HETATM   32  C15 UNL     1       7.620   8.723  15.547  1.00  0.00     0.186 C 
BRANCH  32  33
HETATM   33  C16 UNL     1       8.933   8.001  15.852  1.00  0.00     0.163 C 
HETATM   34  O4  UNL     1       9.886   7.887  15.094  1.00  0.00    -0.648 OA
BRANCH  33  35
HETATM   35  O5  UNL     1       8.981   7.467  17.088  1.00  0.00    -0.775 OA
HETATM   36  H18 UNL     1       9.861   7.037  17.131  1.00  0.00     0.167 HD
ENDBRANCH  33  35
ENDBRANCH  32  33
BRANCH  32  37
HETATM   37  C17 UNL     1       7.816  10.159  15.001  1.00  0.00     0.014 C 
HETATM   38  C18 UNL     1       6.507  10.955  15.103  1.00  0.00     0.012 C 
BRANCH  37  39
HETATM   39  C19 UNL     1       8.954  10.977  15.652  1.00  0.00     0.002 C 
HETATM   40  C20 UNL     1       8.524  11.851  16.819  1.00  0.00     0.005 C 
ENDBRANCH  37  39
ENDBRANCH  32  37
ENDBRANCH  30  32
ENDBRANCH  27  28
ENDBRANCH  26  27
ENDBRANCH  13  26
TORSDOF 9
ENDMDL
