MODEL 1
REMARK minimizedAffinity -9.2736063
REMARK  9 active torsions:
REMARK  status: ('A' for Active; 'I' for Inactive)
REMARK    1  A    between atoms: C2_2  and  C4_4 
REMARK    2  A    between atoms: C4_4  and  O1_5 
REMARK    3  A    between atoms: C4_4  and  C5_7 
REMARK    4  A    between atoms: O1_5  and  O2_6 
REMARK    5  A    between atoms: C5_7  and  O3_8 
REMARK    6  A    between atoms: C5_7  and  C6_9 
REMARK    7  A    between atoms: C6_9  and  C7_10 
REMARK    8  A    between atoms: C7_10  and  C9_12 
REMARK    9  A    between atoms: C20_23  and  O4_24 
ROOT
HETATM    1  C9  UNL     1      -4.558   7.606  13.371  1.00  0.00    -0.002 C 
HETATM    2  C10 UNL     1      -4.400   9.012  14.026  1.00  0.00     0.006 C 
HETATM    3  C11 UNL     1      -2.903   9.236  14.312  1.00  0.00     0.011 C 
HETATM    4  C12 UNL     1      -2.185   8.138  13.516  1.00  0.00    -0.032 C 
HETATM    5  C13 UNL     1      -2.077   8.641  12.032  1.00  0.00     0.016 C 
HETATM    6  C14 UNL     1      -0.755   7.749  14.024  1.00  0.00     0.004 C 
HETATM    7  C15 UNL     1       0.187   8.979  14.088  1.00  0.00     0.006 C 
HETATM    8  C16 UNL     1       1.597   8.829  13.529  1.00  0.00     0.006 C 
HETATM    9  C17 UNL     1       1.598   8.111  12.176  1.00  0.00     0.001 C 
HETATM   10  C18 UNL     1       3.018   7.906  11.588  1.00  0.00     0.015 C 
HETATM   11  C19 UNL     1       3.899   9.159  11.626  1.00  0.00     0.013 C 
HETATM   12  C20 UNL     1       2.924   7.387  10.133  1.00  0.00     0.122 C 
HETATM   13  C21 UNL     1       1.584   6.732   9.795  1.00  0.00     0.033 C 
HETATM   14  C22 UNL     1       1.009   5.929  10.960  1.00  0.00     0.013 C 
HETATM   15  C23 UNL     1       0.929   6.732  12.256  1.00  0.00    -0.027 A 
HETATM   16  C24 UNL     1       1.113   5.951  13.541  1.00  0.00     0.021 A 
HETATM   17  C25 UNL     1      -0.253   6.522  13.222  1.00  0.00    -0.027 A 
HETATM   18  C26 UNL     1      -1.277   5.385  13.064  1.00  0.00     0.011 C 
HETATM   19  C27 UNL     1      -2.715   5.815  12.751  1.00  0.00     0.011 C 
HETATM   20  C28 UNL     1      -3.186   6.930  13.698  1.00  0.00    -0.032 C 
HETATM   21  C29 UNL     1      -3.245   6.368  15.153  1.00  0.00     0.016 C 
ENDROOT
BRANCH   1  22
HETATM   22  C7  UNL     1      -5.897   6.916  13.787  1.00  0.00    -0.011 C 
HETATM   23  C8  UNL     1      -6.374   7.366  15.170  1.00  0.00     0.010 C 
BRANCH  22  24
HETATM   24  C6  UNL     1      -5.735   5.371  13.751  1.00  0.00     0.039 C 
BRANCH  24  25
HETATM   25  C5  UNL     1      -6.998   4.534  13.448  1.00  0.00     0.154 C 
BRANCH  25  26
HETATM   26  C4  UNL     1      -6.691   3.039  13.128  1.00  0.00     0.216 C 
BRANCH  26  27
HETATM   27  C2  UNL     1      -5.937   2.726  11.833  1.00  0.00    -0.059 C 
HETATM   28  C1  UNL     1      -5.072   3.552  11.219  1.00  0.00     0.016 C 
HETATM   29  C3  UNL     1      -6.189   1.353  11.264  1.00  0.00     0.045 C 
ENDBRANCH  26  27
BRANCH  26  30
HETATM   30  O1  UNL     1      -7.936   2.314  13.116  1.00  0.00    -0.231 OA
BRANCH  30  31
HETATM   31  O2  UNL     1      -8.977   3.258  12.722  1.00  0.00    -0.250 OA
HETATM   32  H7  UNL     1      -9.556   3.095  13.490  1.00  0.00     0.253 HD
ENDBRANCH  30  31
ENDBRANCH  26  30
ENDBRANCH  25  26
BRANCH  25  33
HETATM   33  O3  UNL     1      -7.862   4.653  14.595  1.00  0.00    -0.393 OA
HETATM   34  H9  UNL     1      -7.955   5.596  14.802  1.00  0.00     0.210 HD
ENDBRANCH  25  33
ENDBRANCH  24  25
ENDBRANCH  22  24
ENDBRANCH   1  22
BRANCH  12  35
HETATM   35  O4  UNL     1       3.984   6.453   9.924  1.00  0.00    -0.395 OA
HETATM   36  H35 UNL     1       3.957   6.180   8.991  1.00  0.00     0.210 HD
ENDBRANCH  12  35
TORSDOF 9
ENDMDL
MODEL 2
REMARK minimizedAffinity -9.1259222
REMARK  9 active torsions:
REMARK  status: ('A' for Active; 'I' for Inactive)
REMARK    1  A    between atoms: C2_2  and  C4_4 
REMARK    2  A    between atoms: C4_4  and  O1_5 
REMARK    3  A    between atoms: C4_4  and  C5_7 
REMARK    4  A    between atoms: O1_5  and  O2_6 
REMARK    5  A    between atoms: C5_7  and  O3_8 
REMARK    6  A    between atoms: C5_7  and  C6_9 
REMARK    7  A    between atoms: C6_9  and  C7_10 
REMARK    8  A    between atoms: C7_10  and  C9_12 
REMARK    9  A    between atoms: C20_23  and  O4_24 
ROOT
HETATM    1  C9  UNL     1      -4.888   8.022  13.754  1.00  0.00    -0.002 C 
HETATM    2  C10 UNL     1      -4.468   9.248  14.622  1.00  0.00     0.006 C 
HETATM    3  C11 UNL     1      -2.965   9.119  14.929  1.00  0.00     0.011 C 
HETATM    4  C12 UNL     1      -2.461   8.036  13.965  1.00  0.00    -0.032 C 
HETATM    5  C13 UNL     1      -2.217   8.731  12.578  1.00  0.00     0.016 C 
HETATM    6  C14 UNL     1      -1.151   7.292  14.396  1.00  0.00     0.004 C 
HETATM    7  C15 UNL     1       0.016   8.282  14.646  1.00  0.00     0.006 C 
HETATM    8  C16 UNL     1       1.381   7.940  14.061  1.00  0.00     0.006 C 
HETATM    9  C17 UNL     1       1.273   7.455  12.611  1.00  0.00     0.001 C 
HETATM   10  C18 UNL     1       2.637   7.063  11.989  1.00  0.00     0.015 C 
HETATM   11  C19 UNL     1       3.750   8.092  12.218  1.00  0.00     0.013 C 
HETATM   12  C20 UNL     1       2.478   6.807  10.471  1.00  0.00     0.122 C 
HETATM   13  C21 UNL     1       1.043   6.496  10.044  1.00  0.00     0.033 C 
HETATM   14  C22 UNL     1       0.290   5.654  11.072  1.00  0.00     0.013 C 
HETATM   15  C23 UNL     1       0.339   6.244  12.478  1.00  0.00    -0.027 A 
HETATM   16  C24 UNL     1       0.331   5.253  13.623  1.00  0.00     0.021 A 
HETATM   17  C25 UNL     1      -0.884   6.130  13.407  1.00  0.00    -0.027 A 
HETATM   18  C26 UNL     1      -2.111   5.260  13.079  1.00  0.00     0.011 C 
HETATM   19  C27 UNL     1      -3.426   6.015  12.847  1.00  0.00     0.011 C 
HETATM   20  C28 UNL     1      -3.687   7.040  13.961  1.00  0.00    -0.032 C 
HETATM   21  C29 UNL     1      -3.895   6.283  15.310  1.00  0.00     0.016 C 
ENDROOT
BRANCH   1  22
HETATM   22  C7  UNL     1      -6.347   7.560  14.065  1.00  0.00    -0.011 C 
HETATM   23  C8  UNL     1      -6.980   8.367  15.202  1.00  0.00     0.010 C 
BRANCH  22  24
HETATM   24  C6  UNL     1      -6.367   6.044  14.409  1.00  0.00     0.039 C 
BRANCH  24  25
HETATM   25  C5  UNL     1      -7.747   5.356  14.501  1.00  0.00     0.154 C 
BRANCH  25  26
HETATM   26  C4  UNL     1      -8.134   4.564  13.214  1.00  0.00     0.216 C 
BRANCH  26  27
HETATM   27  C2  UNL     1      -7.137   3.530  12.685  1.00  0.00    -0.059 C 
HETATM   28  C1  UNL     1      -5.946   3.813  12.129  1.00  0.00     0.016 C 
HETATM   29  C3  UNL     1      -7.554   2.093  12.862  1.00  0.00     0.045 C 
ENDBRANCH  26  27
BRANCH  26  30
HETATM   30  O1  UNL     1      -8.406   5.512  12.164  1.00  0.00    -0.231 OA
BRANCH  30  31
HETATM   31  O2  UNL     1      -9.501   6.359  12.626  1.00  0.00    -0.250 OA
HETATM   32  H7  UNL     1     -10.075   6.212  11.851  1.00  0.00     0.253 HD
ENDBRANCH  30  31
ENDBRANCH  26  30
ENDBRANCH  25  26
BRANCH  25  33
HETATM   33  O3  UNL     1      -7.705   4.489  15.651  1.00  0.00    -0.393 OA
HETATM   34  H9  UNL     1      -7.380   5.009  16.404  1.00  0.00     0.210 HD
ENDBRANCH  25  33
ENDBRANCH  24  25
ENDBRANCH  22  24
ENDBRANCH   1  22
BRANCH  12  35
HETATM   35  O4  UNL     1       3.335   5.722  10.110  1.00  0.00    -0.395 OA
HETATM   36  H35 UNL     1       3.277   5.608   9.146  1.00  0.00     0.210 HD
ENDBRANCH  12  35
TORSDOF 9
ENDMDL
MODEL 3
REMARK minimizedAffinity -8.7405529
REMARK  9 active torsions:
REMARK  status: ('A' for Active; 'I' for Inactive)
REMARK    1  A    between atoms: C2_2  and  C4_4 
REMARK    2  A    between atoms: C4_4  and  O1_5 
REMARK    3  A    between atoms: C4_4  and  C5_7 
REMARK    4  A    between atoms: O1_5  and  O2_6 
REMARK    5  A    between atoms: C5_7  and  O3_8 
REMARK    6  A    between atoms: C5_7  and  C6_9 
REMARK    7  A    between atoms: C6_9  and  C7_10 
REMARK    8  A    between atoms: C7_10  and  C9_12 
REMARK    9  A    between atoms: C20_23  and  O4_24 
ROOT
HETATM    1  C9  UNL     1       0.558   8.311  12.727  1.00  0.00    -0.002 C 
HETATM    2  C10 UNL     1       0.406   7.479  11.416  1.00  0.00     0.006 C 
HETATM    3  C11 UNL     1      -0.805   6.543  11.587  1.00  0.00     0.011 C 
HETATM    4  C12 UNL     1      -1.542   7.078  12.823  1.00  0.00    -0.032 C 
HETATM    5  C13 UNL     1      -2.421   8.289  12.346  1.00  0.00     0.016 C 
HETATM    6  C14 UNL     1      -2.457   6.051  13.572  1.00  0.00     0.004 C 
HETATM    7  C15 UNL     1      -3.514   5.427  12.626  1.00  0.00     0.006 C 
HETATM    8  C16 UNL     1      -4.951   5.329  13.126  1.00  0.00     0.006 C 
HETATM    9  C17 UNL     1      -5.407   6.625  13.804  1.00  0.00     0.001 C 
HETATM   10  C18 UNL     1      -6.853   6.555  14.358  1.00  0.00     0.015 C 
HETATM   11  C19 UNL     1      -7.875   5.977  13.374  1.00  0.00     0.013 C 
HETATM   12  C20 UNL     1      -7.317   7.958  14.817  1.00  0.00     0.122 C 
HETATM   13  C21 UNL     1      -6.168   8.927  15.103  1.00  0.00     0.033 C 
HETATM   14  C22 UNL     1      -4.964   8.242  15.746  1.00  0.00     0.013 C 
HETATM   15  C23 UNL     1      -4.485   7.021  14.965  1.00  0.00    -0.027 A 
HETATM   16  C24 UNL     1      -3.886   5.895  15.783  1.00  0.00     0.021 A 
HETATM   17  C25 UNL     1      -2.980   6.703  14.877  1.00  0.00    -0.027 A 
HETATM   18  C26 UNL     1      -1.915   7.435  15.711  1.00  0.00     0.011 C 
HETATM   19  C27 UNL     1      -0.913   8.287  14.923  1.00  0.00     0.011 C 
HETATM   20  C28 UNL     1      -0.326   7.507  13.736  1.00  0.00    -0.032 C 
HETATM   21  C29 UNL     1       0.512   6.308  14.282  1.00  0.00     0.016 C 
ENDROOT
BRANCH   1  22
HETATM   22  C7  UNL     1       2.055   8.612  13.055  1.00  0.00    -0.011 C 
HETATM   23  C8  UNL     1       2.245  10.003  13.667  1.00  0.00     0.010 C 
BRANCH  22  24
HETATM   24  C6  UNL     1       2.923   8.467  11.775  1.00  0.00     0.039 C 
BRANCH  24  25
HETATM   25  C5  UNL     1       3.679   7.134  11.579  1.00  0.00     0.154 C 
BRANCH  25  26
HETATM   26  C4  UNL     1       4.193   6.918  10.122  1.00  0.00     0.216 C 
BRANCH  26  27
HETATM   27  C2  UNL     1       3.288   7.367   8.972  1.00  0.00    -0.059 C 
HETATM   28  C1  UNL     1       3.327   8.573   8.379  1.00  0.00     0.016 C 
HETATM   29  C3  UNL     1       2.321   6.324   8.476  1.00  0.00     0.045 C 
ENDBRANCH  26  27
BRANCH  26  30
HETATM   30  O1  UNL     1       4.487   5.518   9.949  1.00  0.00    -0.231 OA
BRANCH  30  31
HETATM   31  O2  UNL     1       5.793   5.277  10.554  1.00  0.00    -0.250 OA
HETATM   32  H7  UNL     1       6.194   4.866   9.765  1.00  0.00     0.253 HD
ENDBRANCH  30  31
ENDBRANCH  26  30
ENDBRANCH  25  26
BRANCH  25  33
HETATM   33  O3  UNL     1       4.771   7.131  12.519  1.00  0.00    -0.393 OA
HETATM   34  H9  UNL     1       4.411   7.351  13.393  1.00  0.00     0.210 HD
ENDBRANCH  25  33
ENDBRANCH  24  25
ENDBRANCH  22  24
ENDBRANCH   1  22
BRANCH  12  35
HETATM   35  O4  UNL     1      -8.118   7.801  15.990  1.00  0.00    -0.395 OA
HETATM   36  H35 UNL     1      -8.457   8.679  16.236  1.00  0.00     0.210 HD
ENDBRANCH  12  35
TORSDOF 9
ENDMDL
MODEL 4
REMARK minimizedAffinity -8.60237885
REMARK  9 active torsions:
REMARK  status: ('A' for Active; 'I' for Inactive)
REMARK    1  A    between atoms: C2_2  and  C4_4 
REMARK    2  A    between atoms: C4_4  and  O1_5 
REMARK    3  A    between atoms: C4_4  and  C5_7 
REMARK    4  A    between atoms: O1_5  and  O2_6 
REMARK    5  A    between atoms: C5_7  and  O3_8 
REMARK    6  A    between atoms: C5_7  and  C6_9 
REMARK    7  A    between atoms: C6_9  and  C7_10 
REMARK    8  A    between atoms: C7_10  and  C9_12 
REMARK    9  A    between atoms: C20_23  and  O4_24 
ROOT
HETATM    1  C9  UNL     1      -4.237   8.291  13.517  1.00  0.00    -0.002 C 
HETATM    2  C10 UNL     1      -3.845   9.660  14.152  1.00  0.00     0.006 C 
HETATM    3  C11 UNL     1      -2.316   9.675  14.338  1.00  0.00     0.011 C 
HETATM    4  C12 UNL     1      -1.809   8.491  13.503  1.00  0.00    -0.032 C 
HETATM    5  C13 UNL     1      -1.731   8.980  12.013  1.00  0.00     0.016 C 
HETATM    6  C14 UNL     1      -0.416   7.907  13.919  1.00  0.00     0.004 C 
HETATM    7  C15 UNL     1       0.688   8.995  13.914  1.00  0.00     0.006 C 
HETATM    8  C16 UNL     1       2.024   8.654  13.265  1.00  0.00     0.006 C 
HETATM    9  C17 UNL     1       1.838   7.947  11.918  1.00  0.00     0.001 C 
HETATM   10  C18 UNL     1       3.175   7.552  11.240  1.00  0.00     0.015 C 
HETATM   11  C19 UNL     1       4.220   8.671  11.213  1.00  0.00     0.013 C 
HETATM   12  C20 UNL     1       2.915   7.056   9.798  1.00  0.00     0.122 C 
HETATM   13  C21 UNL     1       1.478   6.592   9.552  1.00  0.00     0.033 C 
HETATM   14  C22 UNL     1       0.876   5.872  10.757  1.00  0.00     0.013 C 
HETATM   15  C23 UNL     1       0.992   6.674  12.050  1.00  0.00    -0.027 A 
HETATM   16  C24 UNL     1       1.151   5.871  13.325  1.00  0.00     0.021 A 
HETATM   17  C25 UNL     1      -0.141   6.625  13.093  1.00  0.00    -0.027 A 
HETATM   18  C26 UNL     1      -1.320   5.640  13.008  1.00  0.00     0.011 C 
HETATM   19  C27 UNL     1      -2.703   6.265  12.788  1.00  0.00     0.011 C 
HETATM   20  C28 UNL     1      -2.953   7.431  13.757  1.00  0.00    -0.032 C 
HETATM   21  C29 UNL     1      -2.993   6.878  15.216  1.00  0.00     0.016 C 
ENDROOT
BRANCH   1  22
HETATM   22  C7  UNL     1      -5.628   7.791  14.023  1.00  0.00    -0.011 C 
HETATM   23  C8  UNL     1      -6.191   8.677  15.138  1.00  0.00     0.010 C 
BRANCH  22  24
HETATM   24  C6  UNL     1      -5.521   6.319  14.510  1.00  0.00     0.039 C 
BRANCH  24  25
HETATM   25  C5  UNL     1      -6.543   5.309  13.940  1.00  0.00     0.154 C 
BRANCH  25  26
HETATM   26  C4  UNL     1      -7.854   5.975  13.423  1.00  0.00     0.216 C 
BRANCH  26  27
HETATM   27  C2  UNL     1      -8.889   6.416  14.460  1.00  0.00    -0.059 C 
HETATM   28  C1  UNL     1      -8.764   6.274  15.791  1.00  0.00     0.016 C 
HETATM   29  C3  UNL     1     -10.111   7.093  13.895  1.00  0.00     0.045 C 
ENDBRANCH  26  27
BRANCH  26  30
HETATM   30  O1  UNL     1      -8.490   5.066  12.503  1.00  0.00    -0.231 OA
BRANCH  30  31
HETATM   31  O2  UNL     1      -8.678   3.803  13.210  1.00  0.00    -0.250 OA
HETATM   32  H7  UNL     1      -8.229   3.249  12.545  1.00  0.00     0.253 HD
ENDBRANCH  30  31
ENDBRANCH  26  30
ENDBRANCH  25  26
BRANCH  25  33
HETATM   33  O3  UNL     1      -5.874   4.590  12.885  1.00  0.00    -0.393 OA
HETATM   34  H9  UNL     1      -5.028   4.267  13.235  1.00  0.00     0.210 HD
ENDBRANCH  25  33
ENDBRANCH  24  25
ENDBRANCH  22  24
ENDBRANCH   1  22
BRANCH  12  35
HETATM   35  O4  UNL     1       3.821   5.985   9.525  1.00  0.00    -0.395 OA
HETATM   36  H35 UNL     1       3.695   5.721   8.597  1.00  0.00     0.210 HD
ENDBRANCH  12  35
TORSDOF 9
ENDMDL
MODEL 5
REMARK minimizedAffinity -8.46965218
REMARK  9 active torsions:
REMARK  status: ('A' for Active; 'I' for Inactive)
REMARK    1  A    between atoms: C2_2  and  C4_4 
REMARK    2  A    between atoms: C4_4  and  O1_5 
REMARK    3  A    between atoms: C4_4  and  C5_7 
REMARK    4  A    between atoms: O1_5  and  O2_6 
REMARK    5  A    between atoms: C5_7  and  O3_8 
REMARK    6  A    between atoms: C5_7  and  C6_9 
REMARK    7  A    between atoms: C6_9  and  C7_10 
REMARK    8  A    between atoms: C7_10  and  C9_12 
REMARK    9  A    between atoms: C20_23  and  O4_24 
ROOT
HETATM    1  C9  UNL     1       1.888   7.014  13.931  1.00  0.00    -0.002 C 
HETATM    2  C10 UNL     1       1.960   7.486  15.416  1.00  0.00     0.006 C 
HETATM    3  C11 UNL     1       0.562   7.987  15.822  1.00  0.00     0.011 C 
HETATM    4  C12 UNL     1      -0.371   7.483  14.712  1.00  0.00    -0.032 C 
HETATM    5  C13 UNL     1      -0.706   5.984  15.038  1.00  0.00     0.016 C 
HETATM    6  C14 UNL     1      -1.711   8.275  14.533  1.00  0.00     0.004 C 
HETATM    7  C15 UNL     1      -2.528   8.326  15.850  1.00  0.00     0.006 C 
HETATM    8  C16 UNL     1      -4.024   8.040  15.774  1.00  0.00     0.006 C 
HETATM    9  C17 UNL     1      -4.325   6.819  14.899  1.00  0.00     0.001 C 
HETATM   10  C18 UNL     1      -5.839   6.514  14.767  1.00  0.00     0.015 C 
HETATM   11  C19 UNL     1      -6.600   6.526  16.097  1.00  0.00     0.013 C 
HETATM   12  C20 UNL     1      -6.050   5.150  14.067  1.00  0.00     0.122 C 
HETATM   13  C21 UNL     1      -4.847   4.684  13.245  1.00  0.00     0.033 C 
HETATM   14  C22 UNL     1      -4.134   5.835  12.537  1.00  0.00     0.013 C 
HETATM   15  C23 UNL     1      -3.760   6.975  13.480  1.00  0.00    -0.027 A 
HETATM   16  C24 UNL     1      -3.768   8.368  12.886  1.00  0.00     0.021 A 
HETATM   17  C25 UNL     1      -2.443   7.747  13.274  1.00  0.00    -0.027 A 
HETATM   18  C26 UNL     1      -1.555   7.576  12.029  1.00  0.00     0.011 C 
HETATM   19  C27 UNL     1      -0.168   6.968  12.271  1.00  0.00     0.011 C 
HETATM   20  C28 UNL     1       0.550   7.659  13.441  1.00  0.00    -0.032 C 
HETATM   21  C29 UNL     1       0.828   9.146  13.059  1.00  0.00     0.016 C 
ENDROOT
BRANCH   1  22
HETATM   22  C7  UNL     1       3.223   7.289  13.167  1.00  0.00    -0.011 C 
HETATM   23  C8  UNL     1       3.839   8.639  13.545  1.00  0.00     0.010 C 
BRANCH  22  24
HETATM   24  C6  UNL     1       2.986   7.217  11.634  1.00  0.00     0.039 C 
BRANCH  24  25
HETATM   25  C5  UNL     1       3.972   6.366  10.803  1.00  0.00     0.154 C 
BRANCH  25  26
HETATM   26  C4  UNL     1       3.315   5.690   9.560  1.00  0.00     0.216 C 
BRANCH  26  27
HETATM   27  C2  UNL     1       2.854   6.594   8.415  1.00  0.00    -0.059 C 
HETATM   28  C1  UNL     1       2.742   7.933   8.480  1.00  0.00     0.016 C 
HETATM   29  C3  UNL     1       2.549   5.882   7.123  1.00  0.00     0.045 C 
ENDBRANCH  26  27
BRANCH  26  30
HETATM   30  O1  UNL     1       2.188   4.914  10.010  1.00  0.00    -0.231 OA
BRANCH  30  31
HETATM   31  O2  UNL     1       2.656   3.543  10.191  1.00  0.00    -0.250 OA
HETATM   32  H7  UNL     1       1.978   3.131   9.625  1.00  0.00     0.253 HD
ENDBRANCH  30  31
ENDBRANCH  26  30
ENDBRANCH  25  26
BRANCH  25  33
HETATM   33  O3  UNL     1       5.049   7.239  10.410  1.00  0.00    -0.393 OA
HETATM   34  H9  UNL     1       5.366   7.696  11.206  1.00  0.00     0.210 HD
ENDBRANCH  25  33
ENDBRANCH  24  25
ENDBRANCH  22  24
ENDBRANCH   1  22
BRANCH  12  35
HETATM   35  O4  UNL     1      -7.199   5.254  13.225  1.00  0.00    -0.395 OA
HETATM   36  H35 UNL     1      -7.362   4.377  12.838  1.00  0.00     0.210 HD
ENDBRANCH  12  35
TORSDOF 9
ENDMDL
MODEL 6
REMARK minimizedAffinity -8.46171761
REMARK  9 active torsions:
REMARK  status: ('A' for Active; 'I' for Inactive)
REMARK    1  A    between atoms: C2_2  and  C4_4 
REMARK    2  A    between atoms: C4_4  and  O1_5 
REMARK    3  A    between atoms: C4_4  and  C5_7 
REMARK    4  A    between atoms: O1_5  and  O2_6 
REMARK    5  A    between atoms: C5_7  and  O3_8 
REMARK    6  A    between atoms: C5_7  and  C6_9 
REMARK    7  A    between atoms: C6_9  and  C7_10 
REMARK    8  A    between atoms: C7_10  and  C9_12 
REMARK    9  A    between atoms: C20_23  and  O4_24 
ROOT
HETATM    1  C9  UNL     1      -1.054   6.425  12.044  1.00  0.00    -0.002 C 
HETATM    2  C10 UNL     1      -2.161   5.575  12.740  1.00  0.00     0.006 C 
HETATM    3  C11 UNL     1      -2.369   6.139  14.158  1.00  0.00     0.011 C 
HETATM    4  C12 UNL     1      -1.655   7.497  14.147  1.00  0.00    -0.032 C 
HETATM    5  C13 UNL     1      -2.639   8.528  13.487  1.00  0.00     0.016 C 
HETATM    6  C14 UNL     1      -1.208   8.047  15.544  1.00  0.00     0.004 C 
HETATM    7  C15 UNL     1      -2.400   8.147  16.530  1.00  0.00     0.006 C 
HETATM    8  C16 UNL     1      -2.539   9.422  17.355  1.00  0.00     0.006 C 
HETATM    9  C17 UNL     1      -2.325  10.677  16.503  1.00  0.00     0.001 C 
HETATM   10  C18 UNL     1      -2.424  11.995  17.312  1.00  0.00     0.015 C 
HETATM   11  C19 UNL     1      -3.643  12.074  18.237  1.00  0.00     0.013 C 
HETATM   12  C20 UNL     1      -2.426  13.211  16.354  1.00  0.00     0.122 C 
HETATM   13  C21 UNL     1      -1.841  12.911  14.973  1.00  0.00     0.033 C 
HETATM   14  C22 UNL     1      -0.655  11.950  15.029  1.00  0.00     0.013 C 
HETATM   15  C23 UNL     1      -0.962  10.668  15.798  1.00  0.00    -0.027 A 
HETATM   16  C24 UNL     1       0.196  10.041  16.547  1.00  0.00     0.021 A 
HETATM   17  C25 UNL     1      -0.362   9.327  15.334  1.00  0.00    -0.027 A 
HETATM   18  C26 UNL     1       0.717   9.222  14.241  1.00  0.00     0.011 C 
HETATM   19  C27 UNL     1       0.299   8.507  12.951  1.00  0.00     0.011 C 
HETATM   20  C28 UNL     1      -0.395   7.169  13.252  1.00  0.00    -0.032 C 
HETATM   21  C29 UNL     1       0.630   6.206  13.927  1.00  0.00     0.016 C 
ENDROOT
BRANCH   1  22
HETATM   22  C7  UNL     1      -0.180   5.564  11.076  1.00  0.00    -0.011 C 
HETATM   23  C8  UNL     1       0.271   4.249  11.719  1.00  0.00     0.010 C 
BRANCH  22  24
HETATM   24  C6  UNL     1       1.053   6.380  10.601  1.00  0.00     0.039 C 
BRANCH  24  25
HETATM   25  C5  UNL     1       2.432   5.687  10.674  1.00  0.00     0.154 C 
BRANCH  25  26
HETATM   26  C4  UNL     1       3.225   5.734   9.332  1.00  0.00     0.216 C 
BRANCH  26  27
HETATM   27  C2  UNL     1       2.838   6.807   8.312  1.00  0.00    -0.059 C 
HETATM   28  C1  UNL     1       2.124   6.594   7.192  1.00  0.00     0.016 C 
HETATM   29  C3  UNL     1       3.284   8.205   8.656  1.00  0.00     0.045 C 
ENDBRANCH  26  27
BRANCH  26  30
HETATM   30  O1  UNL     1       3.117   4.444   8.698  1.00  0.00    -0.231 OA
BRANCH  30  31
HETATM   31  O2  UNL     1       3.166   3.441   9.758  1.00  0.00    -0.250 OA
HETATM   32  H7  UNL     1       3.899   2.926   9.374  1.00  0.00     0.253 HD
ENDBRANCH  30  31
ENDBRANCH  26  30
ENDBRANCH  25  26
BRANCH  25  33
HETATM   33  O3  UNL     1       3.167   6.332  11.733  1.00  0.00    -0.393 OA
HETATM   34  H9  UNL     1       2.600   6.350  12.521  1.00  0.00     0.210 HD
ENDBRANCH  25  33
ENDBRANCH  24  25
ENDBRANCH  22  24
ENDBRANCH   1  22
BRANCH  12  35
HETATM   35  O4  UNL     1      -1.688  14.267  16.971  1.00  0.00    -0.395 OA
HETATM   36  H35 UNL     1      -1.747  15.046  16.392  1.00  0.00     0.210 HD
ENDBRANCH  12  35
TORSDOF 9
ENDMDL
MODEL 7
REMARK minimizedAffinity -8.45815277
REMARK  9 active torsions:
REMARK  status: ('A' for Active; 'I' for Inactive)
REMARK    1  A    between atoms: C2_2  and  C4_4 
REMARK    2  A    between atoms: C4_4  and  O1_5 
REMARK    3  A    between atoms: C4_4  and  C5_7 
REMARK    4  A    between atoms: O1_5  and  O2_6 
REMARK    5  A    between atoms: C5_7  and  O3_8 
REMARK    6  A    between atoms: C5_7  and  C6_9 
REMARK    7  A    between atoms: C6_9  and  C7_10 
REMARK    8  A    between atoms: C7_10  and  C9_12 
REMARK    9  A    between atoms: C20_23  and  O4_24 
ROOT
HETATM    1  C9  UNL     1      -4.245   7.283  13.233  1.00  0.00    -0.002 C 
HETATM    2  C10 UNL     1      -4.410   8.704  13.856  1.00  0.00     0.006 C 
HETATM    3  C11 UNL     1      -3.025   9.169  14.344  1.00  0.00     0.011 C 
HETATM    4  C12 UNL     1      -2.034   8.193  13.697  1.00  0.00    -0.032 C 
HETATM    5  C13 UNL     1      -1.791   8.691  12.228  1.00  0.00     0.016 C 
HETATM    6  C14 UNL     1      -0.650   8.045  14.417  1.00  0.00     0.004 C 
HETATM    7  C15 UNL     1       0.065   9.412  14.573  1.00  0.00     0.006 C 
HETATM    8  C16 UNL     1       1.548   9.485  14.226  1.00  0.00     0.006 C 
HETATM    9  C17 UNL     1       1.861   8.762  12.912  1.00  0.00     0.001 C 
HETATM   10  C18 UNL     1       3.366   8.783  12.540  1.00  0.00     0.015 C 
HETATM   11  C19 UNL     1       4.023  10.162  12.661  1.00  0.00     0.013 C 
HETATM   12  C20 UNL     1       3.569   8.240  11.106  1.00  0.00     0.122 C 
HETATM   13  C21 UNL     1       2.413   7.374  10.603  1.00  0.00     0.033 C 
HETATM   14  C22 UNL     1       1.808   6.501  11.700  1.00  0.00     0.013 C 
HETATM   15  C23 UNL     1       1.413   7.294  12.943  1.00  0.00    -0.027 A 
HETATM   16  C24 UNL     1       1.529   6.567  14.267  1.00  0.00     0.021 A 
HETATM   17  C25 UNL     1       0.151   6.907  13.738  1.00  0.00    -0.027 A 
HETATM   18  C26 UNL     1      -0.646   5.617  13.474  1.00  0.00     0.011 C 
HETATM   19  C27 UNL     1      -2.072   5.806  12.944  1.00  0.00     0.011 C 
HETATM   20  C28 UNL     1      -2.847   6.841  13.776  1.00  0.00    -0.032 C 
HETATM   21  C29 UNL     1      -3.029   6.292  15.225  1.00  0.00     0.016 C 
ENDROOT
BRANCH   1  22
HETATM   22  C7  UNL     1      -5.505   6.391  13.477  1.00  0.00    -0.011 C 
HETATM   23  C8  UNL     1      -6.062   6.552  14.894  1.00  0.00     0.010 C 
BRANCH  22  24
HETATM   24  C6  UNL     1      -5.165   4.900  13.200  1.00  0.00     0.039 C 
BRANCH  24  25
HETATM   25  C5  UNL     1      -6.170   4.090  12.352  1.00  0.00     0.154 C 
BRANCH  25  26
HETATM   26  C4  UNL     1      -5.503   3.297  11.186  1.00  0.00     0.216 C 
BRANCH  26  27
HETATM   27  C2  UNL     1      -5.277   1.796  11.382  1.00  0.00    -0.059 C 
HETATM   28  C1  UNL     1      -6.173   0.833  11.106  1.00  0.00     0.016 C 
HETATM   29  C3  UNL     1      -3.909   1.419  11.889  1.00  0.00     0.045 C 
ENDBRANCH  26  27
BRANCH  26  30
HETATM   30  O1  UNL     1      -4.236   3.914  10.887  1.00  0.00    -0.231 OA
BRANCH  30  31
HETATM   31  O2  UNL     1      -3.923   3.595   9.497  1.00  0.00    -0.250 OA
HETATM   32  H7  UNL     1      -3.042   3.218   9.677  1.00  0.00     0.253 HD
ENDBRANCH  30  31
ENDBRANCH  26  30
ENDBRANCH  25  26
BRANCH  25  33
HETATM   33  O3  UNL     1      -6.860   3.204  13.255  1.00  0.00    -0.393 OA
HETATM   34  H9  UNL     1      -7.183   3.733  14.002  1.00  0.00     0.210 HD
ENDBRANCH  25  33
ENDBRANCH  24  25
ENDBRANCH  22  24
ENDBRANCH   1  22
BRANCH  12  35
HETATM   35  O4  UNL     1       4.783   7.487  11.082  1.00  0.00    -0.395 OA
HETATM   36  H35 UNL     1       4.936   7.203  10.164  1.00  0.00     0.210 HD
ENDBRANCH  12  35
TORSDOF 9
ENDMDL
MODEL 8
REMARK minimizedAffinity -8.37673569
REMARK  9 active torsions:
REMARK  status: ('A' for Active; 'I' for Inactive)
REMARK    1  A    between atoms: C2_2  and  C4_4 
REMARK    2  A    between atoms: C4_4  and  O1_5 
REMARK    3  A    between atoms: C4_4  and  C5_7 
REMARK    4  A    between atoms: O1_5  and  O2_6 
REMARK    5  A    between atoms: C5_7  and  O3_8 
REMARK    6  A    between atoms: C5_7  and  C6_9 
REMARK    7  A    between atoms: C6_9  and  C7_10 
REMARK    8  A    between atoms: C7_10  and  C9_12 
REMARK    9  A    between atoms: C20_23  and  O4_24 
ROOT
HETATM    1  C9  UNL     1      -7.164   6.879  13.814  1.00  0.00    -0.002 C 
HETATM    2  C10 UNL     1      -7.324   8.133  14.728  1.00  0.00     0.006 C 
HETATM    3  C11 UNL     1      -5.948   8.450  15.342  1.00  0.00     0.011 C 
HETATM    4  C12 UNL     1      -4.953   7.617  14.523  1.00  0.00    -0.032 C 
HETATM    5  C13 UNL     1      -4.658   8.418  13.204  1.00  0.00     0.016 C 
HETATM    6  C14 UNL     1      -3.594   7.285  15.228  1.00  0.00     0.004 C 
HETATM    7  C15 UNL     1      -2.862   8.568  15.698  1.00  0.00     0.006 C 
HETATM    8  C16 UNL     1      -1.368   8.682  15.414  1.00  0.00     0.006 C 
HETATM    9  C17 UNL     1      -1.028   8.257  13.982  1.00  0.00     0.001 C 
HETATM   10  C18 UNL     1       0.487   8.326  13.663  1.00  0.00     0.015 C 
HETATM   11  C19 UNL     1       1.162   9.630  14.099  1.00  0.00     0.013 C 
HETATM   12  C20 UNL     1       0.725   8.105  12.150  1.00  0.00     0.122 C 
HETATM   13  C21 UNL     1      -0.429   7.395  11.440  1.00  0.00     0.033 C 
HETATM   14  C22 UNL     1      -1.081   6.317  12.304  1.00  0.00     0.013 C 
HETATM   15  C23 UNL     1      -1.500   6.828  13.679  1.00  0.00    -0.027 A 
HETATM   16  C24 UNL     1      -1.436   5.828  14.815  1.00  0.00     0.021 A 
HETATM   17  C25 UNL     1      -2.791   6.305  14.337  1.00  0.00    -0.027 A 
HETATM   18  C26 UNL     1      -3.600   5.122  13.777  1.00  0.00     0.011 C 
HETATM   19  C27 UNL     1      -5.007   5.453  13.265  1.00  0.00     0.011 C 
HETATM   20  C28 UNL     1      -5.789   6.298  14.283  1.00  0.00    -0.032 C 
HETATM   21  C29 UNL     1      -6.024   5.451  15.572  1.00  0.00     0.016 C 
ENDROOT
BRANCH   1  22
HETATM   22  C7  UNL     1      -8.444   5.983  13.824  1.00  0.00    -0.011 C 
HETATM   23  C8  UNL     1      -8.252   4.690  13.027  1.00  0.00     0.010 C 
BRANCH  22  24
HETATM   24  C6  UNL     1      -9.658   6.780  13.272  1.00  0.00     0.039 C 
BRANCH  24  25
HETATM   25  C5  UNL     1     -10.619   7.412  14.302  1.00  0.00     0.154 C 
BRANCH  25  26
HETATM   26  C4  UNL     1     -11.327   8.702  13.784  1.00  0.00     0.216 C 
BRANCH  26  27
HETATM   27  C2  UNL     1     -12.319   9.397  14.719  1.00  0.00    -0.059 C 
HETATM   28  C1  UNL     1     -11.987  10.192  15.751  1.00  0.00     0.016 C 
HETATM   29  C3  UNL     1     -13.772   9.172  14.388  1.00  0.00     0.045 C 
ENDBRANCH  26  27
BRANCH  26  30
HETATM   30  O1  UNL     1     -12.008   8.381  12.555  1.00  0.00    -0.231 OA
BRANCH  30  31
HETATM   31  O2  UNL     1     -11.706   9.448  11.607  1.00  0.00    -0.250 OA
HETATM   32  H7  UNL     1     -12.634   9.656  11.391  1.00  0.00     0.253 HD
ENDBRANCH  30  31
ENDBRANCH  26  30
ENDBRANCH  25  26
BRANCH  25  33
HETATM   33  O3  UNL     1     -11.581   6.398  14.653  1.00  0.00    -0.393 OA
HETATM   34  H9  UNL     1     -11.092   5.593  14.888  1.00  0.00     0.210 HD
ENDBRANCH  25  33
ENDBRANCH  24  25
ENDBRANCH  22  24
ENDBRANCH   1  22
BRANCH  12  35
HETATM   35  O4  UNL     1       1.927   7.348  11.993  1.00  0.00    -0.395 OA
HETATM   36  H35 UNL     1       2.102   7.268  11.039  1.00  0.00     0.210 HD
ENDBRANCH  12  35
TORSDOF 9
ENDMDL
MODEL 9
REMARK minimizedAffinity -8.22926807
REMARK  9 active torsions:
REMARK  status: ('A' for Active; 'I' for Inactive)
REMARK    1  A    between atoms: C2_2  and  C4_4 
REMARK    2  A    between atoms: C4_4  and  O1_5 
REMARK    3  A    between atoms: C4_4  and  C5_7 
REMARK    4  A    between atoms: O1_5  and  O2_6 
REMARK    5  A    between atoms: C5_7  and  O3_8 
REMARK    6  A    between atoms: C5_7  and  C6_9 
REMARK    7  A    between atoms: C6_9  and  C7_10 
REMARK    8  A    between atoms: C7_10  and  C9_12 
REMARK    9  A    between atoms: C20_23  and  O4_24 
ROOT
HETATM    1  C9  UNL     1      -2.721   7.132  12.988  1.00  0.00    -0.002 C 
HETATM    2  C10 UNL     1      -3.103   8.587  13.400  1.00  0.00     0.006 C 
HETATM    3  C11 UNL     1      -1.816   9.307  13.844  1.00  0.00     0.011 C 
HETATM    4  C12 UNL     1      -0.675   8.401  13.359  1.00  0.00    -0.032 C 
HETATM    5  C13 UNL     1      -0.447   8.722  11.839  1.00  0.00     0.016 C 
HETATM    6  C14 UNL     1       0.687   8.552  14.119  1.00  0.00     0.004 C 
HETATM    7  C15 UNL     1       1.201  10.014  14.093  1.00  0.00     0.006 C 
HETATM    8  C16 UNL     1       2.672  10.248  13.768  1.00  0.00     0.006 C 
HETATM    9  C17 UNL     1       3.131   9.403  12.575  1.00  0.00     0.001 C 
HETATM   10  C18 UNL     1       4.632   9.586  12.232  1.00  0.00     0.015 C 
HETATM   11  C19 UNL     1       5.087  11.048  12.169  1.00  0.00     0.013 C 
HETATM   12  C20 UNL     1       4.963   8.886  10.893  1.00  0.00     0.122 C 
HETATM   13  C21 UNL     1       3.958   7.804  10.496  1.00  0.00     0.033 C 
HETATM   14  C22 UNL     1       3.437   7.013  11.694  1.00  0.00     0.013 C 
HETATM   15  C23 UNL     1       2.889   7.905  12.805  1.00  0.00    -0.027 A 
HETATM   16  C24 UNL     1       3.053   7.391  14.221  1.00  0.00     0.021 A 
HETATM   17  C25 UNL     1       1.663   7.456  13.622  1.00  0.00    -0.027 A 
HETATM   18  C26 UNL     1       1.062   6.043  13.528  1.00  0.00     0.011 C 
HETATM   19  C27 UNL     1      -0.356   5.952  12.951  1.00  0.00     0.011 C 
HETATM   20  C28 UNL     1      -1.297   6.971  13.613  1.00  0.00    -0.032 C 
HETATM   21  C29 UNL     1      -1.457   6.607  15.122  1.00  0.00     0.016 C 
ENDROOT
BRANCH   1  22
HETATM   22  C7  UNL     1      -3.854   6.112  13.332  1.00  0.00    -0.011 C 
HETATM   23  C8  UNL     1      -3.820   4.881  12.422  1.00  0.00     0.010 C 
BRANCH  22  24
HETATM   24  C6  UNL     1      -5.241   6.806  13.246  1.00  0.00     0.039 C 
BRANCH  24  25
HETATM   25  C5  UNL     1      -6.153   6.723  14.490  1.00  0.00     0.154 C 
BRANCH  25  26
HETATM   26  C4  UNL     1      -7.003   5.416  14.552  1.00  0.00     0.216 C 
BRANCH  26  27
HETATM   27  C2  UNL     1      -7.709   4.962  13.273  1.00  0.00    -0.059 C 
HETATM   28  C1  UNL     1      -8.534   5.720  12.530  1.00  0.00     0.016 C 
HETATM   29  C3  UNL     1      -7.389   3.557  12.833  1.00  0.00     0.045 C 
ENDBRANCH  26  27
BRANCH  26  30
HETATM   30  O1  UNL     1      -7.992   5.570  15.588  1.00  0.00    -0.231 OA
BRANCH  30  31
HETATM   31  O2  UNL     1      -8.163   4.263  16.215  1.00  0.00    -0.250 OA
HETATM   32  H7  UNL     1      -9.130   4.221  16.098  1.00  0.00     0.253 HD
ENDBRANCH  30  31
ENDBRANCH  26  30
ENDBRANCH  25  26
BRANCH  25  33
HETATM   33  O3  UNL     1      -5.298   6.841  15.643  1.00  0.00    -0.393 OA
HETATM   34  H9  UNL     1      -4.734   7.621  15.517  1.00  0.00     0.210 HD
ENDBRANCH  25  33
ENDBRANCH  24  25
ENDBRANCH  22  24
ENDBRANCH   1  22
BRANCH  12  35
HETATM   35  O4  UNL     1       6.269   8.316  10.998  1.00  0.00    -0.395 OA
HETATM   36  H35 UNL     1       6.495   7.933  10.133  1.00  0.00     0.210 HD
ENDBRANCH  12  35
TORSDOF 9
ENDMDL
