MODEL 1
REMARK minimizedAffinity -6.19438028
REMARK CNNscore 0.649847746
REMARK CNNaffinity 6.66036415
REMARK  5 active torsions:
REMARK  status: ('A' for Active; 'I' for Inactive)
REMARK    1  A    between atoms: C4_4  and  C5_5 
REMARK    2  A    between atoms: C5_5  and  C6_6 
REMARK    3  A    between atoms: C6_6  and  C7_7 
REMARK    4  A    between atoms: C7_7  and  C9_9 
REMARK    5  A    between atoms: C30_31  and  O2_32 
ROOT
HETATM    1  C9  UNL     1     -15.232   5.725  24.222  1.00  0.00    -0.002 C 
HETATM    2  C10 UNL     1     -14.645   5.747  25.655  1.00  0.00     0.007 C 
HETATM    3  C11 UNL     1     -13.813   7.045  25.775  1.00  0.00     0.015 C 
HETATM    4  C12 UNL     1     -14.203   7.897  24.550  1.00  0.00    -0.010 C 
HETATM    5  C13 UNL     1     -15.521   8.653  24.920  1.00  0.00     0.021 C 
HETATM    6  C14 UNL     1     -13.244   8.969  24.030  1.00  0.00    -0.039 C 
HETATM    7  C15 UNL     1     -13.309   9.339  22.720  1.00  0.00    -0.066 C 
HETATM    8  C16 UNL     1     -14.260   8.640  21.735  1.00  0.00     0.036 C 
HETATM    9  C17 UNL     1     -15.032   7.397  22.231  1.00  0.00     0.015 C 
HETATM   10  C18 UNL     1     -14.366   6.772  23.462  1.00  0.00    -0.029 C 
HETATM   11  C19 UNL     1     -13.013   6.143  23.014  1.00  0.00     0.016 C 
HETATM   12  C20 UNL     1     -12.388  10.446  22.138  1.00  0.00    -0.015 C 
HETATM   13  C21 UNL     1     -11.230   9.698  21.436  1.00  0.00     0.020 C 
HETATM   14  C22 UNL     1     -13.138  11.325  21.106  1.00  0.00     0.021 C 
HETATM   15  C23 UNL     1     -12.305  12.485  20.585  1.00  0.00     0.080 C 
HETATM   16  C24 UNL     1     -11.814  13.367  21.706  1.00  0.00     0.135 C 
HETATM   17  O1  UNL     1     -11.860  14.593  21.580  1.00  0.00    -0.297 OA
HETATM   18  C25 UNL     1     -11.143  12.694  22.914  1.00  0.00     0.018 C 
HETATM   19  C26 UNL     1      -9.658  12.486  22.580  1.00  0.00     0.023 C 
HETATM   20  C27 UNL     1     -11.207  13.696  24.098  1.00  0.00     0.023 C 
HETATM   21  C28 UNL     1     -11.934  11.398  23.306  1.00  0.00     0.016 C 
HETATM   22  C29 UNL     1     -11.272  10.566  24.420  1.00  0.00     0.043 C 
HETATM   23  C30 UNL     1     -12.275   9.577  25.022  1.00  0.00     0.148 C 
ENDROOT
BRANCH   1  24
HETATM   24  C7  UNL     1     -15.456   4.326  23.570  1.00  0.00    -0.014 C 
HETATM   25  C8  UNL     1     -16.716   3.686  24.179  1.00  0.00     0.010 C 
BRANCH  24  26
HETATM   26  C6  UNL     1     -14.267   3.341  23.678  1.00  0.00     0.008 C 
BRANCH  26  27
HETATM   27  C5  UNL     1     -14.555   2.092  24.527  1.00  0.00     0.028 C 
BRANCH  27  28
HETATM   28  C4  UNL     1     -13.812   2.075  25.837  1.00  0.00    -0.025 C 
HETATM   29  C2  UNL     1     -12.527   1.726  26.036  1.00  0.00    -0.091 C 
HETATM   30  C1  UNL     1     -11.937   1.713  27.422  1.00  0.00     0.042 C 
HETATM   31  C3  UNL     1     -11.565   1.336  24.949  1.00  0.00     0.042 C 
ENDBRANCH  27  28
ENDBRANCH  26  27
ENDBRANCH  24  26
ENDBRANCH   1  24
BRANCH  23  32
HETATM   32  O2  UNL     1     -13.038  10.261  26.013  1.00  0.00    -0.391 OA
HETATM   33  H48 UNL     1     -12.425  10.531  26.715  1.00  0.00     0.210 HD
ENDBRANCH  23  32
TORSDOF 5
ENDMDL
MODEL 2
REMARK minimizedAffinity -6.50845957
REMARK CNNscore 0.607196987
REMARK CNNaffinity 6.57458878
REMARK  5 active torsions:
REMARK  status: ('A' for Active; 'I' for Inactive)
REMARK    1  A    between atoms: C4_4  and  C5_5 
REMARK    2  A    between atoms: C5_5  and  C6_6 
REMARK    3  A    between atoms: C6_6  and  C7_7 
REMARK    4  A    between atoms: C7_7  and  C9_9 
REMARK    5  A    between atoms: C30_31  and  O2_32 
ROOT
HETATM    1  C9  UNL     1      14.366  -3.165   3.482  1.00  0.00    -0.002 C 
HETATM    2  C10 UNL     1      15.438  -2.736   4.514  1.00  0.00     0.007 C 
HETATM    3  C11 UNL     1      16.717  -2.399   3.714  1.00  0.00     0.015 C 
HETATM    4  C12 UNL     1      16.270  -2.316   2.240  1.00  0.00    -0.010 C 
HETATM    5  C13 UNL     1      15.696  -0.879   2.016  1.00  0.00     0.021 C 
HETATM    6  C14 UNL     1      17.288  -2.533   1.120  1.00  0.00    -0.039 C 
HETATM    7  C15 UNL     1      16.856  -2.977  -0.093  1.00  0.00    -0.066 C 
HETATM    8  C16 UNL     1      15.384  -3.350  -0.334  1.00  0.00     0.036 C 
HETATM    9  C17 UNL     1      14.431  -3.360   0.882  1.00  0.00     0.015 C 
HETATM   10  C18 UNL     1      15.200  -3.470   2.203  1.00  0.00    -0.029 C 
HETATM   11  C19 UNL     1      15.825  -4.895   2.282  1.00  0.00     0.016 C 
HETATM   12  C20 UNL     1      17.833  -3.184  -1.283  1.00  0.00    -0.015 C 
HETATM   13  C21 UNL     1      18.145  -4.699  -1.307  1.00  0.00     0.020 C 
HETATM   14  C22 UNL     1      17.189  -2.765  -2.628  1.00  0.00     0.021 C 
HETATM   15  C23 UNL     1      18.145  -2.856  -3.807  1.00  0.00     0.080 C 
HETATM   16  C24 UNL     1      19.384  -2.025  -3.585  1.00  0.00     0.135 C 
HETATM   17  O1  UNL     1      19.828  -1.337  -4.508  1.00  0.00    -0.297 OA
HETATM   18  C25 UNL     1      20.127  -2.178  -2.249  1.00  0.00     0.018 C 
HETATM   19  C26 UNL     1      21.087  -3.371  -2.372  1.00  0.00     0.023 C 
HETATM   20  C27 UNL     1      21.000  -0.910  -2.055  1.00  0.00     0.023 C 
HETATM   21  C28 UNL     1      19.093  -2.264  -1.073  1.00  0.00     0.016 C 
HETATM   22  C29 UNL     1      19.721  -2.558   0.301  1.00  0.00     0.043 C 
HETATM   23  C30 UNL     1      18.737  -2.221   1.427  1.00  0.00     0.148 C 
ENDROOT
BRANCH   1  24
HETATM   24  C7  UNL     1      13.309  -4.211   3.951  1.00  0.00    -0.014 C 
HETATM   25  C8  UNL     1      11.902  -3.606   3.796  1.00  0.00     0.010 C 
BRANCH  24  26
HETATM   26  C6  UNL     1      13.491  -4.743   5.394  1.00  0.00     0.008 C 
BRANCH  26  27
HETATM   27  C5  UNL     1      12.579  -5.928   5.751  1.00  0.00     0.028 C 
BRANCH  27  28
HETATM   28  C4  UNL     1      11.902  -5.780   7.088  1.00  0.00    -0.025 C 
HETATM   29  C2  UNL     1      12.479  -5.857   8.303  1.00  0.00    -0.091 C 
HETATM   30  C1  UNL     1      11.654  -5.734   9.557  1.00  0.00     0.042 C 
HETATM   31  C3  UNL     1      13.950  -6.052   8.544  1.00  0.00     0.042 C 
ENDBRANCH  27  28
ENDBRANCH  26  27
ENDBRANCH  24  26
ENDBRANCH   1  24
BRANCH  23  32
HETATM   32  O2  UNL     1      18.833  -0.825   1.702  1.00  0.00    -0.391 OA
HETATM   33  H48 UNL     1      19.731  -0.656   2.028  1.00  0.00     0.210 HD
ENDBRANCH  23  32
TORSDOF 5
ENDMDL
MODEL 3
REMARK minimizedAffinity -7.60413074
REMARK CNNscore 0.603576243
REMARK CNNaffinity 6.8183651
REMARK  5 active torsions:
REMARK  status: ('A' for Active; 'I' for Inactive)
REMARK    1  A    between atoms: C4_4  and  C5_5 
REMARK    2  A    between atoms: C5_5  and  C6_6 
REMARK    3  A    between atoms: C6_6  and  C7_7 
REMARK    4  A    between atoms: C7_7  and  C9_9 
REMARK    5  A    between atoms: C30_31  and  O2_32 
ROOT
HETATM    1  C9  UNL     1      -1.384   9.903  16.239  1.00  0.00    -0.002 C 
HETATM    2  C10 UNL     1      -0.073   9.639  17.020  1.00  0.00     0.007 C 
HETATM    3  C11 UNL     1       0.984   9.198  15.980  1.00  0.00     0.015 C 
HETATM    4  C12 UNL     1       0.372   9.534  14.605  1.00  0.00    -0.010 C 
HETATM    5  C13 UNL     1       0.665  11.045  14.331  1.00  0.00     0.021 C 
HETATM    6  C14 UNL     1       0.845   8.788  13.357  1.00  0.00    -0.039 C 
HETATM    7  C15 UNL     1       0.004   8.679  12.290  1.00  0.00    -0.066 C 
HETATM    8  C16 UNL     1      -1.438   9.209  12.347  1.00  0.00     0.036 C 
HETATM    9  C17 UNL     1      -1.966   9.730  13.702  1.00  0.00     0.015 C 
HETATM   10  C18 UNL     1      -1.140   9.191  14.876  1.00  0.00    -0.029 C 
HETATM   11  C19 UNL     1      -1.415   7.662  14.999  1.00  0.00     0.016 C 
HETATM   12  C20 UNL     1       0.435   7.965  10.979  1.00  0.00    -0.015 C 
HETATM   13  C21 UNL     1      -0.163   6.541  11.065  1.00  0.00     0.020 C 
HETATM   14  C22 UNL     1      -0.122   8.688   9.728  1.00  0.00     0.021 C 
HETATM   15  C23 UNL     1       0.359   8.082   8.419  1.00  0.00     0.080 C 
HETATM   16  C24 UNL     1       1.865   8.062   8.334  1.00  0.00     0.135 C 
HETATM   17  O1  UNL     1       2.420   8.385   7.281  1.00  0.00    -0.297 OA
HETATM   18  C25 UNL     1       2.648   7.501   9.532  1.00  0.00     0.018 C 
HETATM   19  C26 UNL     1       2.732   5.975   9.374  1.00  0.00     0.023 C 
HETATM   20  C27 UNL     1       4.097   8.048   9.436  1.00  0.00     0.023 C 
HETATM   21  C28 UNL     1       2.005   8.006  10.870  1.00  0.00     0.016 C 
HETATM   22  C29 UNL     1       2.625   7.395  12.140  1.00  0.00     0.043 C 
HETATM   23  C30 UNL     1       2.248   8.220  13.375  1.00  0.00     0.148 C 
ENDROOT
BRANCH   1  24
HETATM   24  C7  UNL     1      -2.723   9.636  16.992  1.00  0.00    -0.014 C 
HETATM   25  C8  UNL     1      -3.860  10.382  16.270  1.00  0.00     0.010 C 
BRANCH  24  26
HETATM   26  C6  UNL     1      -2.729  10.007  18.495  1.00  0.00     0.008 C 
BRANCH  26  27
HETATM   27  C5  UNL     1      -3.185  11.446  18.790  1.00  0.00     0.028 C 
BRANCH  27  28
HETATM   28  C4  UNL     1      -2.248  12.493  18.248  1.00  0.00    -0.025 C 
HETATM   29  C2  UNL     1      -0.987  12.741  18.651  1.00  0.00    -0.091 C 
HETATM   30  C1  UNL     1      -0.189  13.862  18.039  1.00  0.00     0.042 C 
HETATM   31  C3  UNL     1      -0.252  11.958  19.702  1.00  0.00     0.042 C 
ENDBRANCH  27  28
ENDBRANCH  26  27
ENDBRANCH  24  26
ENDBRANCH   1  24
BRANCH  23  32
HETATM   32  O2  UNL     1       3.158   9.312  13.478  1.00  0.00    -0.391 OA
HETATM   33  H48 UNL     1       4.042   8.939  13.626  1.00  0.00     0.210 HD
ENDBRANCH  23  32
TORSDOF 5
ENDMDL
MODEL 4
REMARK minimizedAffinity -6.31690741
REMARK CNNscore 0.5820961
REMARK CNNaffinity 6.51045942
REMARK  5 active torsions:
REMARK  status: ('A' for Active; 'I' for Inactive)
REMARK    1  A    between atoms: C4_4  and  C5_5 
REMARK    2  A    between atoms: C5_5  and  C6_6 
REMARK    3  A    between atoms: C6_6  and  C7_7 
REMARK    4  A    between atoms: C7_7  and  C9_9 
REMARK    5  A    between atoms: C30_31  and  O2_32 
ROOT
HETATM    1  C9  UNL     1     -15.363   7.796  21.175  1.00  0.00    -0.002 C 
HETATM    2  C10 UNL     1     -16.039   8.716  22.222  1.00  0.00     0.007 C 
HETATM    3  C11 UNL     1     -15.820   8.055  23.603  1.00  0.00     0.015 C 
HETATM    4  C12 UNL     1     -14.753   6.965  23.372  1.00  0.00    -0.010 C 
HETATM    5  C13 UNL     1     -13.359   7.670  23.436  1.00  0.00     0.021 C 
HETATM    6  C14 UNL     1     -14.659   5.775  24.327  1.00  0.00    -0.039 C 
HETATM    7  C15 UNL     1     -14.131   4.602  23.876  1.00  0.00    -0.066 C 
HETATM    8  C16 UNL     1     -13.712   4.422  22.408  1.00  0.00     0.036 C 
HETATM    9  C17 UNL     1     -14.052   5.554  21.414  1.00  0.00     0.015 C 
HETATM   10  C18 UNL     1     -15.173   6.455  21.943  1.00  0.00    -0.029 C 
HETATM   11  C19 UNL     1     -16.496   5.632  21.944  1.00  0.00     0.016 C 
HETATM   12  C20 UNL     1     -13.975   3.367  24.805  1.00  0.00    -0.015 C 
HETATM   13  C21 UNL     1     -15.186   2.457  24.495  1.00  0.00     0.020 C 
HETATM   14  C22 UNL     1     -12.661   2.599  24.514  1.00  0.00     0.021 C 
HETATM   15  C23 UNL     1     -12.417   1.441  25.468  1.00  0.00     0.080 C 
HETATM   16  C24 UNL     1     -12.402   1.896  26.906  1.00  0.00     0.135 C 
HETATM   17  O1  UNL     1     -11.542   1.458  27.674  1.00  0.00    -0.297 OA
HETATM   18  C25 UNL     1     -13.555   2.789  27.393  1.00  0.00     0.018 C 
HETATM   19  C26 UNL     1     -14.719   1.878  27.812  1.00  0.00     0.023 C 
HETATM   20  C27 UNL     1     -13.066   3.520  28.672  1.00  0.00     0.023 C 
HETATM   21  C28 UNL     1     -13.896   3.858  26.298  1.00  0.00     0.016 C 
HETATM   22  C29 UNL     1     -15.129   4.722  26.621  1.00  0.00     0.043 C 
HETATM   23  C30 UNL     1     -15.151   5.979  25.744  1.00  0.00     0.148 C 
ENDROOT
BRANCH   1  24
HETATM   24  C7  UNL     1     -15.997   7.758  19.751  1.00  0.00    -0.014 C 
HETATM   25  C8  UNL     1     -17.439   7.230  19.859  1.00  0.00     0.010 C 
BRANCH  24  26
HETATM   26  C6  UNL     1     -15.218   6.935  18.695  1.00  0.00     0.008 C 
BRANCH  26  27
HETATM   27  C5  UNL     1     -15.863   6.925  17.299  1.00  0.00     0.028 C 
BRANCH  27  28
HETATM   28  C4  UNL     1     -14.859   6.881  16.177  1.00  0.00    -0.025 C 
HETATM   29  C2  UNL     1     -14.777   5.960  15.198  1.00  0.00    -0.091 C 
HETATM   30  C1  UNL     1     -13.680   6.026  14.169  1.00  0.00     0.042 C 
HETATM   31  C3  UNL     1     -15.732   4.815  15.014  1.00  0.00     0.042 C 
ENDBRANCH  27  28
ENDBRANCH  26  27
ENDBRANCH  24  26
ENDBRANCH   1  24
BRANCH  23  32
HETATM   32  O2  UNL     1     -14.323   6.965  26.355  1.00  0.00    -0.391 OA
HETATM   33  H48 UNL     1     -14.723   7.190  27.210  1.00  0.00     0.210 HD
ENDBRANCH  23  32
TORSDOF 5
ENDMDL
MODEL 5
REMARK minimizedAffinity -9.03874397
REMARK CNNscore 0.576243341
REMARK CNNaffinity 7.12143326
REMARK  5 active torsions:
REMARK  status: ('A' for Active; 'I' for Inactive)
REMARK    1  A    between atoms: C4_4  and  C5_5 
REMARK    2  A    between atoms: C5_5  and  C6_6 
REMARK    3  A    between atoms: C6_6  and  C7_7 
REMARK    4  A    between atoms: C7_7  and  C9_9 
REMARK    5  A    between atoms: C30_31  and  O2_32 
ROOT
HETATM    1  C9  UNL     1      -2.813   8.350  15.263  1.00  0.00    -0.002 C 
HETATM    2  C10 UNL     1      -1.721   8.138  16.342  1.00  0.00     0.007 C 
HETATM    3  C11 UNL     1      -0.368   8.058  15.597  1.00  0.00     0.015 C 
HETATM    4  C12 UNL     1      -0.658   8.554  14.165  1.00  0.00    -0.010 C 
HETATM    5  C13 UNL     1      -0.599  10.116  14.202  1.00  0.00     0.021 C 
HETATM    6  C14 UNL     1       0.254   8.133  13.013  1.00  0.00    -0.039 C 
HETATM    7  C15 UNL     1      -0.247   8.105  11.746  1.00  0.00    -0.066 C 
HETATM    8  C16 UNL     1      -1.728   8.400  11.461  1.00  0.00     0.036 C 
HETATM    9  C17 UNL     1      -2.677   8.574  12.668  1.00  0.00     0.015 C 
HETATM   10  C18 UNL     1      -2.094   7.950  13.941  1.00  0.00    -0.029 C 
HETATM   11  C19 UNL     1      -2.093   6.402  13.764  1.00  0.00     0.016 C 
HETATM   12  C20 UNL     1       0.637   7.721  10.527  1.00  0.00    -0.015 C 
HETATM   13  C21 UNL     1       0.322   6.235  10.237  1.00  0.00     0.020 C 
HETATM   14  C22 UNL     1       0.293   8.577   9.283  1.00  0.00     0.021 C 
HETATM   15  C23 UNL     1       1.202   8.305   8.095  1.00  0.00     0.080 C 
HETATM   16  C24 UNL     1       2.654   8.519   8.443  1.00  0.00     0.135 C 
HETATM   17  O1  UNL     1       3.388   9.112   7.649  1.00  0.00    -0.297 OA
HETATM   18  C25 UNL     1       3.194   7.864   9.724  1.00  0.00     0.018 C 
HETATM   19  C26 UNL     1       3.607   6.424   9.384  1.00  0.00     0.023 C 
HETATM   20  C27 UNL     1       4.487   8.625  10.124  1.00  0.00     0.023 C 
HETATM   21  C28 UNL     1       2.144   8.009  10.878  1.00  0.00     0.016 C 
HETATM   22  C29 UNL     1       2.521   7.267  12.174  1.00  0.00     0.043 C 
HETATM   23  C30 UNL     1       1.687   7.782  13.352  1.00  0.00     0.148 C 
ENDROOT
BRANCH   1  24
HETATM   24  C7  UNL     1      -4.224   7.755  15.556  1.00  0.00    -0.014 C 
HETATM   25  C8  UNL     1      -4.108   6.224  15.668  1.00  0.00     0.010 C 
BRANCH  24  26
HETATM   26  C6  UNL     1      -5.328   8.121  14.534  1.00  0.00     0.008 C 
BRANCH  26  27
HETATM   27  C5  UNL     1      -5.468   7.125  13.371  1.00  0.00     0.028 C 
BRANCH  27  28
HETATM   28  C4  UNL     1      -6.631   6.181  13.528  1.00  0.00    -0.025 C 
HETATM   29  C2  UNL     1      -6.670   4.878  13.190  1.00  0.00    -0.091 C 
HETATM   30  C1  UNL     1      -7.930   4.074  13.365  1.00  0.00     0.042 C 
HETATM   31  C3  UNL     1      -5.510   4.101  12.634  1.00  0.00     0.042 C 
ENDBRANCH  27  28
ENDBRANCH  26  27
ENDBRANCH  24  26
ENDBRANCH   1  24
BRANCH  23  32
HETATM   32  O2  UNL     1       2.313   8.956  13.864  1.00  0.00    -0.391 OA
HETATM   33  H48 UNL     1       3.184   8.695  14.205  1.00  0.00     0.210 HD
ENDBRANCH  23  32
TORSDOF 5
ENDMDL
MODEL 6
REMARK minimizedAffinity -8.91075802
REMARK CNNscore 0.534898639
REMARK CNNaffinity 7.23384905
REMARK  5 active torsions:
REMARK  status: ('A' for Active; 'I' for Inactive)
REMARK    1  A    between atoms: C4_4  and  C5_5 
REMARK    2  A    between atoms: C5_5  and  C6_6 
REMARK    3  A    between atoms: C6_6  and  C7_7 
REMARK    4  A    between atoms: C7_7  and  C9_9 
REMARK    5  A    between atoms: C30_31  and  O2_32 
ROOT
HETATM    1  C9  UNL     1       1.159   6.824  13.287  1.00  0.00    -0.002 C 
HETATM    2  C10 UNL     1       1.471   7.573  14.606  1.00  0.00     0.007 C 
HETATM    3  C11 UNL     1       0.119   7.789  15.326  1.00  0.00     0.015 C 
HETATM    4  C12 UNL     1      -0.888   6.883  14.588  1.00  0.00    -0.010 C 
HETATM    5  C13 UNL     1      -0.742   5.449  15.194  1.00  0.00     0.021 C 
HETATM    6  C14 UNL     1      -2.382   7.203  14.640  1.00  0.00    -0.039 C 
HETATM    7  C15 UNL     1      -3.188   6.775  13.627  1.00  0.00    -0.066 C 
HETATM    8  C16 UNL     1      -2.615   6.059  12.393  1.00  0.00     0.036 C 
HETATM    9  C17 UNL     1      -1.079   5.975  12.253  1.00  0.00     0.015 C 
HETATM   10  C18 UNL     1      -0.374   7.033  13.109  1.00  0.00    -0.029 C 
HETATM   11  C19 UNL     1      -0.669   8.431  12.489  1.00  0.00     0.016 C 
HETATM   12  C20 UNL     1      -4.720   7.036  13.637  1.00  0.00    -0.015 C 
HETATM   13  C21 UNL     1      -4.937   8.269  12.729  1.00  0.00     0.020 C 
HETATM   14  C22 UNL     1      -5.506   5.828  13.069  1.00  0.00     0.021 C 
HETATM   15  C23 UNL     1      -7.014   5.999  13.152  1.00  0.00     0.080 C 
HETATM   16  C24 UNL     1      -7.469   6.249  14.568  1.00  0.00     0.135 C 
HETATM   17  O1  UNL     1      -8.472   5.671  14.996  1.00  0.00    -0.297 OA
HETATM   18  C25 UNL     1      -6.737   7.327  15.383  1.00  0.00     0.018 C 
HETATM   19  C26 UNL     1      -7.378   8.685  15.058  1.00  0.00     0.023 C 
HETATM   20  C27 UNL     1      -7.013   7.042  16.884  1.00  0.00     0.023 C 
HETATM   21  C28 UNL     1      -5.194   7.231  15.125  1.00  0.00     0.016 C 
HETATM   22  C29 UNL     1      -4.372   8.354  15.784  1.00  0.00     0.043 C 
HETATM   23  C30 UNL     1      -2.888   7.973  15.840  1.00  0.00     0.148 C 
ENDROOT
BRANCH   1  24
HETATM   24  C7  UNL     1       2.097   7.106  12.074  1.00  0.00    -0.014 C 
HETATM   25  C8  UNL     1       2.247   8.629  11.900  1.00  0.00     0.010 C 
BRANCH  24  26
HETATM   26  C6  UNL     1       1.663   6.469  10.731  1.00  0.00     0.008 C 
BRANCH  26  27
HETATM   27  C5  UNL     1       2.823   5.910   9.891  1.00  0.00     0.028 C 
BRANCH  27  28
HETATM   28  C4  UNL     1       2.672   6.169   8.415  1.00  0.00    -0.025 C 
HETATM   29  C2  UNL     1       1.905   7.109   7.831  1.00  0.00    -0.091 C 
HETATM   30  C1  UNL     1       1.821   7.213   6.331  1.00  0.00     0.042 C 
HETATM   31  C3  UNL     1       1.088   8.131   8.570  1.00  0.00     0.042 C 
ENDBRANCH  27  28
ENDBRANCH  26  27
ENDBRANCH  24  26
ENDBRANCH   1  24
BRANCH  23  32
HETATM   32  O2  UNL     1      -2.678   7.166  16.996  1.00  0.00    -0.391 OA
HETATM   33  H48 UNL     1      -2.876   7.714  17.773  1.00  0.00     0.210 HD
ENDBRANCH  23  32
TORSDOF 5
ENDMDL
MODEL 7
REMARK minimizedAffinity -9.14846134
REMARK CNNscore 0.497007132
REMARK CNNaffinity 6.90695333
REMARK  5 active torsions:
REMARK  status: ('A' for Active; 'I' for Inactive)
REMARK    1  A    between atoms: C4_4  and  C5_5 
REMARK    2  A    between atoms: C5_5  and  C6_6 
REMARK    3  A    between atoms: C6_6  and  C7_7 
REMARK    4  A    between atoms: C7_7  and  C9_9 
REMARK    5  A    between atoms: C30_31  and  O2_32 
ROOT
HETATM    1  C9  UNL     1       1.099   6.080  12.778  1.00  0.00    -0.002 C 
HETATM    2  C10 UNL     1       0.596   7.356  13.498  1.00  0.00     0.007 C 
HETATM    3  C11 UNL     1      -0.928   7.187  13.692  1.00  0.00     0.015 C 
HETATM    4  C12 UNL     1      -1.218   5.701  13.392  1.00  0.00    -0.010 C 
HETATM    5  C13 UNL     1      -0.916   4.903  14.701  1.00  0.00     0.021 C 
HETATM    6  C14 UNL     1      -2.620   5.270  12.959  1.00  0.00    -0.039 C 
HETATM    7  C15 UNL     1      -2.765   4.140  12.212  1.00  0.00    -0.066 C 
HETATM    8  C16 UNL     1      -1.548   3.340  11.720  1.00  0.00     0.036 C 
HETATM    9  C17 UNL     1      -0.144   3.938  11.959  1.00  0.00     0.015 C 
HETATM   10  C18 UNL     1      -0.207   5.448  12.213  1.00  0.00    -0.029 C 
HETATM   11  C19 UNL     1      -0.622   6.145  10.882  1.00  0.00     0.016 C 
HETATM   12  C20 UNL     1      -4.164   3.628  11.770  1.00  0.00    -0.015 C 
HETATM   13  C21 UNL     1      -4.343   4.112  10.312  1.00  0.00     0.020 C 
HETATM   14  C22 UNL     1      -4.244   2.082  11.817  1.00  0.00     0.021 C 
HETATM   15  C23 UNL     1      -5.627   1.541  11.489  1.00  0.00     0.080 C 
HETATM   16  C24 UNL     1      -6.680   2.107  12.408  1.00  0.00     0.135 C 
HETATM   17  O1  UNL     1      -7.547   1.362  12.872  1.00  0.00    -0.297 OA
HETATM   18  C25 UNL     1      -6.710   3.629  12.622  1.00  0.00     0.018 C 
HETATM   19  C26 UNL     1      -7.531   4.253  11.483  1.00  0.00     0.023 C 
HETATM   20  C27 UNL     1      -7.483   3.897  13.941  1.00  0.00     0.023 C 
HETATM   21  C28 UNL     1      -5.247   4.172  12.774  1.00  0.00     0.016 C 
HETATM   22  C29 UNL     1      -5.148   5.707  12.855  1.00  0.00     0.043 C 
HETATM   23  C30 UNL     1      -3.782   6.130  13.407  1.00  0.00     0.148 C 
ENDROOT
BRANCH   1  24
HETATM   24  C7  UNL     1       2.324   6.239  11.827  1.00  0.00    -0.014 C 
HETATM   25  C8  UNL     1       2.659   7.735  11.688  1.00  0.00     0.010 C 
BRANCH  24  26
HETATM   26  C6  UNL     1       2.165   5.608  10.422  1.00  0.00     0.008 C 
BRANCH  26  27
HETATM   27  C5  UNL     1       3.263   6.006   9.421  1.00  0.00     0.028 C 
BRANCH  27  28
HETATM   28  C4  UNL     1       2.755   6.180   8.015  1.00  0.00    -0.025 C 
HETATM   29  C2  UNL     1       1.991   7.185   7.546  1.00  0.00    -0.091 C 
HETATM   30  C1  UNL     1       1.520   7.194   6.116  1.00  0.00     0.042 C 
HETATM   31  C3  UNL     1       1.546   8.373   8.353  1.00  0.00     0.042 C 
ENDBRANCH  27  28
ENDBRANCH  26  27
ENDBRANCH  24  26
ENDBRANCH   1  24
BRANCH  23  32
HETATM   32  O2  UNL     1      -3.840   6.077  14.830  1.00  0.00    -0.391 OA
HETATM   33  H48 UNL     1      -4.495   6.732  15.119  1.00  0.00     0.210 HD
ENDBRANCH  23  32
TORSDOF 5
ENDMDL
MODEL 8
REMARK minimizedAffinity -7.19338131
REMARK CNNscore 0.423396409
REMARK CNNaffinity 6.20810509
REMARK  5 active torsions:
REMARK  status: ('A' for Active; 'I' for Inactive)
REMARK    1  A    between atoms: C4_4  and  C5_5 
REMARK    2  A    between atoms: C5_5  and  C6_6 
REMARK    3  A    between atoms: C6_6  and  C7_7 
REMARK    4  A    between atoms: C7_7  and  C9_9 
REMARK    5  A    between atoms: C30_31  and  O2_32 
ROOT
HETATM    1  C9  UNL     1       6.881  10.397  15.237  1.00  0.00    -0.002 C 
HETATM    2  C10 UNL     1       8.083  10.266  14.270  1.00  0.00     0.007 C 
HETATM    3  C11 UNL     1       7.511   9.814  12.906  1.00  0.00     0.015 C 
HETATM    4  C12 UNL     1       5.985  10.015  13.014  1.00  0.00    -0.010 C 
HETATM    5  C13 UNL     1       5.698  11.517  12.689  1.00  0.00     0.021 C 
HETATM    6  C14 UNL     1       5.045   9.211  12.116  1.00  0.00    -0.039 C 
HETATM    7  C15 UNL     1       3.768   8.978  12.532  1.00  0.00    -0.066 C 
HETATM    8  C16 UNL     1       3.281   9.426  13.920  1.00  0.00     0.036 C 
HETATM    9  C17 UNL     1       4.324  10.011  14.899  1.00  0.00     0.015 C 
HETATM   10  C18 UNL     1       5.751   9.605  14.515  1.00  0.00    -0.029 C 
HETATM   11  C19 UNL     1       5.904   8.076  14.770  1.00  0.00     0.016 C 
HETATM   12  C20 UNL     1       2.752   8.198  11.652  1.00  0.00    -0.015 C 
HETATM   13  C21 UNL     1       2.751   6.752  12.200  1.00  0.00     0.020 C 
HETATM   14  C22 UNL     1       1.328   8.797  11.763  1.00  0.00     0.021 C 
HETATM   15  C23 UNL     1       0.321   8.128  10.841  1.00  0.00     0.080 C 
HETATM   16  C24 UNL     1       0.759   8.189   9.399  1.00  0.00     0.135 C 
HETATM   17  O1  UNL     1      -0.064   8.468   8.524  1.00  0.00    -0.297 OA
HETATM   18  C25 UNL     1       2.197   7.762   9.063  1.00  0.00     0.018 C 
HETATM   19  C26 UNL     1       2.210   6.236   8.884  1.00  0.00     0.023 C 
HETATM   20  C27 UNL     1       2.556   8.384   7.687  1.00  0.00     0.023 C 
HETATM   21  C28 UNL     1       3.184   8.322  10.144  1.00  0.00     0.016 C 
HETATM   22  C29 UNL     1       4.638   7.840   9.984  1.00  0.00     0.043 C 
HETATM   23  C30 UNL     1       5.592   8.728  10.790  1.00  0.00     0.148 C 
ENDROOT
BRANCH   1  24
HETATM   24  C7  UNL     1       7.149  10.108  16.746  1.00  0.00    -0.014 C 
HETATM   25  C8  UNL     1       6.739  11.340  17.573  1.00  0.00     0.010 C 
BRANCH  24  26
HETATM   26  C6  UNL     1       8.602   9.704  17.099  1.00  0.00     0.008 C 
BRANCH  26  27
HETATM   27  C5  UNL     1       9.218  10.507  18.257  1.00  0.00     0.028 C 
BRANCH  27  28
HETATM   28  C4  UNL     1      10.630  10.955  17.988  1.00  0.00    -0.025 C 
HETATM   29  C2  UNL     1      11.434  11.645  18.820  1.00  0.00    -0.091 C 
HETATM   30  C1  UNL     1      12.814  12.065  18.386  1.00  0.00     0.042 C 
HETATM   31  C3  UNL     1      11.075  12.051  20.222  1.00  0.00     0.042 C 
ENDBRANCH  27  28
ENDBRANCH  26  27
ENDBRANCH  24  26
ENDBRANCH   1  24
BRANCH  23  32
HETATM   32  O2  UNL     1       5.906   9.875  10.005  1.00  0.00    -0.391 OA
HETATM   33  H48 UNL     1       6.379   9.566   9.216  1.00  0.00     0.210 HD
ENDBRANCH  23  32
TORSDOF 5
ENDMDL
MODEL 9
REMARK minimizedAffinity -6.49329233
REMARK CNNscore 0.421468526
REMARK CNNaffinity 5.38199806
REMARK  5 active torsions:
REMARK  status: ('A' for Active; 'I' for Inactive)
REMARK    1  A    between atoms: C4_4  and  C5_5 
REMARK    2  A    between atoms: C5_5  and  C6_6 
REMARK    3  A    between atoms: C6_6  and  C7_7 
REMARK    4  A    between atoms: C7_7  and  C9_9 
REMARK    5  A    between atoms: C30_31  and  O2_32 
ROOT
HETATM    1  C9  UNL     1      -8.654  -9.482  12.074  1.00  0.00    -0.002 C 
HETATM    2  C10 UNL     1      -7.276 -10.008  12.549  1.00  0.00     0.007 C 
HETATM    3  C11 UNL     1      -6.425 -10.236  11.279  1.00  0.00     0.015 C 
HETATM    4  C12 UNL     1      -7.191  -9.533  10.139  1.00  0.00    -0.010 C 
HETATM    5  C13 UNL     1      -6.797  -8.021  10.188  1.00  0.00     0.021 C 
HETATM    6  C14 UNL     1      -6.973  -9.971   8.690  1.00  0.00    -0.039 C 
HETATM    7  C15 UNL     1      -7.963  -9.762   7.778  1.00  0.00    -0.066 C 
HETATM    8  C16 UNL     1      -9.325  -9.180   8.190  1.00  0.00     0.036 C 
HETATM    9  C17 UNL     1      -9.603  -8.984   9.697  1.00  0.00     0.015 C 
HETATM   10  C18 UNL     1      -8.675  -9.845  10.560  1.00  0.00    -0.029 C 
HETATM   11  C19 UNL     1      -9.074 -11.338  10.359  1.00  0.00     0.016 C 
HETATM   12  C20 UNL     1      -7.791 -10.150   6.283  1.00  0.00    -0.015 C 
HETATM   13  C21 UNL     1      -8.504 -11.513   6.123  1.00  0.00     0.020 C 
HETATM   14  C22 UNL     1      -8.449  -9.107   5.345  1.00  0.00     0.021 C 
HETATM   15  C23 UNL     1      -8.219  -9.395   3.871  1.00  0.00     0.080 C 
HETATM   16  C24 UNL     1      -6.749  -9.480   3.542  1.00  0.00     0.135 C 
HETATM   17  O1  UNL     1      -6.321  -8.937   2.521  1.00  0.00    -0.297 OA
HETATM   18  C25 UNL     1      -5.861 -10.366   4.431  1.00  0.00     0.018 C 
HETATM   19  C26 UNL     1      -5.946 -11.806   3.904  1.00  0.00     0.023 C 
HETATM   20  C27 UNL     1      -4.394  -9.896   4.236  1.00  0.00     0.023 C 
HETATM   21  C28 UNL     1      -6.257 -10.174   5.936  1.00  0.00     0.016 C 
HETATM   22  C29 UNL     1      -5.523 -11.117   6.908  1.00  0.00     0.043 C 
HETATM   23  C30 UNL     1      -5.642 -10.605   8.347  1.00  0.00     0.148 C 
ENDROOT
BRANCH   1  24
HETATM   24  C7  UNL     1      -9.892  -9.850  12.948  1.00  0.00    -0.014 C 
HETATM   25  C8  UNL     1     -10.742  -8.586  13.171  1.00  0.00     0.010 C 
BRANCH  24  26
HETATM   26  C6  UNL     1      -9.574 -10.511  14.311  1.00  0.00     0.008 C 
BRANCH  26  27
HETATM   27  C5  UNL     1     -10.614 -10.230  15.409  1.00  0.00     0.028 C 
BRANCH  27  28
HETATM   28  C4  UNL     1     -10.002  -9.973  16.760  1.00  0.00    -0.025 C 
HETATM   29  C2  UNL     1     -10.179  -8.888  17.538  1.00  0.00    -0.091 C 
HETATM   30  C1  UNL     1      -9.455  -8.754  18.852  1.00  0.00     0.042 C 
HETATM   31  C3  UNL     1     -11.087  -7.735  17.210  1.00  0.00     0.042 C 
ENDBRANCH  27  28
ENDBRANCH  26  27
ENDBRANCH  24  26
ENDBRANCH   1  24
BRANCH  23  32
HETATM   32  O2  UNL     1      -4.626  -9.628   8.559  1.00  0.00    -0.391 OA
HETATM   33  H48 UNL     1      -3.770 -10.075   8.470  1.00  0.00     0.210 HD
ENDBRANCH  23  32
TORSDOF 5
ENDMDL
