MODEL 1
REMARK minimizedAffinity -9.68391228
REMARK  5 active torsions:
REMARK  status: ('A' for Active; 'I' for Inactive)
REMARK    1  A    between atoms: O1_1  and  C1_2 
REMARK    2  A    between atoms: C4_5  and  C5_6 
REMARK    3  A    between atoms: C9_10  and  O2_11 
REMARK    4  A    between atoms: C13_16  and  C14_17 
REMARK    5  A    between atoms: C18_21  and  O4_22 
ROOT
HETATM    1  C5  UNL     1      -4.680   5.956  12.991  1.00  0.00     0.065 C 
HETATM    2  C6  UNL     1      -3.668   7.080  13.179  1.00  0.00    -0.015 A 
HETATM    3  C7  UNL     1      -4.080   8.425  13.167  1.00  0.00     0.013 A 
HETATM    4  C8  UNL     1      -3.158   9.455  13.359  1.00  0.00     0.037 A 
HETATM    5  C9  UNL     1      -1.818   9.150  13.557  1.00  0.00     0.068 A 
HETATM    6  C10 UNL     1      -1.383   7.831  13.551  1.00  0.00     0.073 A 
HETATM    7  C11 UNL     1      -2.304   6.802  13.338  1.00  0.00     0.078 A 
HETATM    8  O3  UNL     1      -1.784   5.536  13.321  1.00  0.00    -0.350 OA
HETATM    9  C12 UNL     1      -2.605   4.599  12.617  1.00  0.00     0.186 C 
HETATM   10  C13 UNL     1      -4.023   4.564  13.190  1.00  0.00     0.056 C 
ENDROOT
BRANCH   1  11
HETATM   11  C4  UNL     1      -5.916   6.094  13.881  1.00  0.00    -0.049 A 
HETATM   12  C3  UNL     1      -7.176   6.313  13.300  1.00  0.00     0.011 A 
HETATM   13  C2  UNL     1      -8.315   6.429  14.097  1.00  0.00     0.037 A 
HETATM   14  C1  UNL     1      -8.204   6.324  15.477  1.00  0.00     0.065 A 
HETATM   15  C21 UNL     1      -6.969   6.102  16.078  1.00  0.00     0.037 A 
HETATM   16  C20 UNL     1      -5.829   5.986  15.280  1.00  0.00     0.011 A 
BRANCH  14  17
HETATM   17  O1  UNL     1      -9.342   6.444  16.218  1.00  0.00    -0.361 OA
HETATM   18  H1  UNL     1      -9.112   6.333  17.155  1.00  0.00     0.217 HD
ENDBRANCH  14  17
ENDBRANCH   1  11
BRANCH  10  19
HETATM   19  C14 UNL     1      -4.841   3.428  12.590  1.00  0.00    -0.048 A 
HETATM   20  C15 UNL     1      -4.275   2.485  11.717  1.00  0.00     0.008 A 
HETATM   21  C16 UNL     1      -5.054   1.458  11.176  1.00  0.00     0.003 A 
HETATM   22  C17 UNL     1      -6.407   1.361  11.496  1.00  0.00     0.036 A 
HETATM   23  C18 UNL     1      -6.972   2.295  12.356  1.00  0.00     0.066 A 
HETATM   24  C19 UNL     1      -6.204   3.320  12.901  1.00  0.00     0.044 A 
BRANCH  23  25
HETATM   25  O4  UNL     1      -8.291   2.240  12.697  1.00  0.00    -0.361 OA
HETATM   26  H15 UNL     1      -8.705   1.507  12.214  1.00  0.00     0.217 HD
ENDBRANCH  23  25
ENDBRANCH  10  19
BRANCH   5  27
HETATM   27  O2  UNL     1      -0.952  10.185  13.752  1.00  0.00    -0.361 OA
HETATM   28  H7  UNL     1      -0.062   9.820  13.885  1.00  0.00     0.217 HD
ENDBRANCH   5  27
TORSDOF 5
ENDMDL
MODEL 2
REMARK minimizedAffinity -9.47041607
REMARK  5 active torsions:
REMARK  status: ('A' for Active; 'I' for Inactive)
REMARK    1  A    between atoms: O1_1  and  C1_2 
REMARK    2  A    between atoms: C4_5  and  C5_6 
REMARK    3  A    between atoms: C9_10  and  O2_11 
REMARK    4  A    between atoms: C13_16  and  C14_17 
REMARK    5  A    between atoms: C18_21  and  O4_22 
ROOT
HETATM    1  C5  UNL     1      -3.230   5.344  12.453  1.00  0.00     0.065 C 
HETATM    2  C6  UNL     1      -1.796   5.083  12.008  1.00  0.00    -0.015 A 
HETATM    3  C7  UNL     1      -0.930   6.153  11.718  1.00  0.00     0.013 A 
HETATM    4  C8  UNL     1       0.390   5.916  11.329  1.00  0.00     0.037 A 
HETATM    5  C9  UNL     1       0.851   4.611  11.220  1.00  0.00     0.068 A 
HETATM    6  C10 UNL     1       0.008   3.537  11.479  1.00  0.00     0.073 A 
HETATM    7  C11 UNL     1      -1.318   3.777  11.848  1.00  0.00     0.078 A 
HETATM    8  O3  UNL     1      -2.084   2.661  12.057  1.00  0.00    -0.350 OA
HETATM    9  C12 UNL     1      -3.486   2.907  11.923  1.00  0.00     0.186 C 
HETATM   10  C13 UNL     1      -3.945   4.028  12.858  1.00  0.00     0.056 C 
ENDROOT
BRANCH   1  11
HETATM   11  C4  UNL     1      -3.340   6.379  13.575  1.00  0.00    -0.049 A 
HETATM   12  C3  UNL     1      -3.807   7.672  13.290  1.00  0.00     0.011 A 
HETATM   13  C2  UNL     1      -3.927   8.623  14.305  1.00  0.00     0.037 A 
HETATM   14  C1  UNL     1      -3.582   8.287  15.608  1.00  0.00     0.065 A 
HETATM   15  C21 UNL     1      -3.122   7.012  15.917  1.00  0.00     0.037 A 
HETATM   16  C20 UNL     1      -3.003   6.060  14.902  1.00  0.00     0.011 A 
BRANCH  14  17
HETATM   17  O1  UNL     1      -3.712   9.247  16.568  1.00  0.00    -0.361 OA
HETATM   18  H1  UNL     1      -3.453   8.864  17.422  1.00  0.00     0.217 HD
ENDBRANCH  14  17
ENDBRANCH   1  11
BRANCH  10  19
HETATM   19  C14 UNL     1      -5.463   4.156  12.875  1.00  0.00    -0.048 A 
HETATM   20  C15 UNL     1      -6.104   5.390  13.067  1.00  0.00     0.008 A 
HETATM   21  C16 UNL     1      -7.499   5.472  13.088  1.00  0.00     0.003 A 
HETATM   22  C17 UNL     1      -8.272   4.325  12.919  1.00  0.00     0.036 A 
HETATM   23  C18 UNL     1      -7.642   3.101  12.733  1.00  0.00     0.066 A 
HETATM   24  C19 UNL     1      -6.254   3.009  12.710  1.00  0.00     0.044 A 
BRANCH  23  25
HETATM   25  O4  UNL     1      -8.357   1.952  12.565  1.00  0.00    -0.361 OA
HETATM   26  H15 UNL     1      -9.302   2.161  12.645  1.00  0.00     0.217 HD
ENDBRANCH  23  25
ENDBRANCH  10  19
BRANCH   5  27
HETATM   27  O2  UNL     1       2.149   4.424  10.848  1.00  0.00    -0.361 OA
HETATM   28  H7  UNL     1       2.328   3.469  10.825  1.00  0.00     0.217 HD
ENDBRANCH   5  27
TORSDOF 5
ENDMDL
MODEL 3
REMARK minimizedAffinity -9.41232395
REMARK  5 active torsions:
REMARK  status: ('A' for Active; 'I' for Inactive)
REMARK    1  A    between atoms: O1_1  and  C1_2 
REMARK    2  A    between atoms: C4_5  and  C5_6 
REMARK    3  A    between atoms: C9_10  and  O2_11 
REMARK    4  A    between atoms: C13_16  and  C14_17 
REMARK    5  A    between atoms: C18_21  and  O4_22 
ROOT
HETATM    1  C5  UNL     1      -6.567   5.819  14.303  1.00  0.00     0.065 C 
HETATM    2  C6  UNL     1      -7.838   6.506  14.787  1.00  0.00    -0.015 A 
HETATM    3  C7  UNL     1      -7.871   7.153  16.036  1.00  0.00     0.013 A 
HETATM    4  C8  UNL     1      -9.028   7.800  16.472  1.00  0.00     0.037 A 
HETATM    5  C9  UNL     1     -10.161   7.798  15.671  1.00  0.00     0.068 A 
HETATM    6  C10 UNL     1     -10.161   7.145  14.444  1.00  0.00     0.073 A 
HETATM    7  C11 UNL     1      -9.008   6.482  14.018  1.00  0.00     0.078 A 
HETATM    8  O3  UNL     1      -9.105   5.844  12.810  1.00  0.00    -0.350 OA
HETATM    9  C12 UNL     1      -8.148   4.792  12.650  1.00  0.00     0.186 C 
HETATM   10  C13 UNL     1      -6.720   5.307  12.846  1.00  0.00     0.056 C 
ENDROOT
BRANCH   1  11
HETATM   11  C4  UNL     1      -5.316   6.691  14.432  1.00  0.00    -0.049 A 
HETATM   12  C3  UNL     1      -5.139   7.791  13.576  1.00  0.00     0.011 A 
HETATM   13  C2  UNL     1      -4.010   8.604  13.690  1.00  0.00     0.037 A 
HETATM   14  C1  UNL     1      -3.055   8.325  14.658  1.00  0.00     0.065 A 
HETATM   15  C21 UNL     1      -3.209   7.245  15.521  1.00  0.00     0.037 A 
HETATM   16  C20 UNL     1      -4.338   6.431  15.408  1.00  0.00     0.011 A 
BRANCH  14  17
HETATM   17  O1  UNL     1      -1.967   9.144  14.733  1.00  0.00    -0.361 OA
HETATM   18  H1  UNL     1      -1.401   8.837  15.460  1.00  0.00     0.217 HD
ENDBRANCH  14  17
ENDBRANCH   1  11
BRANCH  10  19
HETATM   19  C14 UNL     1      -5.689   4.249  12.473  1.00  0.00    -0.048 A 
HETATM   20  C15 UNL     1      -4.314   4.449  12.673  1.00  0.00     0.008 A 
HETATM   21  C16 UNL     1      -3.392   3.463  12.311  1.00  0.00     0.003 A 
HETATM   22  C17 UNL     1      -3.829   2.266  11.746  1.00  0.00     0.036 A 
HETATM   23  C18 UNL     1      -5.189   2.067  11.543  1.00  0.00     0.066 A 
HETATM   24  C19 UNL     1      -6.115   3.042  11.900  1.00  0.00     0.044 A 
BRANCH  23  25
HETATM   25  O4  UNL     1      -5.663   0.913  10.992  1.00  0.00    -0.361 OA
HETATM   26  H15 UNL     1      -4.908   0.349  10.758  1.00  0.00     0.217 HD
ENDBRANCH  23  25
ENDBRANCH  10  19
BRANCH   5  27
HETATM   27  O2  UNL     1     -11.267   8.450  16.130  1.00  0.00    -0.361 OA
HETATM   28  H7  UNL     1     -11.969   8.372  15.464  1.00  0.00     0.217 HD
ENDBRANCH   5  27
TORSDOF 5
ENDMDL
MODEL 4
REMARK minimizedAffinity -9.39613342
REMARK  5 active torsions:
REMARK  status: ('A' for Active; 'I' for Inactive)
REMARK    1  A    between atoms: O1_1  and  C1_2 
REMARK    2  A    between atoms: C4_5  and  C5_6 
REMARK    3  A    between atoms: C9_10  and  O2_11 
REMARK    4  A    between atoms: C13_16  and  C14_17 
REMARK    5  A    between atoms: C18_21  and  O4_22 
ROOT
HETATM    1  C5  UNL     1      -6.465   5.872  13.470  1.00  0.00     0.065 C 
HETATM    2  C6  UNL     1      -7.846   6.324  13.929  1.00  0.00    -0.015 A 
HETATM    3  C7  UNL     1      -8.959   6.200  13.078  1.00  0.00     0.013 A 
HETATM    4  C8  UNL     1     -10.229   6.595  13.504  1.00  0.00     0.037 A 
HETATM    5  C9  UNL     1     -10.393   7.123  14.777  1.00  0.00     0.068 A 
HETATM    6  C10 UNL     1      -9.306   7.277  15.627  1.00  0.00     0.073 A 
HETATM    7  C11 UNL     1      -8.033   6.900  15.192  1.00  0.00     0.078 A 
HETATM    8  O3  UNL     1      -7.016   7.111  16.084  1.00  0.00    -0.350 OA
HETATM    9  C12 UNL     1      -5.732   7.208  15.461  1.00  0.00     0.186 C 
HETATM   10  C13 UNL     1      -5.427   5.966  14.621  1.00  0.00     0.056 C 
ENDROOT
BRANCH   1  11
HETATM   11  C4  UNL     1      -6.455   4.470  12.857  1.00  0.00    -0.049 A 
HETATM   12  C3  UNL     1      -5.692   4.216  11.705  1.00  0.00     0.011 A 
HETATM   13  C2  UNL     1      -5.662   2.940  11.142  1.00  0.00     0.037 A 
HETATM   14  C1  UNL     1      -6.391   1.912  11.724  1.00  0.00     0.065 A 
HETATM   15  C21 UNL     1      -7.151   2.136  12.867  1.00  0.00     0.037 A 
HETATM   16  C20 UNL     1      -7.180   3.413  13.433  1.00  0.00     0.011 A 
BRANCH  14  17
HETATM   17  O1  UNL     1      -6.335   0.681  11.139  1.00  0.00    -0.361 OA
HETATM   18  H1  UNL     1      -6.876   0.068  11.663  1.00  0.00     0.217 HD
ENDBRANCH  14  17
ENDBRANCH   1  11
BRANCH  10  19
HETATM   19  C14 UNL     1      -3.987   5.964  14.127  1.00  0.00    -0.048 A 
HETATM   20  C15 UNL     1      -3.654   6.289  12.802  1.00  0.00     0.008 A 
HETATM   21  C16 UNL     1      -2.323   6.269  12.377  1.00  0.00     0.003 A 
HETATM   22  C17 UNL     1      -1.307   5.923  13.266  1.00  0.00     0.036 A 
HETATM   23  C18 UNL     1      -1.633   5.597  14.577  1.00  0.00     0.066 A 
HETATM   24  C19 UNL     1      -2.955   5.615  15.010  1.00  0.00     0.044 A 
BRANCH  23  25
HETATM   25  O4  UNL     1      -0.672   5.252  15.482  1.00  0.00    -0.361 OA
HETATM   26  H15 UNL     1       0.188   5.243  15.033  1.00  0.00     0.217 HD
ENDBRANCH  23  25
ENDBRANCH  10  19
BRANCH   5  27
HETATM   27  O2  UNL     1     -11.651   7.486  15.157  1.00  0.00    -0.361 OA
HETATM   28  H7  UNL     1     -11.612   7.825  16.067  1.00  0.00     0.217 HD
ENDBRANCH   5  27
TORSDOF 5
ENDMDL
MODEL 5
REMARK minimizedAffinity -9.35308361
REMARK  5 active torsions:
REMARK  status: ('A' for Active; 'I' for Inactive)
REMARK    1  A    between atoms: O1_1  and  C1_2 
REMARK    2  A    between atoms: C4_5  and  C5_6 
REMARK    3  A    between atoms: C9_10  and  O2_11 
REMARK    4  A    between atoms: C13_16  and  C14_17 
REMARK    5  A    between atoms: C18_21  and  O4_22 
ROOT
HETATM    1  C5  UNL     1      -3.374   4.916  12.435  1.00  0.00     0.065 C 
HETATM    2  C6  UNL     1      -4.843   4.580  12.660  1.00  0.00    -0.015 A 
HETATM    3  C7  UNL     1      -5.573   3.872  11.688  1.00  0.00     0.013 A 
HETATM    4  C8  UNL     1      -6.913   3.545  11.901  1.00  0.00     0.037 A 
HETATM    5  C9  UNL     1      -7.535   3.930  13.081  1.00  0.00     0.068 A 
HETATM    6  C10 UNL     1      -6.843   4.650  14.046  1.00  0.00     0.073 A 
HETATM    7  C11 UNL     1      -5.507   4.993  13.822  1.00  0.00     0.078 A 
HETATM    8  O3  UNL     1      -4.910   5.726  14.813  1.00  0.00    -0.350 OA
HETATM    9  C12 UNL     1      -3.779   6.473  14.357  1.00  0.00     0.186 C 
HETATM   10  C13 UNL     1      -2.742   5.563  13.696  1.00  0.00     0.056 C 
ENDROOT
BRANCH   1  11
HETATM   11  C4  UNL     1      -2.538   3.719  11.975  1.00  0.00    -0.049 A 
HETATM   12  C3  UNL     1      -1.180   3.892  11.665  1.00  0.00     0.011 A 
HETATM   13  C2  UNL     1      -0.401   2.808  11.257  1.00  0.00     0.037 A 
HETATM   14  C1  UNL     1      -0.974   1.546  11.159  1.00  0.00     0.065 A 
HETATM   15  C21 UNL     1      -2.316   1.347  11.465  1.00  0.00     0.037 A 
HETATM   16  C20 UNL     1      -3.095   2.432  11.874  1.00  0.00     0.011 A 
BRANCH  14  17
HETATM   17  O1  UNL     1      -0.177   0.516  10.755  1.00  0.00    -0.361 OA
HETATM   18  H1  UNL     1      -0.707  -0.298  10.750  1.00  0.00     0.217 HD
ENDBRANCH  14  17
ENDBRANCH   1  11
BRANCH  10  19
HETATM   19  C14 UNL     1      -1.450   6.312  13.398  1.00  0.00    -0.048 A 
HETATM   20  C15 UNL     1      -1.373   7.296  12.399  1.00  0.00     0.008 A 
HETATM   21  C16 UNL     1      -0.170   7.959  12.143  1.00  0.00     0.003 A 
HETATM   22  C17 UNL     1       0.973   7.649  12.878  1.00  0.00     0.036 A 
HETATM   23  C18 UNL     1       0.902   6.673  13.865  1.00  0.00     0.066 A 
HETATM   24  C19 UNL     1      -0.291   6.008  14.128  1.00  0.00     0.044 A 
BRANCH  23  25
HETATM   25  O4  UNL     1       1.994   6.336  14.609  1.00  0.00    -0.361 OA
HETATM   26  H15 UNL     1       2.756   6.846  14.290  1.00  0.00     0.217 HD
ENDBRANCH  23  25
ENDBRANCH  10  19
BRANCH   5  27
HETATM   27  O2  UNL     1      -8.842   3.583  13.253  1.00  0.00    -0.361 OA
HETATM   28  H7  UNL     1      -9.136   3.908  14.121  1.00  0.00     0.217 HD
ENDBRANCH   5  27
TORSDOF 5
ENDMDL
MODEL 6
REMARK minimizedAffinity -9.24940014
REMARK  5 active torsions:
REMARK  status: ('A' for Active; 'I' for Inactive)
REMARK    1  A    between atoms: O1_1  and  C1_2 
REMARK    2  A    between atoms: C4_5  and  C5_6 
REMARK    3  A    between atoms: C9_10  and  O2_11 
REMARK    4  A    between atoms: C13_16  and  C14_17 
REMARK    5  A    between atoms: C18_21  and  O4_22 
ROOT
HETATM    1  C5  UNL     1      -3.754   6.244  13.444  1.00  0.00     0.065 C 
HETATM    2  C6  UNL     1      -2.552   6.970  12.853  1.00  0.00    -0.015 A 
HETATM    3  C7  UNL     1      -1.314   6.316  12.722  1.00  0.00     0.013 A 
HETATM    4  C8  UNL     1      -0.217   6.974  12.162  1.00  0.00     0.037 A 
HETATM    5  C9  UNL     1      -0.347   8.289  11.737  1.00  0.00     0.068 A 
HETATM    6  C10 UNL     1      -1.553   8.963  11.877  1.00  0.00     0.073 A 
HETATM    7  C11 UNL     1      -2.644   8.310  12.456  1.00  0.00     0.078 A 
HETATM    8  O3  UNL     1      -3.784   9.058  12.579  1.00  0.00    -0.350 OA
HETATM    9  C12 UNL     1      -4.669   8.573  13.593  1.00  0.00     0.186 C 
HETATM   10  C13 UNL     1      -5.040   7.108  13.352  1.00  0.00     0.056 C 
ENDROOT
BRANCH   1  11
HETATM   11  C4  UNL     1      -3.995   4.863  12.829  1.00  0.00    -0.049 A 
HETATM   12  C3  UNL     1      -5.280   4.508  12.389  1.00  0.00     0.011 A 
HETATM   13  C2  UNL     1      -5.513   3.259  11.813  1.00  0.00     0.037 A 
HETATM   14  C1  UNL     1      -4.466   2.358  11.673  1.00  0.00     0.065 A 
HETATM   15  C21 UNL     1      -3.182   2.687  12.097  1.00  0.00     0.037 A 
HETATM   16  C20 UNL     1      -2.948   3.938  12.672  1.00  0.00     0.011 A 
BRANCH  14  17
HETATM   17  O1  UNL     1      -4.738   1.148  11.108  1.00  0.00    -0.361 OA
HETATM   18  H1  UNL     1      -3.913   0.638  11.062  1.00  0.00     0.217 HD
ENDBRANCH  14  17
ENDBRANCH   1  11
BRANCH  10  19
HETATM   19  C14 UNL     1      -6.139   6.646  14.300  1.00  0.00    -0.048 A 
HETATM   20  C15 UNL     1      -5.858   6.180  15.594  1.00  0.00     0.008 A 
HETATM   21  C16 UNL     1      -6.888   5.754  16.436  1.00  0.00     0.003 A 
HETATM   22  C17 UNL     1      -8.211   5.785  15.999  1.00  0.00     0.036 A 
HETATM   23  C18 UNL     1      -8.493   6.243  14.717  1.00  0.00     0.066 A 
HETATM   24  C19 UNL     1      -7.474   6.669  13.871  1.00  0.00     0.044 A 
BRANCH  23  25
HETATM   25  O4  UNL     1      -9.772   6.291  14.246  1.00  0.00    -0.361 OA
HETATM   26  H15 UNL     1     -10.365   5.927  14.922  1.00  0.00     0.217 HD
ENDBRANCH  23  25
ENDBRANCH  10  19
BRANCH   5  27
HETATM   27  O2  UNL     1       0.746   8.891  11.187  1.00  0.00    -0.361 OA
HETATM   28  H7  UNL     1       0.502   9.796  10.930  1.00  0.00     0.217 HD
ENDBRANCH   5  27
TORSDOF 5
ENDMDL
MODEL 7
REMARK minimizedAffinity -9.19813061
REMARK  5 active torsions:
REMARK  status: ('A' for Active; 'I' for Inactive)
REMARK    1  A    between atoms: O1_1  and  C1_2 
REMARK    2  A    between atoms: C4_5  and  C5_6 
REMARK    3  A    between atoms: C9_10  and  O2_11 
REMARK    4  A    between atoms: C13_16  and  C14_17 
REMARK    5  A    between atoms: C18_21  and  O4_22 
ROOT
HETATM    1  C5  UNL     1      -0.682   6.402  11.914  1.00  0.00     0.065 C 
HETATM    2  C6  UNL     1      -1.202   6.775  13.298  1.00  0.00    -0.015 A 
HETATM    3  C7  UNL     1      -2.521   6.462  13.675  1.00  0.00     0.013 A 
HETATM    4  C8  UNL     1      -2.992   6.785  14.949  1.00  0.00     0.037 A 
HETATM    5  C9  UNL     1      -2.155   7.428  15.849  1.00  0.00     0.068 A 
HETATM    6  C10 UNL     1      -0.856   7.768  15.492  1.00  0.00     0.073 A 
HETATM    7  C11 UNL     1      -0.392   7.462  14.210  1.00  0.00     0.078 A 
HETATM    8  O3  UNL     1       0.890   7.857  13.935  1.00  0.00    -0.350 OA
HETATM    9  C12 UNL     1       1.146   8.001  12.536  1.00  0.00     0.186 C 
HETATM   10  C13 UNL     1       0.833   6.709  11.777  1.00  0.00     0.056 C 
ENDROOT
BRANCH   1  11
HETATM   11  C4  UNL     1      -0.968   4.950  11.527  1.00  0.00    -0.049 A 
HETATM   12  C3  UNL     1      -0.084   3.933  11.923  1.00  0.00     0.011 A 
HETATM   13  C2  UNL     1      -0.338   2.602  11.589  1.00  0.00     0.037 A 
HETATM   14  C1  UNL     1      -1.475   2.279  10.860  1.00  0.00     0.065 A 
HETATM   15  C21 UNL     1      -2.369   3.266  10.460  1.00  0.00     0.037 A 
HETATM   16  C20 UNL     1      -2.116   4.598  10.795  1.00  0.00     0.011 A 
BRANCH  14  17
HETATM   17  O1  UNL     1      -1.683   0.967  10.554  1.00  0.00    -0.361 OA
HETATM   18  H1  UNL     1      -2.517   0.895  10.062  1.00  0.00     0.217 HD
ENDBRANCH  14  17
ENDBRANCH   1  11
BRANCH  10  19
HETATM   19  C14 UNL     1       1.298   6.784  10.329  1.00  0.00    -0.048 A 
HETATM   20  C15 UNL     1       0.828   7.769   9.446  1.00  0.00     0.008 A 
HETATM   21  C16 UNL     1       1.267   7.805   8.120  1.00  0.00     0.003 A 
HETATM   22  C17 UNL     1       2.179   6.859   7.657  1.00  0.00     0.036 A 
HETATM   23  C18 UNL     1       2.644   5.879   8.526  1.00  0.00     0.066 A 
HETATM   24  C19 UNL     1       2.213   5.836   9.848  1.00  0.00     0.044 A 
BRANCH  23  25
HETATM   25  O4  UNL     1       3.536   4.932   8.117  1.00  0.00    -0.361 OA
HETATM   26  H15 UNL     1       3.712   5.060   7.171  1.00  0.00     0.217 HD
ENDBRANCH  23  25
ENDBRANCH  10  19
BRANCH   5  27
HETATM   27  O2  UNL     1      -2.651   7.716  17.086  1.00  0.00    -0.361 OA
HETATM   28  H7  UNL     1      -1.955   8.151  17.604  1.00  0.00     0.217 HD
ENDBRANCH   5  27
TORSDOF 5
ENDMDL
MODEL 8
REMARK minimizedAffinity -9.19475746
REMARK  5 active torsions:
REMARK  status: ('A' for Active; 'I' for Inactive)
REMARK    1  A    between atoms: O1_1  and  C1_2 
REMARK    2  A    between atoms: C4_5  and  C5_6 
REMARK    3  A    between atoms: C9_10  and  O2_11 
REMARK    4  A    between atoms: C13_16  and  C14_17 
REMARK    5  A    between atoms: C18_21  and  O4_22 
ROOT
HETATM    1  C5  UNL     1      -4.331   4.636  12.346  1.00  0.00     0.065 C 
HETATM    2  C6  UNL     1      -3.202   3.725  11.877  1.00  0.00    -0.015 A 
HETATM    3  C7  UNL     1      -1.938   4.256  11.561  1.00  0.00     0.013 A 
HETATM    4  C8  UNL     1      -0.898   3.421  11.151  1.00  0.00     0.037 A 
HETATM    5  C9  UNL     1      -1.114   2.054  11.046  1.00  0.00     0.068 A 
HETATM    6  C10 UNL     1      -2.360   1.509  11.330  1.00  0.00     0.073 A 
HETATM    7  C11 UNL     1      -3.405   2.349  11.721  1.00  0.00     0.078 A 
HETATM    8  O3  UNL     1      -4.604   1.730  11.955  1.00  0.00    -0.350 OA
HETATM    9  C12 UNL     1      -5.724   2.613  11.844  1.00  0.00     0.186 C 
HETATM   10  C13 UNL     1      -5.577   3.817  12.777  1.00  0.00     0.056 C 
ENDROOT
BRANCH   1  11
HETATM   11  C4  UNL     1      -3.914   5.598  13.461  1.00  0.00    -0.049 A 
HETATM   12  C3  UNL     1      -3.323   5.098  14.632  1.00  0.00     0.011 A 
HETATM   13  C2  UNL     1      -2.925   5.963  15.652  1.00  0.00     0.037 A 
HETATM   14  C1  UNL     1      -3.113   7.331  15.508  1.00  0.00     0.065 A 
HETATM   15  C21 UNL     1      -3.692   7.853  14.355  1.00  0.00     0.037 A 
HETATM   16  C20 UNL     1      -4.089   6.987  13.334  1.00  0.00     0.011 A 
BRANCH  14  17
HETATM   17  O1  UNL     1      -2.712   8.140  16.529  1.00  0.00    -0.361 OA
HETATM   18  H1  UNL     1      -2.890   9.061  16.279  1.00  0.00     0.217 HD
ENDBRANCH  14  17
ENDBRANCH   1  11
BRANCH  10  19
HETATM   19  C14 UNL     1      -6.851   4.650  12.822  1.00  0.00    -0.048 A 
HETATM   20  C15 UNL     1      -7.358   5.171  14.023  1.00  0.00     0.008 A 
HETATM   21  C16 UNL     1      -8.535   5.924  14.032  1.00  0.00     0.003 A 
HETATM   22  C17 UNL     1      -9.224   6.165  12.844  1.00  0.00     0.036 A 
HETATM   23  C18 UNL     1      -8.727   5.647  11.654  1.00  0.00     0.066 A 
HETATM   24  C19 UNL     1      -7.556   4.898  11.634  1.00  0.00     0.044 A 
BRANCH  23  25
HETATM   25  O4  UNL     1      -9.367   5.857  10.468  1.00  0.00    -0.361 OA
HETATM   26  H15 UNL     1     -10.183   6.355  10.639  1.00  0.00     0.217 HD
ENDBRANCH  23  25
ENDBRANCH  10  19
BRANCH   5  27
HETATM   27  O2  UNL     1      -0.068   1.273  10.651  1.00  0.00    -0.361 OA
HETATM   28  H7  UNL     1      -0.364   0.348  10.634  1.00  0.00     0.217 HD
ENDBRANCH   5  27
TORSDOF 5
ENDMDL
MODEL 9
REMARK minimizedAffinity -9.13993835
REMARK  5 active torsions:
REMARK  status: ('A' for Active; 'I' for Inactive)
REMARK    1  A    between atoms: O1_1  and  C1_2 
REMARK    2  A    between atoms: C4_5  and  C5_6 
REMARK    3  A    between atoms: C9_10  and  O2_11 
REMARK    4  A    between atoms: C13_16  and  C14_17 
REMARK    5  A    between atoms: C18_21  and  O4_22 
ROOT
HETATM    1  C5  UNL     1      -2.515   5.380  12.185  1.00  0.00     0.065 C 
HETATM    2  C6  UNL     1      -1.047   5.569  11.821  1.00  0.00    -0.015 A 
HETATM    3  C7  UNL     1      -0.526   6.856  11.592  1.00  0.00     0.013 A 
HETATM    4  C8  UNL     1       0.822   7.033  11.278  1.00  0.00     0.037 A 
HETATM    5  C9  UNL     1       1.656   5.928  11.181  1.00  0.00     0.068 A 
HETATM    6  C10 UNL     1       1.161   4.645  11.380  1.00  0.00     0.073 A 
HETATM    7  C11 UNL     1      -0.193   4.469  11.675  1.00  0.00     0.078 A 
HETATM    8  O3  UNL     1      -0.601   3.171  11.828  1.00  0.00    -0.350 OA
HETATM    9  C12 UNL     1      -2.004   2.992  11.616  1.00  0.00     0.186 C 
HETATM   10  C13 UNL     1      -2.824   3.900  12.535  1.00  0.00     0.056 C 
ENDROOT
BRANCH   1  11
HETATM   11  C4  UNL     1      -2.987   6.303  13.311  1.00  0.00    -0.049 A 
HETATM   12  C3  UNL     1      -3.834   7.385  13.019  1.00  0.00     0.011 A 
HETATM   13  C2  UNL     1      -4.284   8.228  14.036  1.00  0.00     0.037 A 
HETATM   14  C1  UNL     1      -3.893   7.996  15.347  1.00  0.00     0.065 A 
HETATM   15  C21 UNL     1      -3.058   6.929  15.664  1.00  0.00     0.037 A 
HETATM   16  C20 UNL     1      -2.608   6.084  14.647  1.00  0.00     0.011 A 
BRANCH  14  17
HETATM   17  O1  UNL     1      -4.354   8.845  16.309  1.00  0.00    -0.361 OA
HETATM   18  H1  UNL     1      -4.013   8.550  17.169  1.00  0.00     0.217 HD
ENDBRANCH  14  17
ENDBRANCH   1  11
BRANCH  10  19
HETATM   19  C14 UNL     1      -4.310   3.569  12.467  1.00  0.00    -0.048 A 
HETATM   20  C15 UNL     1      -5.274   4.337  13.138  1.00  0.00     0.008 A 
HETATM   21  C16 UNL     1      -6.629   4.002  13.064  1.00  0.00     0.003 A 
HETATM   22  C17 UNL     1      -7.039   2.897  12.321  1.00  0.00     0.036 A 
HETATM   23  C18 UNL     1      -6.087   2.132  11.658  1.00  0.00     0.066 A 
HETATM   24  C19 UNL     1      -4.736   2.457  11.726  1.00  0.00     0.044 A 
BRANCH  23  25
HETATM   25  O4  UNL     1      -6.441   1.041  10.921  1.00  0.00    -0.361 OA
HETATM   26  H15 UNL     1      -7.400   0.912  10.998  1.00  0.00     0.217 HD
ENDBRANCH  23  25
ENDBRANCH  10  19
BRANCH   5  27
HETATM   27  O2  UNL     1       2.969   6.145  10.883  1.00  0.00    -0.361 OA
HETATM   28  H7  UNL     1       3.426   5.289  10.860  1.00  0.00     0.217 HD
ENDBRANCH   5  27
TORSDOF 5
ENDMDL
