MODEL 1
REMARK minimizedAffinity -7.78706884
REMARK  7 active torsions:
REMARK  status: ('A' for Active; 'I' for Inactive)
REMARK       I    between atoms: C1_2  and  N1_3 
REMARK    1  A    between atoms: C1_2  and  C8_12 
REMARK    2  A    between atoms: N1_3  and  C2_4 
REMARK    3  A    between atoms: C2_4  and  C3_5 
REMARK    4  A    between atoms: C14_19  and  C15_20 
REMARK    5  A    between atoms: C15_20  and  N4_21 
REMARK    6  A    between atoms: C17_23  and  C18_24 
REMARK    7  A    between atoms: C18_24  and  C19_25 
ROOT
HETATM    1  C8  UNL     1      13.103  34.250  19.527  1.00  0.00     0.110 C 
HETATM    2  C9  UNL     1      13.003  35.473  18.598  1.00  0.00     0.287 C 
HETATM    3  N3  UNL     1      14.349  36.065  18.354  1.00  0.00     0.095 N 
HETATM    4  C10 UNL     1      14.828  36.642  19.629  1.00  0.00     0.273 C 
HETATM    5  C11 UNL     1      14.883  35.592  20.747  1.00  0.00     0.036 C 
HETATM    6  C12 UNL     1      14.506  34.215  20.175  1.00  0.00     0.004 C 
HETATM    7  C13 UNL     1      15.517  33.957  19.036  1.00  0.00     0.043 C 
HETATM    8  C14 UNL     1      15.260  34.969  17.886  1.00  0.00     0.242 C 
ENDROOT
BRANCH   8   9
HETATM    9  C15 UNL     1      16.584  35.467  17.278  1.00  0.00     0.181 C 
BRANCH   9  10
HETATM   10  N4  UNL     1      16.572  35.461  15.832  1.00  0.00    -0.283 N 
HETATM   11  C16 UNL     1      17.626  35.332  14.980  1.00  0.00     0.134 A 
HETATM   12  C17 UNL     1      17.047  35.358  13.731  1.00  0.00     0.041 A 
HETATM   13  N5  UNL     1      15.690  35.486  13.869  1.00  0.00    -0.287 N 
HETATM   14  N6  UNL     1      15.408  35.540  15.164  1.00  0.00    -0.020 NA
ATOM     15  H5  UNL     1      15.013  35.533  13.108  1.00  0.00     0.184 HD
BRANCH  12  16
HETATM   16  C18 UNL     1      17.679  35.275  12.388  1.00  0.00     0.064 C 
BRANCH  16  17
HETATM   17  C19 UNL     1      17.511  33.897  11.719  1.00  0.00    -0.009 C 
HETATM   18  C20 UNL     1      17.523  32.791  12.787  1.00  0.00     0.005 C 
HETATM   19  C21 UNL     1      17.402  31.400  12.169  1.00  0.00     0.000 C 
HETATM   20  C22 UNL     1      18.484  31.154  11.125  1.00  0.00     0.000 C 
HETATM   21  C23 UNL     1      18.484  32.242  10.055  1.00  0.00     0.000 C 
HETATM   22  C24 UNL     1      18.603  33.637  10.666  1.00  0.00     0.005 C 
ENDBRANCH  16  17
ENDBRANCH  12  16
ENDBRANCH   9  10
ENDBRANCH   8   9
BRANCH   1  23
HETATM   23  C1  UNL     1      11.955  34.124  20.523  1.00  0.00     0.224 C 
HETATM   24  O1  UNL     1      11.786  33.086  21.160  1.00  0.00    -0.273 OA
HETATM   25  N1  UNL     1      11.160  35.229  20.699  1.00  0.00    -0.356 N 
HETATM   26  H1  UNL     1      11.212  35.990  20.038  1.00  0.00     0.162 HD
BRANCH  25  27
HETATM   27  C2  UNL     1       9.986  35.185  21.544  1.00  0.00     0.162 C 
BRANCH  27  28
HETATM   28  C3  UNL     1       8.733  35.231  20.720  1.00  0.00    -0.025 A 
HETATM   29  C4  UNL     1       8.606  36.084  19.620  1.00  0.00     0.011 A 
HETATM   30  C5  UNL     1       7.431  36.077  18.873  1.00  0.00     0.018 A 
HETATM   31  C6  UNL     1       6.422  35.208  19.248  1.00  0.00     0.087 A 
HETATM   32  N2  UNL     1       6.511  34.361  20.295  1.00  0.00    -0.375 N 
HETATM   33  C7  UNL     1       7.662  34.389  21.005  1.00  0.00     0.096 A 
ATOM     34  H2  UNL     1       5.747  33.730  20.539  1.00  0.00     0.164 HD
ENDBRANCH  27  28
ENDBRANCH  25  27
ENDBRANCH   1  23
TORSDOF 7
ENDMDL
MODEL 2
REMARK minimizedAffinity -7.74262476
REMARK  7 active torsions:
REMARK  status: ('A' for Active; 'I' for Inactive)
REMARK       I    between atoms: C1_2  and  N1_3 
REMARK    1  A    between atoms: C1_2  and  C8_12 
REMARK    2  A    between atoms: N1_3  and  C2_4 
REMARK    3  A    between atoms: C2_4  and  C3_5 
REMARK    4  A    between atoms: C14_19  and  C15_20 
REMARK    5  A    between atoms: C15_20  and  N4_21 
REMARK    6  A    between atoms: C17_23  and  C18_24 
REMARK    7  A    between atoms: C18_24  and  C19_25 
ROOT
HETATM    1  C8  UNL     1      13.538  35.761  17.488  1.00  0.00     0.110 C 
HETATM    2  C9  UNL     1      14.144  36.857  18.383  1.00  0.00     0.287 C 
HETATM    3  N3  UNL     1      15.575  37.090  18.040  1.00  0.00     0.095 N 
HETATM    4  C10 UNL     1      16.335  35.879  18.420  1.00  0.00     0.273 C 
HETATM    5  C11 UNL     1      15.799  34.624  17.719  1.00  0.00     0.036 C 
HETATM    6  C12 UNL     1      14.675  35.021  16.747  1.00  0.00     0.004 C 
HETATM    7  C13 UNL     1      15.315  36.042  15.780  1.00  0.00     0.043 C 
HETATM    8  C14 UNL     1      15.664  37.337  16.562  1.00  0.00     0.242 C 
ENDROOT
BRANCH   8   9
HETATM    9  C15 UNL     1      17.014  37.918  16.101  1.00  0.00     0.181 C 
BRANCH   9  10
HETATM   10  N4  UNL     1      17.158  37.921  14.662  1.00  0.00    -0.283 N 
HETATM   11  C16 UNL     1      17.813  37.020  13.879  1.00  0.00     0.134 A 
HETATM   12  C17 UNL     1      17.606  37.483  12.599  1.00  0.00     0.041 A 
HETATM   13  N5  UNL     1      16.838  38.618  12.652  1.00  0.00    -0.287 N 
HETATM   14  N6  UNL     1      16.561  38.872  13.924  1.00  0.00    -0.020 NA
ATOM     15  H5  UNL     1      16.532  39.170  11.851  1.00  0.00     0.184 HD
BRANCH  12  16
HETATM   16  C18 UNL     1      18.084  36.939  11.302  1.00  0.00     0.064 C 
BRANCH  16  17
HETATM   17  C19 UNL     1      17.686  35.468  11.073  1.00  0.00    -0.009 C 
HETATM   18  C20 UNL     1      16.653  35.035  12.128  1.00  0.00     0.005 C 
HETATM   19  C21 UNL     1      16.257  33.569  11.969  1.00  0.00     0.000 C 
HETATM   20  C22 UNL     1      17.475  32.653  11.998  1.00  0.00     0.000 C 
HETATM   21  C23 UNL     1      18.509  33.068  10.955  1.00  0.00     0.000 C 
HETATM   22  C24 UNL     1      18.909  34.534  11.106  1.00  0.00     0.005 C 
ENDBRANCH  16  17
ENDBRANCH  12  16
ENDBRANCH   9  10
ENDBRANCH   8   9
BRANCH   1  23
HETATM   23  C1  UNL     1      12.559  34.837  18.204  1.00  0.00     0.224 C 
HETATM   24  O1  UNL     1      12.462  33.653  17.886  1.00  0.00    -0.273 OA
HETATM   25  N1  UNL     1      11.834  35.379  19.238  1.00  0.00    -0.356 N 
HETATM   26  H1  UNL     1      11.803  36.382  19.350  1.00  0.00     0.162 HD
BRANCH  25  27
HETATM   27  C2  UNL     1      10.808  34.618  19.917  1.00  0.00     0.162 C 
BRANCH  27  28
HETATM   28  C3  UNL     1       9.452  35.208  19.666  1.00  0.00    -0.025 A 
HETATM   29  C4  UNL     1       9.249  36.209  18.711  1.00  0.00     0.011 A 
HETATM   30  C5  UNL     1       7.968  36.711  18.499  1.00  0.00     0.018 A 
HETATM   31  C6  UNL     1       6.927  36.188  19.246  1.00  0.00     0.087 A 
HETATM   32  N2  UNL     1       7.080  35.215  20.168  1.00  0.00    -0.375 N 
HETATM   33  C7  UNL     1       8.334  34.746  20.356  1.00  0.00     0.096 A 
ATOM     34  H2  UNL     1       6.288  34.850  20.697  1.00  0.00     0.164 HD
ENDBRANCH  27  28
ENDBRANCH  25  27
ENDBRANCH   1  23
TORSDOF 7
ENDMDL
MODEL 3
REMARK minimizedAffinity -7.37768507
REMARK  7 active torsions:
REMARK  status: ('A' for Active; 'I' for Inactive)
REMARK       I    between atoms: C1_2  and  N1_3 
REMARK    1  A    between atoms: C1_2  and  C8_12 
REMARK    2  A    between atoms: N1_3  and  C2_4 
REMARK    3  A    between atoms: C2_4  and  C3_5 
REMARK    4  A    between atoms: C14_19  and  C15_20 
REMARK    5  A    between atoms: C15_20  and  N4_21 
REMARK    6  A    between atoms: C17_23  and  C18_24 
REMARK    7  A    between atoms: C18_24  and  C19_25 
ROOT
HETATM    1  C8  UNL     1      12.850  34.430  19.886  1.00  0.00     0.110 C 
HETATM    2  C9  UNL     1      12.754  35.920  19.510  1.00  0.00     0.287 C 
HETATM    3  N3  UNL     1      14.108  36.493  19.265  1.00  0.00     0.095 N 
HETATM    4  C10 UNL     1      14.832  36.512  20.554  1.00  0.00     0.273 C 
HETATM    5  C11 UNL     1      14.932  35.111  21.175  1.00  0.00     0.036 C 
HETATM    6  C12 UNL     1      14.320  34.080  20.211  1.00  0.00     0.004 C 
HETATM    7  C13 UNL     1      15.116  34.230  18.895  1.00  0.00     0.043 C 
HETATM    8  C14 UNL     1      14.809  35.617  18.268  1.00  0.00     0.242 C 
ENDROOT
BRANCH   8   9
HETATM    9  C15 UNL     1      16.077  36.246  17.660  1.00  0.00     0.181 C 
BRANCH   9  10
HETATM   10  N4  UNL     1      15.780  37.216  16.630  1.00  0.00    -0.283 N 
HETATM   11  C16 UNL     1      16.653  37.953  15.888  1.00  0.00     0.134 A 
HETATM   12  C17 UNL     1      15.840  38.678  15.045  1.00  0.00     0.041 A 
HETATM   13  N5  UNL     1      14.532  38.351  15.293  1.00  0.00    -0.287 N 
HETATM   14  N6  UNL     1      14.507  37.446  16.262  1.00  0.00    -0.020 NA
ATOM     15  H5  UNL     1      13.719  38.737  14.815  1.00  0.00     0.184 HD
BRANCH  12  16
HETATM   16  C18 UNL     1      16.199  39.677  14.006  1.00  0.00     0.064 C 
BRANCH  16  17
HETATM   17  C19 UNL     1      16.965  40.892  14.566  1.00  0.00    -0.009 C 
HETATM   18  C20 UNL     1      16.231  41.452  15.796  1.00  0.00     0.005 C 
HETATM   19  C21 UNL     1      16.929  42.685  16.364  1.00  0.00     0.000 C 
HETATM   20  C22 UNL     1      17.108  43.766  15.304  1.00  0.00     0.000 C 
HETATM   21  C23 UNL     1      17.837  43.227  14.077  1.00  0.00     0.000 C 
HETATM   22  C24 UNL     1      17.146  41.992  13.504  1.00  0.00     0.005 C 
ENDBRANCH  16  17
ENDBRANCH  12  16
ENDBRANCH   9  10
ENDBRANCH   8   9
BRANCH   1  23
HETATM   23  C1  UNL     1      11.856  33.987  20.953  1.00  0.00     0.224 C 
HETATM   24  O1  UNL     1      11.739  32.800  21.251  1.00  0.00    -0.273 OA
HETATM   25  N1  UNL     1      11.140  34.975  21.585  1.00  0.00    -0.356 N 
HETATM   26  H1  UNL     1      11.126  35.905  21.195  1.00  0.00     0.162 HD
BRANCH  25  27
HETATM   27  C2  UNL     1      10.101  34.657  22.540  1.00  0.00     0.162 C 
BRANCH  27  28
HETATM   28  C3  UNL     1       8.743  34.920  21.959  1.00  0.00    -0.025 A 
HETATM   29  C4  UNL     1       8.308  34.293  20.789  1.00  0.00     0.011 A 
HETATM   30  C5  UNL     1       7.031  34.554  20.298  1.00  0.00     0.018 A 
HETATM   31  C6  UNL     1       6.226  35.432  21.003  1.00  0.00     0.087 A 
HETATM   32  N2  UNL     1       6.605  36.048  22.142  1.00  0.00    -0.375 N 
HETATM   33  C7  UNL     1       7.850  35.778  22.596  1.00  0.00     0.096 A 
ATOM     34  H2  UNL     1       5.982  36.686  22.638  1.00  0.00     0.164 HD
ENDBRANCH  27  28
ENDBRANCH  25  27
ENDBRANCH   1  23
TORSDOF 7
ENDMDL
MODEL 4
REMARK minimizedAffinity -7.26290369
REMARK  7 active torsions:
REMARK  status: ('A' for Active; 'I' for Inactive)
REMARK       I    between atoms: C1_2  and  N1_3 
REMARK    1  A    between atoms: C1_2  and  C8_12 
REMARK    2  A    between atoms: N1_3  and  C2_4 
REMARK    3  A    between atoms: C2_4  and  C3_5 
REMARK    4  A    between atoms: C14_19  and  C15_20 
REMARK    5  A    between atoms: C15_20  and  N4_21 
REMARK    6  A    between atoms: C17_23  and  C18_24 
REMARK    7  A    between atoms: C18_24  and  C19_25 
ROOT
HETATM    1  C8  UNL     1      14.253  56.750   4.102  1.00  0.00     0.110 C 
HETATM    2  C9  UNL     1      13.121  57.569   3.456  1.00  0.00     0.287 C 
HETATM    3  N3  UNL     1      13.484  57.969   2.067  1.00  0.00     0.095 N 
HETATM    4  C10 UNL     1      14.600  58.936   2.150  1.00  0.00     0.273 C 
HETATM    5  C11 UNL     1      15.812  58.347   2.888  1.00  0.00     0.036 C 
HETATM    6  C12 UNL     1      15.530  56.878   3.242  1.00  0.00     0.004 C 
HETATM    7  C13 UNL     1      15.231  56.183   1.894  1.00  0.00     0.043 C 
HETATM    8  C14 UNL     1      13.898  56.735   1.321  1.00  0.00     0.242 C 
ENDROOT
BRANCH   8   9
HETATM    9  C15 UNL     1      13.983  56.920  -0.206  1.00  0.00     0.181 C 
BRANCH   9  10
HETATM   10  N4  UNL     1      13.285  55.883  -0.934  1.00  0.00    -0.283 N 
HETATM   11  C16 UNL     1      13.815  54.838  -1.628  1.00  0.00     0.134 A 
HETATM   12  C17 UNL     1      12.712  54.154  -2.087  1.00  0.00     0.041 A 
HETATM   13  N5  UNL     1      11.578  54.789  -1.652  1.00  0.00    -0.287 N 
HETATM   14  N6  UNL     1      11.942  55.845  -0.937  1.00  0.00    -0.020 NA
ATOM     15  H5  UNL     1      10.619  54.500  -1.845  1.00  0.00     0.184 HD
BRANCH  12  16
HETATM   16  C18 UNL     1      12.633  52.928  -2.923  1.00  0.00     0.064 C 
BRANCH  16  17
HETATM   17  C19 UNL     1      12.377  51.647  -2.105  1.00  0.00    -0.009 C 
HETATM   18  C20 UNL     1      13.563  50.679  -2.264  1.00  0.00     0.005 C 
HETATM   19  C21 UNL     1      13.338  49.374  -1.505  1.00  0.00     0.000 C 
HETATM   20  C22 UNL     1      12.034  48.702  -1.919  1.00  0.00     0.000 C 
HETATM   21  C23 UNL     1      10.847  49.648  -1.765  1.00  0.00     0.000 C 
HETATM   22  C24 UNL     1      11.065  50.958  -2.520  1.00  0.00     0.005 C 
ENDBRANCH  16  17
ENDBRANCH  12  16
ENDBRANCH   9  10
ENDBRANCH   8   9
BRANCH   1  23
HETATM   23  C1  UNL     1      14.469  57.041   5.583  1.00  0.00     0.224 C 
HETATM   24  O1  UNL     1      15.191  56.319   6.268  1.00  0.00    -0.273 OA
HETATM   25  N1  UNL     1      13.858  58.160   6.094  1.00  0.00    -0.356 N 
HETATM   26  H1  UNL     1      13.137  58.620   5.559  1.00  0.00     0.162 HD
BRANCH  25  27
HETATM   27  C2  UNL     1      13.917  58.472   7.505  1.00  0.00     0.162 C 
BRANCH  27  28
HETATM   28  C3  UNL     1      12.650  59.134   7.958  1.00  0.00    -0.025 A 
HETATM   29  C4  UNL     1      12.090  58.874   9.212  1.00  0.00     0.011 A 
HETATM   30  C5  UNL     1      10.922  59.528   9.597  1.00  0.00     0.018 A 
HETATM   31  C6  UNL     1      10.356  60.431   8.714  1.00  0.00     0.087 A 
HETATM   32  N2  UNL     1      10.873  60.718   7.501  1.00  0.00    -0.375 N 
HETATM   33  C7  UNL     1      12.006  60.068   7.151  1.00  0.00     0.096 A 
ATOM     34  H2  UNL     1      10.430  61.394   6.877  1.00  0.00     0.164 HD
ENDBRANCH  27  28
ENDBRANCH  25  27
ENDBRANCH   1  23
TORSDOF 7
ENDMDL
MODEL 5
REMARK minimizedAffinity -7.21916294
REMARK  7 active torsions:
REMARK  status: ('A' for Active; 'I' for Inactive)
REMARK       I    between atoms: C1_2  and  N1_3 
REMARK    1  A    between atoms: C1_2  and  C8_12 
REMARK    2  A    between atoms: N1_3  and  C2_4 
REMARK    3  A    between atoms: C2_4  and  C3_5 
REMARK    4  A    between atoms: C14_19  and  C15_20 
REMARK    5  A    between atoms: C15_20  and  N4_21 
REMARK    6  A    between atoms: C17_23  and  C18_24 
REMARK    7  A    between atoms: C18_24  and  C19_25 
ROOT
HETATM    1  C8  UNL     1      17.455  32.619  12.562  1.00  0.00     0.110 C 
HETATM    2  C9  UNL     1      18.558  33.135  13.503  1.00  0.00     0.287 C 
HETATM    3  N3  UNL     1      18.519  34.622  13.599  1.00  0.00     0.095 N 
HETATM    4  C10 UNL     1      18.909  35.171  12.282  1.00  0.00     0.273 C 
HETATM    5  C11 UNL     1      17.992  34.668  11.159  1.00  0.00     0.036 C 
HETATM    6  C12 UNL     1      16.871  33.805  11.761  1.00  0.00     0.004 C 
HETATM    7  C13 UNL     1      16.155  34.720  12.779  1.00  0.00     0.043 C 
HETATM    8  C14 UNL     1      17.119  35.028  13.956  1.00  0.00     0.242 C 
ENDROOT
BRANCH   8   9
HETATM    9  C15 UNL     1      16.986  36.492  14.416  1.00  0.00     0.181 C 
BRANCH   9  10
HETATM   10  N4  UNL     1      15.804  36.720  15.218  1.00  0.00    -0.283 N 
HETATM   11  C16 UNL     1      14.835  35.828  15.564  1.00  0.00     0.134 A 
HETATM   12  C17 UNL     1      13.978  36.562  16.353  1.00  0.00     0.041 A 
HETATM   13  N5  UNL     1      14.456  37.842  16.464  1.00  0.00    -0.287 N 
HETATM   14  N6  UNL     1      15.583  37.925  15.771  1.00  0.00    -0.020 NA
ATOM     15  H5  UNL     1      14.020  38.599  16.990  1.00  0.00     0.184 HD
BRANCH  12  16
HETATM   16  C18 UNL     1      12.716  36.152  17.022  1.00  0.00     0.064 C 
BRANCH  16  17
HETATM   17  C19 UNL     1      12.912  35.032  18.063  1.00  0.00    -0.009 C 
HETATM   18  C20 UNL     1      11.589  34.767  18.801  1.00  0.00     0.005 C 
HETATM   19  C21 UNL     1      11.742  33.692  19.875  1.00  0.00     0.000 C 
HETATM   20  C22 UNL     1      12.851  34.039  20.861  1.00  0.00     0.000 C 
HETATM   21  C23 UNL     1      14.172  34.302  20.144  1.00  0.00     0.000 C 
HETATM   22  C24 UNL     1      14.027  35.375  19.067  1.00  0.00     0.005 C 
ENDBRANCH  16  17
ENDBRANCH  12  16
ENDBRANCH   9  10
ENDBRANCH   8   9
BRANCH   1  23
HETATM   23  C1  UNL     1      17.872  31.433  11.700  1.00  0.00     0.224 C 
HETATM   24  O1  UNL     1      17.328  30.338  11.829  1.00  0.00    -0.273 OA
HETATM   25  N1  UNL     1      18.842  31.661  10.754  1.00  0.00    -0.356 N 
HETATM   26  H1  UNL     1      19.388  32.508  10.798  1.00  0.00     0.162 HD
BRANCH  25  27
HETATM   27  C2  UNL     1      19.380  30.583   9.953  1.00  0.00     0.162 C 
BRANCH  27  28
HETATM   28  C3  UNL     1      18.642  30.465   8.652  1.00  0.00    -0.025 A 
HETATM   29  C4  UNL     1      18.477  31.559   7.797  1.00  0.00     0.011 A 
HETATM   30  C5  UNL     1      17.802  31.396   6.591  1.00  0.00     0.018 A 
HETATM   31  C6  UNL     1      17.319  30.138   6.275  1.00  0.00     0.087 A 
HETATM   32  N2  UNL     1      17.468  29.056   7.068  1.00  0.00    -0.375 N 
HETATM   33  C7  UNL     1      18.126  29.242   8.234  1.00  0.00     0.096 A 
ATOM     34  H2  UNL     1      17.101  28.142   6.800  1.00  0.00     0.164 HD
ENDBRANCH  27  28
ENDBRANCH  25  27
ENDBRANCH   1  23
TORSDOF 7
ENDMDL
MODEL 6
REMARK minimizedAffinity -7.17191839
REMARK  7 active torsions:
REMARK  status: ('A' for Active; 'I' for Inactive)
REMARK       I    between atoms: C1_2  and  N1_3 
REMARK    1  A    between atoms: C1_2  and  C8_12 
REMARK    2  A    between atoms: N1_3  and  C2_4 
REMARK    3  A    between atoms: C2_4  and  C3_5 
REMARK    4  A    between atoms: C14_19  and  C15_20 
REMARK    5  A    between atoms: C15_20  and  N4_21 
REMARK    6  A    between atoms: C17_23  and  C18_24 
REMARK    7  A    between atoms: C18_24  and  C19_25 
ROOT
HETATM    1  C8  UNL     1      13.380  36.276  19.160  1.00  0.00     0.110 C 
HETATM    2  C9  UNL     1      14.875  36.167  19.510  1.00  0.00     0.287 C 
HETATM    3  N3  UNL     1      15.622  35.463  18.429  1.00  0.00     0.095 N 
HETATM    4  C10 UNL     1      15.172  34.055  18.409  1.00  0.00     0.273 C 
HETATM    5  C11 UNL     1      13.656  33.942  18.193  1.00  0.00     0.036 C 
HETATM    6  C12 UNL     1      13.065  35.344  17.968  1.00  0.00     0.004 C 
HETATM    7  C13 UNL     1      13.822  35.913  16.746  1.00  0.00     0.043 C 
HETATM    8  C14 UNL     1      15.308  36.145  17.128  1.00  0.00     0.242 C 
ENDROOT
BRANCH   8   9
HETATM    9  C15 UNL     1      16.248  35.757  15.972  1.00  0.00     0.181 C 
BRANCH   9  10
HETATM   10  N4  UNL     1      16.437  36.831  15.022  1.00  0.00    -0.283 N 
HETATM   11  C16 UNL     1      16.125  38.148  15.166  1.00  0.00     0.134 A 
HETATM   12  C17 UNL     1      16.545  38.719  13.985  1.00  0.00     0.041 A 
HETATM   13  N5  UNL     1      17.097  37.747  13.190  1.00  0.00    -0.287 N 
HETATM   14  N6  UNL     1      17.033  36.593  13.841  1.00  0.00    -0.020 NA
ATOM     15  H5  UNL     1      17.489  37.888  12.259  1.00  0.00     0.184 HD
BRANCH  12  16
HETATM   16  C18 UNL     1      16.465  40.131  13.529  1.00  0.00     0.064 C 
BRANCH  16  17
HETATM   17  C19 UNL     1      17.026  41.136  14.554  1.00  0.00    -0.009 C 
HETATM   18  C20 UNL     1      15.980  41.406  15.649  1.00  0.00     0.005 C 
HETATM   19  C21 UNL     1      16.473  42.430  16.668  1.00  0.00     0.000 C 
HETATM   20  C22 UNL     1      16.899  43.730  15.995  1.00  0.00     0.000 C 
HETATM   21  C23 UNL     1      17.940  43.479  14.908  1.00  0.00     0.000 C 
HETATM   22  C24 UNL     1      17.454  42.454  13.885  1.00  0.00     0.005 C 
ENDBRANCH  16  17
ENDBRANCH  12  16
ENDBRANCH   9  10
ENDBRANCH   8   9
BRANCH   1  23
HETATM   23  C1  UNL     1      12.443  36.100  20.350  1.00  0.00     0.224 C 
HETATM   24  O1  UNL     1      12.889  35.892  21.477  1.00  0.00    -0.273 OA
HETATM   25  N1  UNL     1      11.097  36.228  20.107  1.00  0.00    -0.356 N 
HETATM   26  H1  UNL     1      10.761  36.216  19.156  1.00  0.00     0.162 HD
BRANCH  25  27
HETATM   27  C2  UNL     1      10.119  35.982  21.144  1.00  0.00     0.162 C 
BRANCH  27  28
HETATM   28  C3  UNL     1       8.809  35.554  20.551  1.00  0.00    -0.025 A 
HETATM   29  C4  UNL     1       8.102  34.453  21.043  1.00  0.00     0.011 A 
HETATM   30  C5  UNL     1       6.880  34.106  20.473  1.00  0.00     0.018 A 
HETATM   31  C6  UNL     1       6.401  34.880  19.431  1.00  0.00     0.087 A 
HETATM   32  N2  UNL     1       7.047  35.956  18.936  1.00  0.00    -0.375 N 
HETATM   33  C7  UNL     1       8.232  36.270  19.506  1.00  0.00     0.096 A 
ATOM     34  H2  UNL     1       6.660  36.506  18.169  1.00  0.00     0.164 HD
ENDBRANCH  27  28
ENDBRANCH  25  27
ENDBRANCH   1  23
TORSDOF 7
ENDMDL
MODEL 7
REMARK minimizedAffinity -7.14089251
REMARK  7 active torsions:
REMARK  status: ('A' for Active; 'I' for Inactive)
REMARK       I    between atoms: C1_2  and  N1_3 
REMARK    1  A    between atoms: C1_2  and  C8_12 
REMARK    2  A    between atoms: N1_3  and  C2_4 
REMARK    3  A    between atoms: C2_4  and  C3_5 
REMARK    4  A    between atoms: C14_19  and  C15_20 
REMARK    5  A    between atoms: C15_20  and  N4_21 
REMARK    6  A    between atoms: C17_23  and  C18_24 
REMARK    7  A    between atoms: C18_24  and  C19_25 
ROOT
HETATM    1  C8  UNL     1      17.996  48.815   4.251  1.00  0.00     0.110 C 
HETATM    2  C9  UNL     1      19.001  47.715   4.639  1.00  0.00     0.287 C 
HETATM    3  N3  UNL     1      18.300  46.430   4.916  1.00  0.00     0.095 N 
HETATM    4  C10 UNL     1      17.496  46.608   6.145  1.00  0.00     0.273 C 
HETATM    5  C11 UNL     1      16.495  47.763   6.011  1.00  0.00     0.036 C 
HETATM    6  C12 UNL     1      16.565  48.338   4.586  1.00  0.00     0.004 C 
HETATM    7  C13 UNL     1      16.261  47.146   3.651  1.00  0.00     0.043 C 
HETATM    8  C14 UNL     1      17.420  46.118   3.741  1.00  0.00     0.242 C 
ENDROOT
BRANCH   8   9
HETATM    9  C15 UNL     1      16.886  44.674   3.719  1.00  0.00     0.181 C 
BRANCH   9  10
HETATM   10  N4  UNL     1      17.208  43.977   2.493  1.00  0.00    -0.283 N 
HETATM   11  C16 UNL     1      18.182  43.049   2.282  1.00  0.00     0.134 A 
HETATM   12  C17 UNL     1      18.022  42.697   0.961  1.00  0.00     0.041 A 
HETATM   13  N5  UNL     1      16.969  43.400   0.434  1.00  0.00    -0.287 N 
HETATM   14  N6  UNL     1      16.472  44.177   1.387  1.00  0.00    -0.020 NA
ATOM     15  H5  UNL     1      16.628  43.338  -0.524  1.00  0.00     0.184 HD
BRANCH  12  16
HETATM   16  C18 UNL     1      18.795  41.736   0.132  1.00  0.00     0.064 C 
BRANCH  16  17
HETATM   17  C19 UNL     1      18.194  40.317   0.122  1.00  0.00    -0.009 C 
HETATM   18  C20 UNL     1      19.321  39.272   0.054  1.00  0.00     0.005 C 
HETATM   19  C21 UNL     1      18.775  37.847  -0.001  1.00  0.00     0.000 C 
HETATM   20  C22 UNL     1      17.799  37.665  -1.157  1.00  0.00     0.000 C 
HETATM   21  C23 UNL     1      16.673  38.693  -1.103  1.00  0.00     0.000 C 
HETATM   22  C24 UNL     1      17.211  40.121  -1.046  1.00  0.00     0.005 C 
ENDBRANCH  16  17
ENDBRANCH  12  16
ENDBRANCH   9  10
ENDBRANCH   8   9
BRANCH   1  23
HETATM   23  C1  UNL     1      18.335  50.196   4.799  1.00  0.00     0.224 C 
HETATM   24  O1  UNL     1      19.499  50.508   5.044  1.00  0.00    -0.273 OA
HETATM   25  N1  UNL     1      17.293  51.076   4.959  1.00  0.00    -0.356 N 
HETATM   26  H1  UNL     1      16.344  50.733   4.923  1.00  0.00     0.162 HD
BRANCH  25  27
HETATM   27  C2  UNL     1      17.490  52.375   5.564  1.00  0.00     0.162 C 
BRANCH  27  28
HETATM   28  C3  UNL     1      16.413  53.329   5.142  1.00  0.00    -0.025 A 
HETATM   29  C4  UNL     1      16.703  54.509   4.450  1.00  0.00     0.011 A 
HETATM   30  C5  UNL     1      15.666  55.354   4.062  1.00  0.00     0.018 A 
HETATM   31  C6  UNL     1      14.369  54.986   4.372  1.00  0.00     0.087 A 
HETATM   32  N2  UNL     1      14.048  53.850   5.027  1.00  0.00    -0.375 N 
HETATM   33  C7  UNL     1      15.073  53.048   5.395  1.00  0.00     0.096 A 
ATOM     34  H2  UNL     1      13.079  53.609   5.235  1.00  0.00     0.164 HD
ENDBRANCH  27  28
ENDBRANCH  25  27
ENDBRANCH   1  23
TORSDOF 7
ENDMDL
MODEL 8
REMARK minimizedAffinity -7.10329103
REMARK  7 active torsions:
REMARK  status: ('A' for Active; 'I' for Inactive)
REMARK       I    between atoms: C1_2  and  N1_3 
REMARK    1  A    between atoms: C1_2  and  C8_12 
REMARK    2  A    between atoms: N1_3  and  C2_4 
REMARK    3  A    between atoms: C2_4  and  C3_5 
REMARK    4  A    between atoms: C14_19  and  C15_20 
REMARK    5  A    between atoms: C15_20  and  N4_21 
REMARK    6  A    between atoms: C17_23  and  C18_24 
REMARK    7  A    between atoms: C18_24  and  C19_25 
ROOT
HETATM    1  C8  UNL     1      10.994  46.148  -1.484  1.00  0.00     0.110 C 
HETATM    2  C9  UNL     1      11.587  46.669  -2.805  1.00  0.00     0.287 C 
HETATM    3  N3  UNL     1      10.959  47.964  -3.194  1.00  0.00     0.095 N 
HETATM    4  C10 UNL     1       9.545  47.697  -3.536  1.00  0.00     0.273 C 
HETATM    5  C11 UNL     1       8.788  47.046  -2.369  1.00  0.00     0.036 C 
HETATM    6  C12 UNL     1       9.716  46.950  -1.147  1.00  0.00     0.004 C 
HETATM    7  C13 UNL     1      10.164  48.401  -0.860  1.00  0.00     0.043 C 
HETATM    8  C14 UNL     1      11.061  48.899  -2.024  1.00  0.00     0.242 C 
ENDROOT
BRANCH   8   9
HETATM    9  C15 UNL     1      10.763  50.370  -2.367  1.00  0.00     0.181 C 
BRANCH   9  10
HETATM   10  N4  UNL     1      11.940  51.208  -2.301  1.00  0.00    -0.283 N 
HETATM   11  C16 UNL     1      12.008  52.568  -2.303  1.00  0.00     0.134 A 
HETATM   12  C17 UNL     1      13.354  52.832  -2.190  1.00  0.00     0.041 A 
HETATM   13  N5  UNL     1      14.038  51.647  -2.112  1.00  0.00    -0.287 N 
HETATM   14  N6  UNL     1      13.159  50.656  -2.173  1.00  0.00    -0.020 NA
ATOM     15  H5  UNL     1      15.049  51.544  -2.024  1.00  0.00     0.184 HD
BRANCH  12  16
HETATM   16  C18 UNL     1      14.068  54.135  -2.152  1.00  0.00     0.064 C 
BRANCH  16  17
HETATM   17  C19 UNL     1      13.291  55.236  -1.406  1.00  0.00    -0.009 C 
HETATM   18  C20 UNL     1      12.734  56.257  -2.413  1.00  0.00     0.005 C 
HETATM   19  C21 UNL     1      11.989  57.395  -1.718  1.00  0.00     0.000 C 
HETATM   20  C22 UNL     1      12.864  58.084  -0.677  1.00  0.00     0.000 C 
HETATM   21  C23 UNL     1      13.422  57.084   0.331  1.00  0.00     0.000 C 
HETATM   22  C24 UNL     1      14.167  55.943  -0.356  1.00  0.00     0.005 C 
ENDBRANCH  16  17
ENDBRANCH  12  16
ENDBRANCH   9  10
ENDBRANCH   8   9
BRANCH   1  23
HETATM   23  C1  UNL     1      10.810  44.636  -1.433  1.00  0.00     0.224 C 
HETATM   24  O1  UNL     1      10.877  44.028  -0.366  1.00  0.00    -0.273 OA
HETATM   25  N1  UNL     1      10.525  44.003  -2.619  1.00  0.00    -0.356 N 
HETATM   26  H1  UNL     1      10.657  44.496  -3.489  1.00  0.00     0.162 HD
BRANCH  25  27
HETATM   27  C2  UNL     1      10.430  42.561  -2.699  1.00  0.00     0.162 C 
BRANCH  27  28
HETATM   28  C3  UNL     1       9.099  42.144  -3.249  1.00  0.00    -0.025 A 
HETATM   29  C4  UNL     1       7.981  42.981  -3.187  1.00  0.00     0.011 A 
HETATM   30  C5  UNL     1       6.770  42.558  -3.730  1.00  0.00     0.018 A 
HETATM   31  C6  UNL     1       6.720  41.310  -4.326  1.00  0.00     0.087 A 
HETATM   32  N2  UNL     1       7.780  40.479  -4.417  1.00  0.00    -0.375 N 
HETATM   33  C7  UNL     1       8.942  40.913  -3.880  1.00  0.00     0.096 A 
ATOM     34  H2  UNL     1       7.706  39.567  -4.868  1.00  0.00     0.164 HD
ENDBRANCH  27  28
ENDBRANCH  25  27
ENDBRANCH   1  23
TORSDOF 7
ENDMDL
MODEL 9
REMARK minimizedAffinity -7.09644365
REMARK  7 active torsions:
REMARK  status: ('A' for Active; 'I' for Inactive)
REMARK       I    between atoms: C1_2  and  N1_3 
REMARK    1  A    between atoms: C1_2  and  C8_12 
REMARK    2  A    between atoms: N1_3  and  C2_4 
REMARK    3  A    between atoms: C2_4  and  C3_5 
REMARK    4  A    between atoms: C14_19  and  C15_20 
REMARK    5  A    between atoms: C15_20  and  N4_21 
REMARK    6  A    between atoms: C17_23  and  C18_24 
REMARK    7  A    between atoms: C18_24  and  C19_25 
ROOT
HETATM    1  C8  UNL     1      13.527  52.143  -2.233  1.00  0.00     0.110 C 
HETATM    2  C9  UNL     1      14.743  52.906  -2.789  1.00  0.00     0.287 C 
HETATM    3  N3  UNL     1      14.358  54.283  -3.210  1.00  0.00     0.095 N 
HETATM    4  C10 UNL     1      13.463  54.165  -4.382  1.00  0.00     0.273 C 
HETATM    5  C11 UNL     1      12.222  53.317  -4.070  1.00  0.00     0.036 C 
HETATM    6  C12 UNL     1      12.236  52.915  -2.586  1.00  0.00     0.004 C 
HETATM    7  C13 UNL     1      12.285  54.247  -1.804  1.00  0.00     0.043 C 
HETATM    8  C14 UNL     1      13.651  54.939  -2.060  1.00  0.00     0.242 C 
ENDROOT
BRANCH   8   9
HETATM    9  C15 UNL     1      13.484  56.463  -2.211  1.00  0.00     0.181 C 
BRANCH   9  10
HETATM   10  N4  UNL     1      13.364  57.140  -0.938  1.00  0.00    -0.283 N 
HETATM   11  C16 UNL     1      14.326  57.338   0.005  1.00  0.00     0.134 A 
HETATM   12  C17 UNL     1      13.683  58.060   0.986  1.00  0.00     0.041 A 
HETATM   13  N5  UNL     1      12.385  58.279   0.602  1.00  0.00    -0.287 N 
HETATM   14  N6  UNL     1      12.203  57.717  -0.585  1.00  0.00    -0.020 NA
ATOM     15  H5  UNL     1      11.681  58.787   1.138  1.00  0.00     0.184 HD
BRANCH  12  16
HETATM   16  C18 UNL     1      14.197  58.568   2.284  1.00  0.00     0.064 C 
BRANCH  16  17
HETATM   17  C19 UNL     1      13.916  57.619   3.465  1.00  0.00    -0.009 C 
HETATM   18  C20 UNL     1      14.935  57.870   4.591  1.00  0.00     0.005 C 
HETATM   19  C21 UNL     1      14.724  56.923   5.770  1.00  0.00     0.000 C 
HETATM   20  C22 UNL     1      14.753  55.464   5.330  1.00  0.00     0.000 C 
HETATM   21  C23 UNL     1      13.745  55.199   4.215  1.00  0.00     0.000 C 
HETATM   22  C24 UNL     1      13.948  56.143   3.032  1.00  0.00     0.005 C 
ENDBRANCH  16  17
ENDBRANCH  12  16
ENDBRANCH   9  10
ENDBRANCH   8   9
BRANCH   1  23
HETATM   23  C1  UNL     1      13.490  50.666  -2.607  1.00  0.00     0.224 C 
HETATM   24  O1  UNL     1      14.035  50.262  -3.633  1.00  0.00    -0.273 OA
HETATM   25  N1  UNL     1      12.863  49.817  -1.728  1.00  0.00    -0.356 N 
HETATM   26  H1  UNL     1      12.277  50.199  -1.001  1.00  0.00     0.162 HD
BRANCH  25  27
HETATM   27  C2  UNL     1      12.685  48.414  -2.034  1.00  0.00     0.162 C 
BRANCH  27  28
HETATM   28  C3  UNL     1      11.537  47.840  -1.257  1.00  0.00    -0.025 A 
HETATM   29  C4  UNL     1      10.384  48.583  -0.990  1.00  0.00     0.011 A 
HETATM   30  C5  UNL     1       9.336  48.001  -0.282  1.00  0.00     0.018 A 
HETATM   31  C6  UNL     1       9.473  46.687   0.130  1.00  0.00     0.087 A 
HETATM   32  N2  UNL     1      10.565  45.933  -0.119  1.00  0.00    -0.375 N 
HETATM   33  C7  UNL     1      11.569  46.523  -0.807  1.00  0.00     0.096 A 
ATOM     34  H2  UNL     1      10.630  44.965   0.197  1.00  0.00     0.164 HD
ENDBRANCH  27  28
ENDBRANCH  25  27
ENDBRANCH   1  23
TORSDOF 7
ENDMDL
