MODEL 1
REMARK minimizedAffinity -5.81304216
REMARK CNNscore 0.655754209
REMARK CNNaffinity 6.44872427
REMARK  12 active torsions:
REMARK  status: ('A' for Active; 'I' for Inactive)
REMARK    1  A    between atoms: C2_2  and  C3_3 
REMARK    2  A    between atoms: C2_2  and  C32_39 
REMARK    3  A    between atoms: C3_3  and  C4_5 
REMARK    4  A    between atoms: C4_5  and  O2_6 
REMARK    5  A    between atoms: C4_5  and  C7_10 
REMARK    6  A    between atoms: O2_6  and  C5_7 
REMARK    7  A    between atoms: C7_10  and  C9_12 
REMARK    8  A    between atoms: C10_13  and  O4_14 
REMARK    9  A    between atoms: O4_14  and  C11_15 
REMARK   10  A    between atoms: C24_30  and  O7_31 
REMARK   11  A    between atoms: C32_39  and  C34_41 
REMARK   12  A    between atoms: C34_41  and  O8_42 
ROOT
HETATM    1  C9  UNL     1     -16.333  -2.337  13.475  1.00  0.00     0.031 C 
HETATM    2  C10 UNL     1     -15.691  -2.378  12.052  1.00  0.00     0.138 C 
HETATM    3  C13 UNL     1     -16.633  -3.191  11.154  1.00  0.00     0.043 C 
HETATM    4  C14 UNL     1     -17.936  -3.416  11.950  1.00  0.00    -0.030 C 
HETATM    5  C15 UNL     1     -18.543  -4.756  11.475  1.00  0.00     0.016 C 
HETATM    6  C16 UNL     1     -18.900  -2.158  11.691  1.00  0.00     0.004 C 
HETATM    7  C17 UNL     1     -20.210  -2.515  10.867  1.00  0.00     0.007 C 
HETATM    8  C18 UNL     1     -21.409  -1.514  10.893  1.00  0.00     0.007 C 
HETATM    9  C19 UNL     1     -21.530  -0.663  12.193  1.00  0.00     0.008 C 
HETATM   10  C20 UNL     1     -22.517   0.514  12.117  1.00  0.00     0.056 C 
HETATM   11  C21 UNL     1     -23.904   0.095  11.637  1.00  0.00     0.018 C 
HETATM   12  C22 UNL     1     -21.951   1.656  11.283  1.00  0.00     0.133 C 
HETATM   13  O6  UNL     1     -22.620   2.270  10.451  1.00  0.00    -0.297 OA
HETATM   14  C23 UNL     1     -20.552   2.108  11.628  1.00  0.00     0.111 C 
HETATM   15  C24 UNL     1     -19.608   0.914  11.601  1.00  0.00     0.134 C 
HETATM   16  C25 UNL     1     -20.132  -0.210  12.527  1.00  0.00    -0.001 A 
HETATM   17  C26 UNL     1     -19.294  -0.240  13.756  1.00  0.00     0.024 A 
HETATM   18  C27 UNL     1     -19.388  -1.529  12.980  1.00  0.00    -0.025 A 
HETATM   19  C28 UNL     1     -19.839  -2.624  13.923  1.00  0.00     0.011 C 
HETATM   20  C29 UNL     1     -18.600  -3.356  14.449  1.00  0.00     0.011 C 
HETATM   21  C30 UNL     1     -17.407  -3.500  13.447  1.00  0.00    -0.030 C 
HETATM   22  C31 UNL     1     -16.697  -4.840  13.773  1.00  0.00     0.016 C 
ENDROOT
BRANCH   1  23
HETATM   23  C7  UNL     1     -15.284  -2.247  14.645  1.00  0.00     0.026 C 
HETATM   24  C8  UNL     1     -14.974  -3.631  15.237  1.00  0.00     0.013 C 
BRANCH  23  25
HETATM   25  C4  UNL     1     -15.770  -1.288  15.777  1.00  0.00     0.210 C 
BRANCH  25  26
HETATM   26  C3  UNL     1     -15.150   0.129  15.679  1.00  0.00     0.184 C 
HETATM   27  O1  UNL     1     -14.100   0.431  16.251  1.00  0.00    -0.290 OA
BRANCH  26  28
HETATM   28  C2  UNL     1     -15.843   1.164  14.840  1.00  0.00    -0.013 C 
HETATM   29  C1  UNL     1     -15.755   0.976  13.512  1.00  0.00     0.023 C 
BRANCH  28  30
HETATM   30  C32 UNL     1     -16.517   2.321  15.549  1.00  0.00     0.041 C 
HETATM   31  C33 UNL     1     -17.653   1.905  16.493  1.00  0.00     0.017 C 
BRANCH  30  32
HETATM   32  C34 UNL     1     -17.015   3.373  14.538  1.00  0.00     0.173 C 
BRANCH  32  33
HETATM   33  O8  UNL     1     -18.405   3.222  14.272  1.00  0.00    -0.400 OA
HETATM   34  H50 UNL     1     -18.503   2.450  13.683  1.00  0.00     0.209 HD
ENDBRANCH  32  33
ENDBRANCH  30  32
ENDBRANCH  28  30
ENDBRANCH  26  28
ENDBRANCH  25  26
BRANCH  25  35
HETATM   35  O2  UNL     1     -15.453  -1.874  17.052  1.00  0.00    -0.308 OA
BRANCH  35  36
HETATM   36  C5  UNL     1     -16.500  -1.918  17.925  1.00  0.00     0.255 C 
HETATM   37  C6  UNL     1     -17.761  -1.498  17.235  1.00  0.00     0.126 C 
HETATM   38  O3  UNL     1     -16.422  -2.227  19.106  1.00  0.00    -0.266 OA
ENDBRANCH  35  36
ENDBRANCH  25  35
ENDBRANCH  23  25
ENDBRANCH   1  23
BRANCH   2  39
HETATM   39  O4  UNL     1     -14.406  -3.030  12.059  1.00  0.00    -0.316 OA
BRANCH  39  40
HETATM   40  C11 UNL     1     -14.125  -3.743  10.927  1.00  0.00     0.255 C 
HETATM   41  C12 UNL     1     -13.772  -2.828   9.796  1.00  0.00     0.126 C 
HETATM   42  O5  UNL     1     -14.106  -4.963  10.846  1.00  0.00    -0.266 OA
ENDBRANCH  39  40
ENDBRANCH   2  39
BRANCH  15  43
HETATM   43  O7  UNL     1     -19.433   0.466  10.263  1.00  0.00    -0.394 OA
HETATM   44  H34 UNL     1     -19.078   1.204   9.737  1.00  0.00     0.210 HD
ENDBRANCH  15  43
TORSDOF 12
ENDMDL
MODEL 2
REMARK minimizedAffinity -7.34507179
REMARK CNNscore 0.533654153
REMARK CNNaffinity 6.96327972
REMARK  12 active torsions:
REMARK  status: ('A' for Active; 'I' for Inactive)
REMARK    1  A    between atoms: C2_2  and  C3_3 
REMARK    2  A    between atoms: C2_2  and  C32_39 
REMARK    3  A    between atoms: C3_3  and  C4_5 
REMARK    4  A    between atoms: C4_5  and  O2_6 
REMARK    5  A    between atoms: C4_5  and  C7_10 
REMARK    6  A    between atoms: O2_6  and  C5_7 
REMARK    7  A    between atoms: C7_10  and  C9_12 
REMARK    8  A    between atoms: C10_13  and  O4_14 
REMARK    9  A    between atoms: O4_14  and  C11_15 
REMARK   10  A    between atoms: C24_30  and  O7_31 
REMARK   11  A    between atoms: C32_39  and  C34_41 
REMARK   12  A    between atoms: C34_41  and  O8_42 
ROOT
HETATM    1  C9  UNL     1      -0.154   7.730  13.291  1.00  0.00     0.031 C 
HETATM    2  C10 UNL     1      -0.553   8.476  11.979  1.00  0.00     0.138 C 
HETATM    3  C13 UNL     1      -2.077   8.655  12.007  1.00  0.00     0.043 C 
HETATM    4  C14 UNL     1      -2.555   8.256  13.419  1.00  0.00    -0.030 C 
HETATM    5  C15 UNL     1      -3.992   7.704  13.284  1.00  0.00     0.016 C 
HETATM    6  C16 UNL     1      -2.462   9.554  14.361  1.00  0.00     0.004 C 
HETATM    7  C17 UNL     1      -3.876  10.100  14.838  1.00  0.00     0.007 C 
HETATM    8  C18 UNL     1      -3.930  11.076  16.057  1.00  0.00     0.007 C 
HETATM    9  C19 UNL     1      -2.787  10.894  17.100  1.00  0.00     0.008 C 
HETATM   10  C20 UNL     1      -2.662  12.019  18.140  1.00  0.00     0.056 C 
HETATM   11  C21 UNL     1      -3.978  12.315  18.855  1.00  0.00     0.018 C 
HETATM   12  C22 UNL     1      -2.058  13.275  17.525  1.00  0.00     0.133 C 
HETATM   13  O6  UNL     1      -2.498  14.404  17.747  1.00  0.00    -0.297 OA
HETATM   14  C23 UNL     1      -0.786  13.088  16.734  1.00  0.00     0.111 C 
HETATM   15  C24 UNL     1      -1.000  12.025  15.666  1.00  0.00     0.134 C 
HETATM   16  C25 UNL     1      -1.519  10.714  16.304  1.00  0.00    -0.001 A 
HETATM   17  C26 UNL     1      -0.409   9.725  16.324  1.00  0.00     0.024 A 
HETATM   18  C27 UNL     1      -1.676   9.294  15.628  1.00  0.00    -0.025 A 
HETATM   19  C28 UNL     1      -2.126   7.978  16.227  1.00  0.00     0.011 C 
HETATM   20  C29 UNL     1      -1.591   6.837  15.355  1.00  0.00     0.011 C 
HETATM   21  C30 UNL     1      -1.517   7.120  13.818  1.00  0.00    -0.030 C 
HETATM   22  C31 UNL     1      -1.772   5.773  13.093  1.00  0.00     0.016 C 
ENDROOT
BRANCH   1  23
HETATM   23  C7  UNL     1       1.123   6.821  13.143  1.00  0.00     0.026 C 
HETATM   24  C8  UNL     1       1.578   6.256  14.499  1.00  0.00     0.013 C 
BRANCH  23  25
HETATM   25  C4  UNL     1       2.302   7.594  12.473  1.00  0.00     0.210 C 
BRANCH  25  26
HETATM   26  C3  UNL     1       3.269   6.667  11.693  1.00  0.00     0.184 C 
HETATM   27  O1  UNL     1       4.487   6.669  11.888  1.00  0.00    -0.290 OA
BRANCH  26  28
HETATM   28  C2  UNL     1       2.700   5.717  10.679  1.00  0.00    -0.013 C 
HETATM   29  C1  UNL     1       1.602   5.048  11.075  1.00  0.00     0.023 C 
BRANCH  28  30
HETATM   30  C32 UNL     1       3.423   5.569   9.356  1.00  0.00     0.041 C 
HETATM   31  C33 UNL     1       2.631   6.078   8.144  1.00  0.00     0.017 C 
BRANCH  30  32
HETATM   32  C34 UNL     1       3.872   4.111   9.133  1.00  0.00     0.173 C 
BRANCH  32  33
HETATM   33  O8  UNL     1       3.552   3.663   7.820  1.00  0.00    -0.400 OA
HETATM   34  H50 UNL     1       2.593   3.486   7.802  1.00  0.00     0.209 HD
ENDBRANCH  32  33
ENDBRANCH  30  32
ENDBRANCH  28  30
ENDBRANCH  26  28
ENDBRANCH  25  26
BRANCH  25  35
HETATM   35  O2  UNL     1       3.025   8.312  13.488  1.00  0.00    -0.308 OA
BRANCH  35  36
HETATM   36  C5  UNL     1       3.200   9.638  13.218  1.00  0.00     0.255 C 
HETATM   37  C6  UNL     1       2.294  10.461  14.079  1.00  0.00     0.126 C 
HETATM   38  O3  UNL     1       3.963  10.091  12.377  1.00  0.00    -0.266 OA
ENDBRANCH  35  36
ENDBRANCH  25  35
ENDBRANCH  23  25
ENDBRANCH   1  23
BRANCH   2  39
HETATM   39  O4  UNL     1      -0.214   7.719  10.801  1.00  0.00    -0.316 OA
BRANCH  39  40
HETATM   40  C11 UNL     1       0.318   8.459   9.783  1.00  0.00     0.255 C 
HETATM   41  C12 UNL     1      -0.726   8.772   8.754  1.00  0.00     0.126 C 
HETATM   42  O5  UNL     1       1.469   8.866   9.729  1.00  0.00    -0.266 OA
ENDBRANCH  39  40
ENDBRANCH   2  39
BRANCH  15  43
HETATM   43  O7  UNL     1      -1.880  12.517  14.663  1.00  0.00    -0.394 OA
HETATM   44  H34 UNL     1      -1.488  13.322  14.282  1.00  0.00     0.210 HD
ENDBRANCH  15  43
TORSDOF 12
ENDMDL
MODEL 3
REMARK minimizedAffinity -6.13428402
REMARK CNNscore 0.527480781
REMARK CNNaffinity 6.63922644
REMARK  12 active torsions:
REMARK  status: ('A' for Active; 'I' for Inactive)
REMARK    1  A    between atoms: C2_2  and  C3_3 
REMARK    2  A    between atoms: C2_2  and  C32_39 
REMARK    3  A    between atoms: C3_3  and  C4_5 
REMARK    4  A    between atoms: C4_5  and  O2_6 
REMARK    5  A    between atoms: C4_5  and  C7_10 
REMARK    6  A    between atoms: O2_6  and  C5_7 
REMARK    7  A    between atoms: C7_10  and  C9_12 
REMARK    8  A    between atoms: C10_13  and  O4_14 
REMARK    9  A    between atoms: O4_14  and  C11_15 
REMARK   10  A    between atoms: C24_30  and  O7_31 
REMARK   11  A    between atoms: C32_39  and  C34_41 
REMARK   12  A    between atoms: C34_41  and  O8_42 
ROOT
HETATM    1  C9  UNL     1       2.636  11.407  18.493  1.00  0.00     0.031 C 
HETATM    2  C10 UNL     1       2.157  10.522  19.687  1.00  0.00     0.138 C 
HETATM    3  C13 UNL     1       0.632  10.668  19.775  1.00  0.00     0.043 C 
HETATM    4  C14 UNL     1       0.175  11.419  18.506  1.00  0.00    -0.030 C 
HETATM    5  C15 UNL     1      -1.097  12.218  18.874  1.00  0.00     0.016 C 
HETATM    6  C16 UNL     1      -0.073  10.334  17.348  1.00  0.00     0.004 C 
HETATM    7  C17 UNL     1      -1.596  10.191  16.921  1.00  0.00     0.007 C 
HETATM    8  C18 UNL     1      -1.932   9.498  15.561  1.00  0.00     0.007 C 
HETATM    9  C19 UNL     1      -0.837   9.638  14.461  1.00  0.00     0.008 C 
HETATM   10  C20 UNL     1      -1.021   8.731  13.233  1.00  0.00     0.056 C 
HETATM   11  C21 UNL     1      -2.409   8.853  12.607  1.00  0.00     0.018 C 
HETATM   12  C22 UNL     1      -0.674   7.284  13.559  1.00  0.00     0.133 C 
HETATM   13  O6  UNL     1      -1.362   6.333  13.187  1.00  0.00    -0.297 OA
HETATM   14  C23 UNL     1       0.651   7.052  14.244  1.00  0.00     0.111 C 
HETATM   15  C24 UNL     1       0.736   7.912  15.497  1.00  0.00     0.134 C 
HETATM   16  C25 UNL     1       0.482   9.399  15.151  1.00  0.00    -0.001 A 
HETATM   17  C26 UNL     1       1.779  10.125  15.197  1.00  0.00     0.024 A 
HETATM   18  C27 UNL     1       0.678  10.665  16.076  1.00  0.00    -0.025 A 
HETATM   19  C28 UNL     1       0.494  12.134  15.762  1.00  0.00     0.011 C 
HETATM   20  C29 UNL     1       1.315  12.954  16.764  1.00  0.00     0.011 C 
HETATM   21  C30 UNL     1       1.412  12.373  18.213  1.00  0.00    -0.030 C 
HETATM   22  C31 UNL     1       1.500  13.580  19.184  1.00  0.00     0.016 C 
ENDROOT
BRANCH   1  23
HETATM   23  C7  UNL     1       4.087  11.991  18.674  1.00  0.00     0.026 C 
HETATM   24  C8  UNL     1       5.130  11.166  17.902  1.00  0.00     0.013 C 
BRANCH  23  25
HETATM   25  C4  UNL     1       4.489  12.071  20.180  1.00  0.00     0.210 C 
BRANCH  25  26
HETATM   26  C3  UNL     1       4.769  13.518  20.656  1.00  0.00     0.184 C 
HETATM   27  O1  UNL     1       5.332  14.351  19.942  1.00  0.00    -0.290 OA
BRANCH  26  28
HETATM   28  C2  UNL     1       4.320  13.927  22.030  1.00  0.00    -0.013 C 
HETATM   29  C1  UNL     1       2.991  14.057  22.182  1.00  0.00     0.023 C 
BRANCH  28  30
HETATM   30  C32 UNL     1       5.383  14.195  23.077  1.00  0.00     0.041 C 
HETATM   31  C33 UNL     1       5.546  15.676  23.444  1.00  0.00     0.017 C 
BRANCH  30  32
HETATM   32  C34 UNL     1       6.737  13.592  22.655  1.00  0.00     0.173 C 
BRANCH  32  33
HETATM   33  O8  UNL     1       7.647  14.602  22.231  1.00  0.00    -0.400 OA
HETATM   34  H50 UNL     1       7.370  14.883  21.339  1.00  0.00     0.209 HD
ENDBRANCH  32  33
ENDBRANCH  30  32
ENDBRANCH  28  30
ENDBRANCH  26  28
ENDBRANCH  25  26
BRANCH  25  35
HETATM   35  O2  UNL     1       5.651  11.250  20.396  1.00  0.00    -0.308 OA
BRANCH  35  36
HETATM   36  C5  UNL     1       6.612  11.378  19.437  1.00  0.00     0.255 C 
HETATM   37  C6  UNL     1       7.298  12.702  19.570  1.00  0.00     0.126 C 
HETATM   38  O3  UNL     1       6.863  10.547  18.574  1.00  0.00    -0.266 OA
ENDBRANCH  35  36
ENDBRANCH  25  35
ENDBRANCH  23  25
ENDBRANCH   1  23
BRANCH   2  39
HETATM   39  O4  UNL     1       2.721  10.955  20.940  1.00  0.00    -0.316 OA
BRANCH  39  40
HETATM   40  C11 UNL     1       2.715  10.006  21.923  1.00  0.00     0.255 C 
HETATM   41  C12 UNL     1       3.166  10.590  23.227  1.00  0.00     0.126 C 
HETATM   42  O5  UNL     1       2.344   8.849  21.789  1.00  0.00    -0.266 OA
ENDBRANCH  39  40
ENDBRANCH   2  39
BRANCH  15  43
HETATM   43  O7  UNL     1      -0.172   7.428  16.478  1.00  0.00    -0.394 OA
HETATM   44  H34 UNL     1       0.054   6.502  16.674  1.00  0.00     0.210 HD
ENDBRANCH  15  43
TORSDOF 12
ENDMDL
MODEL 4
REMARK minimizedAffinity -7.04137516
REMARK CNNscore 0.492012411
REMARK CNNaffinity 6.72179461
REMARK  12 active torsions:
REMARK  status: ('A' for Active; 'I' for Inactive)
REMARK    1  A    between atoms: C2_2  and  C3_3 
REMARK    2  A    between atoms: C2_2  and  C32_39 
REMARK    3  A    between atoms: C3_3  and  C4_5 
REMARK    4  A    between atoms: C4_5  and  O2_6 
REMARK    5  A    between atoms: C4_5  and  C7_10 
REMARK    6  A    between atoms: O2_6  and  C5_7 
REMARK    7  A    between atoms: C7_10  and  C9_12 
REMARK    8  A    between atoms: C10_13  and  O4_14 
REMARK    9  A    between atoms: O4_14  and  C11_15 
REMARK   10  A    between atoms: C24_30  and  O7_31 
REMARK   11  A    between atoms: C32_39  and  C34_41 
REMARK   12  A    between atoms: C34_41  and  O8_42 
ROOT
HETATM    1  C9  UNL     1     -14.403   4.137  25.565  1.00  0.00     0.031 C 
HETATM    2  C10 UNL     1     -13.207   3.328  24.970  1.00  0.00     0.138 C 
HETATM    3  C13 UNL     1     -13.252   3.510  23.447  1.00  0.00     0.043 C 
HETATM    4  C14 UNL     1     -14.294   4.610  23.152  1.00  0.00    -0.030 C 
HETATM    5  C15 UNL     1     -14.903   4.311  21.763  1.00  0.00     0.016 C 
HETATM    6  C16 UNL     1     -13.550   6.032  23.224  1.00  0.00     0.004 C 
HETATM    7  C17 UNL     1     -13.455   6.776  21.823  1.00  0.00     0.007 C 
HETATM    8  C18 UNL     1     -13.138   8.305  21.806  1.00  0.00     0.007 C 
HETATM    9  C19 UNL     1     -13.621   9.093  23.061  1.00  0.00     0.008 C 
HETATM   10  C20 UNL     1     -13.070  10.523  23.190  1.00  0.00     0.056 C 
HETATM   11  C21 UNL     1     -13.290  11.360  21.931  1.00  0.00     0.018 C 
HETATM   12  C22 UNL     1     -11.607  10.514  23.614  1.00  0.00     0.133 C 
HETATM   13  O6  UNL     1     -10.759  11.246  23.101  1.00  0.00    -0.297 OA
HETATM   14  C23 UNL     1     -11.262   9.662  24.811  1.00  0.00     0.111 C 
HETATM   15  C24 UNL     1     -11.756   8.240  24.586  1.00  0.00     0.134 C 
HETATM   16  C25 UNL     1     -13.268   8.240  24.252  1.00  0.00    -0.001 A 
HETATM   17  C26 UNL     1     -14.015   7.753  25.442  1.00  0.00     0.024 A 
HETATM   18  C27 UNL     1     -14.246   7.002  24.154  1.00  0.00    -0.025 A 
HETATM   19  C28 UNL     1     -15.735   6.961  23.885  1.00  0.00     0.011 C 
HETATM   20  C29 UNL     1     -16.293   5.641  24.429  1.00  0.00     0.011 C 
HETATM   21  C30 UNL     1     -15.349   4.398  24.322  1.00  0.00    -0.030 C 
HETATM   22  C31 UNL     1     -16.253   3.155  24.116  1.00  0.00     0.016 C 
ENDROOT
BRANCH   1  23
HETATM   23  C7  UNL     1     -14.984   3.529  26.896  1.00  0.00     0.026 C 
HETATM   24  C8  UNL     1     -16.456   3.920  27.103  1.00  0.00     0.013 C 
BRANCH  23  25
HETATM   25  C4  UNL     1     -14.144   3.962  28.139  1.00  0.00     0.210 C 
BRANCH  25  26
HETATM   26  C3  UNL     1     -14.504   3.168  29.420  1.00  0.00     0.184 C 
HETATM   27  O1  UNL     1     -15.584   2.590  29.557  1.00  0.00    -0.290 OA
BRANCH  26  28
HETATM   28  C2  UNL     1     -13.491   3.084  30.526  1.00  0.00    -0.013 C 
HETATM   29  C1  UNL     1     -12.266   2.678  30.149  1.00  0.00     0.023 C 
BRANCH  28  30
HETATM   30  C32 UNL     1     -13.945   3.410  31.934  1.00  0.00     0.041 C 
HETATM   31  C33 UNL     1     -15.055   2.493  32.466  1.00  0.00     0.017 C 
BRANCH  30  32
HETATM   32  C34 UNL     1     -14.365   4.888  32.051  1.00  0.00     0.173 C 
BRANCH  32  33
HETATM   33  O8  UNL     1     -13.248   5.759  31.913  1.00  0.00    -0.400 OA
HETATM   34  H50 UNL     1     -12.747   5.721  32.750  1.00  0.00     0.209 HD
ENDBRANCH  32  33
ENDBRANCH  30  32
ENDBRANCH  28  30
ENDBRANCH  26  28
ENDBRANCH  25  26
BRANCH  25  35
HETATM   35  O2  UNL     1     -14.339   5.370  28.364  1.00  0.00    -0.308 OA
BRANCH  35  36
HETATM   36  C5  UNL     1     -15.586   5.699  28.808  1.00  0.00     0.255 C 
HETATM   37  C6  UNL     1     -16.133   6.838  28.005  1.00  0.00     0.126 C 
HETATM   38  O3  UNL     1     -16.165   5.164  29.743  1.00  0.00    -0.266 OA
ENDBRANCH  35  36
ENDBRANCH  25  35
ENDBRANCH  23  25
ENDBRANCH   1  23
BRANCH   2  39
HETATM   39  O4  UNL     1     -13.313   1.919  25.255  1.00  0.00    -0.316 OA
BRANCH  39  40
HETATM   40  C11 UNL     1     -12.197   1.368  25.818  1.00  0.00     0.255 C 
HETATM   41  C12 UNL     1     -11.308   0.778  24.766  1.00  0.00     0.126 C 
HETATM   42  O5  UNL     1     -11.917   1.392  27.008  1.00  0.00    -0.266 OA
ENDBRANCH  39  40
ENDBRANCH   2  39
BRANCH  15  43
HETATM   43  O7  UNL     1     -10.984   7.615  23.568  1.00  0.00    -0.394 OA
HETATM   44  H34 UNL     1     -10.051   7.621  23.846  1.00  0.00     0.210 HD
ENDBRANCH  15  43
TORSDOF 12
ENDMDL
MODEL 5
REMARK minimizedAffinity -6.5197978
REMARK CNNscore 0.481385529
REMARK CNNaffinity 6.91248894
REMARK  12 active torsions:
REMARK  status: ('A' for Active; 'I' for Inactive)
REMARK    1  A    between atoms: C2_2  and  C3_3 
REMARK    2  A    between atoms: C2_2  and  C32_39 
REMARK    3  A    between atoms: C3_3  and  C4_5 
REMARK    4  A    between atoms: C4_5  and  O2_6 
REMARK    5  A    between atoms: C4_5  and  C7_10 
REMARK    6  A    between atoms: O2_6  and  C5_7 
REMARK    7  A    between atoms: C7_10  and  C9_12 
REMARK    8  A    between atoms: C10_13  and  O4_14 
REMARK    9  A    between atoms: O4_14  and  C11_15 
REMARK   10  A    between atoms: C24_30  and  O7_31 
REMARK   11  A    between atoms: C32_39  and  C34_41 
REMARK   12  A    between atoms: C34_41  and  O8_42 
ROOT
HETATM    1  C9  UNL     1     -14.574   4.274  25.613  1.00  0.00     0.031 C 
HETATM    2  C10 UNL     1     -13.356   3.426  25.126  1.00  0.00     0.138 C 
HETATM    3  C13 UNL     1     -13.306   3.544  23.597  1.00  0.00     0.043 C 
HETATM    4  C14 UNL     1     -14.312   4.643  23.194  1.00  0.00    -0.030 C 
HETATM    5  C15 UNL     1     -14.840   4.293  21.784  1.00  0.00     0.016 C 
HETATM    6  C16 UNL     1     -13.552   6.057  23.251  1.00  0.00     0.004 C 
HETATM    7  C17 UNL     1     -13.361   6.739  21.829  1.00  0.00     0.007 C 
HETATM    8  C18 UNL     1     -13.022   8.263  21.767  1.00  0.00     0.007 C 
HETATM    9  C19 UNL     1     -13.568   9.110  22.956  1.00  0.00     0.008 C 
HETATM   10  C20 UNL     1     -13.005  10.536  23.059  1.00  0.00     0.056 C 
HETATM   11  C21 UNL     1     -13.136  11.322  21.756  1.00  0.00     0.018 C 
HETATM   12  C22 UNL     1     -11.570  10.528  23.572  1.00  0.00     0.133 C 
HETATM   13  O6  UNL     1     -10.683  11.227  23.081  1.00  0.00    -0.297 OA
HETATM   14  C23 UNL     1     -11.311   9.723  24.822  1.00  0.00     0.111 C 
HETATM   15  C24 UNL     1     -11.812   8.300  24.627  1.00  0.00     0.134 C 
HETATM   16  C25 UNL     1     -13.300   8.303  24.202  1.00  0.00    -0.001 A 
HETATM   17  C26 UNL     1     -14.126   7.877  25.363  1.00  0.00     0.024 A 
HETATM   18  C27 UNL     1     -14.289   7.075  24.096  1.00  0.00    -0.025 A 
HETATM   19  C28 UNL     1     -15.760   7.041  23.738  1.00  0.00     0.011 C 
HETATM   20  C29 UNL     1     -16.369   5.752  24.302  1.00  0.00     0.011 C 
HETATM   21  C30 UNL     1     -15.439   4.494  24.304  1.00  0.00    -0.030 C 
HETATM   22  C31 UNL     1     -16.347   3.254  24.095  1.00  0.00     0.016 C 
ENDROOT
BRANCH   1  23
HETATM   23  C7  UNL     1     -15.243   3.731  26.930  1.00  0.00     0.026 C 
HETATM   24  C8  UNL     1     -16.408   4.625  27.386  1.00  0.00     0.013 C 
BRANCH  23  25
HETATM   25  C4  UNL     1     -14.204   3.591  28.086  1.00  0.00     0.210 C 
BRANCH  25  26
HETATM   26  C3  UNL     1     -14.552   2.456  29.082  1.00  0.00     0.184 C 
HETATM   27  O1  UNL     1     -13.820   2.161  30.029  1.00  0.00    -0.290 OA
BRANCH  26  28
HETATM   28  C2  UNL     1     -15.838   1.702  28.897  1.00  0.00    -0.013 C 
HETATM   29  C1  UNL     1     -16.887   2.183  29.588  1.00  0.00     0.023 C 
BRANCH  28  30
HETATM   30  C32 UNL     1     -15.823   0.474  28.010  1.00  0.00     0.041 C 
HETATM   31  C33 UNL     1     -16.414   0.699  26.612  1.00  0.00     0.017 C 
BRANCH  30  32
HETATM   32  C34 UNL     1     -16.516  -0.716  28.703  1.00  0.00     0.173 C 
BRANCH  32  33
HETATM   33  O8  UNL     1     -15.570  -1.671  29.170  1.00  0.00    -0.400 OA
HETATM   34  H50 UNL     1     -15.254  -2.167  28.392  1.00  0.00     0.209 HD
ENDBRANCH  32  33
ENDBRANCH  30  32
ENDBRANCH  28  30
ENDBRANCH  26  28
ENDBRANCH  25  26
BRANCH  25  35
HETATM   35  O2  UNL     1     -14.114   4.845  28.785  1.00  0.00    -0.308 OA
BRANCH  35  36
HETATM   36  C5  UNL     1     -14.559   4.801  30.074  1.00  0.00     0.255 C 
HETATM   37  C6  UNL     1     -13.397   4.786  31.018  1.00  0.00     0.126 C 
HETATM   38  O3  UNL     1     -15.733   4.750  30.414  1.00  0.00    -0.266 OA
ENDBRANCH  35  36
ENDBRANCH  25  35
ENDBRANCH  23  25
ENDBRANCH   1  23
BRANCH   2  39
HETATM   39  O4  UNL     1     -13.500   2.032  25.462  1.00  0.00    -0.316 OA
BRANCH  39  40
HETATM   40  C11 UNL     1     -12.353   1.432  25.900  1.00  0.00     0.255 C 
HETATM   41  C12 UNL     1     -11.554   0.909  24.745  1.00  0.00     0.126 C 
HETATM   42  O5  UNL     1     -11.985   1.370  27.064  1.00  0.00    -0.266 OA
ENDBRANCH  39  40
ENDBRANCH   2  39
BRANCH  15  43
HETATM   43  O7  UNL     1     -10.989   7.622  23.685  1.00  0.00    -0.394 OA
HETATM   44  H34 UNL     1     -10.074   7.628  24.019  1.00  0.00     0.210 HD
ENDBRANCH  15  43
TORSDOF 12
ENDMDL
MODEL 6
REMARK minimizedAffinity -6.69590616
REMARK CNNscore 0.366030544
REMARK CNNaffinity 6.61080122
REMARK  12 active torsions:
REMARK  status: ('A' for Active; 'I' for Inactive)
REMARK    1  A    between atoms: C2_2  and  C3_3 
REMARK    2  A    between atoms: C2_2  and  C32_39 
REMARK    3  A    between atoms: C3_3  and  C4_5 
REMARK    4  A    between atoms: C4_5  and  O2_6 
REMARK    5  A    between atoms: C4_5  and  C7_10 
REMARK    6  A    between atoms: O2_6  and  C5_7 
REMARK    7  A    between atoms: C7_10  and  C9_12 
REMARK    8  A    between atoms: C10_13  and  O4_14 
REMARK    9  A    between atoms: O4_14  and  C11_15 
REMARK   10  A    between atoms: C24_30  and  O7_31 
REMARK   11  A    between atoms: C32_39  and  C34_41 
REMARK   12  A    between atoms: C34_41  and  O8_42 
ROOT
HETATM    1  C9  UNL     1     -14.335   4.095  25.622  1.00  0.00     0.031 C 
HETATM    2  C10 UNL     1     -13.159   3.291  24.983  1.00  0.00     0.138 C 
HETATM    3  C13 UNL     1     -13.246   3.494  23.464  1.00  0.00     0.043 C 
HETATM    4  C14 UNL     1     -14.293   4.600  23.214  1.00  0.00    -0.030 C 
HETATM    5  C15 UNL     1     -14.943   4.321  21.839  1.00  0.00     0.016 C 
HETATM    6  C16 UNL     1     -13.544   6.019  23.283  1.00  0.00     0.004 C 
HETATM    7  C17 UNL     1     -13.487   6.781  21.890  1.00  0.00     0.007 C 
HETATM    8  C18 UNL     1     -13.166   8.310  21.884  1.00  0.00     0.007 C 
HETATM    9  C19 UNL     1     -13.611   9.082  23.163  1.00  0.00     0.008 C 
HETATM   10  C20 UNL     1     -13.053  10.509  23.295  1.00  0.00     0.056 C 
HETATM   11  C21 UNL     1     -13.306  11.363  22.054  1.00  0.00     0.018 C 
HETATM   12  C22 UNL     1     -11.579  10.491  23.677  1.00  0.00     0.133 C 
HETATM   13  O6  UNL     1     -10.744  11.227  23.149  1.00  0.00    -0.297 OA
HETATM   14  C23 UNL     1     -11.202   9.622  24.852  1.00  0.00     0.111 C 
HETATM   15  C24 UNL     1     -11.706   8.205  24.622  1.00  0.00     0.134 C 
HETATM   16  C25 UNL     1     -13.226   8.212  24.332  1.00  0.00    -0.001 A 
HETATM   17  C26 UNL     1     -13.941   7.711  25.537  1.00  0.00     0.024 A 
HETATM   18  C27 UNL     1     -14.211   6.978  24.246  1.00  0.00    -0.025 A 
HETATM   19  C28 UNL     1     -15.707   6.944  24.019  1.00  0.00     0.011 C 
HETATM   20  C29 UNL     1     -16.253   5.619  24.561  1.00  0.00     0.011 C 
HETATM   21  C30 UNL     1     -15.315   4.375  24.410  1.00  0.00    -0.030 C 
HETATM   22  C31 UNL     1     -16.229   3.136  24.213  1.00  0.00     0.016 C 
ENDROOT
BRANCH   1  23
HETATM   23  C7  UNL     1     -14.880   3.470  26.961  1.00  0.00     0.026 C 
HETATM   24  C8  UNL     1     -15.843   2.303  26.693  1.00  0.00     0.013 C 
BRANCH  23  25
HETATM   25  C4  UNL     1     -15.587   4.543  27.847  1.00  0.00     0.210 C 
BRANCH  25  26
HETATM   26  C3  UNL     1     -14.950   4.685  29.253  1.00  0.00     0.184 C 
HETATM   27  O1  UNL     1     -15.398   5.454  30.106  1.00  0.00    -0.290 OA
BRANCH  26  28
HETATM   28  C2  UNL     1     -13.756   3.841  29.593  1.00  0.00    -0.013 C 
HETATM   29  C1  UNL     1     -12.597   4.239  29.040  1.00  0.00     0.023 C 
BRANCH  28  30
HETATM   30  C32 UNL     1     -13.971   2.621  30.467  1.00  0.00     0.041 C 
HETATM   31  C33 UNL     1     -15.389   2.040  30.398  1.00  0.00     0.017 C 
BRANCH  30  32
HETATM   32  C34 UNL     1     -13.579   2.913  31.928  1.00  0.00     0.173 C 
BRANCH  32  33
HETATM   33  O8  UNL     1     -12.281   2.413  32.230  1.00  0.00    -0.400 OA
HETATM   34  H50 UNL     1     -12.361   1.445  32.329  1.00  0.00     0.209 HD
ENDBRANCH  32  33
ENDBRANCH  30  32
ENDBRANCH  28  30
ENDBRANCH  26  28
ENDBRANCH  25  26
BRANCH  25  35
HETATM   35  O2  UNL     1     -16.979   4.199  27.973  1.00  0.00    -0.308 OA
BRANCH  35  36
HETATM   36  C5  UNL     1     -17.837   5.190  27.596  1.00  0.00     0.255 C 
HETATM   37  C6  UNL     1     -19.021   4.604  26.893  1.00  0.00     0.126 C 
HETATM   38  O3  UNL     1     -17.656   6.386  27.777  1.00  0.00    -0.266 OA
ENDBRANCH  35  36
ENDBRANCH  25  35
ENDBRANCH  23  25
ENDBRANCH   1  23
BRANCH   2  39
HETATM   39  O4  UNL     1     -13.261   1.879  25.252  1.00  0.00    -0.316 OA
BRANCH  39  40
HETATM   40  C11 UNL     1     -12.162   1.335  25.856  1.00  0.00     0.255 C 
HETATM   41  C12 UNL     1     -11.217   0.778  24.837  1.00  0.00     0.126 C 
HETATM   42  O5  UNL     1     -11.938   1.343  27.058  1.00  0.00    -0.266 OA
ENDBRANCH  39  40
ENDBRANCH   2  39
BRANCH  15  43
HETATM   43  O7  UNL     1     -10.965   7.592  23.575  1.00  0.00    -0.394 OA
HETATM   44  H34 UNL     1     -10.024   7.591  23.826  1.00  0.00     0.210 HD
ENDBRANCH  15  43
TORSDOF 12
ENDMDL
MODEL 7
REMARK minimizedAffinity -6.79559898
REMARK CNNscore 0.364929795
REMARK CNNaffinity 6.51865149
REMARK  12 active torsions:
REMARK  status: ('A' for Active; 'I' for Inactive)
REMARK    1  A    between atoms: C2_2  and  C3_3 
REMARK    2  A    between atoms: C2_2  and  C32_39 
REMARK    3  A    between atoms: C3_3  and  C4_5 
REMARK    4  A    between atoms: C4_5  and  O2_6 
REMARK    5  A    between atoms: C4_5  and  C7_10 
REMARK    6  A    between atoms: O2_6  and  C5_7 
REMARK    7  A    between atoms: C7_10  and  C9_12 
REMARK    8  A    between atoms: C10_13  and  O4_14 
REMARK    9  A    between atoms: O4_14  and  C11_15 
REMARK   10  A    between atoms: C24_30  and  O7_31 
REMARK   11  A    between atoms: C32_39  and  C34_41 
REMARK   12  A    between atoms: C34_41  and  O8_42 
ROOT
HETATM    1  C9  UNL     1       0.999  11.342  17.082  1.00  0.00     0.031 C 
HETATM    2  C10 UNL     1       0.741  10.858  18.543  1.00  0.00     0.138 C 
HETATM    3  C13 UNL     1      -0.710  11.221  18.889  1.00  0.00     0.043 C 
HETATM    4  C14 UNL     1      -1.387  11.681  17.581  1.00  0.00    -0.030 C 
HETATM    5  C15 UNL     1      -2.480  12.706  17.960  1.00  0.00     0.016 C 
HETATM    6  C16 UNL     1      -1.970  10.380  16.839  1.00  0.00     0.004 C 
HETATM    7  C17 UNL     1      -3.557  10.335  16.780  1.00  0.00     0.007 C 
HETATM    8  C18 UNL     1      -4.242   9.372  15.758  1.00  0.00     0.007 C 
HETATM    9  C19 UNL     1      -3.419   9.085  14.467  1.00  0.00     0.008 C 
HETATM   10  C20 UNL     1      -3.943   7.930  13.598  1.00  0.00     0.056 C 
HETATM   11  C21 UNL     1      -5.423   8.071  13.252  1.00  0.00     0.018 C 
HETATM   12  C22 UNL     1      -3.637   6.579  14.234  1.00  0.00     0.133 C 
HETATM   13  O6  UNL     1      -4.460   5.664  14.282  1.00  0.00    -0.297 OA
HETATM   14  C23 UNL     1      -2.212   6.355  14.678  1.00  0.00     0.111 C 
HETATM   15  C24 UNL     1      -1.782   7.485  15.603  1.00  0.00     0.134 C 
HETATM   16  C25 UNL     1      -1.999   8.856  14.919  1.00  0.00    -0.001 A 
HETATM   17  C26 UNL     1      -0.675   9.394  14.505  1.00  0.00     0.024 A 
HETATM   18  C27 UNL     1      -1.505  10.278  15.402  1.00  0.00    -0.025 A 
HETATM   19  C28 UNL     1      -1.648  11.632  14.740  1.00  0.00     0.011 C 
HETATM   20  C29 UNL     1      -0.563  12.562  15.293  1.00  0.00     0.011 C 
HETATM   21  C30 UNL     1      -0.182  12.358  16.797  1.00  0.00    -0.030 C 
HETATM   22  C31 UNL     1       0.212  13.749  17.360  1.00  0.00     0.016 C 
ENDROOT
BRANCH   1  23
HETATM   23  C7  UNL     1       2.492  11.756  16.802  1.00  0.00     0.026 C 
HETATM   24  C8  UNL     1       2.640  13.279  16.645  1.00  0.00     0.013 C 
BRANCH  23  25
HETATM   25  C4  UNL     1       3.058  11.039  15.536  1.00  0.00     0.210 C 
BRANCH  25  26
HETATM   26  C3  UNL     1       3.310   9.526  15.758  1.00  0.00     0.184 C 
HETATM   27  O1  UNL     1       3.001   8.952  16.805  1.00  0.00    -0.290 OA
BRANCH  26  28
HETATM   28  C2  UNL     1       3.932   8.727  14.650  1.00  0.00    -0.013 C 
HETATM   29  C1  UNL     1       5.265   8.568  14.738  1.00  0.00     0.023 C 
BRANCH  28  30
HETATM   30  C32 UNL     1       3.032   8.228  13.538  1.00  0.00     0.041 C 
HETATM   31  C33 UNL     1       2.366   9.342  12.719  1.00  0.00     0.017 C 
BRANCH  30  32
HETATM   32  C34 UNL     1       1.970   7.253  14.084  1.00  0.00     0.173 C 
BRANCH  32  33
HETATM   33  O8  UNL     1       2.497   6.440  15.127  1.00  0.00    -0.400 OA
HETATM   34  H50 UNL     1       3.061   5.764  14.708  1.00  0.00     0.209 HD
ENDBRANCH  32  33
ENDBRANCH  30  32
ENDBRANCH  28  30
ENDBRANCH  26  28
ENDBRANCH  25  26
BRANCH  25  35
HETATM   35  O2  UNL     1       4.282  11.687  15.142  1.00  0.00    -0.308 OA
BRANCH  35  36
HETATM   36  C5  UNL     1       4.349  11.997  13.816  1.00  0.00     0.255 C 
HETATM   37  C6  UNL     1       3.295  13.003  13.470  1.00  0.00     0.126 C 
HETATM   38  O3  UNL     1       5.133  11.507  13.016  1.00  0.00    -0.266 OA
ENDBRANCH  35  36
ENDBRANCH  25  35
ENDBRANCH  23  25
ENDBRANCH   1  23
BRANCH   2  39
HETATM   39  O4  UNL     1       1.604  11.516  19.491  1.00  0.00    -0.316 OA
BRANCH  39  40
HETATM   40  C11 UNL     1       2.292  10.669  20.314  1.00  0.00     0.255 C 
HETATM   41  C12 UNL     1       2.500  11.292  21.661  1.00  0.00     0.126 C 
HETATM   42  O5  UNL     1       2.648   9.535  20.028  1.00  0.00    -0.266 OA
ENDBRANCH  39  40
ENDBRANCH   2  39
BRANCH  15  43
HETATM   43  O7  UNL     1      -2.477   7.388  16.840  1.00  0.00    -0.394 OA
HETATM   44  H34 UNL     1      -2.280   6.520  17.234  1.00  0.00     0.210 HD
ENDBRANCH  15  43
TORSDOF 12
ENDMDL
MODEL 8
REMARK minimizedAffinity -5.50114775
REMARK CNNscore 0.355910867
REMARK CNNaffinity 6.14338636
REMARK  12 active torsions:
REMARK  status: ('A' for Active; 'I' for Inactive)
REMARK    1  A    between atoms: C2_2  and  C3_3 
REMARK    2  A    between atoms: C2_2  and  C32_39 
REMARK    3  A    between atoms: C3_3  and  C4_5 
REMARK    4  A    between atoms: C4_5  and  O2_6 
REMARK    5  A    between atoms: C4_5  and  C7_10 
REMARK    6  A    between atoms: O2_6  and  C5_7 
REMARK    7  A    between atoms: C7_10  and  C9_12 
REMARK    8  A    between atoms: C10_13  and  O4_14 
REMARK    9  A    between atoms: O4_14  and  C11_15 
REMARK   10  A    between atoms: C24_30  and  O7_31 
REMARK   11  A    between atoms: C32_39  and  C34_41 
REMARK   12  A    between atoms: C34_41  and  O8_42 
ROOT
HETATM    1  C9  UNL     1     -14.472   6.055  23.306  1.00  0.00     0.031 C 
HETATM    2  C10 UNL     1     -13.645   7.287  23.791  1.00  0.00     0.138 C 
HETATM    3  C13 UNL     1     -14.014   8.466  22.879  1.00  0.00     0.043 C 
HETATM    4  C14 UNL     1     -15.224   8.021  22.031  1.00  0.00    -0.030 C 
HETATM    5  C15 UNL     1     -15.148   8.775  20.684  1.00  0.00     0.016 C 
HETATM    6  C16 UNL     1     -16.560   8.344  22.862  1.00  0.00     0.004 C 
HETATM    7  C17 UNL     1     -17.458   9.482  22.213  1.00  0.00     0.007 C 
HETATM    8  C18 UNL     1     -18.947   9.614  22.667  1.00  0.00     0.007 C 
HETATM    9  C19 UNL     1     -19.614   8.286  23.136  1.00  0.00     0.008 C 
HETATM   10  C20 UNL     1     -20.967   8.447  23.849  1.00  0.00     0.056 C 
HETATM   11  C21 UNL     1     -21.966   9.278  23.046  1.00  0.00     0.018 C 
HETATM   12  C22 UNL     1     -20.785   8.991  25.260  1.00  0.00     0.133 C 
HETATM   13  O6  UNL     1     -21.501   9.876  25.732  1.00  0.00    -0.297 OA
HETATM   14  C23 UNL     1     -19.768   8.285  26.124  1.00  0.00     0.111 C 
HETATM   15  C24 UNL     1     -18.430   8.234  25.400  1.00  0.00     0.134 C 
HETATM   16  C25 UNL     1     -18.595   7.590  24.003  1.00  0.00    -0.001 A 
HETATM   17  C26 UNL     1     -18.031   6.214  24.045  1.00  0.00     0.024 A 
HETATM   18  C27 UNL     1     -17.465   7.137  22.995  1.00  0.00    -0.025 A 
HETATM   19  C28 UNL     1     -17.580   6.457  21.648  1.00  0.00     0.011 C 
HETATM   20  C29 UNL     1     -16.255   5.750  21.343  1.00  0.00     0.011 C 
HETATM   21  C30 UNL     1     -14.960   6.463  21.856  1.00  0.00    -0.030 C 
HETATM   22  C31 UNL     1     -13.830   6.142  20.843  1.00  0.00     0.016 C 
ENDROOT
BRANCH   1  23
HETATM   23  C7  UNL     1     -13.757   4.673  23.548  1.00  0.00     0.026 C 
HETATM   24  C8  UNL     1     -14.213   3.612  22.532  1.00  0.00     0.013 C 
BRANCH  23  25
HETATM   25  C4  UNL     1     -13.997   4.149  24.999  1.00  0.00     0.210 C 
BRANCH  25  26
HETATM   26  C3  UNL     1     -13.784   2.620  25.135  1.00  0.00     0.184 C 
HETATM   27  O1  UNL     1     -14.519   1.799  24.581  1.00  0.00    -0.290 OA
BRANCH  26  28
HETATM   28  C2  UNL     1     -12.628   2.122  25.954  1.00  0.00    -0.013 C 
HETATM   29  C1  UNL     1     -11.639   1.540  25.253  1.00  0.00     0.023 C 
BRANCH  28  30
HETATM   30  C32 UNL     1     -12.704   2.273  27.460  1.00  0.00     0.041 C 
HETATM   31  C33 UNL     1     -11.488   1.713  28.211  1.00  0.00     0.017 C 
BRANCH  30  32
HETATM   32  C34 UNL     1     -14.006   1.661  28.011  1.00  0.00     0.173 C 
BRANCH  32  33
HETATM   33  O8  UNL     1     -14.093   1.808  29.424  1.00  0.00    -0.400 OA
HETATM   34  H50 UNL     1     -13.489   1.152  29.819  1.00  0.00     0.209 HD
ENDBRANCH  32  33
ENDBRANCH  30  32
ENDBRANCH  28  30
ENDBRANCH  26  28
ENDBRANCH  25  26
BRANCH  25  35
HETATM   35  O2  UNL     1     -15.333   4.496  25.403  1.00  0.00    -0.308 OA
BRANCH  35  36
HETATM   36  C5  UNL     1     -15.457   4.798  26.728  1.00  0.00     0.255 C 
HETATM   37  C6  UNL     1     -14.379   5.752  27.139  1.00  0.00     0.126 C 
HETATM   38  O3  UNL     1     -16.303   4.337  27.481  1.00  0.00    -0.266 OA
ENDBRANCH  35  36
ENDBRANCH  25  35
ENDBRANCH  23  25
ENDBRANCH   1  23
BRANCH   2  39
HETATM   39  O4  UNL     1     -12.226   7.063  23.679  1.00  0.00    -0.316 OA
BRANCH  39  40
HETATM   40  C11 UNL     1     -11.455   8.161  23.943  1.00  0.00     0.255 C 
HETATM   41  C12 UNL     1     -11.715   8.670  25.328  1.00  0.00     0.126 C 
HETATM   42  O5  UNL     1     -10.623   8.641  23.187  1.00  0.00    -0.266 OA
ENDBRANCH  39  40
ENDBRANCH   2  39
BRANCH  15  43
HETATM   43  O7  UNL     1     -17.872   9.540  25.324  1.00  0.00    -0.394 OA
HETATM   44  H34 UNL     1     -17.766   9.880  26.230  1.00  0.00     0.210 HD
ENDBRANCH  15  43
TORSDOF 12
ENDMDL
MODEL 9
REMARK minimizedAffinity -5.67224216
REMARK CNNscore 0.352019191
REMARK CNNaffinity 6.4445858
REMARK  12 active torsions:
REMARK  status: ('A' for Active; 'I' for Inactive)
REMARK    1  A    between atoms: C2_2  and  C3_3 
REMARK    2  A    between atoms: C2_2  and  C32_39 
REMARK    3  A    between atoms: C3_3  and  C4_5 
REMARK    4  A    between atoms: C4_5  and  O2_6 
REMARK    5  A    between atoms: C4_5  and  C7_10 
REMARK    6  A    between atoms: O2_6  and  C5_7 
REMARK    7  A    between atoms: C7_10  and  C9_12 
REMARK    8  A    between atoms: C10_13  and  O4_14 
REMARK    9  A    between atoms: O4_14  and  C11_15 
REMARK   10  A    between atoms: C24_30  and  O7_31 
REMARK   11  A    between atoms: C32_39  and  C34_41 
REMARK   12  A    between atoms: C34_41  and  O8_42 
ROOT
HETATM    1  C9  UNL     1     -16.988  -2.267  14.508  1.00  0.00     0.031 C 
HETATM    2  C10 UNL     1     -15.671  -1.562  14.961  1.00  0.00     0.138 C 
HETATM    3  C13 UNL     1     -14.630  -2.663  15.208  1.00  0.00     0.043 C 
HETATM    4  C14 UNL     1     -15.228  -3.980  14.671  1.00  0.00    -0.030 C 
HETATM    5  C15 UNL     1     -14.643  -5.134  15.517  1.00  0.00     0.016 C 
HETATM    6  C16 UNL     1     -14.862  -4.092  13.110  1.00  0.00     0.004 C 
HETATM    7  C17 UNL     1     -13.852  -5.271  12.772  1.00  0.00     0.007 C 
HETATM    8  C18 UNL     1     -13.730  -5.752  11.291  1.00  0.00     0.007 C 
HETATM    9  C19 UNL     1     -15.018  -5.576  10.431  1.00  0.00     0.008 C 
HETATM   10  C20 UNL     1     -14.829  -5.773   8.919  1.00  0.00     0.056 C 
HETATM   11  C21 UNL     1     -14.147  -7.095   8.573  1.00  0.00     0.018 C 
HETATM   12  C22 UNL     1     -14.108  -4.585   8.293  1.00  0.00     0.133 C 
HETATM   13  O6  UNL     1     -13.204  -4.714   7.467  1.00  0.00    -0.297 OA
HETATM   14  C23 UNL     1     -14.658  -3.219   8.624  1.00  0.00     0.111 C 
HETATM   15  C24 UNL     1     -14.740  -3.053  10.134  1.00  0.00     0.134 C 
HETATM   16  C25 UNL     1     -15.558  -4.208  10.762  1.00  0.00    -0.001 A 
HETATM   17  C26 UNL     1     -16.892  -3.682  11.157  1.00  0.00     0.024 A 
HETATM   18  C27 UNL     1     -16.082  -4.339  12.247  1.00  0.00    -0.025 A 
HETATM   19  C28 UNL     1     -16.927  -5.420  12.886  1.00  0.00     0.011 C 
HETATM   20  C29 UNL     1     -17.608  -4.836  14.129  1.00  0.00     0.011 C 
HETATM   21  C30 UNL     1     -16.782  -3.779  14.935  1.00  0.00    -0.030 C 
HETATM   22  C31 UNL     1     -17.177  -3.932  16.427  1.00  0.00     0.016 C 
ENDROOT
BRANCH   1  23
HETATM   23  C7  UNL     1     -18.298  -1.494  14.916  1.00  0.00     0.026 C 
HETATM   24  C8  UNL     1     -19.314  -2.422  15.601  1.00  0.00     0.013 C 
BRANCH  23  25
HETATM   25  C4  UNL     1     -18.962  -0.803  13.685  1.00  0.00     0.210 C 
BRANCH  25  26
HETATM   26  C3  UNL     1     -18.821   0.740  13.706  1.00  0.00     0.184 C 
HETATM   27  O1  UNL     1     -19.365   1.441  14.562  1.00  0.00    -0.290 OA
BRANCH  26  28
HETATM   28  C2  UNL     1     -17.973   1.403  12.658  1.00  0.00    -0.013 C 
HETATM   29  C1  UNL     1     -16.720   0.927  12.552  1.00  0.00     0.023 C 
BRANCH  28  30
HETATM   30  C32 UNL     1     -18.577   2.549  11.872  1.00  0.00     0.041 C 
HETATM   31  C33 UNL     1     -18.714   3.855  12.667  1.00  0.00     0.017 C 
BRANCH  30  32
HETATM   32  C34 UNL     1     -19.934   2.145  11.263  1.00  0.00     0.173 C 
BRANCH  32  33
HETATM   33  O8  UNL     1     -19.783   1.112  10.295  1.00  0.00    -0.400 OA
HETATM   34  H50 UNL     1     -19.420   1.524   9.488  1.00  0.00     0.209 HD
ENDBRANCH  32  33
ENDBRANCH  30  32
ENDBRANCH  28  30
ENDBRANCH  26  28
ENDBRANCH  25  26
BRANCH  25  35
HETATM   35  O2  UNL     1     -20.353  -1.167  13.641  1.00  0.00    -0.308 OA
BRANCH  35  36
HETATM   36  C5  UNL     1     -20.812  -1.477  12.395  1.00  0.00     0.255 C 
HETATM   37  C6  UNL     1     -20.208  -2.766  11.931  1.00  0.00     0.126 C 
HETATM   38  O3  UNL     1     -21.582  -0.792  11.735  1.00  0.00    -0.266 OA
ENDBRANCH  35  36
ENDBRANCH  25  35
ENDBRANCH  23  25
ENDBRANCH   1  23
BRANCH   2  39
HETATM   39  O4  UNL     1     -15.845  -0.828  16.189  1.00  0.00    -0.316 OA
BRANCH  39  40
HETATM   40  C11 UNL     1     -15.303   0.427  16.183  1.00  0.00     0.255 C 
HETATM   41  C12 UNL     1     -16.369   1.466  16.352  1.00  0.00     0.126 C 
HETATM   42  O5  UNL     1     -14.110   0.683  16.107  1.00  0.00    -0.266 OA
ENDBRANCH  39  40
ENDBRANCH   2  39
BRANCH  15  43
HETATM   43  O7  UNL     1     -13.430  -2.966  10.683  1.00  0.00    -0.394 OA
HETATM   44  H34 UNL     1     -12.977  -2.209  10.272  1.00  0.00     0.210 HD
ENDBRANCH  15  43
TORSDOF 12
ENDMDL
