MODEL 1
REMARK minimizedAffinity -8.1711731
REMARK CNNscore 0.425595105
REMARK CNNaffinity 6.36889124
REMARK  11 active torsions:
REMARK  status: ('A' for Active; 'I' for Inactive)
REMARK    1  A    between atoms: C3_4  and  O2_5 
REMARK    2  A    between atoms: O2_5  and  C4_6 
REMARK    3  A    between atoms: C7_9  and  C8_10 
REMARK    4  A    between atoms: N1_11  and  C9_13 
REMARK    5  A    between atoms: C9_13  and  C10_14 
REMARK    6  A    between atoms: C10_14  and  C11_15 
REMARK    7  A    between atoms: C22_26  and  C23_27 
REMARK    8  A    between atoms: C29_35  and  O5_36 
REMARK    9  A    between atoms: C33_40  and  O6_41 
REMARK   10  A    between atoms: C36_44  and  O7_45 
REMARK   11  A    between atoms: C37_46  and  O8_47 
ROOT
HETATM    1  C4  UNL     1      -2.984  12.889  18.870  1.00  0.00     0.127 C 
HETATM    2  C5  UNL     1      -2.654  11.417  18.572  1.00  0.00     0.033 C 
HETATM    3  C6  UNL     1      -1.346  10.971  19.214  1.00  0.00     0.021 C 
HETATM    4  C7  UNL     1      -0.092  11.794  18.741  1.00  0.00     0.026 C 
HETATM    5  C17 UNL     1       0.888  11.926  19.979  1.00  0.00     0.009 C 
HETATM    6  C18 UNL     1       1.453  10.577  20.474  1.00  0.00     0.007 C 
HETATM    7  C19 UNL     1       2.319  10.737  21.721  1.00  0.00     0.013 C 
HETATM    8  C20 UNL     1       3.519  11.705  21.515  1.00  0.00    -0.005 C 
HETATM    9  C21 UNL     1       4.551  11.026  20.591  1.00  0.00     0.019 C 
HETATM   10  C22 UNL     1       4.100  12.082  22.924  1.00  0.00     0.028 C 
HETATM   11  C27 UNL     1       3.183  13.227  23.412  1.00  0.00     0.013 C 
HETATM   12  C28 UNL     1       2.407  13.751  22.199  1.00  0.00     0.040 C 
HETATM   13  C29 UNL     1       3.008  13.063  20.961  1.00  0.00     0.070 C 
HETATM   14  C30 UNL     1       2.032  12.943  19.755  1.00  0.00     0.026 C 
HETATM   15  C31 UNL     1       1.449  14.313  19.377  1.00  0.00     0.011 C 
HETATM   16  C32 UNL     1       0.614  14.220  18.116  1.00  0.00     0.039 C 
HETATM   17  C33 UNL     1      -0.538  13.206  18.194  1.00  0.00     0.073 C 
HETATM   18  C34 UNL     1      -1.711  13.737  19.048  1.00  0.00     0.071 C 
ENDROOT
BRANCH   1  19
HETATM   19  O2  UNL     1      -3.756  13.345  17.758  1.00  0.00    -0.356 OA
BRANCH  19  20
HETATM   20  C3  UNL     1      -4.046  14.734  17.692  1.00  0.00     0.263 C 
HETATM   21  O1  UNL     1      -5.240  14.986  18.437  1.00  0.00    -0.354 OA
HETATM   22  C2  UNL     1      -6.469  14.603  17.795  1.00  0.00     0.151 C 
HETATM   23  C1  UNL     1      -7.345  13.928  18.849  1.00  0.00     0.042 C 
HETATM   24  C37 UNL     1      -6.293  13.713  16.553  1.00  0.00     0.175 C 
HETATM   25  C36 UNL     1      -5.317  14.370  15.561  1.00  0.00     0.154 C 
HETATM   26  C35 UNL     1      -4.242  15.205  16.254  1.00  0.00     0.095 C 
BRANCH  24  27
HETATM   27  O8  UNL     1      -7.544  13.492  15.888  1.00  0.00    -0.390 OA
HETATM   28  H51 UNL     1      -7.353  12.856  15.172  1.00  0.00     0.210 HD
ENDBRANCH  24  27
BRANCH  25  29
HETATM   29  O7  UNL     1      -4.709  13.338  14.762  1.00  0.00    -0.393 OA
HETATM   30  H49 UNL     1      -4.278  13.778  14.008  1.00  0.00     0.210 HD
ENDBRANCH  25  29
ENDBRANCH  19  20
ENDBRANCH   1  19
BRANCH  17  31
HETATM   31  O6  UNL     1      -0.997  13.086  16.836  1.00  0.00    -0.389 OA
HETATM   32  H43 UNL     1      -1.560  13.862  16.617  1.00  0.00     0.210 HD
ENDBRANCH  17  31
BRANCH   4  33
HETATM   33  C8  UNL     1       0.610  11.054  17.592  1.00  0.00     0.068 C 
HETATM   34  N1  UNL     1      -0.009  10.195  16.852  1.00  0.00    -0.401 N 
ATOM     35  H1  UNL     1      -0.990   9.954  16.986  1.00  0.00     0.158 HD
BRANCH  34  36
HETATM   36  C9  UNL     1       0.825   9.596  15.803  1.00  0.00     0.123 C 
BRANCH  36  37
HETATM   37  C10 UNL     1       0.097   9.672  14.456  1.00  0.00     0.058 C 
BRANCH  37  38
HETATM   38  C11 UNL     1       0.167   8.393  13.656  1.00  0.00    -0.057 A 
HETATM   39  C12 UNL     1      -0.591   8.240  12.488  1.00  0.00     0.007 A 
HETATM   40  C13 UNL     1      -0.527   7.052  11.755  1.00  0.00     0.001 A 
HETATM   41  C14 UNL     1       0.291   6.008  12.184  1.00  0.00     0.000 A 
HETATM   42  C15 UNL     1       1.041   6.148  13.350  1.00  0.00     0.001 A 
HETATM   43  C16 UNL     1       0.977   7.332  14.085  1.00  0.00     0.007 A 
ENDBRANCH  37  38
ENDBRANCH  36  37
ENDBRANCH  34  36
ENDBRANCH   4  33
BRANCH  13  44
HETATM   44  O5  UNL     1       4.109  13.884  20.550  1.00  0.00    -0.389 OA
HETATM   45  H37 UNL     1       4.483  13.514  19.731  1.00  0.00     0.210 HD
ENDBRANCH  13  44
BRANCH  10  46
HETATM   46  C23 UNL     1       5.567  12.427  22.994  1.00  0.00    -0.045 A 
HETATM   47  C24 UNL     1       6.628  11.619  23.012  1.00  0.00     0.087 A 
HETATM   48  C25 UNL     1       7.815  12.465  23.088  1.00  0.00     0.283 A 
HETATM   49  O3  UNL     1       8.959  12.060  23.162  1.00  0.00    -0.260 OA
HETATM   50  O4  UNL     1       7.435  13.770  23.074  1.00  0.00    -0.314 OA
HETATM   51  C26 UNL     1       6.013  13.841  23.013  1.00  0.00     0.213 A 
ENDBRANCH  10  46
TORSDOF 11
ENDMDL
MODEL 2
REMARK minimizedAffinity -7.92091227
REMARK CNNscore 0.4246521
REMARK CNNaffinity 6.35757208
REMARK  11 active torsions:
REMARK  status: ('A' for Active; 'I' for Inactive)
REMARK    1  A    between atoms: C3_4  and  O2_5 
REMARK    2  A    between atoms: O2_5  and  C4_6 
REMARK    3  A    between atoms: C7_9  and  C8_10 
REMARK    4  A    between atoms: N1_11  and  C9_13 
REMARK    5  A    between atoms: C9_13  and  C10_14 
REMARK    6  A    between atoms: C10_14  and  C11_15 
REMARK    7  A    between atoms: C22_26  and  C23_27 
REMARK    8  A    between atoms: C29_35  and  O5_36 
REMARK    9  A    between atoms: C33_40  and  O6_41 
REMARK   10  A    between atoms: C36_44  and  O7_45 
REMARK   11  A    between atoms: C37_46  and  O8_47 
ROOT
HETATM    1  C4  UNL     1      -2.299  12.686  18.715  1.00  0.00     0.127 C 
HETATM    2  C5  UNL     1      -1.927  11.201  18.574  1.00  0.00     0.033 C 
HETATM    3  C6  UNL     1      -0.625  10.855  19.286  1.00  0.00     0.021 C 
HETATM    4  C7  UNL     1       0.620  11.659  18.760  1.00  0.00     0.026 C 
HETATM    5  C17 UNL     1       1.567  11.939  19.999  1.00  0.00     0.009 C 
HETATM    6  C18 UNL     1       2.151  10.662  20.639  1.00  0.00     0.007 C 
HETATM    7  C19 UNL     1       2.982  10.968  21.883  1.00  0.00     0.013 C 
HETATM    8  C20 UNL     1       4.164  11.941  21.606  1.00  0.00    -0.005 C 
HETATM    9  C21 UNL     1       5.233  11.200  20.778  1.00  0.00     0.019 C 
HETATM   10  C22 UNL     1       4.702  12.471  22.983  1.00  0.00     0.028 C 
HETATM   11  C27 UNL     1       3.747  13.635  23.333  1.00  0.00     0.013 C 
HETATM   12  C28 UNL     1       2.988  14.016  22.058  1.00  0.00     0.040 C 
HETATM   13  C29 UNL     1       3.635  13.223  20.908  1.00  0.00     0.070 C 
HETATM   14  C30 UNL     1       2.692  12.957  19.700  1.00  0.00     0.026 C 
HETATM   15  C31 UNL     1       2.085  14.268  19.173  1.00  0.00     0.011 C 
HETATM   16  C32 UNL     1       1.283  14.027  17.910  1.00  0.00     0.039 C 
HETATM   17  C33 UNL     1       0.155  12.997  18.064  1.00  0.00     0.073 C 
HETATM   18  C34 UNL     1      -1.051  13.581  18.835  1.00  0.00     0.071 C 
ENDROOT
BRANCH   1  19
HETATM   19  O2  UNL     1      -3.055  13.009  17.547  1.00  0.00    -0.356 OA
BRANCH  19  20
HETATM   20  C3  UNL     1      -4.436  12.680  17.552  1.00  0.00     0.263 C 
HETATM   21  O1  UNL     1      -4.962  12.904  16.241  1.00  0.00    -0.354 OA
HETATM   22  C2  UNL     1      -5.195  14.278  15.887  1.00  0.00     0.151 C 
HETATM   23  C1  UNL     1      -4.701  14.472  14.455  1.00  0.00     0.042 C 
HETATM   24  C37 UNL     1      -4.562  15.303  16.845  1.00  0.00     0.175 C 
HETATM   25  C36 UNL     1      -4.991  15.010  18.295  1.00  0.00     0.154 C 
HETATM   26  C35 UNL     1      -5.216  13.522  18.557  1.00  0.00     0.095 C 
BRANCH  24  27
HETATM   27  O8  UNL     1      -4.954  16.640  16.512  1.00  0.00    -0.390 OA
HETATM   28  H51 UNL     1      -4.445  17.221  17.110  1.00  0.00     0.210 HD
ENDBRANCH  24  27
BRANCH  25  29
HETATM   29  O7  UNL     1      -3.984  15.527  19.185  1.00  0.00    -0.393 OA
HETATM   30  H49 UNL     1      -4.370  15.535  20.079  1.00  0.00     0.210 HD
ENDBRANCH  25  29
ENDBRANCH  19  20
ENDBRANCH   1  19
BRANCH  17  31
HETATM   31  O6  UNL     1      -0.269  12.730  16.715  1.00  0.00    -0.389 OA
HETATM   32  H43 UNL     1      -0.844  13.465  16.407  1.00  0.00     0.210 HD
ENDBRANCH  17  31
BRANCH   4  33
HETATM   33  C8  UNL     1       1.367  10.825  17.707  1.00  0.00     0.068 C 
HETATM   34  N1  UNL     1       0.933   9.675  17.311  1.00  0.00    -0.401 N 
ATOM     35  H1  UNL     1       0.080   9.251  17.672  1.00  0.00     0.158 HD
BRANCH  34  36
HETATM   36  C9  UNL     1       1.778   9.033  16.297  1.00  0.00     0.123 C 
BRANCH  36  37
HETATM   37  C10 UNL     1       1.112   7.741  15.811  1.00  0.00     0.058 C 
BRANCH  37  38
HETATM   38  C11 UNL     1       1.557   7.310  14.434  1.00  0.00    -0.057 A 
HETATM   39  C12 UNL     1       2.660   7.917  13.818  1.00  0.00     0.007 A 
HETATM   40  C13 UNL     1       3.064   7.518  12.542  1.00  0.00     0.001 A 
HETATM   41  C14 UNL     1       2.369   6.514  11.868  1.00  0.00     0.000 A 
HETATM   42  C15 UNL     1       1.266   5.911  12.469  1.00  0.00     0.001 A 
HETATM   43  C16 UNL     1       0.859   6.309  13.744  1.00  0.00     0.007 A 
ENDBRANCH  37  38
ENDBRANCH  36  37
ENDBRANCH  34  36
ENDBRANCH   4  33
BRANCH  13  44
HETATM   44  O5  UNL     1       4.726  14.027  20.441  1.00  0.00    -0.389 OA
HETATM   45  H37 UNL     1       5.129  13.586  19.672  1.00  0.00     0.210 HD
ENDBRANCH  13  44
BRANCH  10  46
HETATM   46  C23 UNL     1       6.158  12.860  23.050  1.00  0.00    -0.045 A 
HETATM   47  C24 UNL     1       6.718  14.066  22.954  1.00  0.00     0.087 A 
HETATM   48  C25 UNL     1       8.161  13.884  23.086  1.00  0.00     0.283 A 
HETATM   49  O3  UNL     1       8.988  14.772  23.006  1.00  0.00    -0.260 OA
HETATM   50  O4  UNL     1       8.427  12.569  23.299  1.00  0.00    -0.314 OA
HETATM   51  C26 UNL     1       7.204  11.837  23.294  1.00  0.00     0.213 A 
ENDBRANCH  10  46
TORSDOF 11
ENDMDL
MODEL 3
REMARK minimizedAffinity -11.1131945
REMARK CNNscore 0.341356397
REMARK CNNaffinity 7.14381456
REMARK  11 active torsions:
REMARK  status: ('A' for Active; 'I' for Inactive)
REMARK    1  A    between atoms: C3_4  and  O2_5 
REMARK    2  A    between atoms: O2_5  and  C4_6 
REMARK    3  A    between atoms: C7_9  and  C8_10 
REMARK    4  A    between atoms: N1_11  and  C9_13 
REMARK    5  A    between atoms: C9_13  and  C10_14 
REMARK    6  A    between atoms: C10_14  and  C11_15 
REMARK    7  A    between atoms: C22_26  and  C23_27 
REMARK    8  A    between atoms: C29_35  and  O5_36 
REMARK    9  A    between atoms: C33_40  and  O6_41 
REMARK   10  A    between atoms: C36_44  and  O7_45 
REMARK   11  A    between atoms: C37_46  and  O8_47 
ROOT
HETATM    1  C4  UNL     1      -5.268   6.572  13.558  1.00  0.00     0.127 C 
HETATM    2  C5  UNL     1      -5.175   8.098  13.392  1.00  0.00     0.033 C 
HETATM    3  C6  UNL     1      -3.853   8.539  12.775  1.00  0.00     0.021 C 
HETATM    4  C7  UNL     1      -2.590   8.123  13.615  1.00  0.00     0.026 C 
HETATM    5  C17 UNL     1      -1.427   7.785  12.594  1.00  0.00     0.009 C 
HETATM    6  C18 UNL     1      -0.970   8.992  11.746  1.00  0.00     0.007 C 
HETATM    7  C19 UNL     1       0.085   8.605  10.714  1.00  0.00     0.013 C 
HETATM    8  C20 UNL     1       1.354   7.963  11.344  1.00  0.00    -0.005 C 
HETATM    9  C21 UNL     1       2.141   9.056  12.095  1.00  0.00     0.019 C 
HETATM   10  C22 UNL     1       2.182   7.276  10.201  1.00  0.00     0.028 C 
HETATM   11  C27 UNL     1       1.502   5.900  10.022  1.00  0.00     0.013 C 
HETATM   12  C28 UNL     1       0.626   5.649  11.254  1.00  0.00     0.040 C 
HETATM   13  C29 UNL     1       0.943   6.775  12.255  1.00  0.00     0.070 C 
HETATM   14  C30 UNL     1      -0.209   7.093  13.250  1.00  0.00     0.026 C 
HETATM   15  C31 UNL     1      -0.664   5.827  13.994  1.00  0.00     0.011 C 
HETATM   16  C32 UNL     1      -1.683   6.161  15.064  1.00  0.00     0.039 C 
HETATM   17  C33 UNL     1      -2.930   6.894  14.544  1.00  0.00     0.073 C 
HETATM   18  C34 UNL     1      -3.885   5.936  13.796  1.00  0.00     0.071 C 
ENDROOT
BRANCH   1  19
HETATM   19  O2  UNL     1      -6.133   6.355  14.674  1.00  0.00    -0.356 OA
BRANCH  19  20
HETATM   20  C3  UNL     1      -6.761   5.085  14.775  1.00  0.00     0.263 C 
HETATM   21  O1  UNL     1      -7.440   4.815  13.545  1.00  0.00    -0.354 OA
HETATM   22  C2  UNL     1      -8.680   5.518  13.349  1.00  0.00     0.151 C 
HETATM   23  C1  UNL     1      -8.703   6.007  11.902  1.00  0.00     0.042 C 
HETATM   24  C37 UNL     1      -8.928   6.669  14.338  1.00  0.00     0.175 C 
HETATM   25  C36 UNL     1      -8.786   6.166  15.786  1.00  0.00     0.154 C 
HETATM   26  C35 UNL     1      -7.764   5.038  15.923  1.00  0.00     0.095 C 
BRANCH  24  27
HETATM   27  O8  UNL     1     -10.238   7.226  14.172  1.00  0.00    -0.390 OA
HETATM   28  H51 UNL     1     -10.276   7.994  14.774  1.00  0.00     0.210 HD
ENDBRANCH  24  27
BRANCH  25  29
HETATM   29  O7  UNL     1      -8.420   7.277  16.625  1.00  0.00    -0.393 OA
HETATM   30  H49 UNL     1      -8.553   6.994  17.548  1.00  0.00     0.210 HD
ENDBRANCH  25  29
ENDBRANCH  19  20
ENDBRANCH   1  19
BRANCH  17  31
HETATM   31  O6  UNL     1      -3.598   7.344  15.736  1.00  0.00    -0.389 OA
HETATM   32  H43 UNL     1      -4.085   6.591  16.137  1.00  0.00     0.210 HD
ENDBRANCH  17  31
BRANCH   4  33
HETATM   33  C8  UNL     1      -2.167   9.287  14.525  1.00  0.00     0.068 C 
HETATM   34  N1  UNL     1      -2.627   9.420  15.724  1.00  0.00    -0.401 N 
ATOM     35  H1  UNL     1      -3.295   8.769  16.137  1.00  0.00     0.158 HD
BRANCH  34  36
HETATM   36  C9  UNL     1      -2.103  10.589  16.442  1.00  0.00     0.123 C 
BRANCH  36  37
HETATM   37  C10 UNL     1      -2.017  10.281  17.941  1.00  0.00     0.058 C 
BRANCH  37  38
HETATM   38  C11 UNL     1      -1.125  11.230  18.704  1.00  0.00    -0.057 A 
HETATM   39  C12 UNL     1      -0.068  10.744  19.487  1.00  0.00     0.007 A 
HETATM   40  C13 UNL     1       0.750  11.627  20.195  1.00  0.00     0.001 A 
HETATM   41  C14 UNL     1       0.519  13.001  20.132  1.00  0.00     0.000 A 
HETATM   42  C15 UNL     1      -0.535  13.492  19.364  1.00  0.00     0.001 A 
HETATM   43  C16 UNL     1      -1.355  12.612  18.657  1.00  0.00     0.007 A 
ENDBRANCH  37  38
ENDBRANCH  36  37
ENDBRANCH  34  36
ENDBRANCH   4  33
BRANCH  13  44
HETATM   44  O5  UNL     1       2.065   6.317  13.020  1.00  0.00    -0.389 OA
HETATM   45  H37 UNL     1       2.263   6.978  13.707  1.00  0.00     0.210 HD
ENDBRANCH  13  44
BRANCH  10  46
HETATM   46  C23 UNL     1       3.675   7.178  10.395  1.00  0.00    -0.045 A 
HETATM   47  C24 UNL     1       4.578   8.150  10.531  1.00  0.00     0.087 A 
HETATM   48  C25 UNL     1       5.881   7.511  10.691  1.00  0.00     0.283 A 
HETATM   49  O3  UNL     1       6.939   8.099  10.800  1.00  0.00    -0.260 OA
HETATM   50  O4  UNL     1       5.720   6.162  10.684  1.00  0.00    -0.314 OA
HETATM   51  C26 UNL     1       4.340   5.856  10.503  1.00  0.00     0.213 A 
ENDBRANCH  10  46
TORSDOF 11
ENDMDL
MODEL 4
REMARK minimizedAffinity -10.0396023
REMARK CNNscore 0.271431983
REMARK CNNaffinity 6.68233871
REMARK  11 active torsions:
REMARK  status: ('A' for Active; 'I' for Inactive)
REMARK    1  A    between atoms: C3_4  and  O2_5 
REMARK    2  A    between atoms: O2_5  and  C4_6 
REMARK    3  A    between atoms: C7_9  and  C8_10 
REMARK    4  A    between atoms: N1_11  and  C9_13 
REMARK    5  A    between atoms: C9_13  and  C10_14 
REMARK    6  A    between atoms: C10_14  and  C11_15 
REMARK    7  A    between atoms: C22_26  and  C23_27 
REMARK    8  A    between atoms: C29_35  and  O5_36 
REMARK    9  A    between atoms: C33_40  and  O6_41 
REMARK   10  A    between atoms: C36_44  and  O7_45 
REMARK   11  A    between atoms: C37_46  and  O8_47 
ROOT
HETATM    1  C4  UNL     1       5.232  10.337  14.534  1.00  0.00     0.127 C 
HETATM    2  C5  UNL     1       5.109  10.120  13.016  1.00  0.00     0.033 C 
HETATM    3  C6  UNL     1       3.692   9.753  12.592  1.00  0.00     0.021 C 
HETATM    4  C7  UNL     1       3.150   8.435  13.257  1.00  0.00     0.026 C 
HETATM    5  C17 UNL     1       1.599   8.630  13.512  1.00  0.00     0.009 C 
HETATM    6  C18 UNL     1       0.771   8.801  12.220  1.00  0.00     0.007 C 
HETATM    7  C19 UNL     1      -0.701   9.078  12.511  1.00  0.00     0.013 C 
HETATM    8  C20 UNL     1      -1.378   7.965  13.362  1.00  0.00    -0.005 C 
HETATM    9  C21 UNL     1      -1.538   6.703  12.491  1.00  0.00     0.019 C 
HETATM   10  C22 UNL     1      -2.742   8.519  13.909  1.00  0.00     0.028 C 
HETATM   11  C27 UNL     1      -2.341   9.321  15.168  1.00  0.00     0.013 C 
HETATM   12  C28 UNL     1      -0.917   8.906  15.552  1.00  0.00     0.040 C 
HETATM   13  C29 UNL     1      -0.549   7.714  14.651  1.00  0.00     0.070 C 
HETATM   14  C30 UNL     1       0.978   7.536  14.412  1.00  0.00     0.026 C 
HETATM   15  C31 UNL     1       1.741   7.457  15.743  1.00  0.00     0.011 C 
HETATM   16  C32 UNL     1       3.205   7.141  15.514  1.00  0.00     0.039 C 
HETATM   17  C33 UNL     1       3.931   8.135  14.595  1.00  0.00     0.073 C 
HETATM   18  C34 UNL     1       4.233   9.466  15.320  1.00  0.00     0.071 C 
ENDROOT
BRANCH   1  19
HETATM   19  O2  UNL     1       6.580  10.000  14.865  1.00  0.00    -0.356 OA
BRANCH  19  20
HETATM   20  C3  UNL     1       6.779   8.921  15.767  1.00  0.00     0.263 C 
HETATM   21  O1  UNL     1       7.187   9.452  17.030  1.00  0.00    -0.354 OA
HETATM   22  C2  UNL     1       8.553   9.895  17.110  1.00  0.00     0.151 C 
HETATM   23  C1  UNL     1       8.560  11.224  17.863  1.00  0.00     0.042 C 
HETATM   24  C37 UNL     1       9.270  10.011  15.753  1.00  0.00     0.175 C 
HETATM   25  C36 UNL     1       9.147   8.691  14.972  1.00  0.00     0.154 C 
HETATM   26  C35 UNL     1       7.843   7.950  15.263  1.00  0.00     0.095 C 
BRANCH  24  27
HETATM   27  O8  UNL     1      10.660  10.317  15.922  1.00  0.00    -0.390 OA
HETATM   28  H51 UNL     1      11.010  10.455  15.022  1.00  0.00     0.210 HD
ENDBRANCH  24  27
BRANCH  25  29
HETATM   29  O7  UNL     1       9.254   8.978  13.565  1.00  0.00    -0.393 OA
HETATM   30  H49 UNL     1       9.399   8.129  13.111  1.00  0.00     0.210 HD
ENDBRANCH  25  29
ENDBRANCH  19  20
ENDBRANCH   1  19
BRANCH  17  31
HETATM   31  O6  UNL     1       5.186   7.496  14.303  1.00  0.00    -0.389 OA
HETATM   32  H43 UNL     1       5.791   7.607  15.070  1.00  0.00     0.210 HD
ENDBRANCH  17  31
BRANCH   4  33
HETATM   33  C8  UNL     1       3.381   7.245  12.311  1.00  0.00     0.068 C 
HETATM   34  N1  UNL     1       4.301   7.260  11.406  1.00  0.00    -0.401 N 
ATOM     35  H1  UNL     1       4.923   8.055  11.260  1.00  0.00     0.158 HD
BRANCH  34  36
HETATM   36  C9  UNL     1       4.373   6.032  10.604  1.00  0.00     0.123 C 
BRANCH  36  37
HETATM   37  C10 UNL     1       2.958   5.565  10.244  1.00  0.00     0.058 C 
BRANCH  37  38
HETATM   38  C11 UNL     1       2.403   6.217   9.000  1.00  0.00    -0.057 A 
HETATM   39  C12 UNL     1       2.794   5.776   7.728  1.00  0.00     0.007 A 
HETATM   40  C13 UNL     1       2.282   6.386   6.581  1.00  0.00     0.001 A 
HETATM   41  C14 UNL     1       1.378   7.442   6.693  1.00  0.00     0.000 A 
HETATM   42  C15 UNL     1       0.991   7.893   7.953  1.00  0.00     0.001 A 
HETATM   43  C16 UNL     1       1.503   7.286   9.101  1.00  0.00     0.007 A 
ENDBRANCH  37  38
ENDBRANCH  36  37
ENDBRANCH  34  36
ENDBRANCH   4  33
BRANCH  13  44
HETATM   44  O5  UNL     1      -1.022   6.545  15.332  1.00  0.00    -0.389 OA
HETATM   45  H37 UNL     1      -0.757   5.759  14.821  1.00  0.00     0.210 HD
ENDBRANCH  13  44
BRANCH  10  46
HETATM   46  C23 UNL     1      -3.838   7.516  14.170  1.00  0.00    -0.045 A 
HETATM   47  C24 UNL     1      -4.642   6.895  13.306  1.00  0.00     0.087 A 
HETATM   48  C25 UNL     1      -5.523   6.027  14.082  1.00  0.00     0.283 A 
HETATM   49  O3  UNL     1      -6.413   5.340  13.619  1.00  0.00    -0.260 OA
HETATM   50  O4  UNL     1      -5.197   6.122  15.398  1.00  0.00    -0.314 OA
HETATM   51  C26 UNL     1      -4.127   7.051  15.549  1.00  0.00     0.213 A 
ENDBRANCH  10  46
TORSDOF 11
ENDMDL
MODEL 5
REMARK minimizedAffinity -9.16686726
REMARK CNNscore 0.262103081
REMARK CNNaffinity 7.11734629
REMARK  11 active torsions:
REMARK  status: ('A' for Active; 'I' for Inactive)
REMARK    1  A    between atoms: C3_4  and  O2_5 
REMARK    2  A    between atoms: O2_5  and  C4_6 
REMARK    3  A    between atoms: C7_9  and  C8_10 
REMARK    4  A    between atoms: N1_11  and  C9_13 
REMARK    5  A    between atoms: C9_13  and  C10_14 
REMARK    6  A    between atoms: C10_14  and  C11_15 
REMARK    7  A    between atoms: C22_26  and  C23_27 
REMARK    8  A    between atoms: C29_35  and  O5_36 
REMARK    9  A    between atoms: C33_40  and  O6_41 
REMARK   10  A    between atoms: C36_44  and  O7_45 
REMARK   11  A    between atoms: C37_46  and  O8_47 
ROOT
HETATM    1  C4  UNL     1      -4.768   6.397  15.196  1.00  0.00     0.127 C 
HETATM    2  C5  UNL     1      -3.771   5.291  14.808  1.00  0.00     0.033 C 
HETATM    3  C6  UNL     1      -2.321   5.719  14.999  1.00  0.00     0.021 C 
HETATM    4  C7  UNL     1      -1.913   6.979  14.151  1.00  0.00     0.026 C 
HETATM    5  C17 UNL     1      -0.883   7.822  15.011  1.00  0.00     0.009 C 
HETATM    6  C18 UNL     1       0.441   7.082  15.299  1.00  0.00     0.007 C 
HETATM    7  C19 UNL     1       1.367   7.888  16.205  1.00  0.00     0.013 C 
HETATM    8  C20 UNL     1       1.724   9.288  15.627  1.00  0.00    -0.005 C 
HETATM    9  C21 UNL     1       2.668   9.101  14.422  1.00  0.00     0.019 C 
HETATM   10  C22 UNL     1       2.349  10.155  16.777  1.00  0.00     0.028 C 
HETATM   11  C27 UNL     1       1.122  10.714  17.532  1.00  0.00     0.013 C 
HETATM   12  C28 UNL     1      -0.104  10.530  16.632  1.00  0.00     0.040 C 
HETATM   13  C29 UNL     1       0.422  10.054  15.266  1.00  0.00     0.070 C 
HETATM   14  C30 UNL     1      -0.602   9.229  14.435  1.00  0.00     0.026 C 
HETATM   15  C31 UNL     1      -1.922   9.998  14.262  1.00  0.00     0.011 C 
HETATM   16  C32 UNL     1      -2.865   9.260  13.334  1.00  0.00     0.039 C 
HETATM   17  C33 UNL     1      -3.192   7.825  13.775  1.00  0.00     0.073 C 
HETATM   18  C34 UNL     1      -4.185   7.803  14.959  1.00  0.00     0.071 C 
ENDROOT
BRANCH   1  19
HETATM   19  O2  UNL     1      -5.925   6.176  14.389  1.00  0.00    -0.356 OA
BRANCH  19  20
HETATM   20  C3  UNL     1      -6.681   4.999  14.640  1.00  0.00     0.263 C 
HETATM   21  O1  UNL     1      -7.504   4.736  13.502  1.00  0.00    -0.354 OA
HETATM   22  C2  UNL     1      -8.670   5.569  13.368  1.00  0.00     0.151 C 
HETATM   23  C1  UNL     1      -8.781   5.967  11.897  1.00  0.00     0.042 C 
HETATM   24  C37 UNL     1      -8.686   6.801  14.289  1.00  0.00     0.175 C 
HETATM   25  C36 UNL     1      -8.459   6.376  15.751  1.00  0.00     0.154 C 
HETATM   26  C35 UNL     1      -7.563   5.145  15.876  1.00  0.00     0.095 C 
BRANCH  24  27
HETATM   27  O8  UNL     1      -9.935   7.499  14.203  1.00  0.00    -0.390 OA
HETATM   28  H51 UNL     1      -9.826   8.302  14.747  1.00  0.00     0.210 HD
ENDBRANCH  24  27
BRANCH  25  29
HETATM   29  O7  UNL     1      -7.888   7.485  16.469  1.00  0.00    -0.393 OA
HETATM   30  H49 UNL     1      -7.960   7.278  17.418  1.00  0.00     0.210 HD
ENDBRANCH  25  29
ENDBRANCH  19  20
ENDBRANCH   1  19
BRANCH  17  31
HETATM   31  O6  UNL     1      -3.850   7.245  12.634  1.00  0.00    -0.389 OA
HETATM   32  H43 UNL     1      -4.781   7.557  12.607  1.00  0.00     0.210 HD
ENDBRANCH  17  31
BRANCH   4  33
HETATM   33  C8  UNL     1      -1.255   6.528  12.837  1.00  0.00     0.068 C 
HETATM   34  N1  UNL     1      -1.312   5.305  12.429  1.00  0.00    -0.401 N 
ATOM     35  H1  UNL     1      -1.789   4.569  12.948  1.00  0.00     0.158 HD
BRANCH  34  36
HETATM   36  C9  UNL     1      -0.630   5.067  11.150  1.00  0.00     0.123 C 
BRANCH  36  37
HETATM   37  C10 UNL     1       0.793   5.634  11.209  1.00  0.00     0.058 C 
BRANCH  37  38
HETATM   38  C11 UNL     1       1.160   6.475  10.010  1.00  0.00    -0.057 A 
HETATM   39  C12 UNL     1       2.266   6.142   9.216  1.00  0.00     0.007 A 
HETATM   40  C13 UNL     1       2.604   6.926   8.111  1.00  0.00     0.001 A 
HETATM   41  C14 UNL     1       1.845   8.051   7.791  1.00  0.00     0.000 A 
HETATM   42  C15 UNL     1       0.749   8.396   8.581  1.00  0.00     0.001 A 
HETATM   43  C16 UNL     1       0.410   7.615   9.686  1.00  0.00     0.007 A 
ENDBRANCH  37  38
ENDBRANCH  36  37
ENDBRANCH  34  36
ENDBRANCH   4  33
BRANCH  13  44
HETATM   44  O5  UNL     1       0.727  11.242  14.525  1.00  0.00    -0.389 OA
HETATM   45  H37 UNL     1       1.010  10.986  13.630  1.00  0.00     0.210 HD
ENDBRANCH  13  44
BRANCH  10  46
HETATM   46  C23 UNL     1       3.335  11.225  16.376  1.00  0.00    -0.045 A 
HETATM   47  C24 UNL     1       4.587  11.100  15.934  1.00  0.00     0.087 A 
HETATM   48  C25 UNL     1       5.096  12.447  15.691  1.00  0.00     0.283 A 
HETATM   49  O3  UNL     1       6.223  12.712  15.319  1.00  0.00    -0.260 OA
HETATM   50  O4  UNL     1       4.115  13.349  15.958  1.00  0.00    -0.314 OA
HETATM   51  C26 UNL     1       2.951  12.657  16.400  1.00  0.00     0.213 A 
ENDBRANCH  10  46
TORSDOF 11
ENDMDL
MODEL 6
REMARK minimizedAffinity -10.9904079
REMARK CNNscore 0.230609357
REMARK CNNaffinity 6.9080472
REMARK  11 active torsions:
REMARK  status: ('A' for Active; 'I' for Inactive)
REMARK    1  A    between atoms: C3_4  and  O2_5 
REMARK    2  A    between atoms: O2_5  and  C4_6 
REMARK    3  A    between atoms: C7_9  and  C8_10 
REMARK    4  A    between atoms: N1_11  and  C9_13 
REMARK    5  A    between atoms: C9_13  and  C10_14 
REMARK    6  A    between atoms: C10_14  and  C11_15 
REMARK    7  A    between atoms: C22_26  and  C23_27 
REMARK    8  A    between atoms: C29_35  and  O5_36 
REMARK    9  A    between atoms: C33_40  and  O6_41 
REMARK   10  A    between atoms: C36_44  and  O7_45 
REMARK   11  A    between atoms: C37_46  and  O8_47 
ROOT
HETATM    1  C4  UNL     1      -5.156   6.657  13.425  1.00  0.00     0.127 C 
HETATM    2  C5  UNL     1      -5.057   8.172  13.180  1.00  0.00     0.033 C 
HETATM    3  C6  UNL     1      -3.726   8.578  12.559  1.00  0.00     0.021 C 
HETATM    4  C7  UNL     1      -2.475   8.205  13.436  1.00  0.00     0.026 C 
HETATM    5  C17 UNL     1      -1.299   7.812  12.450  1.00  0.00     0.009 C 
HETATM    6  C18 UNL     1      -0.829   8.972  11.547  1.00  0.00     0.007 C 
HETATM    7  C19 UNL     1       0.239   8.531  10.550  1.00  0.00     0.013 C 
HETATM    8  C20 UNL     1       1.498   7.920  11.230  1.00  0.00    -0.005 C 
HETATM    9  C21 UNL     1       2.278   9.050  11.934  1.00  0.00     0.019 C 
HETATM   10  C22 UNL     1       2.340   7.173  10.135  1.00  0.00     0.028 C 
HETATM   11  C27 UNL     1       1.659   5.790  10.020  1.00  0.00     0.013 C 
HETATM   12  C28 UNL     1       0.766   5.606  11.252  1.00  0.00     0.040 C 
HETATM   13  C29 UNL     1       1.072   6.782  12.196  1.00  0.00     0.070 C 
HETATM   14  C30 UNL     1      -0.092   7.154  13.158  1.00  0.00     0.026 C 
HETATM   15  C31 UNL     1      -0.560   5.929  13.961  1.00  0.00     0.011 C 
HETATM   16  C32 UNL     1      -1.593   6.320  14.998  1.00  0.00     0.039 C 
HETATM   17  C33 UNL     1      -2.830   7.026  14.424  1.00  0.00     0.073 C 
HETATM   18  C34 UNL     1      -3.777   6.033  13.714  1.00  0.00     0.071 C 
ENDROOT
BRANCH   1  19
HETATM   19  O2  UNL     1      -6.036   6.501  14.539  1.00  0.00    -0.356 OA
BRANCH  19  20
HETATM   20  C3  UNL     1      -6.606   5.216  14.744  1.00  0.00     0.263 C 
HETATM   21  O1  UNL     1      -7.316   4.840  13.561  1.00  0.00    -0.354 OA
HETATM   22  C2  UNL     1      -8.591   5.478  13.368  1.00  0.00     0.151 C 
HETATM   23  C1  UNL     1      -8.686   5.872  11.895  1.00  0.00     0.042 C 
HETATM   24  C37 UNL     1      -8.852   6.680  14.291  1.00  0.00     0.175 C 
HETATM   25  C36 UNL     1      -8.638   6.278  15.762  1.00  0.00     0.154 C 
HETATM   26  C35 UNL     1      -7.564   5.204  15.931  1.00  0.00     0.095 C 
BRANCH  24  27
HETATM   27  O8  UNL     1     -10.190   7.173  14.141  1.00  0.00    -0.390 OA
HETATM   28  H51 UNL     1     -10.239   7.976  14.694  1.00  0.00     0.210 HD
ENDBRANCH  24  27
BRANCH  25  29
HETATM   29  O7  UNL     1      -8.289   7.455  16.514  1.00  0.00    -0.393 OA
HETATM   30  H49 UNL     1      -8.378   7.227  17.457  1.00  0.00     0.210 HD
ENDBRANCH  25  29
ENDBRANCH  19  20
ENDBRANCH   1  19
BRANCH  17  31
HETATM   31  O6  UNL     1      -3.514   7.540  15.581  1.00  0.00    -0.389 OA
HETATM   32  H43 UNL     1      -4.007   6.809  16.015  1.00  0.00     0.210 HD
ENDBRANCH  17  31
BRANCH   4  33
HETATM   33  C8  UNL     1      -2.062   9.415  14.290  1.00  0.00     0.068 C 
HETATM   34  N1  UNL     1      -1.517  10.464  13.770  1.00  0.00    -0.401 N 
ATOM     35  H1  UNL     1      -1.325  10.553  12.773  1.00  0.00     0.158 HD
BRANCH  34  36
HETATM   36  C9  UNL     1      -1.198  11.517  14.742  1.00  0.00     0.123 C 
BRANCH  36  37
HETATM   37  C10 UNL     1      -0.934  10.891  16.116  1.00  0.00     0.058 C 
BRANCH  37  38
HETATM   38  C11 UNL     1      -1.967  11.254  17.156  1.00  0.00    -0.057 A 
HETATM   39  C12 UNL     1      -2.560  10.262  17.950  1.00  0.00     0.007 A 
HETATM   40  C13 UNL     1      -3.519  10.603  18.906  1.00  0.00     0.001 A 
HETATM   41  C14 UNL     1      -3.897  11.934  19.076  1.00  0.00     0.000 A 
HETATM   42  C15 UNL     1      -3.320  12.926  18.285  1.00  0.00     0.001 A 
HETATM   43  C16 UNL     1      -2.363  12.588  17.327  1.00  0.00     0.007 A 
ENDBRANCH  37  38
ENDBRANCH  36  37
ENDBRANCH  34  36
ENDBRANCH   4  33
BRANCH  13  44
HETATM   44  O5  UNL     1       2.183   6.363  12.999  1.00  0.00    -0.389 OA
HETATM   45  H37 UNL     1       2.373   7.058  13.653  1.00  0.00     0.210 HD
ENDBRANCH  13  44
BRANCH  10  46
HETATM   46  C23 UNL     1       3.830   7.082  10.355  1.00  0.00    -0.045 A 
HETATM   47  C24 UNL     1       4.732   8.059  10.459  1.00  0.00     0.087 A 
HETATM   48  C25 UNL     1       6.032   7.427  10.665  1.00  0.00     0.283 A 
HETATM   49  O3  UNL     1       7.089   8.019  10.762  1.00  0.00    -0.260 OA
HETATM   50  O4  UNL     1       5.869   6.079  10.718  1.00  0.00    -0.314 OA
HETATM   51  C26 UNL     1       4.491   5.767  10.532  1.00  0.00     0.213 A 
ENDBRANCH  10  46
TORSDOF 11
ENDMDL
MODEL 7
REMARK minimizedAffinity -8.4876194
REMARK CNNscore 0.229105964
REMARK CNNaffinity 5.80549479
REMARK  11 active torsions:
REMARK  status: ('A' for Active; 'I' for Inactive)
REMARK    1  A    between atoms: C3_4  and  O2_5 
REMARK    2  A    between atoms: O2_5  and  C4_6 
REMARK    3  A    between atoms: C7_9  and  C8_10 
REMARK    4  A    between atoms: N1_11  and  C9_13 
REMARK    5  A    between atoms: C9_13  and  C10_14 
REMARK    6  A    between atoms: C10_14  and  C11_15 
REMARK    7  A    between atoms: C22_26  and  C23_27 
REMARK    8  A    between atoms: C29_35  and  O5_36 
REMARK    9  A    between atoms: C33_40  and  O6_41 
REMARK   10  A    between atoms: C36_44  and  O7_45 
REMARK   11  A    between atoms: C37_46  and  O8_47 
ROOT
HETATM    1  C4  UNL     1      -1.893   8.798  14.489  1.00  0.00     0.127 C 
HETATM    2  C5  UNL     1      -1.424   8.412  15.902  1.00  0.00     0.033 C 
HETATM    3  C6  UNL     1      -2.006   9.319  16.979  1.00  0.00     0.021 C 
HETATM    4  C7  UNL     1      -1.629  10.836  16.803  1.00  0.00     0.026 C 
HETATM    5  C17 UNL     1      -2.871  11.696  17.282  1.00  0.00     0.009 C 
HETATM    6  C18 UNL     1      -3.203  11.532  18.781  1.00  0.00     0.007 C 
HETATM    7  C19 UNL     1      -4.457  12.303  19.182  1.00  0.00     0.013 C 
HETATM    8  C20 UNL     1      -4.363  13.827  18.882  1.00  0.00    -0.005 C 
HETATM    9  C21 UNL     1      -3.363  14.464  19.869  1.00  0.00     0.019 C 
HETATM   10  C22 UNL     1      -5.805  14.441  18.976  1.00  0.00     0.028 C 
HETATM   11  C27 UNL     1      -6.426  14.147  17.591  1.00  0.00     0.013 C 
HETATM   12  C28 UNL     1      -5.286  13.775  16.638  1.00  0.00     0.040 C 
HETATM   13  C29 UNL     1      -3.974  14.046  17.395  1.00  0.00     0.070 C 
HETATM   14  C30 UNL     1      -2.765  13.194  16.912  1.00  0.00     0.026 C 
HETATM   15  C31 UNL     1      -2.551  13.346  15.398  1.00  0.00     0.011 C 
HETATM   16  C32 UNL     1      -1.291  12.633  14.952  1.00  0.00     0.039 C 
HETATM   17  C33 UNL     1      -1.252  11.137  15.301  1.00  0.00     0.073 C 
HETATM   18  C34 UNL     1      -2.166  10.310  14.369  1.00  0.00     0.071 C 
ENDROOT
BRANCH   1  19
HETATM   19  O2  UNL     1      -0.845   8.393  13.608  1.00  0.00    -0.356 OA
BRANCH  19  20
HETATM   20  C3  UNL     1      -1.211   8.022  12.286  1.00  0.00     0.263 C 
HETATM   21  O1  UNL     1      -1.158   6.597  12.182  1.00  0.00    -0.354 OA
HETATM   22  C2  UNL     1       0.159   6.027  12.078  1.00  0.00     0.151 C 
HETATM   23  C1  UNL     1       0.197   4.797  12.982  1.00  0.00     0.042 C 
HETATM   24  C37 UNL     1       1.306   7.000  12.400  1.00  0.00     0.175 C 
HETATM   25  C36 UNL     1       1.174   8.278  11.552  1.00  0.00     0.154 C 
HETATM   26  C35 UNL     1      -0.279   8.638  11.247  1.00  0.00     0.095 C 
BRANCH  24  27
HETATM   27  O8  UNL     1       2.584   6.406  12.138  1.00  0.00    -0.390 OA
HETATM   28  H51 UNL     1       3.245   7.054  12.447  1.00  0.00     0.210 HD
ENDBRANCH  24  27
BRANCH  25  29
HETATM   29  O7  UNL     1       1.820   9.360  12.248  1.00  0.00    -0.393 OA
HETATM   30  H49 UNL     1       1.922  10.089  11.610  1.00  0.00     0.210 HD
ENDBRANCH  25  29
ENDBRANCH  19  20
ENDBRANCH   1  19
BRANCH  17  31
HETATM   31  O6  UNL     1       0.109  10.749  15.045  1.00  0.00    -0.389 OA
HETATM   32  H43 UNL     1       0.234  10.630  14.078  1.00  0.00     0.210 HD
ENDBRANCH  17  31
BRANCH   4  33
HETATM   33  C8  UNL     1      -0.399  11.167  17.664  1.00  0.00     0.068 C 
HETATM   34  N1  UNL     1       0.434  10.257  18.044  1.00  0.00    -0.401 N 
ATOM     35  H1  UNL     1       0.327   9.272  17.803  1.00  0.00     0.158 HD
BRANCH  34  36
HETATM   36  C9  UNL     1       1.549  10.765  18.853  1.00  0.00     0.123 C 
BRANCH  36  37
HETATM   37  C10 UNL     1       1.073  11.019  20.288  1.00  0.00     0.058 C 
BRANCH  37  38
HETATM   38  C11 UNL     1       2.103  10.674  21.338  1.00  0.00    -0.057 A 
HETATM   39  C12 UNL     1       2.921  11.669  21.890  1.00  0.00     0.007 A 
HETATM   40  C13 UNL     1       3.875  11.343  22.856  1.00  0.00     0.001 A 
HETATM   41  C14 UNL     1       4.024  10.022  23.277  1.00  0.00     0.000 A 
HETATM   42  C15 UNL     1       3.221   9.024  22.726  1.00  0.00     0.001 A 
HETATM   43  C16 UNL     1       2.268   9.347  21.759  1.00  0.00     0.007 A 
ENDBRANCH  37  38
ENDBRANCH  36  37
ENDBRANCH  34  36
ENDBRANCH   4  33
BRANCH  13  44
HETATM   44  O5  UNL     1      -3.659  15.424  17.156  1.00  0.00    -0.389 OA
HETATM   45  H37 UNL     1      -2.801  15.622  17.572  1.00  0.00     0.210 HD
ENDBRANCH  13  44
BRANCH  10  46
HETATM   46  C23 UNL     1      -5.911  15.892  19.377  1.00  0.00    -0.045 A 
HETATM   47  C24 UNL     1      -5.942  16.982  18.610  1.00  0.00     0.087 A 
HETATM   48  C25 UNL     1      -6.052  18.134  19.500  1.00  0.00     0.283 A 
HETATM   49  O3  UNL     1      -6.066  19.296  19.142  1.00  0.00    -0.260 OA
HETATM   50  O4  UNL     1      -6.125  17.699  20.786  1.00  0.00    -0.314 OA
HETATM   51  C26 UNL     1      -6.045  16.276  20.803  1.00  0.00     0.213 A 
ENDBRANCH  10  46
TORSDOF 11
ENDMDL
MODEL 8
REMARK minimizedAffinity -7.58307743
REMARK CNNscore 0.205637157
REMARK CNNaffinity 5.96307564
REMARK  11 active torsions:
REMARK  status: ('A' for Active; 'I' for Inactive)
REMARK    1  A    between atoms: C3_4  and  O2_5 
REMARK    2  A    between atoms: O2_5  and  C4_6 
REMARK    3  A    between atoms: C7_9  and  C8_10 
REMARK    4  A    between atoms: N1_11  and  C9_13 
REMARK    5  A    between atoms: C9_13  and  C10_14 
REMARK    6  A    between atoms: C10_14  and  C11_15 
REMARK    7  A    between atoms: C22_26  and  C23_27 
REMARK    8  A    between atoms: C29_35  and  O5_36 
REMARK    9  A    between atoms: C33_40  and  O6_41 
REMARK   10  A    between atoms: C36_44  and  O7_45 
REMARK   11  A    between atoms: C37_46  and  O8_47 
ROOT
HETATM    1  C4  UNL     1       0.280  10.240  15.766  1.00  0.00     0.127 C 
HETATM    2  C5  UNL     1      -0.538  10.359  14.470  1.00  0.00     0.033 C 
HETATM    3  C6  UNL     1      -1.697  11.341  14.598  1.00  0.00     0.021 C 
HETATM    4  C7  UNL     1      -2.729  10.962  15.722  1.00  0.00     0.026 C 
HETATM    5  C17 UNL     1      -3.256  12.313  16.362  1.00  0.00     0.009 C 
HETATM    6  C18 UNL     1      -4.040  13.206  15.376  1.00  0.00     0.007 C 
HETATM    7  C19 UNL     1      -4.451  14.535  16.003  1.00  0.00     0.013 C 
HETATM    8  C20 UNL     1      -5.320  14.367  17.282  1.00  0.00    -0.005 C 
HETATM    9  C21 UNL     1      -6.715  13.854  16.870  1.00  0.00     0.019 C 
HETATM   10  C22 UNL     1      -5.362  15.743  18.038  1.00  0.00     0.028 C 
HETATM   11  C27 UNL     1      -4.052  15.759  18.858  1.00  0.00     0.013 C 
HETATM   12  C28 UNL     1      -3.511  14.326  18.901  1.00  0.00     0.040 C 
HETATM   13  C29 UNL     1      -4.599  13.427  18.287  1.00  0.00     0.070 C 
HETATM   14  C30 UNL     1      -4.065  12.106  17.664  1.00  0.00     0.026 C 
HETATM   15  C31 UNL     1      -3.226  11.314  18.680  1.00  0.00     0.011 C 
HETATM   16  C32 UNL     1      -2.827   9.963  18.123  1.00  0.00     0.039 C 
HETATM   17  C33 UNL     1      -2.051  10.030  16.799  1.00  0.00     0.073 C 
HETATM   18  C34 UNL     1      -0.589  10.480  17.016  1.00  0.00     0.071 C 
ENDROOT
BRANCH   1  19
HETATM   19  O2  UNL     1       0.823   8.919  15.763  1.00  0.00    -0.356 OA
BRANCH  19  20
HETATM   20  C3  UNL     1       2.155   8.761  16.230  1.00  0.00     0.263 C 
HETATM   21  O1  UNL     1       2.989   9.709  15.558  1.00  0.00    -0.354 OA
HETATM   22  C2  UNL     1       3.329   9.387  14.198  1.00  0.00     0.151 C 
HETATM   23  C1  UNL     1       3.203  10.671  13.380  1.00  0.00     0.042 C 
HETATM   24  C37 UNL     1       2.503   8.244  13.584  1.00  0.00     0.175 C 
HETATM   25  C36 UNL     1       2.559   7.001  14.490  1.00  0.00     0.154 C 
HETATM   26  C35 UNL     1       2.684   7.354  15.971  1.00  0.00     0.095 C 
BRANCH  24  27
HETATM   27  O8  UNL     1       2.991   7.887  12.284  1.00  0.00    -0.390 OA
HETATM   28  H51 UNL     1       2.364   7.223  11.941  1.00  0.00     0.210 HD
ENDBRANCH  24  27
BRANCH  25  29
HETATM   29  O7  UNL     1       1.377   6.212  14.262  1.00  0.00    -0.393 OA
HETATM   30  H49 UNL     1       1.534   5.339  14.665  1.00  0.00     0.210 HD
ENDBRANCH  25  29
ENDBRANCH  19  20
ENDBRANCH   1  19
BRANCH  17  31
HETATM   31  O6  UNL     1      -2.030   8.669  16.331  1.00  0.00    -0.389 OA
HETATM   32  H43 UNL     1      -1.344   8.169  16.826  1.00  0.00     0.210 HD
ENDBRANCH  17  31
BRANCH   4  33
HETATM   33  C8  UNL     1      -3.901  10.181  15.106  1.00  0.00     0.068 C 
HETATM   34  N1  UNL     1      -4.656   9.410  15.815  1.00  0.00    -0.401 N 
ATOM     35  H1  UNL     1      -4.521   9.269  16.816  1.00  0.00     0.158 HD
BRANCH  34  36
HETATM   36  C9  UNL     1      -5.726   8.753  15.053  1.00  0.00     0.123 C 
BRANCH  36  37
HETATM   37  C10 UNL     1      -5.916   7.319  15.558  1.00  0.00     0.058 C 
BRANCH  37  38
HETATM   38  C11 UNL     1      -6.454   6.373  14.510  1.00  0.00    -0.057 A 
HETATM   39  C12 UNL     1      -5.618   5.420  13.913  1.00  0.00     0.007 A 
HETATM   40  C13 UNL     1      -6.119   4.552  12.940  1.00  0.00     0.001 A 
HETATM   41  C14 UNL     1      -7.457   4.631  12.552  1.00  0.00     0.000 A 
HETATM   42  C15 UNL     1      -8.292   5.582  13.134  1.00  0.00     0.001 A 
HETATM   43  C16 UNL     1      -7.794   6.452  14.105  1.00  0.00     0.007 A 
ENDBRANCH  37  38
ENDBRANCH  36  37
ENDBRANCH  34  36
ENDBRANCH   4  33
BRANCH  13  44
HETATM   44  O5  UNL     1      -5.476  13.077  19.365  1.00  0.00    -0.389 OA
HETATM   45  H37 UNL     1      -6.149  12.459  19.029  1.00  0.00     0.210 HD
ENDBRANCH  13  44
BRANCH  10  46
HETATM   46  C23 UNL     1      -6.586  16.035  18.871  1.00  0.00    -0.045 A 
HETATM   47  C24 UNL     1      -7.824  16.337  18.480  1.00  0.00     0.087 A 
HETATM   48  C25 UNL     1      -8.625  16.524  19.686  1.00  0.00     0.283 A 
HETATM   49  O3  UNL     1      -9.797  16.849  19.704  1.00  0.00    -0.260 OA
HETATM   50  O4  UNL     1      -7.850  16.289  20.777  1.00  0.00    -0.314 OA
HETATM   51  C26 UNL     1      -6.529  15.967  20.351  1.00  0.00     0.213 A 
ENDBRANCH  10  46
TORSDOF 11
ENDMDL
MODEL 9
REMARK minimizedAffinity -10.1415596
REMARK CNNscore 0.203064561
REMARK CNNaffinity 6.53277063
REMARK  11 active torsions:
REMARK  status: ('A' for Active; 'I' for Inactive)
REMARK    1  A    between atoms: C3_4  and  O2_5 
REMARK    2  A    between atoms: O2_5  and  C4_6 
REMARK    3  A    between atoms: C7_9  and  C8_10 
REMARK    4  A    between atoms: N1_11  and  C9_13 
REMARK    5  A    between atoms: C9_13  and  C10_14 
REMARK    6  A    between atoms: C10_14  and  C11_15 
REMARK    7  A    between atoms: C22_26  and  C23_27 
REMARK    8  A    between atoms: C29_35  and  O5_36 
REMARK    9  A    between atoms: C33_40  and  O6_41 
REMARK   10  A    between atoms: C36_44  and  O7_45 
REMARK   11  A    between atoms: C37_46  and  O8_47 
ROOT
HETATM    1  C4  UNL     1       1.636   7.925  11.742  1.00  0.00     0.127 C 
HETATM    2  C5  UNL     1       0.226   7.416  11.397  1.00  0.00     0.033 C 
HETATM    3  C6  UNL     1      -0.865   8.151  12.165  1.00  0.00     0.021 C 
HETATM    4  C7  UNL     1      -0.736   8.027  13.728  1.00  0.00     0.026 C 
HETATM    5  C17 UNL     1      -1.217   9.399  14.358  1.00  0.00     0.009 C 
HETATM    6  C18 UNL     1      -2.705   9.717  14.099  1.00  0.00     0.007 C 
HETATM    7  C19 UNL     1      -3.106  11.086  14.642  1.00  0.00     0.013 C 
HETATM    8  C20 UNL     1      -2.849  11.239  16.168  1.00  0.00    -0.005 C 
HETATM    9  C21 UNL     1      -3.868  10.370  16.932  1.00  0.00     0.019 C 
HETATM   10  C22 UNL     1      -2.935  12.764  16.535  1.00  0.00     0.028 C 
HETATM   11  C27 UNL     1      -1.533  13.312  16.183  1.00  0.00     0.013 C 
HETATM   12  C28 UNL     1      -0.589  12.115  16.030  1.00  0.00     0.040 C 
HETATM   13  C29 UNL     1      -1.374  10.874  16.491  1.00  0.00     0.070 C 
HETATM   14  C30 UNL     1      -0.889   9.536  15.863  1.00  0.00     0.026 C 
HETATM   15  C31 UNL     1       0.618   9.332  16.092  1.00  0.00     0.011 C 
HETATM   16  C32 UNL     1       1.062   7.967  15.609  1.00  0.00     0.039 C 
HETATM   17  C33 UNL     1       0.752   7.687  14.130  1.00  0.00     0.073 C 
HETATM   18  C34 UNL     1       1.720   8.441  13.191  1.00  0.00     0.071 C 
ENDROOT
BRANCH   1  19
HETATM   19  O2  UNL     1       2.510   6.814  11.540  1.00  0.00    -0.356 OA
BRANCH  19  20
HETATM   20  C3  UNL     1       3.835   7.096  11.111  1.00  0.00     0.263 C 
HETATM   21  O1  UNL     1       3.774   8.035  10.034  1.00  0.00    -0.354 OA
HETATM   22  C2  UNL     1       3.376   7.500   8.760  1.00  0.00     0.151 C 
HETATM   23  C1  UNL     1       2.394   8.490   8.136  1.00  0.00     0.042 C 
HETATM   24  C37 UNL     1       2.786   6.080   8.817  1.00  0.00     0.175 C 
HETATM   25  C36 UNL     1       3.751   5.132   9.553  1.00  0.00     0.154 C 
HETATM   26  C35 UNL     1       4.558   5.838  10.641  1.00  0.00     0.095 C 
BRANCH  24  27
HETATM   27  O8  UNL     1       2.546   5.562   7.503  1.00  0.00    -0.390 OA
HETATM   28  H51 UNL     1       2.099   4.704   7.636  1.00  0.00     0.210 HD
ENDBRANCH  24  27
BRANCH  25  29
HETATM   29  O7  UNL     1       2.990   4.050  10.119  1.00  0.00    -0.393 OA
HETATM   30  H49 UNL     1       3.625   3.359  10.378  1.00  0.00     0.210 HD
ENDBRANCH  25  29
ENDBRANCH  19  20
ENDBRANCH   1  19
BRANCH  17  31
HETATM   31  O6  UNL     1       0.995   6.277  13.978  1.00  0.00    -0.389 OA
HETATM   32  H43 UNL     1       1.963   6.123  13.909  1.00  0.00     0.210 HD
ENDBRANCH  17  31
BRANCH   4  33
HETATM   33  C8  UNL     1      -1.625   6.878  14.231  1.00  0.00     0.068 C 
HETATM   34  N1  UNL     1      -2.299   6.131  13.422  1.00  0.00    -0.401 N 
ATOM     35  H1  UNL     1      -2.288   6.257  12.411  1.00  0.00     0.158 HD
BRANCH  34  36
HETATM   36  C9  UNL     1      -3.084   5.083  14.087  1.00  0.00     0.123 C 
BRANCH  36  37
HETATM   37  C10 UNL     1      -3.886   4.296  13.045  1.00  0.00     0.058 C 
BRANCH  37  38
HETATM   38  C11 UNL     1      -5.372   4.557  13.100  1.00  0.00    -0.057 A 
HETATM   39  C12 UNL     1      -6.288   3.528  12.841  1.00  0.00     0.007 A 
HETATM   40  C13 UNL     1      -7.661   3.777  12.887  1.00  0.00     0.001 A 
HETATM   41  C14 UNL     1      -8.133   5.055  13.188  1.00  0.00     0.000 A 
HETATM   42  C15 UNL     1      -7.229   6.086  13.437  1.00  0.00     0.001 A 
HETATM   43  C16 UNL     1      -5.856   5.841  13.390  1.00  0.00     0.007 A 
ENDBRANCH  37  38
ENDBRANCH  36  37
ENDBRANCH  34  36
ENDBRANCH   4  33
BRANCH  13  44
HETATM   44  O5  UNL     1      -1.177  10.787  17.908  1.00  0.00    -0.389 OA
HETATM   45  H37 UNL     1      -1.612   9.979  18.233  1.00  0.00     0.210 HD
ENDBRANCH  13  44
BRANCH  10  46
HETATM   46  C23 UNL     1      -3.372  13.112  17.936  1.00  0.00    -0.045 A 
HETATM   47  C24 UNL     1      -4.518  12.835  18.559  1.00  0.00     0.087 A 
HETATM   48  C25 UNL     1      -4.427  13.400  19.902  1.00  0.00     0.283 A 
HETATM   49  O3  UNL     1      -5.313  13.370  20.735  1.00  0.00    -0.260 OA
HETATM   50  O4  UNL     1      -3.206  13.974  20.064  1.00  0.00    -0.314 OA
HETATM   51  C26 UNL     1      -2.461  13.835  18.857  1.00  0.00     0.213 A 
ENDBRANCH  10  46
TORSDOF 11
ENDMDL
