MODEL 1
REMARK minimizedAffinity -8.41981983
REMARK  11 active torsions:
REMARK  status: ('A' for Active; 'I' for Inactive)
REMARK    1  A    between atoms: C4_4  and  C5_5 
REMARK    2  A    between atoms: C5_5  and  C6_6 
REMARK    3  A    between atoms: C6_6  and  C7_7 
REMARK    4  A    between atoms: C9_9  and  C10_10 
REMARK    5  A    between atoms: C10_10  and  C11_11 
REMARK    6  A    between atoms: C11_11  and  C12_12 
REMARK    7  A    between atoms: C14_14  and  C15_15 
REMARK    8  A    between atoms: C15_15  and  C16_16 
REMARK    9  A    between atoms: C16_16  and  O1_17 
REMARK   10  A    between atoms: O1_17  and  C17_18 
REMARK   11  A    between atoms: C23_24  and  O2_25 
ROOT
HETATM    1  C16 UNL     1      -0.915   3.975  11.287  1.00  0.00     0.175 C 
ENDROOT
BRANCH   1   2
HETATM    2  C15 UNL     1      -0.016   4.207  12.516  1.00  0.00     0.054 C 
BRANCH   2   3
HETATM    3  C14 UNL     1       0.979   5.317  12.282  1.00  0.00    -0.022 C 
HETATM    4  C12 UNL     1       0.997   6.541  12.850  1.00  0.00    -0.087 C 
HETATM    5  C13 UNL     1       0.039   6.996  13.920  1.00  0.00     0.043 C 
BRANCH   4   6
HETATM    6  C11 UNL     1       2.038   7.565  12.433  1.00  0.00     0.037 C 
BRANCH   6   7
HETATM    7  C10 UNL     1       1.500   8.559  11.393  1.00  0.00     0.031 C 
BRANCH   7   8
HETATM    8  C9  UNL     1       2.127   8.335  10.038  1.00  0.00    -0.024 C 
HETATM    9  C7  UNL     1       1.494   8.212   8.854  1.00  0.00    -0.087 C 
HETATM   10  C8  UNL     1      -0.004   8.314   8.697  1.00  0.00     0.043 C 
BRANCH   9  11
HETATM   11  C6  UNL     1       2.209   7.969   7.529  1.00  0.00     0.037 C 
BRANCH  11  12
HETATM   12  C5  UNL     1       2.276   6.525   7.007  1.00  0.00     0.031 C 
BRANCH  12  13
HETATM   13  C4  UNL     1       2.890   5.596   8.022  1.00  0.00    -0.024 C 
HETATM   14  C2  UNL     1       3.526   4.432   7.785  1.00  0.00    -0.091 C 
HETATM   15  C1  UNL     1       3.670   3.800   6.428  1.00  0.00     0.042 C 
HETATM   16  C3  UNL     1       4.143   3.649   8.914  1.00  0.00     0.042 C 
ENDBRANCH  12  13
ENDBRANCH  11  12
ENDBRANCH   9  11
ENDBRANCH   7   8
ENDBRANCH   6   7
ENDBRANCH   4   6
ENDBRANCH   2   3
ENDBRANCH   1   2
BRANCH   1  17
HETATM   17  O1  UNL     1      -1.807   2.878  11.501  1.00  0.00    -0.355 OA
BRANCH  17  18
HETATM   18  C17 UNL     1      -3.215   3.184  11.407  1.00  0.00     0.166 C 
HETATM   19  C18 UNL     1      -3.393   3.703   9.971  1.00  0.00     0.079 C 
HETATM   20  C19 UNL     1      -3.956   1.868  11.662  1.00  0.00     0.073 C 
HETATM   21  C20 UNL     1      -5.458   2.055  11.553  1.00  0.00     0.047 C 
HETATM   22  C21 UNL     1      -5.886   3.301  12.269  1.00  0.00    -0.021 A 
HETATM   23  C22 UNL     1      -7.240   3.493  12.572  1.00  0.00     0.046 A 
HETATM   24  C27 UNL     1      -4.962   4.299  12.608  1.00  0.00     0.085 A 
HETATM   25  C23 UNL     1      -7.651   4.649  13.222  1.00  0.00     0.066 A 
HETATM   26  C24 UNL     1      -6.734   5.628  13.595  1.00  0.00     0.046 A 
HETATM   27  C25 UNL     1      -5.375   5.457  13.293  1.00  0.00    -0.025 A 
HETATM   28  C26 UNL     1      -4.378   6.513  13.687  1.00  0.00     0.051 C 
HETATM   29  O3  UNL     1      -3.626   4.214  12.317  1.00  0.00    -0.314 OA
BRANCH  25  30
HETATM   30  O2  UNL     1      -8.987   4.792  13.474  1.00  0.00    -0.361 OA
HETATM   31  H36 UNL     1      -9.124   5.659  13.894  1.00  0.00     0.217 HD
ENDBRANCH  25  30
ENDBRANCH  17  18
ENDBRANCH   1  17
TORSDOF 11
ENDMDL
MODEL 2
REMARK minimizedAffinity -8.33537388
REMARK  11 active torsions:
REMARK  status: ('A' for Active; 'I' for Inactive)
REMARK    1  A    between atoms: C4_4  and  C5_5 
REMARK    2  A    between atoms: C5_5  and  C6_6 
REMARK    3  A    between atoms: C6_6  and  C7_7 
REMARK    4  A    between atoms: C9_9  and  C10_10 
REMARK    5  A    between atoms: C10_10  and  C11_11 
REMARK    6  A    between atoms: C11_11  and  C12_12 
REMARK    7  A    between atoms: C14_14  and  C15_15 
REMARK    8  A    between atoms: C15_15  and  C16_16 
REMARK    9  A    between atoms: C16_16  and  O1_17 
REMARK   10  A    between atoms: O1_17  and  C17_18 
REMARK   11  A    between atoms: C23_24  and  O2_25 
ROOT
HETATM    1  C16 UNL     1      -0.947   4.371  12.523  1.00  0.00     0.175 C 
ENDROOT
BRANCH   1   2
HETATM    2  C15 UNL     1       0.168   5.189  11.846  1.00  0.00     0.054 C 
BRANCH   2   3
HETATM    3  C14 UNL     1       1.104   5.807  12.856  1.00  0.00    -0.022 C 
HETATM    4  C12 UNL     1       0.971   6.994  13.483  1.00  0.00    -0.087 C 
HETATM    5  C13 UNL     1      -0.222   7.901  13.343  1.00  0.00     0.043 C 
BRANCH   4   6
HETATM    6  C11 UNL     1       2.061   7.493  14.416  1.00  0.00     0.037 C 
BRANCH   6   7
HETATM    7  C10 UNL     1       3.103   8.357  13.693  1.00  0.00     0.031 C 
BRANCH   7   8
HETATM    8  C9  UNL     1       3.121   8.077  12.210  1.00  0.00    -0.024 C 
HETATM    9  C7  UNL     1       4.113   7.507  11.496  1.00  0.00    -0.087 C 
HETATM   10  C8  UNL     1       5.400   7.011  12.110  1.00  0.00     0.043 C 
BRANCH   9  11
HETATM   11  C6  UNL     1       4.052   7.277   9.989  1.00  0.00     0.037 C 
BRANCH  11  12
HETATM   12  C5  UNL     1       3.469   5.945   9.492  1.00  0.00     0.031 C 
BRANCH  12  13
HETATM   13  C4  UNL     1       2.572   6.144   8.298  1.00  0.00    -0.024 C 
HETATM   14  C2  UNL     1       2.393   7.277   7.591  1.00  0.00    -0.091 C 
HETATM   15  C1  UNL     1       3.019   8.602   7.929  1.00  0.00     0.042 C 
HETATM   16  C3  UNL     1       1.502   7.292   6.376  1.00  0.00     0.042 C 
ENDBRANCH  12  13
ENDBRANCH  11  12
ENDBRANCH   9  11
ENDBRANCH   7   8
ENDBRANCH   6   7
ENDBRANCH   4   6
ENDBRANCH   2   3
ENDBRANCH   1   2
BRANCH   1  17
HETATM   17  O1  UNL     1      -1.423   3.334  11.660  1.00  0.00    -0.355 OA
BRANCH  17  18
HETATM   18  C17 UNL     1      -2.852   3.285  11.465  1.00  0.00     0.166 C 
HETATM   19  C18 UNL     1      -3.050   3.733  10.008  1.00  0.00     0.079 C 
HETATM   20  C19 UNL     1      -3.266   1.830  11.703  1.00  0.00     0.073 C 
HETATM   21  C20 UNL     1      -4.757   1.642  11.491  1.00  0.00     0.047 C 
HETATM   22  C21 UNL     1      -5.525   2.750  12.145  1.00  0.00    -0.021 A 
HETATM   23  C22 UNL     1      -6.903   2.607  12.353  1.00  0.00     0.046 A 
HETATM   24  C27 UNL     1      -4.898   3.948  12.520  1.00  0.00     0.085 A 
HETATM   25  C23 UNL     1      -7.629   3.632  12.945  1.00  0.00     0.066 A 
HETATM   26  C24 UNL     1      -7.007   4.809  13.353  1.00  0.00     0.046 A 
HETATM   27  C25 UNL     1      -5.629   4.975  13.146  1.00  0.00    -0.025 A 
HETATM   28  C26 UNL     1      -4.950   6.246  13.578  1.00  0.00     0.051 C 
HETATM   29  O3  UNL     1      -3.565   4.190  12.319  1.00  0.00    -0.314 OA
BRANCH  25  30
HETATM   30  O2  UNL     1      -8.973   3.445  13.104  1.00  0.00    -0.361 OA
HETATM   31  H36 UNL     1      -9.347   4.255  13.492  1.00  0.00     0.217 HD
ENDBRANCH  25  30
ENDBRANCH  17  18
ENDBRANCH   1  17
TORSDOF 11
ENDMDL
MODEL 3
REMARK minimizedAffinity -8.28339291
REMARK  11 active torsions:
REMARK  status: ('A' for Active; 'I' for Inactive)
REMARK    1  A    between atoms: C4_4  and  C5_5 
REMARK    2  A    between atoms: C5_5  and  C6_6 
REMARK    3  A    between atoms: C6_6  and  C7_7 
REMARK    4  A    between atoms: C9_9  and  C10_10 
REMARK    5  A    between atoms: C10_10  and  C11_11 
REMARK    6  A    between atoms: C11_11  and  C12_12 
REMARK    7  A    between atoms: C14_14  and  C15_15 
REMARK    8  A    between atoms: C15_15  and  C16_16 
REMARK    9  A    between atoms: C16_16  and  O1_17 
REMARK   10  A    between atoms: O1_17  and  C17_18 
REMARK   11  A    between atoms: C23_24  and  O2_25 
ROOT
HETATM    1  C16 UNL     1      -2.377   7.535  15.957  1.00  0.00     0.175 C 
ENDROOT
BRANCH   1   2
HETATM    2  C15 UNL     1      -1.766   8.941  15.812  1.00  0.00     0.054 C 
BRANCH   2   3
HETATM    3  C14 UNL     1      -1.843   9.723  17.101  1.00  0.00    -0.022 C 
HETATM    4  C12 UNL     1      -0.902  10.532  17.631  1.00  0.00    -0.087 C 
HETATM    5  C13 UNL     1       0.402  10.873  16.959  1.00  0.00     0.043 C 
BRANCH   4   6
HETATM    6  C11 UNL     1      -1.124  11.180  18.985  1.00  0.00     0.037 C 
BRANCH   6   7
HETATM    7  C10 UNL     1       0.163  11.783  19.566  1.00  0.00     0.031 C 
BRANCH   7   8
HETATM    8  C9  UNL     1       0.859  10.815  20.491  1.00  0.00    -0.024 C 
HETATM    9  C7  UNL     1       2.173  10.512  20.523  1.00  0.00    -0.087 C 
HETATM   10  C8  UNL     1       3.195  11.152  19.614  1.00  0.00     0.043 C 
BRANCH   9  11
HETATM   11  C6  UNL     1       2.791   9.503  21.485  1.00  0.00     0.037 C 
BRANCH  11  12
HETATM   12  C5  UNL     1       3.165   9.995  22.892  1.00  0.00     0.031 C 
BRANCH  12  13
HETATM   13  C4  UNL     1       4.608  10.426  22.962  1.00  0.00    -0.024 C 
HETATM   14  C2  UNL     1       5.087  11.685  22.941  1.00  0.00    -0.091 C 
HETATM   15  C1  UNL     1       4.241  12.916  22.761  1.00  0.00     0.042 C 
HETATM   16  C3  UNL     1       6.563  11.949  23.085  1.00  0.00     0.042 C 
ENDBRANCH  12  13
ENDBRANCH  11  12
ENDBRANCH   9  11
ENDBRANCH   7   8
ENDBRANCH   6   7
ENDBRANCH   4   6
ENDBRANCH   2   3
ENDBRANCH   1   2
BRANCH   1  17
HETATM   17  O1  UNL     1      -3.711   7.496  15.444  1.00  0.00    -0.355 OA
BRANCH  17  18
HETATM   18  C17 UNL     1      -3.889   6.771  14.209  1.00  0.00     0.166 C 
HETATM   19  C18 UNL     1      -4.034   7.870  13.144  1.00  0.00     0.079 C 
HETATM   20  C19 UNL     1      -2.627   5.923  14.024  1.00  0.00     0.073 C 
HETATM   21  C20 UNL     1      -2.680   5.135  12.729  1.00  0.00     0.047 C 
HETATM   22  C21 UNL     1      -4.030   4.508  12.551  1.00  0.00    -0.021 A 
HETATM   23  C22 UNL     1      -4.198   3.486  11.608  1.00  0.00     0.046 A 
HETATM   24  C27 UNL     1      -5.141   4.950  13.283  1.00  0.00     0.085 A 
HETATM   25  C23 UNL     1      -5.446   2.906  11.423  1.00  0.00     0.066 A 
HETATM   26  C24 UNL     1      -6.546   3.316  12.172  1.00  0.00     0.046 A 
HETATM   27  C25 UNL     1      -6.400   4.342  13.116  1.00  0.00    -0.025 A 
HETATM   28  C26 UNL     1      -7.584   4.795  13.926  1.00  0.00     0.051 C 
HETATM   29  O3  UNL     1      -5.078   5.969  14.198  1.00  0.00    -0.314 OA
BRANCH  25  30
HETATM   30  O2  UNL     1      -5.555   1.928  10.474  1.00  0.00    -0.361 OA
HETATM   31  H36 UNL     1      -6.486   1.649  10.433  1.00  0.00     0.217 HD
ENDBRANCH  25  30
ENDBRANCH  17  18
ENDBRANCH   1  17
TORSDOF 11
ENDMDL
MODEL 4
REMARK minimizedAffinity -8.23875713
REMARK  11 active torsions:
REMARK  status: ('A' for Active; 'I' for Inactive)
REMARK    1  A    between atoms: C4_4  and  C5_5 
REMARK    2  A    between atoms: C5_5  and  C6_6 
REMARK    3  A    between atoms: C6_6  and  C7_7 
REMARK    4  A    between atoms: C9_9  and  C10_10 
REMARK    5  A    between atoms: C10_10  and  C11_11 
REMARK    6  A    between atoms: C11_11  and  C12_12 
REMARK    7  A    between atoms: C14_14  and  C15_15 
REMARK    8  A    between atoms: C15_15  and  C16_16 
REMARK    9  A    between atoms: C16_16  and  O1_17 
REMARK   10  A    between atoms: O1_17  and  C17_18 
REMARK   11  A    between atoms: C23_24  and  O2_25 
ROOT
HETATM    1  C16 UNL     1      -1.549   8.130  12.895  1.00  0.00     0.175 C 
ENDROOT
BRANCH   1   2
HETATM    2  C15 UNL     1      -0.923   8.827  11.673  1.00  0.00     0.054 C 
BRANCH   2   3
HETATM    3  C14 UNL     1       0.192   8.009  11.069  1.00  0.00    -0.022 C 
HETATM    4  C12 UNL     1       0.488   7.860   9.761  1.00  0.00    -0.087 C 
HETATM    5  C13 UNL     1      -0.216   8.581   8.642  1.00  0.00     0.043 C 
BRANCH   4   6
HETATM    6  C11 UNL     1       1.607   6.928   9.331  1.00  0.00     0.037 C 
BRANCH   6   7
HETATM    7  C10 UNL     1       2.742   7.667   8.607  1.00  0.00     0.031 C 
BRANCH   7   8
HETATM    8  C9  UNL     1       3.823   8.099   9.567  1.00  0.00    -0.024 C 
HETATM    9  C7  UNL     1       4.558   7.313  10.380  1.00  0.00    -0.087 C 
HETATM   10  C8  UNL     1       4.422   5.810  10.428  1.00  0.00     0.043 C 
BRANCH   9  11
HETATM   11  C6  UNL     1       5.623   7.839  11.337  1.00  0.00     0.037 C 
BRANCH  11  12
HETATM   12  C5  UNL     1       6.335   6.822  12.242  1.00  0.00     0.031 C 
BRANCH  12  13
HETATM   13  C4  UNL     1       7.106   7.504  13.342  1.00  0.00    -0.024 C 
HETATM   14  C2  UNL     1       6.646   7.880  14.551  1.00  0.00    -0.091 C 
HETATM   15  C1  UNL     1       5.216   7.747  14.999  1.00  0.00     0.042 C 
HETATM   16  C3  UNL     1       7.570   8.499  15.567  1.00  0.00     0.042 C 
ENDBRANCH  12  13
ENDBRANCH  11  12
ENDBRANCH   9  11
ENDBRANCH   7   8
ENDBRANCH   6   7
ENDBRANCH   4   6
ENDBRANCH   2   3
ENDBRANCH   1   2
BRANCH   1  17
HETATM   17  O1  UNL     1      -1.785   6.744  12.634  1.00  0.00    -0.355 OA
BRANCH  17  18
HETATM   18  C17 UNL     1      -2.986   6.191  13.212  1.00  0.00     0.166 C 
HETATM   19  C18 UNL     1      -2.555   5.734  14.615  1.00  0.00     0.079 C 
HETATM   20  C19 UNL     1      -4.010   7.330  13.244  1.00  0.00     0.073 C 
HETATM   21  C20 UNL     1      -5.316   6.877  13.869  1.00  0.00     0.047 C 
HETATM   22  C21 UNL     1      -5.714   5.534  13.338  1.00  0.00    -0.021 A 
HETATM   23  C22 UNL     1      -7.026   5.078  13.525  1.00  0.00     0.046 A 
HETATM   24  C27 UNL     1      -4.790   4.704  12.688  1.00  0.00     0.085 A 
HETATM   25  C23 UNL     1      -7.405   3.830  13.050  1.00  0.00     0.066 A 
HETATM   26  C24 UNL     1      -6.501   3.015  12.372  1.00  0.00     0.046 A 
HETATM   27  C25 UNL     1      -5.182   3.451  12.180  1.00  0.00    -0.025 A 
HETATM   28  C26 UNL     1      -4.198   2.575  11.454  1.00  0.00     0.051 C 
HETATM   29  O3  UNL     1      -3.479   5.051  12.494  1.00  0.00    -0.314 OA
BRANCH  25  30
HETATM   30  O2  UNL     1      -8.691   3.428  13.280  1.00  0.00    -0.361 OA
HETATM   31  H36 UNL     1      -8.795   2.528  12.927  1.00  0.00     0.217 HD
ENDBRANCH  25  30
ENDBRANCH  17  18
ENDBRANCH   1  17
TORSDOF 11
ENDMDL
MODEL 5
REMARK minimizedAffinity -8.09528637
REMARK  11 active torsions:
REMARK  status: ('A' for Active; 'I' for Inactive)
REMARK    1  A    between atoms: C4_4  and  C5_5 
REMARK    2  A    between atoms: C5_5  and  C6_6 
REMARK    3  A    between atoms: C6_6  and  C7_7 
REMARK    4  A    between atoms: C9_9  and  C10_10 
REMARK    5  A    between atoms: C10_10  and  C11_11 
REMARK    6  A    between atoms: C11_11  and  C12_12 
REMARK    7  A    between atoms: C14_14  and  C15_15 
REMARK    8  A    between atoms: C15_15  and  C16_16 
REMARK    9  A    between atoms: C16_16  and  O1_17 
REMARK   10  A    between atoms: O1_17  and  C17_18 
REMARK   11  A    between atoms: C23_24  and  O2_25 
ROOT
HETATM    1  C16 UNL     1      -9.440   6.580  13.464  1.00  0.00     0.175 C 
ENDROOT
BRANCH   1   2
HETATM    2  C15 UNL     1     -10.482   7.287  14.351  1.00  0.00     0.054 C 
BRANCH   2   3
HETATM    3  C14 UNL     1     -11.894   6.926  13.956  1.00  0.00    -0.022 C 
HETATM    4  C12 UNL     1     -12.765   7.670  13.243  1.00  0.00    -0.087 C 
HETATM    5  C13 UNL     1     -12.437   9.001  12.622  1.00  0.00     0.043 C 
BRANCH   4   6
HETATM    6  C11 UNL     1     -14.181   7.174  13.008  1.00  0.00     0.037 C 
BRANCH   6   7
HETATM    7  C10 UNL     1     -14.863   6.706  14.302  1.00  0.00     0.031 C 
BRANCH   7   8
HETATM    8  C9  UNL     1     -14.705   5.219  14.504  1.00  0.00    -0.024 C 
HETATM    9  C7  UNL     1     -15.685   4.305  14.659  1.00  0.00    -0.087 C 
HETATM   10  C8  UNL     1     -17.154   4.648  14.619  1.00  0.00     0.043 C 
BRANCH   9  11
HETATM   11  C6  UNL     1     -15.433   2.817  14.877  1.00  0.00     0.037 C 
BRANCH  11  12
HETATM   12  C5  UNL     1     -16.400   1.824  14.213  1.00  0.00     0.031 C 
BRANCH  12  13
HETATM   13  C4  UNL     1     -15.669   0.639  13.638  1.00  0.00    -0.024 C 
HETATM   14  C2  UNL     1     -16.023  -0.100  12.568  1.00  0.00    -0.091 C 
HETATM   15  C1  UNL     1     -17.291   0.091  11.782  1.00  0.00     0.042 C 
HETATM   16  C3  UNL     1     -15.143  -1.221  12.082  1.00  0.00     0.042 C 
ENDBRANCH  12  13
ENDBRANCH  11  12
ENDBRANCH   9  11
ENDBRANCH   7   8
ENDBRANCH   6   7
ENDBRANCH   4   6
ENDBRANCH   2   3
ENDBRANCH   1   2
BRANCH   1  17
HETATM   17  O1  UNL     1      -8.161   6.545  14.101  1.00  0.00    -0.355 OA
BRANCH  17  18
HETATM   18  C17 UNL     1      -7.398   5.333  13.913  1.00  0.00     0.166 C 
HETATM   19  C18 UNL     1      -7.349   4.698  15.312  1.00  0.00     0.079 C 
HETATM   20  C19 UNL     1      -8.179   4.489  12.901  1.00  0.00     0.073 C 
HETATM   21  C20 UNL     1      -7.489   3.161  12.646  1.00  0.00     0.047 C 
HETATM   22  C21 UNL     1      -6.015   3.362  12.468  1.00  0.00    -0.021 A 
HETATM   23  C22 UNL     1      -5.242   2.337  11.907  1.00  0.00     0.046 A 
HETATM   24  C27 UNL     1      -5.384   4.542  12.886  1.00  0.00     0.085 A 
HETATM   25  C23 UNL     1      -3.872   2.504  11.749  1.00  0.00     0.066 A 
HETATM   26  C24 UNL     1      -3.245   3.687  12.129  1.00  0.00     0.046 A 
HETATM   27  C25 UNL     1      -4.000   4.722  12.698  1.00  0.00    -0.025 A 
HETATM   28  C26 UNL     1      -3.330   6.002  13.117  1.00  0.00     0.051 C 
HETATM   29  O3  UNL     1      -6.054   5.580  13.478  1.00  0.00    -0.314 OA
BRANCH  25  30
HETATM   30  O2  UNL     1      -3.165   1.462  11.216  1.00  0.00    -0.361 OA
HETATM   31  H36 UNL     1      -2.225   1.710  11.204  1.00  0.00     0.217 HD
ENDBRANCH  25  30
ENDBRANCH  17  18
ENDBRANCH   1  17
TORSDOF 11
ENDMDL
MODEL 6
REMARK minimizedAffinity -8.05032539
REMARK  11 active torsions:
REMARK  status: ('A' for Active; 'I' for Inactive)
REMARK    1  A    between atoms: C4_4  and  C5_5 
REMARK    2  A    between atoms: C5_5  and  C6_6 
REMARK    3  A    between atoms: C6_6  and  C7_7 
REMARK    4  A    between atoms: C9_9  and  C10_10 
REMARK    5  A    between atoms: C10_10  and  C11_11 
REMARK    6  A    between atoms: C11_11  and  C12_12 
REMARK    7  A    between atoms: C14_14  and  C15_15 
REMARK    8  A    between atoms: C15_15  and  C16_16 
REMARK    9  A    between atoms: C16_16  and  O1_17 
REMARK   10  A    between atoms: O1_17  and  C17_18 
REMARK   11  A    between atoms: C23_24  and  O2_25 
ROOT
HETATM    1  C16 UNL     1      -5.982   8.049  15.587  1.00  0.00     0.175 C 
ENDROOT
BRANCH   1   2
HETATM    2  C15 UNL     1      -5.152   9.265  15.137  1.00  0.00     0.054 C 
BRANCH   2   3
HETATM    3  C14 UNL     1      -4.387   8.985  13.867  1.00  0.00    -0.022 C 
HETATM    4  C12 UNL     1      -3.117   8.541  13.751  1.00  0.00    -0.087 C 
HETATM    5  C13 UNL     1      -2.243   8.154  14.914  1.00  0.00     0.043 C 
BRANCH   4   6
HETATM    6  C11 UNL     1      -2.481   8.390  12.381  1.00  0.00     0.037 C 
BRANCH   6   7
HETATM    7  C10 UNL     1      -0.977   8.697  12.395  1.00  0.00     0.031 C 
BRANCH   7   8
HETATM    8  C9  UNL     1      -0.416   8.780  10.996  1.00  0.00    -0.024 C 
HETATM    9  C7  UNL     1       0.102   7.775  10.261  1.00  0.00    -0.087 C 
HETATM   10  C8  UNL     1       0.173   6.345  10.740  1.00  0.00     0.043 C 
BRANCH   9  11
HETATM   11  C6  UNL     1       0.665   7.954   8.855  1.00  0.00     0.037 C 
BRANCH  11  12
HETATM   12  C5  UNL     1       1.998   7.262   8.526  1.00  0.00     0.031 C 
BRANCH  12  13
HETATM   13  C4  UNL     1       3.174   8.057   9.032  1.00  0.00    -0.024 C 
HETATM   14  C2  UNL     1       3.999   7.738  10.049  1.00  0.00    -0.091 C 
HETATM   15  C1  UNL     1       3.836   6.532  10.933  1.00  0.00     0.042 C 
HETATM   16  C3  UNL     1       5.174   8.617  10.390  1.00  0.00     0.042 C 
ENDBRANCH  12  13
ENDBRANCH  11  12
ENDBRANCH   9  11
ENDBRANCH   7   8
ENDBRANCH   6   7
ENDBRANCH   4   6
ENDBRANCH   2   3
ENDBRANCH   1   2
BRANCH   1  17
HETATM   17  O1  UNL     1      -6.871   7.619  14.553  1.00  0.00    -0.355 OA
BRANCH  17  18
HETATM   18  C17 UNL     1      -6.837   6.210  14.240  1.00  0.00     0.166 C 
HETATM   19  C18 UNL     1      -7.020   5.517  15.600  1.00  0.00     0.079 C 
HETATM   20  C19 UNL     1      -8.003   5.957  13.279  1.00  0.00     0.073 C 
HETATM   21  C20 UNL     1      -8.095   4.490  12.902  1.00  0.00     0.047 C 
HETATM   22  C21 UNL     1      -6.737   3.944  12.583  1.00  0.00    -0.021 A 
HETATM   23  C22 UNL     1      -6.625   2.722  11.906  1.00  0.00     0.046 A 
HETATM   24  C27 UNL     1      -5.570   4.612  12.983  1.00  0.00     0.085 A 
HETATM   25  C23 UNL     1      -5.373   2.198  11.617  1.00  0.00     0.066 A 
HETATM   26  C24 UNL     1      -4.210   2.874  11.979  1.00  0.00     0.046 A 
HETATM   27  C25 UNL     1      -4.301   4.094  12.663  1.00  0.00    -0.025 A 
HETATM   28  C26 UNL     1      -3.050   4.828  13.063  1.00  0.00     0.051 C 
HETATM   29  O3  UNL     1      -5.584   5.790  13.681  1.00  0.00    -0.314 OA
BRANCH  25  30
HETATM   30  O2  UNL     1      -5.324   0.993  10.974  1.00  0.00    -0.361 OA
HETATM   31  H36 UNL     1      -4.390   0.739  10.876  1.00  0.00     0.217 HD
ENDBRANCH  25  30
ENDBRANCH  17  18
ENDBRANCH   1  17
TORSDOF 11
ENDMDL
MODEL 7
REMARK minimizedAffinity -7.93940163
REMARK  11 active torsions:
REMARK  status: ('A' for Active; 'I' for Inactive)
REMARK    1  A    between atoms: C4_4  and  C5_5 
REMARK    2  A    between atoms: C5_5  and  C6_6 
REMARK    3  A    between atoms: C6_6  and  C7_7 
REMARK    4  A    between atoms: C9_9  and  C10_10 
REMARK    5  A    between atoms: C10_10  and  C11_11 
REMARK    6  A    between atoms: C11_11  and  C12_12 
REMARK    7  A    between atoms: C14_14  and  C15_15 
REMARK    8  A    between atoms: C15_15  and  C16_16 
REMARK    9  A    between atoms: C16_16  and  O1_17 
REMARK   10  A    between atoms: O1_17  and  C17_18 
REMARK   11  A    between atoms: C23_24  and  O2_25 
ROOT
HETATM    1  C16 UNL     1      -3.798   8.502  12.799  1.00  0.00     0.175 C 
ENDROOT
BRANCH   1   2
HETATM    2  C15 UNL     1      -2.353   9.032  12.852  1.00  0.00     0.054 C 
BRANCH   2   3
HETATM    3  C14 UNL     1      -1.389   7.989  13.363  1.00  0.00    -0.022 C 
HETATM    4  C12 UNL     1      -0.324   8.177  14.169  1.00  0.00    -0.087 C 
HETATM    5  C13 UNL     1       0.051   9.497  14.790  1.00  0.00     0.043 C 
BRANCH   4   6
HETATM    6  C11 UNL     1       0.586   7.013  14.519  1.00  0.00     0.037 C 
BRANCH   6   7
HETATM    7  C10 UNL     1       0.948   6.161  13.294  1.00  0.00     0.031 C 
BRANCH   7   8
HETATM    8  C9  UNL     1       2.104   6.756  12.528  1.00  0.00    -0.024 C 
HETATM    9  C7  UNL     1       2.653   6.296  11.386  1.00  0.00    -0.087 C 
HETATM   10  C8  UNL     1       2.147   5.077  10.653  1.00  0.00     0.043 C 
BRANCH   9  11
HETATM   11  C6  UNL     1       3.837   6.955  10.686  1.00  0.00     0.037 C 
BRANCH  11  12
HETATM   12  C5  UNL     1       3.546   8.144   9.757  1.00  0.00     0.031 C 
BRANCH  12  13
HETATM   13  C4  UNL     1       3.131   7.686   8.383  1.00  0.00    -0.024 C 
HETATM   14  C2  UNL     1       1.896   7.729   7.846  1.00  0.00    -0.091 C 
HETATM   15  C1  UNL     1       0.663   8.186   8.576  1.00  0.00     0.042 C 
HETATM   16  C3  UNL     1       1.659   7.285   6.426  1.00  0.00     0.042 C 
ENDBRANCH  12  13
ENDBRANCH  11  12
ENDBRANCH   9  11
ENDBRANCH   7   8
ENDBRANCH   6   7
ENDBRANCH   4   6
ENDBRANCH   2   3
ENDBRANCH   1   2
BRANCH   1  17
HETATM   17  O1  UNL     1      -4.194   7.958  14.060  1.00  0.00    -0.355 OA
BRANCH  17  18
HETATM   18  C17 UNL     1      -4.739   6.622  14.026  1.00  0.00     0.166 C 
HETATM   19  C18 UNL     1      -4.452   6.061  15.428  1.00  0.00     0.079 C 
HETATM   20  C19 UNL     1      -6.235   6.777  13.739  1.00  0.00     0.073 C 
HETATM   21  C20 UNL     1      -6.932   5.429  13.714  1.00  0.00     0.047 C 
HETATM   22  C21 UNL     1      -6.124   4.435  12.935  1.00  0.00    -0.021 A 
HETATM   23  C22 UNL     1      -6.721   3.241  12.512  1.00  0.00     0.046 A 
HETATM   24  C27 UNL     1      -4.769   4.659  12.652  1.00  0.00     0.085 A 
HETATM   25  C23 UNL     1      -5.981   2.305  11.801  1.00  0.00     0.066 A 
HETATM   26  C24 UNL     1      -4.644   2.537  11.485  1.00  0.00     0.046 A 
HETATM   27  C25 UNL     1      -4.027   3.724  11.907  1.00  0.00    -0.025 A 
HETATM   28  C26 UNL     1      -2.582   3.980  11.575  1.00  0.00     0.051 C 
HETATM   29  O3  UNL     1      -4.095   5.780  13.059  1.00  0.00    -0.314 OA
BRANCH  25  30
HETATM   30  O2  UNL     1      -6.608   1.148  11.432  1.00  0.00    -0.361 OA
HETATM   31  H36 UNL     1      -5.959   0.582  10.981  1.00  0.00     0.217 HD
ENDBRANCH  25  30
ENDBRANCH  17  18
ENDBRANCH   1  17
TORSDOF 11
ENDMDL
MODEL 8
REMARK minimizedAffinity -7.84017038
REMARK  11 active torsions:
REMARK  status: ('A' for Active; 'I' for Inactive)
REMARK    1  A    between atoms: C4_4  and  C5_5 
REMARK    2  A    between atoms: C5_5  and  C6_6 
REMARK    3  A    between atoms: C6_6  and  C7_7 
REMARK    4  A    between atoms: C9_9  and  C10_10 
REMARK    5  A    between atoms: C10_10  and  C11_11 
REMARK    6  A    between atoms: C11_11  and  C12_12 
REMARK    7  A    between atoms: C14_14  and  C15_15 
REMARK    8  A    between atoms: C15_15  and  C16_16 
REMARK    9  A    between atoms: C16_16  and  O1_17 
REMARK   10  A    between atoms: O1_17  and  C17_18 
REMARK   11  A    between atoms: C23_24  and  O2_25 
ROOT
HETATM    1  C16 UNL     1      -1.088   6.836  14.226  1.00  0.00     0.175 C 
ENDROOT
BRANCH   1   2
HETATM    2  C15 UNL     1      -0.823   8.330  14.490  1.00  0.00     0.054 C 
BRANCH   2   3
HETATM    3  C14 UNL     1      -1.462   8.795  15.776  1.00  0.00    -0.022 C 
HETATM    4  C12 UNL     1      -2.582   9.535  15.917  1.00  0.00    -0.087 C 
HETATM    5  C13 UNL     1      -3.466   9.965  14.777  1.00  0.00     0.043 C 
BRANCH   4   6
HETATM    6  C11 UNL     1      -3.037   9.979  17.296  1.00  0.00     0.037 C 
BRANCH   6   7
HETATM    7  C10 UNL     1      -2.233  11.176  17.822  1.00  0.00     0.031 C 
BRANCH   7   8
HETATM    8  C9  UNL     1      -1.274  10.763  18.911  1.00  0.00    -0.024 C 
HETATM    9  C7  UNL     1      -0.152  11.403  19.301  1.00  0.00    -0.087 C 
HETATM   10  C8  UNL     1       0.314  12.705  18.697  1.00  0.00     0.043 C 
BRANCH   9  11
HETATM   11  C6  UNL     1       0.773  10.901  20.405  1.00  0.00     0.037 C 
BRANCH  11  12
HETATM   12  C5  UNL     1       2.157  10.374  19.992  1.00  0.00     0.031 C 
BRANCH  12  13
HETATM   13  C4  UNL     1       3.142  10.457  21.130  1.00  0.00    -0.024 C 
HETATM   14  C2  UNL     1       3.228   9.640  22.198  1.00  0.00    -0.091 C 
HETATM   15  C1  UNL     1       2.275   8.513  22.488  1.00  0.00     0.042 C 
HETATM   16  C3  UNL     1       4.318   9.823  23.221  1.00  0.00     0.042 C 
ENDBRANCH  12  13
ENDBRANCH  11  12
ENDBRANCH   9  11
ENDBRANCH   7   8
ENDBRANCH   6   7
ENDBRANCH   4   6
ENDBRANCH   2   3
ENDBRANCH   1   2
BRANCH   1  17
HETATM   17  O1  UNL     1      -2.040   6.660  13.174  1.00  0.00    -0.355 OA
BRANCH  17  18
HETATM   18  C17 UNL     1      -3.209   5.881  13.508  1.00  0.00     0.166 C 
HETATM   19  C18 UNL     1      -2.983   5.470  14.972  1.00  0.00     0.079 C 
HETATM   20  C19 UNL     1      -4.410   6.815  13.329  1.00  0.00     0.073 C 
HETATM   21  C20 UNL     1      -5.708   6.115  13.688  1.00  0.00     0.047 C 
HETATM   22  C21 UNL     1      -5.742   4.737  13.098  1.00  0.00    -0.021 A 
HETATM   23  C22 UNL     1      -6.958   4.047  13.027  1.00  0.00     0.046 A 
HETATM   24  C27 UNL     1      -4.572   4.108  12.650  1.00  0.00     0.085 A 
HETATM   25  C23 UNL     1      -7.002   2.764  12.496  1.00  0.00     0.066 A 
HETATM   26  C24 UNL     1      -5.850   2.147  12.015  1.00  0.00     0.046 A 
HETATM   27  C25 UNL     1      -4.621   2.819  12.084  1.00  0.00    -0.025 A 
HETATM   28  C26 UNL     1      -3.371   2.158  11.573  1.00  0.00     0.051 C 
HETATM   29  O3  UNL     1      -3.334   4.692  12.716  1.00  0.00    -0.314 OA
BRANCH  25  30
HETATM   30  O2  UNL     1      -8.212   2.130  12.471  1.00  0.00    -0.361 OA
HETATM   31  H36 UNL     1      -8.078   1.236  12.111  1.00  0.00     0.217 HD
ENDBRANCH  25  30
ENDBRANCH  17  18
ENDBRANCH   1  17
TORSDOF 11
ENDMDL
MODEL 9
REMARK minimizedAffinity -7.83303499
REMARK  11 active torsions:
REMARK  status: ('A' for Active; 'I' for Inactive)
REMARK    1  A    between atoms: C4_4  and  C5_5 
REMARK    2  A    between atoms: C5_5  and  C6_6 
REMARK    3  A    between atoms: C6_6  and  C7_7 
REMARK    4  A    between atoms: C9_9  and  C10_10 
REMARK    5  A    between atoms: C10_10  and  C11_11 
REMARK    6  A    between atoms: C11_11  and  C12_12 
REMARK    7  A    between atoms: C14_14  and  C15_15 
REMARK    8  A    between atoms: C15_15  and  C16_16 
REMARK    9  A    between atoms: C16_16  and  O1_17 
REMARK   10  A    between atoms: O1_17  and  C17_18 
REMARK   11  A    between atoms: C23_24  and  O2_25 
ROOT
HETATM    1  C16 UNL     1      -2.697   3.657  10.860  1.00  0.00     0.175 C 
ENDROOT
BRANCH   1   2
HETATM    2  C15 UNL     1      -3.308   2.837  12.011  1.00  0.00     0.054 C 
BRANCH   2   3
HETATM    3  C14 UNL     1      -4.653   3.378  12.435  1.00  0.00    -0.022 C 
HETATM    4  C12 UNL     1      -5.872   2.938  12.060  1.00  0.00    -0.087 C 
HETATM    5  C13 UNL     1      -6.111   1.732  11.190  1.00  0.00     0.043 C 
BRANCH   4   6
HETATM    6  C11 UNL     1      -7.123   3.659  12.529  1.00  0.00     0.037 C 
BRANCH   6   7
HETATM    7  C10 UNL     1      -6.830   5.083  13.023  1.00  0.00     0.031 C 
BRANCH   7   8
HETATM    8  C9  UNL     1      -8.100   5.824  13.363  1.00  0.00    -0.024 C 
HETATM    9  C7  UNL     1      -8.414   6.418  14.532  1.00  0.00    -0.087 C 
HETATM   10  C8  UNL     1      -7.483   6.459  15.720  1.00  0.00     0.043 C 
BRANCH   9  11
HETATM   11  C6  UNL     1      -9.735   7.133  14.795  1.00  0.00     0.037 C 
BRANCH  11  12
HETATM   12  C5  UNL     1     -10.848   6.987  13.745  1.00  0.00     0.031 C 
BRANCH  12  13
HETATM   13  C4  UNL     1     -12.068   6.314  14.321  1.00  0.00    -0.024 C 
HETATM   14  C2  UNL     1     -13.346   6.459  13.920  1.00  0.00    -0.091 C 
HETATM   15  C1  UNL     1     -13.801   7.406  12.843  1.00  0.00     0.042 C 
HETATM   16  C3  UNL     1     -14.449   5.662  14.566  1.00  0.00     0.042 C 
ENDBRANCH  12  13
ENDBRANCH  11  12
ENDBRANCH   9  11
ENDBRANCH   7   8
ENDBRANCH   6   7
ENDBRANCH   4   6
ENDBRANCH   2   3
ENDBRANCH   1   2
BRANCH   1  17
HETATM   17  O1  UNL     1      -1.291   3.839  11.047  1.00  0.00    -0.355 OA
BRANCH  17  18
HETATM   18  C17 UNL     1      -0.899   5.046  11.736  1.00  0.00     0.166 C 
HETATM   19  C18 UNL     1      -0.047   4.548  12.915  1.00  0.00     0.079 C 
HETATM   20  C19 UNL     1      -0.096   5.873  10.727  1.00  0.00     0.073 C 
HETATM   21  C20 UNL     1       0.407   7.162  11.350  1.00  0.00     0.047 C 
HETATM   22  C21 UNL     1      -0.678   7.815  12.152  1.00  0.00    -0.021 A 
HETATM   23  C22 UNL     1      -0.540   9.155  12.538  1.00  0.00     0.046 A 
HETATM   24  C27 UNL     1      -1.815   7.101  12.558  1.00  0.00     0.085 A 
HETATM   25  C23 UNL     1      -1.531   9.768  13.293  1.00  0.00     0.066 A 
HETATM   26  C24 UNL     1      -2.679   9.075  13.669  1.00  0.00     0.046 A 
HETATM   27  C25 UNL     1      -2.833   7.732  13.298  1.00  0.00    -0.025 A 
HETATM   28  C26 UNL     1      -4.067   6.974  13.705  1.00  0.00     0.051 C 
HETATM   29  O3  UNL     1      -2.015   5.779  12.260  1.00  0.00    -0.314 OA
BRANCH  25  30
HETATM   30  O2  UNL     1      -1.334  11.070  13.659  1.00  0.00    -0.361 OA
HETATM   31  H36 UNL     1      -2.086  11.347  14.210  1.00  0.00     0.217 HD
ENDBRANCH  25  30
ENDBRANCH  17  18
ENDBRANCH   1  17
TORSDOF 11
ENDMDL
