MODEL 1
REMARK minimizedAffinity -9.60054111
REMARK  8 active torsions:
REMARK  status: ('A' for Active; 'I' for Inactive)
REMARK    1  A    between atoms: C2_2  and  C30_33 
REMARK    2  A    between atoms: C3_3  and  C4_4 
REMARK    3  A    between atoms: C4_4  and  C5_5 
REMARK    4  A    between atoms: C5_5  and  C6_6 
REMARK    5  A    between atoms: C6_6  and  C8_8 
REMARK    6  A    between atoms: C15_15  and  O1_16 
REMARK    7  A    between atoms: C23_24  and  O2_25 
REMARK    8  A    between atoms: C30_33  and  O4_34 
ROOT
HETATM    1  C8  UNL     1      -0.981  50.437 -22.205  1.00  0.00    -0.002 C 
HETATM    2  C9  UNL     1      -0.965  50.028 -20.708  1.00  0.00     0.007 C 
HETATM    3  C10 UNL     1      -2.251  49.230 -20.431  1.00  0.00     0.015 C 
HETATM    4  C11 UNL     1      -2.807  48.870 -21.822  1.00  0.00    -0.005 C 
HETATM    5  C12 UNL     1      -2.042  47.599 -22.304  1.00  0.00     0.021 C 
HETATM    6  C13 UNL     1      -4.280  48.522 -22.001  1.00  0.00     0.002 C 
HETATM    7  C14 UNL     1      -4.932  48.758 -23.174  1.00  0.00    -0.032 C 
HETATM    8  C15 UNL     1      -4.206  49.471 -24.331  1.00  0.00     0.149 C 
HETATM    9  C16 UNL     1      -2.747  49.934 -24.088  1.00  0.00     0.047 C 
HETATM   10  C17 UNL     1      -2.473  50.200 -22.601  1.00  0.00    -0.026 C 
HETATM   11  C18 UNL     1      -3.329  51.421 -22.133  1.00  0.00     0.016 C 
HETATM   12  C19 UNL     1      -6.427  48.336 -23.404  1.00  0.00    -0.013 C 
HETATM   13  C20 UNL     1      -7.271  49.618 -23.190  1.00  0.00     0.021 C 
HETATM   14  C21 UNL     1      -6.633  47.768 -24.844  1.00  0.00     0.017 C 
HETATM   15  C22 UNL     1      -7.644  46.624 -24.999  1.00  0.00     0.033 C 
HETATM   16  C23 UNL     1      -8.789  46.670 -23.997  1.00  0.00     0.126 C 
HETATM   17  C24 UNL     1      -8.273  46.596 -22.529  1.00  0.00    -0.017 C 
HETATM   18  C25 UNL     1      -8.174  45.089 -22.150  1.00  0.00     0.018 C 
HETATM   19  C26 UNL     1      -9.307  47.205 -21.556  1.00  0.00     0.018 C 
HETATM   20  C27 UNL     1      -6.819  47.207 -22.391  1.00  0.00     0.015 C 
HETATM   21  C28 UNL     1      -6.469  47.625 -20.964  1.00  0.00     0.090 C 
HETATM   22  C29 UNL     1      -4.986  47.858 -20.857  1.00  0.00     0.157 C 
HETATM   23  O3  UNL     1      -4.381  47.516 -19.842  1.00  0.00    -0.293 OA
ENDROOT
BRANCH   1  24
HETATM   24  C6  UNL     1      -0.332  51.834 -22.429  1.00  0.00    -0.014 C 
HETATM   25  C7  UNL     1      -0.043  52.573 -21.118  1.00  0.00     0.010 C 
BRANCH  24  26
HETATM   26  C5  UNL     1      -1.170  52.744 -23.374  1.00  0.00     0.008 C 
BRANCH  26  27
HETATM   27  C4  UNL     1      -0.546  53.006 -24.752  1.00  0.00     0.028 C 
BRANCH  27  28
HETATM   28  C3  UNL     1       0.733  52.270 -25.073  1.00  0.00    -0.022 C 
HETATM   29  C2  UNL     1       1.204  51.797 -26.246  1.00  0.00    -0.064 C 
HETATM   30  C1  UNL     1       0.450  51.837 -27.546  1.00  0.00     0.045 C 
BRANCH  29  31
HETATM   31  C30 UNL     1       2.555  51.122 -26.304  1.00  0.00     0.197 C 
BRANCH  31  32
HETATM   32  O4  UNL     1       3.289  51.577 -27.431  1.00  0.00    -0.397 OA
HETATM   33  H48 UNL     1       2.664  51.938 -28.081  1.00  0.00     0.209 HD
ENDBRANCH  31  32
ENDBRANCH  29  31
ENDBRANCH  27  28
ENDBRANCH  26  27
ENDBRANCH  24  26
ENDBRANCH   1  24
BRANCH   8  34
HETATM   34  O1  UNL     1      -4.962  50.624 -24.690  1.00  0.00    -0.391 OA
HETATM   35  H22 UNL     1      -4.589  50.977 -25.515  1.00  0.00     0.210 HD
ENDBRANCH   8  34
BRANCH  16  36
HETATM   36  O2  UNL     1      -9.559  47.844 -24.234  1.00  0.00    -0.395 OA
HETATM   37  H36 UNL     1      -9.896  47.801 -25.145  1.00  0.00     0.210 HD
ENDBRANCH  16  36
TORSDOF 8
ENDMDL
MODEL 2
REMARK minimizedAffinity -9.53841972
REMARK  8 active torsions:
REMARK  status: ('A' for Active; 'I' for Inactive)
REMARK    1  A    between atoms: C2_2  and  C30_33 
REMARK    2  A    between atoms: C3_3  and  C4_4 
REMARK    3  A    between atoms: C4_4  and  C5_5 
REMARK    4  A    between atoms: C5_5  and  C6_6 
REMARK    5  A    between atoms: C6_6  and  C8_8 
REMARK    6  A    between atoms: C15_15  and  O1_16 
REMARK    7  A    between atoms: C23_24  and  O2_25 
REMARK    8  A    between atoms: C30_33  and  O4_34 
ROOT
HETATM    1  C8  UNL     1      -0.665  49.950 -20.904  1.00  0.00    -0.002 C 
HETATM    2  C9  UNL     1      -1.077  49.235 -19.590  1.00  0.00     0.007 C 
HETATM    3  C10 UNL     1      -2.422  48.534 -19.846  1.00  0.00     0.015 C 
HETATM    4  C11 UNL     1      -2.590  48.535 -21.377  1.00  0.00    -0.005 C 
HETATM    5  C12 UNL     1      -1.777  47.322 -21.926  1.00  0.00     0.021 C 
HETATM    6  C13 UNL     1      -3.971  48.386 -22.004  1.00  0.00     0.002 C 
HETATM    7  C14 UNL     1      -4.266  48.930 -23.218  1.00  0.00    -0.032 C 
HETATM    8  C15 UNL     1      -3.222  49.793 -23.952  1.00  0.00     0.149 C 
HETATM    9  C16 UNL     1      -1.867  50.042 -23.242  1.00  0.00     0.047 C 
HETATM   10  C17 UNL     1      -1.999  49.958 -21.714  1.00  0.00    -0.026 C 
HETATM   11  C18 UNL     1      -2.898  51.134 -21.213  1.00  0.00     0.016 C 
HETATM   12  C19 UNL     1      -5.658  48.722 -23.916  1.00  0.00    -0.013 C 
HETATM   13  C20 UNL     1      -6.473  50.011 -23.636  1.00  0.00     0.021 C 
HETATM   14  C21 UNL     1      -5.485  48.496 -25.451  1.00  0.00     0.017 C 
HETATM   15  C22 UNL     1      -6.463  47.521 -26.120  1.00  0.00     0.033 C 
HETATM   16  C23 UNL     1      -7.835  47.472 -25.465  1.00  0.00     0.126 C 
HETATM   17  C24 UNL     1      -7.744  47.037 -23.972  1.00  0.00    -0.017 C 
HETATM   18  C25 UNL     1      -7.817  45.482 -23.939  1.00  0.00     0.018 C 
HETATM   19  C26 UNL     1      -8.979  47.530 -23.183  1.00  0.00     0.018 C 
HETATM   20  C27 UNL     1      -6.360  47.452 -23.327  1.00  0.00     0.015 C 
HETATM   21  C28 UNL     1      -6.396  47.521 -21.801  1.00  0.00     0.090 C 
HETATM   22  C29 UNL     1      -4.991  47.571 -21.265  1.00  0.00     0.157 C 
HETATM   23  O3  UNL     1      -4.702  46.963 -20.236  1.00  0.00    -0.293 OA
ENDROOT
BRANCH   1  24
HETATM   24  C6  UNL     1       0.079  51.289 -20.625  1.00  0.00    -0.014 C 
HETATM   25  C7  UNL     1      -0.236  51.868 -19.241  1.00  0.00     0.010 C 
BRANCH  24  26
HETATM   26  C5  UNL     1      -0.182  52.365 -21.719  1.00  0.00     0.008 C 
BRANCH  26  27
HETATM   27  C4  UNL     1       0.775  52.324 -22.919  1.00  0.00     0.028 C 
BRANCH  27  28
HETATM   28  C3  UNL     1       0.304  52.993 -24.188  1.00  0.00    -0.022 C 
HETATM   29  C2  UNL     1       0.618  52.750 -25.477  1.00  0.00    -0.064 C 
HETATM   30  C1  UNL     1       1.644  51.749 -25.932  1.00  0.00     0.045 C 
BRANCH  29  31
HETATM   31  C30 UNL     1      -0.036  53.550 -26.581  1.00  0.00     0.197 C 
BRANCH  31  32
HETATM   32  O4  UNL     1       0.188  54.938 -26.389  1.00  0.00    -0.397 OA
HETATM   33  H48 UNL     1       0.399  55.090 -25.453  1.00  0.00     0.209 HD
ENDBRANCH  31  32
ENDBRANCH  29  31
ENDBRANCH  27  28
ENDBRANCH  26  27
ENDBRANCH  24  26
ENDBRANCH   1  24
BRANCH   8  34
HETATM   34  O1  UNL     1      -3.802  51.067 -24.217  1.00  0.00    -0.391 OA
HETATM   35  H22 UNL     1      -3.202  51.546 -24.814  1.00  0.00     0.210 HD
ENDBRANCH   8  34
BRANCH  16  36
HETATM   36  O2  UNL     1      -8.461  48.743 -25.614  1.00  0.00    -0.395 OA
HETATM   37  H36 UNL     1      -8.537  48.928 -26.565  1.00  0.00     0.210 HD
ENDBRANCH  16  36
TORSDOF 8
ENDMDL
MODEL 3
REMARK minimizedAffinity -9.31508923
REMARK  8 active torsions:
REMARK  status: ('A' for Active; 'I' for Inactive)
REMARK    1  A    between atoms: C2_2  and  C30_33 
REMARK    2  A    between atoms: C3_3  and  C4_4 
REMARK    3  A    between atoms: C4_4  and  C5_5 
REMARK    4  A    between atoms: C5_5  and  C6_6 
REMARK    5  A    between atoms: C6_6  and  C8_8 
REMARK    6  A    between atoms: C15_15  and  O1_16 
REMARK    7  A    between atoms: C23_24  and  O2_25 
REMARK    8  A    between atoms: C30_33  and  O4_34 
ROOT
HETATM    1  C8  UNL     1      -0.110  50.912 -21.387  1.00  0.00    -0.002 C 
HETATM    2  C9  UNL     1      -0.152  51.215 -19.865  1.00  0.00     0.007 C 
HETATM    3  C10 UNL     1      -1.465  50.636 -19.313  1.00  0.00     0.015 C 
HETATM    4  C11 UNL     1      -1.987  49.698 -20.419  1.00  0.00    -0.005 C 
HETATM    5  C12 UNL     1      -1.240  48.339 -20.252  1.00  0.00     0.021 C 
HETATM    6  C13 UNL     1      -3.462  49.321 -20.481  1.00  0.00     0.002 C 
HETATM    7  C14 UNL     1      -4.070  49.013 -21.661  1.00  0.00    -0.032 C 
HETATM    8  C15 UNL     1      -3.291  49.128 -22.985  1.00  0.00     0.149 C 
HETATM    9  C16 UNL     1      -1.829  49.638 -22.917  1.00  0.00     0.047 C 
HETATM   10  C17 UNL     1      -1.594  50.538 -21.695  1.00  0.00    -0.026 C 
HETATM   11  C18 UNL     1      -2.433  51.847 -21.854  1.00  0.00     0.016 C 
HETATM   12  C19 UNL     1      -5.568  48.546 -21.737  1.00  0.00    -0.013 C 
HETATM   13  C20 UNL     1      -6.385  49.797 -22.151  1.00  0.00     0.021 C 
HETATM   14  C21 UNL     1      -5.743  47.397 -22.780  1.00  0.00     0.017 C 
HETATM   15  C22 UNL     1      -6.778  46.314 -22.448  1.00  0.00     0.033 C 
HETATM   16  C23 UNL     1      -7.952  46.813 -21.618  1.00  0.00     0.126 C 
HETATM   17  C24 UNL     1      -7.484  47.397 -20.252  1.00  0.00    -0.017 C 
HETATM   18  C25 UNL     1      -7.436  46.217 -19.237  1.00  0.00     0.018 C 
HETATM   19  C26 UNL     1      -8.533  48.386 -19.693  1.00  0.00     0.018 C 
HETATM   20  C27 UNL     1      -6.020  47.992 -20.344  1.00  0.00     0.015 C 
HETATM   21  C28 UNL     1      -5.704  49.001 -19.240  1.00  0.00     0.090 C 
HETATM   22  C29 UNL     1      -4.220  49.243 -19.189  1.00  0.00     0.157 C 
HETATM   23  O3  UNL     1      -3.656  49.386 -18.106  1.00  0.00    -0.293 OA
ENDROOT
BRANCH   1  24
HETATM   24  C6  UNL     1       0.581  52.056 -22.185  1.00  0.00    -0.014 C 
HETATM   25  C7  UNL     1       0.773  53.330 -21.354  1.00  0.00     0.010 C 
BRANCH  24  26
HETATM   26  C5  UNL     1      -0.157  52.399 -23.512  1.00  0.00     0.008 C 
BRANCH  26  27
HETATM   27  C4  UNL     1       0.656  53.224 -24.520  1.00  0.00     0.028 C 
BRANCH  27  28
HETATM   28  C3  UNL     1       0.467  52.894 -25.981  1.00  0.00    -0.022 C 
HETATM   29  C2  UNL     1       1.160  52.067 -26.791  1.00  0.00    -0.064 C 
HETATM   30  C1  UNL     1       2.404  51.324 -26.390  1.00  0.00     0.045 C 
BRANCH  29  31
HETATM   31  C30 UNL     1       0.731  51.878 -28.228  1.00  0.00     0.197 C 
BRANCH  31  32
HETATM   32  O4  UNL     1      -0.108  52.947 -28.640  1.00  0.00    -0.397 OA
HETATM   33  H48 UNL     1      -0.492  53.360 -27.849  1.00  0.00     0.209 HD
ENDBRANCH  31  32
ENDBRANCH  29  31
ENDBRANCH  27  28
ENDBRANCH  26  27
ENDBRANCH  24  26
ENDBRANCH   1  24
BRANCH   8  34
HETATM   34  O1  UNL     1      -4.006  50.006 -23.850  1.00  0.00    -0.391 OA
HETATM   35  H22 UNL     1      -3.598  49.950 -24.730  1.00  0.00     0.210 HD
ENDBRANCH   8  34
BRANCH  16  36
HETATM   36  O2  UNL     1      -8.684  47.764 -22.384  1.00  0.00    -0.395 OA
HETATM   37  H36 UNL     1      -8.994  47.322 -23.192  1.00  0.00     0.210 HD
ENDBRANCH  16  36
TORSDOF 8
ENDMDL
MODEL 4
REMARK minimizedAffinity -9.10468674
REMARK  8 active torsions:
REMARK  status: ('A' for Active; 'I' for Inactive)
REMARK    1  A    between atoms: C2_2  and  C30_33 
REMARK    2  A    between atoms: C3_3  and  C4_4 
REMARK    3  A    between atoms: C4_4  and  C5_5 
REMARK    4  A    between atoms: C5_5  and  C6_6 
REMARK    5  A    between atoms: C6_6  and  C8_8 
REMARK    6  A    between atoms: C15_15  and  O1_16 
REMARK    7  A    between atoms: C23_24  and  O2_25 
REMARK    8  A    between atoms: C30_33  and  O4_34 
ROOT
HETATM    1  C8  UNL     1      -1.110  50.428 -22.279  1.00  0.00    -0.002 C 
HETATM    2  C9  UNL     1      -1.067  49.933 -20.809  1.00  0.00     0.007 C 
HETATM    3  C10 UNL     1      -2.335  49.096 -20.565  1.00  0.00     0.015 C 
HETATM    4  C11 UNL     1      -2.902  48.808 -21.968  1.00  0.00    -0.005 C 
HETATM    5  C12 UNL     1      -2.121  47.581 -22.532  1.00  0.00     0.021 C 
HETATM    6  C13 UNL     1      -4.371  48.444 -22.149  1.00  0.00     0.002 C 
HETATM    7  C14 UNL     1      -5.042  48.735 -23.299  1.00  0.00    -0.032 C 
HETATM    8  C15 UNL     1      -4.344  49.529 -24.420  1.00  0.00     0.149 C 
HETATM    9  C16 UNL     1      -2.891  50.004 -24.168  1.00  0.00     0.047 C 
HETATM   10  C17 UNL     1      -2.602  50.188 -22.671  1.00  0.00    -0.026 C 
HETATM   11  C18 UNL     1      -3.474  51.362 -22.122  1.00  0.00     0.016 C 
HETATM   12  C19 UNL     1      -6.532  48.299 -23.536  1.00  0.00    -0.013 C 
HETATM   13  C20 UNL     1      -7.396  49.551 -23.237  1.00  0.00     0.021 C 
HETATM   14  C21 UNL     1      -6.746  47.813 -25.004  1.00  0.00     0.017 C 
HETATM   15  C22 UNL     1      -7.738  46.661 -25.213  1.00  0.00     0.033 C 
HETATM   16  C23 UNL     1      -8.871  46.627 -24.197  1.00  0.00     0.126 C 
HETATM   17  C24 UNL     1      -8.335  46.477 -22.743  1.00  0.00    -0.017 C 
HETATM   18  C25 UNL     1      -8.203  44.952 -22.454  1.00  0.00     0.018 C 
HETATM   19  C26 UNL     1      -9.367  47.008 -21.722  1.00  0.00     0.018 C 
HETATM   20  C27 UNL     1      -6.890  47.106 -22.586  1.00  0.00     0.015 C 
HETATM   21  C28 UNL     1      -6.529  47.446 -21.141  1.00  0.00     0.090 C 
HETATM   22  C29 UNL     1      -5.050  47.700 -21.037  1.00  0.00     0.157 C 
HETATM   23  O3  UNL     1      -4.425  47.311 -20.052  1.00  0.00    -0.293 OA
ENDROOT
BRANCH   1  24
HETATM   24  C6  UNL     1      -0.489  51.848 -22.429  1.00  0.00    -0.014 C 
HETATM   25  C7  UNL     1      -0.034  52.151 -23.861  1.00  0.00     0.010 C 
BRANCH  24  26
HETATM   26  C5  UNL     1       0.683  52.102 -21.438  1.00  0.00     0.008 C 
BRANCH  26  27
HETATM   27  C4  UNL     1       0.411  53.163 -20.361  1.00  0.00     0.028 C 
BRANCH  27  28
HETATM   28  C3  UNL     1       1.075  52.958 -19.020  1.00  0.00    -0.022 C 
HETATM   29  C2  UNL     1       0.700  52.213 -17.959  1.00  0.00    -0.064 C 
HETATM   30  C1  UNL     1      -0.596  51.456 -17.863  1.00  0.00     0.045 C 
BRANCH  29  31
HETATM   31  C30 UNL     1       1.580  52.145 -16.732  1.00  0.00     0.197 C 
BRANCH  31  32
HETATM   32  O4  UNL     1       1.449  53.330 -15.961  1.00  0.00    -0.397 OA
HETATM   33  H48 UNL     1       1.114  54.037 -16.536  1.00  0.00     0.209 HD
ENDBRANCH  31  32
ENDBRANCH  29  31
ENDBRANCH  27  28
ENDBRANCH  26  27
ENDBRANCH  24  26
ENDBRANCH   1  24
BRANCH   8  34
HETATM   34  O1  UNL     1      -5.125  50.686 -24.702  1.00  0.00    -0.391 OA
HETATM   35  H22 UNL     1      -4.769  51.093 -25.509  1.00  0.00     0.210 HD
ENDBRANCH   8  34
BRANCH  16  36
HETATM   36  O2  UNL     1      -9.665  47.799 -24.356  1.00  0.00    -0.395 OA
HETATM   37  H36 UNL     1     -10.013  47.802 -25.263  1.00  0.00     0.210 HD
ENDBRANCH  16  36
TORSDOF 8
ENDMDL
MODEL 5
REMARK minimizedAffinity -9.03665447
REMARK  8 active torsions:
REMARK  status: ('A' for Active; 'I' for Inactive)
REMARK    1  A    between atoms: C2_2  and  C30_33 
REMARK    2  A    between atoms: C3_3  and  C4_4 
REMARK    3  A    between atoms: C4_4  and  C5_5 
REMARK    4  A    between atoms: C5_5  and  C6_6 
REMARK    5  A    between atoms: C6_6  and  C8_8 
REMARK    6  A    between atoms: C15_15  and  O1_16 
REMARK    7  A    between atoms: C23_24  and  O2_25 
REMARK    8  A    between atoms: C30_33  and  O4_34 
ROOT
HETATM    1  C8  UNL     1      -1.106  49.747 -18.109  1.00  0.00    -0.002 C 
HETATM    2  C9  UNL     1      -2.403  48.898 -18.187  1.00  0.00     0.007 C 
HETATM    3  C10 UNL     1      -2.860  48.883 -19.656  1.00  0.00     0.015 C 
HETATM    4  C11 UNL     1      -1.650  49.398 -20.458  1.00  0.00    -0.005 C 
HETATM    5  C12 UNL     1      -0.695  48.183 -20.673  1.00  0.00     0.021 C 
HETATM    6  C13 UNL     1      -1.838  49.988 -21.850  1.00  0.00     0.002 C 
HETATM    7  C14 UNL     1      -0.990  50.933 -22.346  1.00  0.00    -0.032 C 
HETATM    8  C15 UNL     1       0.139  51.496 -21.462  1.00  0.00     0.149 C 
HETATM    9  C16 UNL     1       0.239  50.979 -20.005  1.00  0.00     0.047 C 
HETATM   10  C17 UNL     1      -1.123  50.510 -19.471  1.00  0.00    -0.026 C 
HETATM   11  C18 UNL     1      -2.080  51.740 -19.361  1.00  0.00     0.016 C 
HETATM   12  C19 UNL     1      -1.121  51.497 -23.805  1.00  0.00    -0.013 C 
HETATM   13  C20 UNL     1      -1.852  52.858 -23.674  1.00  0.00     0.021 C 
HETATM   14  C21 UNL     1       0.283  51.682 -24.462  1.00  0.00     0.017 C 
HETATM   15  C22 UNL     1       0.384  51.406 -25.968  1.00  0.00     0.033 C 
HETATM   16  C23 UNL     1      -0.893  51.705 -26.740  1.00  0.00     0.126 C 
HETATM   17  C24 UNL     1      -2.090  50.853 -26.223  1.00  0.00    -0.017 C 
HETATM   18  C25 UNL     1      -2.079  49.512 -27.016  1.00  0.00     0.018 C 
HETATM   19  C26 UNL     1      -3.434  51.532 -26.570  1.00  0.00     0.018 C 
HETATM   20  C27 UNL     1      -1.927  50.488 -24.691  1.00  0.00     0.015 C 
HETATM   21  C28 UNL     1      -3.245  50.116 -24.013  1.00  0.00     0.090 C 
HETATM   22  C29 UNL     1      -2.962  49.457 -22.690  1.00  0.00     0.157 C 
HETATM   23  O3  UNL     1      -3.652  48.512 -22.312  1.00  0.00    -0.293 OA
ENDROOT
BRANCH   1  24
HETATM   24  C6  UNL     1      -1.017  50.546 -16.776  1.00  0.00    -0.014 C 
HETATM   25  C7  UNL     1       0.033  49.982 -15.813  1.00  0.00     0.010 C 
BRANCH  24  26
HETATM   26  C5  UNL     1      -2.389  50.663 -16.050  1.00  0.00     0.008 C 
BRANCH  26  27
HETATM   27  C4  UNL     1      -2.323  50.628 -14.516  1.00  0.00     0.028 C 
BRANCH  27  28
HETATM   28  C3  UNL     1      -2.982  51.770 -13.780  1.00  0.00    -0.022 C 
HETATM   29  C2  UNL     1      -3.257  51.927 -12.469  1.00  0.00    -0.064 C 
HETATM   30  C1  UNL     1      -3.025  50.878 -11.416  1.00  0.00     0.045 C 
BRANCH  29  31
HETATM   31  C30 UNL     1      -3.896  53.205 -11.975  1.00  0.00     0.197 C 
BRANCH  31  32
HETATM   32  O4  UNL     1      -4.299  54.014 -13.070  1.00  0.00    -0.397 OA
HETATM   33  H48 UNL     1      -3.788  53.750 -13.853  1.00  0.00     0.209 HD
ENDBRANCH  31  32
ENDBRANCH  29  31
ENDBRANCH  27  28
ENDBRANCH  26  27
ENDBRANCH  24  26
ENDBRANCH   1  24
BRANCH   8  34
HETATM   34  O1  UNL     1      -0.004  52.912 -21.400  1.00  0.00    -0.391 OA
HETATM   35  H22 UNL     1       0.794  53.272 -20.978  1.00  0.00     0.210 HD
ENDBRANCH   8  34
BRANCH  16  36
HETATM   36  O2  UNL     1      -1.159  53.102 -26.663  1.00  0.00    -0.395 OA
HETATM   37  H36 UNL     1      -0.402  53.572 -27.051  1.00  0.00     0.210 HD
ENDBRANCH  16  36
TORSDOF 8
ENDMDL
MODEL 6
REMARK minimizedAffinity -8.99544811
REMARK  8 active torsions:
REMARK  status: ('A' for Active; 'I' for Inactive)
REMARK    1  A    between atoms: C2_2  and  C30_33 
REMARK    2  A    between atoms: C3_3  and  C4_4 
REMARK    3  A    between atoms: C4_4  and  C5_5 
REMARK    4  A    between atoms: C5_5  and  C6_6 
REMARK    5  A    between atoms: C6_6  and  C8_8 
REMARK    6  A    between atoms: C15_15  and  O1_16 
REMARK    7  A    between atoms: C23_24  and  O2_25 
REMARK    8  A    between atoms: C30_33  and  O4_34 
ROOT
HETATM    1  C8  UNL     1      -1.647  51.508 -22.465  1.00  0.00    -0.002 C 
HETATM    2  C9  UNL     1      -3.005  52.179 -22.804  1.00  0.00     0.007 C 
HETATM    3  C10 UNL     1      -4.112  51.355 -22.123  1.00  0.00     0.015 C 
HETATM    4  C11 UNL     1      -3.377  50.453 -21.113  1.00  0.00    -0.005 C 
HETATM    5  C12 UNL     1      -3.134  51.310 -19.832  1.00  0.00     0.021 C 
HETATM    6  C13 UNL     1      -4.027  49.174 -20.602  1.00  0.00     0.002 C 
HETATM    7  C14 UNL     1      -3.282  48.102 -20.209  1.00  0.00    -0.032 C 
HETATM    8  C15 UNL     1      -1.749  48.132 -20.359  1.00  0.00     0.149 C 
HETATM    9  C16 UNL     1      -1.113  49.390 -21.000  1.00  0.00     0.047 C 
HETATM   10  C17 UNL     1      -2.087  50.102 -21.950  1.00  0.00    -0.026 C 
HETATM   11  C18 UNL     1      -2.379  49.174 -23.173  1.00  0.00     0.016 C 
HETATM   12  C19 UNL     1      -3.929  46.804 -19.607  1.00  0.00    -0.013 C 
HETATM   13  C20 UNL     1      -3.987  45.778 -20.767  1.00  0.00     0.021 C 
HETATM   14  C21 UNL     1      -3.078  46.254 -18.419  1.00  0.00     0.017 C 
HETATM   15  C22 UNL     1      -3.847  45.613 -17.256  1.00  0.00     0.033 C 
HETATM   16  C23 UNL     1      -5.150  44.945 -17.669  1.00  0.00     0.126 C 
HETATM   17  C24 UNL     1      -6.132  45.958 -18.330  1.00  0.00    -0.017 C 
HETATM   18  C25 UNL     1      -6.973  46.599 -17.186  1.00  0.00     0.018 C 
HETATM   19  C26 UNL     1      -7.147  45.224 -19.234  1.00  0.00     0.018 C 
HETATM   20  C27 UNL     1      -5.356  47.134 -19.052  1.00  0.00     0.015 C 
HETATM   21  C28 UNL     1      -6.190  47.849 -20.114  1.00  0.00     0.090 C 
HETATM   22  C29 UNL     1      -5.523  49.144 -20.491  1.00  0.00     0.157 C 
HETATM   23  O3  UNL     1      -6.201  50.145 -20.713  1.00  0.00    -0.293 OA
ENDROOT
BRANCH   1  24
HETATM   24  C6  UNL     1      -0.638  51.619 -23.645  1.00  0.00    -0.014 C 
HETATM   25  C7  UNL     1       0.388  52.741 -23.448  1.00  0.00     0.010 C 
BRANCH  24  26
HETATM   26  C5  UNL     1      -1.338  51.783 -25.025  1.00  0.00     0.008 C 
BRANCH  26  27
HETATM   27  C4  UNL     1      -0.892  50.788 -26.107  1.00  0.00     0.028 C 
BRANCH  27  28
HETATM   28  C3  UNL     1       0.511  50.946 -26.642  1.00  0.00    -0.022 C 
HETATM   29  C2  UNL     1       1.020  51.832 -27.523  1.00  0.00    -0.064 C 
HETATM   30  C1  UNL     1       0.209  52.856 -28.269  1.00  0.00     0.045 C 
BRANCH  29  31
HETATM   31  C30 UNL     1       2.493  51.802 -27.864  1.00  0.00     0.197 C 
BRANCH  31  32
HETATM   32  O4  UNL     1       3.237  51.230 -26.799  1.00  0.00    -0.397 OA
HETATM   33  H48 UNL     1       2.714  51.301 -25.983  1.00  0.00     0.209 HD
ENDBRANCH  31  32
ENDBRANCH  29  31
ENDBRANCH  27  28
ENDBRANCH  26  27
ENDBRANCH  24  26
ENDBRANCH   1  24
BRANCH   8  34
HETATM   34  O1  UNL     1      -1.355  47.010 -21.145  1.00  0.00    -0.391 OA
HETATM   35  H22 UNL     1      -0.386  46.946 -21.102  1.00  0.00     0.210 HD
ENDBRANCH   8  34
BRANCH  16  36
HETATM   36  O2  UNL     1      -4.853  43.850 -18.529  1.00  0.00    -0.395 OA
HETATM   37  H36 UNL     1      -4.286  43.231 -18.040  1.00  0.00     0.210 HD
ENDBRANCH  16  36
TORSDOF 8
ENDMDL
MODEL 7
REMARK minimizedAffinity -8.96768951
REMARK  8 active torsions:
REMARK  status: ('A' for Active; 'I' for Inactive)
REMARK    1  A    between atoms: C2_2  and  C30_33 
REMARK    2  A    between atoms: C3_3  and  C4_4 
REMARK    3  A    between atoms: C4_4  and  C5_5 
REMARK    4  A    between atoms: C5_5  and  C6_6 
REMARK    5  A    between atoms: C6_6  and  C8_8 
REMARK    6  A    between atoms: C15_15  and  O1_16 
REMARK    7  A    between atoms: C23_24  and  O2_25 
REMARK    8  A    between atoms: C30_33  and  O4_34 
ROOT
HETATM    1  C8  UNL     1      -0.341  51.696 -16.956  1.00  0.00    -0.002 C 
HETATM    2  C9  UNL     1       1.153  52.060 -17.168  1.00  0.00     0.007 C 
HETATM    3  C10 UNL     1       1.373  52.254 -18.678  1.00  0.00     0.015 C 
HETATM    4  C11 UNL     1      -0.041  52.366 -19.279  1.00  0.00    -0.005 C 
HETATM    5  C12 UNL     1      -0.501  53.845 -19.089  1.00  0.00     0.021 C 
HETATM    6  C13 UNL     1      -0.280  52.077 -20.756  1.00  0.00     0.002 C 
HETATM    7  C14 UNL     1      -1.476  51.606 -21.207  1.00  0.00    -0.032 C 
HETATM    8  C15 UNL     1      -2.598  51.266 -20.207  1.00  0.00     0.149 C 
HETATM    9  C16 UNL     1      -2.295  51.444 -18.698  1.00  0.00     0.047 C 
HETATM   10  C17 UNL     1      -0.797  51.300 -18.396  1.00  0.00    -0.026 C 
HETATM   11  C18 UNL     1      -0.354  49.830 -18.689  1.00  0.00     0.016 C 
HETATM   12  C19 UNL     1      -1.768  51.376 -22.732  1.00  0.00    -0.013 C 
HETATM   13  C20 UNL     1      -1.579  49.857 -22.980  1.00  0.00     0.021 C 
HETATM   14  C21 UNL     1      -3.219  51.822 -23.098  1.00  0.00     0.017 C 
HETATM   15  C22 UNL     1      -3.421  52.449 -24.485  1.00  0.00     0.033 C 
HETATM   16  C23 UNL     1      -2.465  51.924 -25.547  1.00  0.00     0.126 C 
HETATM   17  C24 UNL     1      -0.978  52.190 -25.164  1.00  0.00    -0.017 C 
HETATM   18  C25 UNL     1      -0.606  53.600 -25.710  1.00  0.00     0.018 C 
HETATM   19  C26 UNL     1      -0.042  51.199 -25.892  1.00  0.00     0.018 C 
HETATM   20  C27 UNL     1      -0.779  52.232 -23.594  1.00  0.00     0.015 C 
HETATM   21  C28 UNL     1       0.664  51.981 -23.158  1.00  0.00     0.090 C 
HETATM   22  C29 UNL     1       0.831  52.380 -21.717  1.00  0.00     0.157 C 
HETATM   23  O3  UNL     1       1.866  52.930 -21.346  1.00  0.00    -0.293 OA
ENDROOT
BRANCH   1  24
HETATM   24  C6  UNL     1      -0.530  50.693 -15.781  1.00  0.00    -0.014 C 
HETATM   25  C7  UNL     1       0.435  49.504 -15.852  1.00  0.00     0.010 C 
BRANCH  24  26
HETATM   26  C5  UNL     1      -1.992  50.178 -15.655  1.00  0.00     0.008 C 
BRANCH  26  27
HETATM   27  C4  UNL     1      -2.444  49.832 -14.229  1.00  0.00     0.028 C 
BRANCH  27  28
HETATM   28  C3  UNL     1      -3.210  50.895 -13.480  1.00  0.00    -0.022 C 
HETATM   29  C2  UNL     1      -2.777  51.994 -12.827  1.00  0.00    -0.064 C 
HETATM   30  C1  UNL     1      -1.330  52.353 -12.627  1.00  0.00     0.045 C 
BRANCH  29  31
HETATM   31  C30 UNL     1      -3.770  52.936 -12.185  1.00  0.00     0.197 C 
BRANCH  31  32
HETATM   32  O4  UNL     1      -4.274  53.854 -13.143  1.00  0.00    -0.397 OA
HETATM   33  H48 UNL     1      -3.645  53.906 -13.882  1.00  0.00     0.209 HD
ENDBRANCH  31  32
ENDBRANCH  29  31
ENDBRANCH  27  28
ENDBRANCH  26  27
ENDBRANCH  24  26
ENDBRANCH   1  24
BRANCH   8  34
HETATM   34  O1  UNL     1      -2.979  49.908 -20.406  1.00  0.00    -0.391 OA
HETATM   35  H22 UNL     1      -3.787  49.749 -19.888  1.00  0.00     0.210 HD
ENDBRANCH   8  34
BRANCH  16  36
HETATM   36  O2  UNL     1      -2.724  50.540 -25.754  1.00  0.00    -0.395 OA
HETATM   37  H36 UNL     1      -3.647  50.449 -26.043  1.00  0.00     0.210 HD
ENDBRANCH  16  36
TORSDOF 8
ENDMDL
MODEL 8
REMARK minimizedAffinity -8.84082031
REMARK  8 active torsions:
REMARK  status: ('A' for Active; 'I' for Inactive)
REMARK    1  A    between atoms: C2_2  and  C30_33 
REMARK    2  A    between atoms: C3_3  and  C4_4 
REMARK    3  A    between atoms: C4_4  and  C5_5 
REMARK    4  A    between atoms: C5_5  and  C6_6 
REMARK    5  A    between atoms: C6_6  and  C8_8 
REMARK    6  A    between atoms: C15_15  and  O1_16 
REMARK    7  A    between atoms: C23_24  and  O2_25 
REMARK    8  A    between atoms: C30_33  and  O4_34 
ROOT
HETATM    1  C8  UNL     1      -1.486  49.276 -18.309  1.00  0.00    -0.002 C 
HETATM    2  C9  UNL     1      -2.764  48.447 -18.605  1.00  0.00     0.007 C 
HETATM    3  C10 UNL     1      -3.087  48.609 -20.100  1.00  0.00     0.015 C 
HETATM    4  C11 UNL     1      -1.813  49.212 -20.722  1.00  0.00    -0.005 C 
HETATM    5  C12 UNL     1      -0.834  48.028 -20.994  1.00  0.00     0.021 C 
HETATM    6  C13 UNL     1      -1.879  49.966 -22.045  1.00  0.00     0.002 C 
HETATM    7  C14 UNL     1      -0.998  50.960 -22.345  1.00  0.00    -0.032 C 
HETATM    8  C15 UNL     1       0.044  51.409 -21.302  1.00  0.00     0.149 C 
HETATM    9  C16 UNL     1       0.015  50.721 -19.915  1.00  0.00     0.047 C 
HETATM   10  C17 UNL     1      -1.385  50.196 -19.566  1.00  0.00    -0.026 C 
HETATM   11  C18 UNL     1      -2.358  51.407 -19.396  1.00  0.00     0.016 C 
HETATM   12  C19 UNL     1      -1.000  51.695 -23.733  1.00  0.00    -0.013 C 
HETATM   13  C20 UNL     1      -1.750  53.033 -23.507  1.00  0.00     0.021 C 
HETATM   14  C21 UNL     1       0.456  51.952 -24.233  1.00  0.00     0.017 C 
HETATM   15  C22 UNL     1       0.695  51.858 -25.746  1.00  0.00     0.033 C 
HETATM   16  C23 UNL     1      -0.510  52.252 -26.589  1.00  0.00     0.126 C 
HETATM   17  C24 UNL     1      -1.742  51.348 -26.288  1.00  0.00    -0.017 C 
HETATM   18  C25 UNL     1      -1.649  50.112 -27.232  1.00  0.00     0.018 C 
HETATM   19  C26 UNL     1      -3.054  52.069 -26.672  1.00  0.00     0.018 C 
HETATM   20  C27 UNL     1      -1.716  50.802 -24.803  1.00  0.00     0.015 C 
HETATM   21  C28 UNL     1      -3.086  50.356 -24.295  1.00  0.00     0.090 C 
HETATM   22  C29 UNL     1      -2.919  49.542 -23.040  1.00  0.00     0.157 C 
HETATM   23  O3  UNL     1      -3.633  48.561 -22.842  1.00  0.00    -0.293 OA
ENDROOT
BRANCH   1  24
HETATM   24  C6  UNL     1      -1.524  49.909 -16.888  1.00  0.00    -0.014 C 
HETATM   25  C7  UNL     1      -2.933  50.342 -16.466  1.00  0.00     0.010 C 
BRANCH  24  26
HETATM   26  C5  UNL     1      -0.537  51.102 -16.731  1.00  0.00     0.008 C 
BRANCH  26  27
HETATM   27  C4  UNL     1       0.930  50.711 -16.495  1.00  0.00     0.028 C 
BRANCH  27  28
HETATM   28  C3  UNL     1       1.504  51.012 -15.132  1.00  0.00    -0.022 C 
HETATM   29  C2  UNL     1       2.631  51.664 -14.779  1.00  0.00    -0.064 C 
HETATM   30  C1  UNL     1       3.658  52.181 -15.748  1.00  0.00     0.045 C 
BRANCH  29  31
HETATM   31  C30 UNL     1       2.962  51.870 -13.318  1.00  0.00     0.197 C 
BRANCH  31  32
HETATM   32  O4  UNL     1       1.940  52.620 -12.678  1.00  0.00    -0.397 OA
HETATM   33  H48 UNL     1       1.450  53.114 -13.356  1.00  0.00     0.209 HD
ENDBRANCH  31  32
ENDBRANCH  29  31
ENDBRANCH  27  28
ENDBRANCH  26  27
ENDBRANCH  24  26
ENDBRANCH   1  24
BRANCH   8  34
HETATM   34  O1  UNL     1      -0.115  52.808 -21.085  1.00  0.00    -0.391 OA
HETATM   35  H22 UNL     1       0.639  53.112 -20.553  1.00  0.00     0.210 HD
ENDBRANCH   8  34
BRANCH  16  36
HETATM   36  O2  UNL     1      -0.792  53.630 -26.370  1.00  0.00    -0.395 OA
HETATM   37  H36 UNL     1      -0.006  54.140 -26.629  1.00  0.00     0.210 HD
ENDBRANCH  16  36
TORSDOF 8
ENDMDL
MODEL 9
REMARK minimizedAffinity -8.83810616
REMARK  8 active torsions:
REMARK  status: ('A' for Active; 'I' for Inactive)
REMARK    1  A    between atoms: C2_2  and  C30_33 
REMARK    2  A    between atoms: C3_3  and  C4_4 
REMARK    3  A    between atoms: C4_4  and  C5_5 
REMARK    4  A    between atoms: C5_5  and  C6_6 
REMARK    5  A    between atoms: C6_6  and  C8_8 
REMARK    6  A    between atoms: C15_15  and  O1_16 
REMARK    7  A    between atoms: C23_24  and  O2_25 
REMARK    8  A    between atoms: C30_33  and  O4_34 
ROOT
HETATM    1  C8  UNL     1      -5.324  49.093 -21.465  1.00  0.00    -0.002 C 
HETATM    2  C9  UNL     1      -4.339  49.385 -20.301  1.00  0.00     0.007 C 
HETATM    3  C10 UNL     1      -3.148  50.162 -20.885  1.00  0.00     0.015 C 
HETATM    4  C11 UNL     1      -3.616  50.629 -22.277  1.00  0.00    -0.005 C 
HETATM    5  C12 UNL     1      -4.447  51.933 -22.063  1.00  0.00     0.021 C 
HETATM    6  C13 UNL     1      -2.601  50.993 -23.353  1.00  0.00     0.002 C 
HETATM    7  C14 UNL     1      -2.884  50.851 -24.679  1.00  0.00    -0.032 C 
HETATM    8  C15 UNL     1      -4.223  50.227 -25.119  1.00  0.00     0.149 C 
HETATM    9  C16 UNL     1      -5.190  49.744 -24.011  1.00  0.00     0.047 C 
HETATM   10  C17 UNL     1      -4.442  49.363 -22.725  1.00  0.00    -0.026 C 
HETATM   11  C18 UNL     1      -3.548  48.111 -23.005  1.00  0.00     0.016 C 
HETATM   12  C19 UNL     1      -1.883  51.293 -25.804  1.00  0.00    -0.013 C 
HETATM   13  C20 UNL     1      -1.167  50.000 -26.272  1.00  0.00     0.021 C 
HETATM   14  C21 UNL     1      -2.638  51.971 -26.991  1.00  0.00     0.017 C 
HETATM   15  C22 UNL     1      -1.917  53.125 -27.700  1.00  0.00     0.033 C 
HETATM   16  C23 UNL     1      -0.400  53.005 -27.696  1.00  0.00     0.126 C 
HETATM   17  C24 UNL     1       0.170  52.964 -26.247  1.00  0.00    -0.017 C 
HETATM   18  C25 UNL     1       0.416  54.437 -25.805  1.00  0.00     0.018 C 
HETATM   19  C26 UNL     1       1.558  52.284 -26.225  1.00  0.00     0.018 C 
HETATM   20  C27 UNL     1      -0.870  52.341 -25.229  1.00  0.00     0.015 C 
HETATM   21  C28 UNL     1      -0.225  51.813 -23.949  1.00  0.00     0.090 C 
HETATM   22  C29 UNL     1      -1.288  51.569 -22.912  1.00  0.00     0.157 C 
HETATM   23  O3  UNL     1      -1.068  51.830 -21.730  1.00  0.00    -0.293 OA
ENDROOT
BRANCH   1  24
HETATM   24  C6  UNL     1      -6.029  47.716 -21.294  1.00  0.00    -0.014 C 
HETATM   25  C7  UNL     1      -5.120  46.656 -20.663  1.00  0.00     0.010 C 
BRANCH  24  26
HETATM   26  C5  UNL     1      -6.626  47.174 -22.625  1.00  0.00     0.008 C 
BRANCH  26  27
HETATM   27  C4  UNL     1      -8.111  47.493 -22.854  1.00  0.00     0.028 C 
BRANCH  27  28
HETATM   28  C3  UNL     1      -8.475  48.132 -24.173  1.00  0.00    -0.022 C 
HETATM   29  C2  UNL     1      -9.517  47.907 -25.000  1.00  0.00    -0.064 C 
HETATM   30  C1  UNL     1     -10.550  46.832 -24.799  1.00  0.00     0.045 C 
BRANCH  29  31
HETATM   31  C30 UNL     1      -9.675  48.726 -26.261  1.00  0.00     0.197 C 
BRANCH  31  32
HETATM   32  O4  UNL     1      -9.598  50.112 -25.965  1.00  0.00    -0.397 OA
HETATM   33  H48 UNL     1      -9.804  50.239 -25.024  1.00  0.00     0.209 HD
ENDBRANCH  31  32
ENDBRANCH  29  31
ENDBRANCH  27  28
ENDBRANCH  26  27
ENDBRANCH  24  26
ENDBRANCH   1  24
BRANCH   8  34
HETATM   34  O1  UNL     1      -3.941  49.108 -25.954  1.00  0.00    -0.391 OA
HETATM   35  H22 UNL     1      -4.779  48.819 -26.353  1.00  0.00     0.210 HD
ENDBRANCH   8  34
BRANCH  16  36
HETATM   36  O2  UNL     1      -0.030  51.854 -28.448  1.00  0.00    -0.395 OA
HETATM   37  H36 UNL     1      -0.366  51.968 -29.353  1.00  0.00     0.210 HD
ENDBRANCH  16  36
TORSDOF 8
ENDMDL
