MODEL 1
REMARK minimizedAffinity -6.06116343
REMARK CNNscore 0.700529277
REMARK CNNaffinity 7.48060369
REMARK  16 active torsions:
REMARK  status: ('A' for Active; 'I' for Inactive)
REMARK    1  A    between atoms: C2_2  and  C3_3 
REMARK    2  A    between atoms: C3_3  and  C4_4 
REMARK    3  A    between atoms: C4_4  and  C5_5 
REMARK    4  A    between atoms: C5_5  and  C6_6 
REMARK    5  A    between atoms: C8_8  and  C9_9 
REMARK    6  A    between atoms: C20_23  and  C21_24 
REMARK    7  A    between atoms: C21_24  and  N1_25 
REMARK    8  A    between atoms: N1_25  and  C22_26 
REMARK    9  A    between atoms: C22_26  and  C23_27 
REMARK   10  A    between atoms: C23_27  and  C24_28 
REMARK   11  A    between atoms: C24_28  and  O4_29 
REMARK   12  A    between atoms: C29_34  and  O5_35 
REMARK   13  A    between atoms: C30_36  and  O6_37 
REMARK   14  A    between atoms: C34_41  and  C35_42 
REMARK   15  A    between atoms: C41_48  and  O7_49 
REMARK   16  A    between atoms: C42_50  and  O8_51 
ROOT
HETATM    1  C6  UNL     1      -0.221  36.986 -30.334  1.00  0.00     0.016 C 
HETATM    2  C7  UNL     1      -0.813  38.076 -31.215  1.00  0.00     0.027 C 
HETATM    3  C8  UNL     1      -1.878  37.534 -32.230  1.00  0.00     0.051 C 
HETATM    4  C10 UNL     1      -2.687  38.783 -32.759  1.00  0.00     0.041 C 
HETATM    5  C11 UNL     1      -1.842  39.832 -33.491  1.00  0.00     0.010 C 
HETATM    6  C12 UNL     1      -2.578  41.163 -33.447  1.00  0.00     0.013 C 
HETATM    7  C13 UNL     1      -3.994  41.114 -34.058  1.00  0.00    -0.002 C 
HETATM    8  C14 UNL     1      -3.943  41.996 -35.334  1.00  0.00     0.019 C 
HETATM    9  C15 UNL     1      -5.058  41.595 -33.030  1.00  0.00     0.036 C 
HETATM   10  C16 UNL     1      -5.209  42.961 -32.462  1.00  0.00    -0.035 C 
HETATM   11  C17 UNL     1      -4.607  44.128 -32.684  1.00  0.00     0.088 C 
HETATM   12  C18 UNL     1      -5.354  45.116 -31.900  1.00  0.00     0.284 C 
HETATM   13  O2  UNL     1      -5.052  46.285 -31.769  1.00  0.00    -0.260 OA
HETATM   14  O3  UNL     1      -6.443  44.523 -31.333  1.00  0.00    -0.304 OA
HETATM   15  C19 UNL     1      -6.310  43.114 -31.466  1.00  0.00     0.192 C 
HETATM   16  C20 UNL     1      -7.601  42.424 -31.888  1.00  0.00    -0.022 C 
HETATM   17  C26 UNL     1      -7.602  41.515 -32.891  1.00  0.00    -0.014 C 
HETATM   18  C27 UNL     1      -6.379  41.246 -33.732  1.00  0.00     0.021 C 
HETATM   19  C28 UNL     1      -6.135  39.811 -34.192  1.00  0.00     0.051 C 
HETATM   20  C29 UNL     1      -4.579  39.668 -34.381  1.00  0.00     0.098 C 
HETATM   21  C30 UNL     1      -3.913  38.419 -33.623  1.00  0.00     0.095 C 
HETATM   22  C31 UNL     1      -4.842  37.635 -32.699  1.00  0.00     0.049 C 
HETATM   23  C32 UNL     1      -4.251  36.341 -32.107  1.00  0.00     0.025 C 
HETATM   24  C33 UNL     1      -5.283  35.663 -31.156  1.00  0.00     0.012 C 
HETATM   25  C34 UNL     1      -5.928  36.558 -30.057  1.00  0.00    -0.011 C 
HETATM   26  C38 UNL     1      -4.971  37.038 -28.942  1.00  0.00     0.005 C 
HETATM   27  C39 UNL     1      -3.600  37.570 -29.378  1.00  0.00     0.010 C 
HETATM   28  C40 UNL     1      -2.747  36.449 -29.987  1.00  0.00     0.051 C 
HETATM   29  C41 UNL     1      -1.304  36.381 -29.427  1.00  0.00     0.129 C 
HETATM   30  C42 UNL     1      -2.788  36.418 -31.544  1.00  0.00     0.082 C 
ENDROOT
BRANCH  16  31
HETATM   31  C21 UNL     1      -8.810  42.842 -31.078  1.00  0.00     0.306 C 
BRANCH  31  32
HETATM   32  N1  UNL     1      -9.388  44.130 -31.468  1.00  0.00     0.087 N 
HETATM   33  H29 UNL     1      -8.632  44.730 -31.800  1.00  0.00     0.316 HD
BRANCH  32  34
HETATM   34  C22 UNL     1     -10.008  44.785 -30.309  1.00  0.00     0.272 C 
BRANCH  34  35
HETATM   35  C23 UNL     1     -10.842  45.991 -30.758  1.00  0.00     0.056 C 
BRANCH  35  36
HETATM   36  C24 UNL     1      -9.998  47.257 -30.794  1.00  0.00     0.168 C 
BRANCH  36  37
HETATM   37  O4  UNL     1      -9.549  47.555 -32.117  1.00  0.00    -0.396 OA
HETATM   38  C25 UNL     1      -8.185  47.958 -32.165  1.00  0.00     0.201 C 
ENDBRANCH  36  37
ENDBRANCH  35  36
ENDBRANCH  34  35
ENDBRANCH  32  34
ENDBRANCH  31  32
ENDBRANCH  16  31
BRANCH  20  39
HETATM   39  O5  UNL     1      -4.404  39.408 -35.799  1.00  0.00    -0.386 OA
HETATM   40  H43 UNL     1      -3.443  39.297 -35.949  1.00  0.00     0.210 HD
ENDBRANCH  20  39
BRANCH  21  41
HETATM   41  O6  UNL     1      -3.492  37.495 -34.643  1.00  0.00    -0.386 OA
HETATM   42  H44 UNL     1      -4.192  37.504 -35.330  1.00  0.00     0.210 HD
ENDBRANCH  21  41
BRANCH   3  43
HETATM   43  C9  UNL     1      -1.113  36.920 -33.420  1.00  0.00     0.244 C 
HETATM   44  O1  UNL     1       0.113  36.817 -33.467  1.00  0.00    -0.306 OA
ENDBRANCH   3  43
BRANCH  30  45
HETATM   45  O8  UNL     1      -2.205  35.124 -31.890  1.00  0.00    -0.388 OA
HETATM   46  H65 UNL     1      -1.902  34.665 -31.077  1.00  0.00     0.210 HD
ENDBRANCH  30  45
BRANCH   1  47
HETATM   47  C5  UNL     1       0.956  37.492 -29.461  1.00  0.00     0.007 C 
BRANCH  47  48
HETATM   48  C4  UNL     1       0.591  38.359 -28.248  1.00  0.00     0.000 C 
BRANCH  48  49
HETATM   49  C3  UNL     1       1.730  38.546 -27.247  1.00  0.00    -0.000 C 
BRANCH  49  50
HETATM   50  C2  UNL     1       2.822  39.461 -27.814  1.00  0.00    -0.005 C 
HETATM   51  C1  UNL     1       4.198  38.841 -27.649  1.00  0.00     0.005 C 
ENDBRANCH  49  50
ENDBRANCH  48  49
ENDBRANCH  47  48
ENDBRANCH   1  47
BRANCH  25  52
HETATM   52  C35 UNL     1      -7.217  35.874 -29.485  1.00  0.00    -0.019 C 
HETATM   53  C36 UNL     1      -6.963  34.993 -28.262  1.00  0.00     0.010 C 
HETATM   54  C37 UNL     1      -8.319  36.891 -29.185  1.00  0.00     0.010 C 
ENDBRANCH  25  52
BRANCH  29  55
HETATM   55  O7  UNL     1      -0.996  34.981 -29.282  1.00  0.00    -0.395 OA
HETATM   56  H64 UNL     1      -0.092  34.910 -28.922  1.00  0.00     0.210 HD
ENDBRANCH  29  55
TORSDOF 16
ENDMDL
MODEL 2
REMARK minimizedAffinity -6.23839951
REMARK CNNscore 0.533091545
REMARK CNNaffinity 6.59533644
REMARK  16 active torsions:
REMARK  status: ('A' for Active; 'I' for Inactive)
REMARK    1  A    between atoms: C2_2  and  C3_3 
REMARK    2  A    between atoms: C3_3  and  C4_4 
REMARK    3  A    between atoms: C4_4  and  C5_5 
REMARK    4  A    between atoms: C5_5  and  C6_6 
REMARK    5  A    between atoms: C8_8  and  C9_9 
REMARK    6  A    between atoms: C20_23  and  C21_24 
REMARK    7  A    between atoms: C21_24  and  N1_25 
REMARK    8  A    between atoms: N1_25  and  C22_26 
REMARK    9  A    between atoms: C22_26  and  C23_27 
REMARK   10  A    between atoms: C23_27  and  C24_28 
REMARK   11  A    between atoms: C24_28  and  O4_29 
REMARK   12  A    between atoms: C29_34  and  O5_35 
REMARK   13  A    between atoms: C30_36  and  O6_37 
REMARK   14  A    between atoms: C34_41  and  C35_42 
REMARK   15  A    between atoms: C41_48  and  O7_49 
REMARK   16  A    between atoms: C42_50  and  O8_51 
ROOT
HETATM    1  C6  UNL     1      -6.401  48.024 -26.695  1.00  0.00     0.016 C 
HETATM    2  C7  UNL     1      -7.603  47.212 -26.238  1.00  0.00     0.027 C 
HETATM    3  C8  UNL     1      -8.909  47.545 -27.040  1.00  0.00     0.051 C 
HETATM    4  C10 UNL     1      -9.930  46.372 -26.765  1.00  0.00     0.041 C 
HETATM    5  C11 UNL     1     -10.323  46.195 -25.294  1.00  0.00     0.010 C 
HETATM    6  C12 UNL     1     -10.823  44.771 -25.095  1.00  0.00     0.013 C 
HETATM    7  C13 UNL     1     -12.012  44.394 -26.002  1.00  0.00    -0.002 C 
HETATM    8  C14 UNL     1     -13.228  44.194 -25.058  1.00  0.00     0.019 C 
HETATM    9  C15 UNL     1     -11.686  43.130 -26.848  1.00  0.00     0.036 C 
HETATM   10  C16 UNL     1     -11.460  41.747 -26.349  1.00  0.00    -0.035 C 
HETATM   11  C17 UNL     1     -11.539  41.169 -25.152  1.00  0.00     0.088 C 
HETATM   12  C18 UNL     1     -11.350  39.735 -25.390  1.00  0.00     0.284 C 
HETATM   13  O2  UNL     1     -11.263  38.884 -24.527  1.00  0.00    -0.260 OA
HETATM   14  O3  UNL     1     -11.280  39.498 -26.730  1.00  0.00    -0.304 OA
HETATM   15  C19 UNL     1     -11.130  40.741 -27.402  1.00  0.00     0.192 C 
HETATM   16  C20 UNL     1     -12.003  40.864 -28.644  1.00  0.00    -0.022 C 
HETATM   17  C26 UNL     1     -12.747  41.976 -28.857  1.00  0.00    -0.014 C 
HETATM   18  C27 UNL     1     -12.866  43.073 -27.828  1.00  0.00     0.021 C 
HETATM   19  C28 UNL     1     -12.945  44.512 -28.329  1.00  0.00     0.051 C 
HETATM   20  C29 UNL     1     -12.359  45.411 -27.178  1.00  0.00     0.098 C 
HETATM   21  C30 UNL     1     -11.205  46.432 -27.633  1.00  0.00     0.095 C 
HETATM   22  C31 UNL     1     -10.723  46.285 -29.074  1.00  0.00     0.049 C 
HETATM   23  C32 UNL     1      -9.743  47.370 -29.558  1.00  0.00     0.025 C 
HETATM   24  C33 UNL     1      -9.300  47.080 -31.025  1.00  0.00     0.012 C 
HETATM   25  C34 UNL     1      -8.776  45.649 -31.337  1.00  0.00    -0.011 C 
HETATM   26  C38 UNL     1      -7.425  45.277 -30.683  1.00  0.00     0.005 C 
HETATM   27  C39 UNL     1      -7.238  45.644 -29.206  1.00  0.00     0.010 C 
HETATM   28  C40 UNL     1      -7.206  47.166 -29.020  1.00  0.00     0.051 C 
HETATM   29  C41 UNL     1      -6.031  47.669 -28.143  1.00  0.00     0.129 C 
HETATM   30  C42 UNL     1      -8.577  47.764 -28.585  1.00  0.00     0.082 C 
ENDROOT
BRANCH  16  31
HETATM   31  C21 UNL     1     -11.926  39.667 -29.567  1.00  0.00     0.306 C 
BRANCH  31  32
HETATM   32  N1  UNL     1     -12.704  38.507 -29.126  1.00  0.00     0.087 N 
HETATM   33  H29 UNL     1     -12.538  38.375 -28.127  1.00  0.00     0.316 HD
BRANCH  32  34
HETATM   34  C22 UNL     1     -12.253  37.294 -29.821  1.00  0.00     0.272 C 
BRANCH  34  35
HETATM   35  C23 UNL     1     -13.100  36.088 -29.398  1.00  0.00     0.056 C 
BRANCH  35  36
HETATM   36  C24 UNL     1     -12.993  34.961 -30.414  1.00  0.00     0.168 C 
BRANCH  36  37
HETATM   37  O4  UNL     1     -14.134  34.914 -31.272  1.00  0.00    -0.396 OA
HETATM   38  C25 UNL     1     -13.832  35.256 -32.621  1.00  0.00     0.201 C 
ENDBRANCH  36  37
ENDBRANCH  35  36
ENDBRANCH  34  35
ENDBRANCH  32  34
ENDBRANCH  31  32
ENDBRANCH  16  31
BRANCH  20  39
HETATM   39  O5  UNL     1     -13.475  46.239 -26.756  1.00  0.00    -0.386 OA
HETATM   40  H43 UNL     1     -13.138  46.826 -26.047  1.00  0.00     0.210 HD
ENDBRANCH  20  39
BRANCH  21  41
HETATM   41  O6  UNL     1     -11.763  47.755 -27.531  1.00  0.00    -0.386 OA
HETATM   42  H44 UNL     1     -12.691  47.688 -27.840  1.00  0.00     0.210 HD
ENDBRANCH  21  41
BRANCH   3  43
HETATM   43  C9  UNL     1      -9.498  48.842 -26.447  1.00  0.00     0.244 C 
HETATM   44  O1  UNL     1      -9.316  49.209 -25.286  1.00  0.00    -0.306 OA
ENDBRANCH   3  43
BRANCH  30  45
HETATM   45  O8  UNL     1      -8.417  49.203 -28.784  1.00  0.00    -0.388 OA
HETATM   46  H65 UNL     1      -7.500  49.401 -29.073  1.00  0.00     0.210 HD
ENDBRANCH  30  45
BRANCH   1  47
HETATM   47  C5  UNL     1      -5.161  47.824 -25.785  1.00  0.00     0.007 C 
BRANCH  47  48
HETATM   48  C4  UNL     1      -4.287  49.061 -25.532  1.00  0.00     0.000 C 
BRANCH  48  49
HETATM   49  C3  UNL     1      -3.332  48.920 -24.347  1.00  0.00    -0.000 C 
BRANCH  49  50
HETATM   50  C2  UNL     1      -2.181  49.928 -24.441  1.00  0.00    -0.005 C 
HETATM   51  C1  UNL     1      -1.934  50.348 -25.879  1.00  0.00     0.005 C 
ENDBRANCH  49  50
ENDBRANCH  48  49
ENDBRANCH  47  48
ENDBRANCH   1  47
BRANCH  25  52
HETATM   52  C35 UNL     1      -8.782  45.390 -32.882  1.00  0.00    -0.019 C 
HETATM   53  C36 UNL     1      -8.445  46.622 -33.721  1.00  0.00     0.010 C 
HETATM   54  C37 UNL     1      -7.877  44.221 -33.271  1.00  0.00     0.010 C 
ENDBRANCH  25  52
BRANCH  29  55
HETATM   55  O7  UNL     1      -5.558  48.880 -28.764  1.00  0.00    -0.395 OA
HETATM   56  H64 UNL     1      -4.810  49.214 -28.234  1.00  0.00     0.210 HD
ENDBRANCH  29  55
TORSDOF 16
ENDMDL
MODEL 3
REMARK minimizedAffinity -6.45985222
REMARK CNNscore 0.443511069
REMARK CNNaffinity 6.45519829
REMARK  16 active torsions:
REMARK  status: ('A' for Active; 'I' for Inactive)
REMARK    1  A    between atoms: C2_2  and  C3_3 
REMARK    2  A    between atoms: C3_3  and  C4_4 
REMARK    3  A    between atoms: C4_4  and  C5_5 
REMARK    4  A    between atoms: C5_5  and  C6_6 
REMARK    5  A    between atoms: C8_8  and  C9_9 
REMARK    6  A    between atoms: C20_23  and  C21_24 
REMARK    7  A    between atoms: C21_24  and  N1_25 
REMARK    8  A    between atoms: N1_25  and  C22_26 
REMARK    9  A    between atoms: C22_26  and  C23_27 
REMARK   10  A    between atoms: C23_27  and  C24_28 
REMARK   11  A    between atoms: C24_28  and  O4_29 
REMARK   12  A    between atoms: C29_34  and  O5_35 
REMARK   13  A    between atoms: C30_36  and  O6_37 
REMARK   14  A    between atoms: C34_41  and  C35_42 
REMARK   15  A    between atoms: C41_48  and  O7_49 
REMARK   16  A    between atoms: C42_50  and  O8_51 
ROOT
HETATM    1  C6  UNL     1      -0.353  54.719  -9.306  1.00  0.00     0.016 C 
HETATM    2  C7  UNL     1      -0.342  55.141  -7.844  1.00  0.00     0.027 C 
HETATM    3  C8  UNL     1       0.625  54.278  -6.964  1.00  0.00     0.051 C 
HETATM    4  C10 UNL     1       0.852  55.071  -5.616  1.00  0.00     0.041 C 
HETATM    5  C11 UNL     1      -0.420  55.321  -4.797  1.00  0.00     0.010 C 
HETATM    6  C12 UNL     1      -0.177  56.510  -3.878  1.00  0.00     0.013 C 
HETATM    7  C13 UNL     1       1.028  56.331  -2.932  1.00  0.00    -0.002 C 
HETATM    8  C14 UNL     1       0.439  56.251  -1.497  1.00  0.00     0.019 C 
HETATM    9  C15 UNL     1       2.048  57.493  -3.106  1.00  0.00     0.036 C 
HETATM   10  C16 UNL     1       1.840  58.929  -2.781  1.00  0.00    -0.035 C 
HETATM   11  C17 UNL     1       0.852  59.617  -2.212  1.00  0.00     0.088 C 
HETATM   12  C18 UNL     1       1.363  60.980  -2.043  1.00  0.00     0.284 C 
HETATM   13  O2  UNL     1       0.719  61.929  -1.642  1.00  0.00    -0.260 OA
HETATM   14  O3  UNL     1       2.675  61.027  -2.411  1.00  0.00    -0.304 OA
HETATM   15  C19 UNL     1       2.997  59.821  -3.089  1.00  0.00     0.192 C 
HETATM   16  C20 UNL     1       4.337  59.232  -2.667  1.00  0.00    -0.022 C 
HETATM   17  C26 UNL     1       4.447  57.917  -2.360  1.00  0.00    -0.014 C 
HETATM   18  C27 UNL     1       3.247  57.008  -2.277  1.00  0.00     0.021 C 
HETATM   19  C28 UNL     1       3.412  55.567  -2.753  1.00  0.00     0.051 C 
HETATM   20  C29 UNL     1       1.988  55.095  -3.228  1.00  0.00     0.098 C 
HETATM   21  C30 UNL     1       1.938  54.462  -4.704  1.00  0.00     0.095 C 
HETATM   22  C31 UNL     1       3.235  54.547  -5.503  1.00  0.00     0.049 C 
HETATM   23  C32 UNL     1       3.237  53.792  -6.846  1.00  0.00     0.025 C 
HETATM   24  C33 UNL     1       4.599  53.993  -7.577  1.00  0.00     0.012 C 
HETATM   25  C34 UNL     1       5.108  55.456  -7.737  1.00  0.00    -0.011 C 
HETATM   26  C38 UNL     1       4.280  56.348  -8.690  1.00  0.00     0.005 C 
HETATM   27  C39 UNL     1       2.753  56.286  -8.556  1.00  0.00     0.010 C 
HETATM   28  C40 UNL     1       2.223  54.907  -8.967  1.00  0.00     0.051 C 
HETATM   29  C41 UNL     1       1.023  54.960  -9.946  1.00  0.00     0.129 C 
HETATM   30  C42 UNL     1       1.971  53.957  -7.759  1.00  0.00     0.082 C 
ENDROOT
BRANCH  16  31
HETATM   31  C21 UNL     1       5.469  60.236  -2.653  1.00  0.00     0.306 C 
BRANCH  31  32
HETATM   32  N1  UNL     1       5.489  61.146  -3.801  1.00  0.00     0.087 N 
HETATM   33  H29 UNL     1       6.093  60.741  -4.518  1.00  0.00     0.316 HD
BRANCH  32  34
HETATM   34  C22 UNL     1       6.057  62.445  -3.416  1.00  0.00     0.272 C 
BRANCH  34  35
HETATM   35  C23 UNL     1       5.663  63.524  -4.431  1.00  0.00     0.056 C 
BRANCH  35  36
HETATM   36  C24 UNL     1       4.153  63.586  -4.606  1.00  0.00     0.168 C 
BRANCH  36  37
HETATM   37  O4  UNL     1       3.702  64.921  -4.837  1.00  0.00    -0.396 OA
HETATM   38  C25 UNL     1       2.937  65.447  -3.758  1.00  0.00     0.201 C 
ENDBRANCH  36  37
ENDBRANCH  35  36
ENDBRANCH  34  35
ENDBRANCH  32  34
ENDBRANCH  31  32
ENDBRANCH  16  31
BRANCH  20  39
HETATM   39  O5  UNL     1       1.640  54.014  -2.323  1.00  0.00    -0.386 OA
HETATM   40  H43 UNL     1       0.761  53.684  -2.603  1.00  0.00     0.210 HD
ENDBRANCH  20  39
BRANCH  21  41
HETATM   41  O6  UNL     1       1.660  53.059  -4.540  1.00  0.00    -0.386 OA
HETATM   42  H44 UNL     1       2.170  52.766  -3.755  1.00  0.00     0.210 HD
ENDBRANCH  21  41
BRANCH   3  43
HETATM   43  C9  UNL     1      -0.105  52.961  -6.628  1.00  0.00     0.244 C 
HETATM   44  O1  UNL     1      -1.212  52.659  -7.074  1.00  0.00    -0.306 OA
ENDBRANCH   3  43
BRANCH  30  45
HETATM   45  O8  UNL     1       1.798  52.641  -8.370  1.00  0.00    -0.388 OA
HETATM   46  H65 UNL     1       1.829  52.719  -9.348  1.00  0.00     0.210 HD
ENDBRANCH  30  45
BRANCH   1  47
HETATM   47  C5  UNL     1      -1.440  55.451 -10.135  1.00  0.00     0.007 C 
BRANCH  47  48
HETATM   48  C4  UNL     1      -2.735  54.675 -10.411  1.00  0.00     0.000 C 
BRANCH  48  49
HETATM   49  C3  UNL     1      -2.675  53.199 -10.021  1.00  0.00    -0.000 C 
BRANCH  49  50
HETATM   50  C2  UNL     1      -3.702  52.376 -10.809  1.00  0.00    -0.005 C 
HETATM   51  C1  UNL     1      -3.966  52.988 -12.173  1.00  0.00     0.005 C 
ENDBRANCH  49  50
ENDBRANCH  48  49
ENDBRANCH  47  48
ENDBRANCH   1  47
BRANCH  25  52
HETATM   52  C35 UNL     1       6.635  55.466  -8.085  1.00  0.00    -0.019 C 
HETATM   53  C36 UNL     1       7.551  55.578  -6.867  1.00  0.00     0.010 C 
HETATM   54  C37 UNL     1       7.036  54.263  -8.940  1.00  0.00     0.010 C 
ENDBRANCH  25  52
BRANCH  29  55
HETATM   55  O7  UNL     1       1.234  53.898 -10.897  1.00  0.00    -0.395 OA
HETATM   56  H64 UNL     1       0.494  53.914 -11.531  1.00  0.00     0.210 HD
ENDBRANCH  29  55
TORSDOF 16
ENDMDL
MODEL 4
REMARK minimizedAffinity -7.63455343
REMARK CNNscore 0.416766733
REMARK CNNaffinity 6.65360689
REMARK  16 active torsions:
REMARK  status: ('A' for Active; 'I' for Inactive)
REMARK    1  A    between atoms: C2_2  and  C3_3 
REMARK    2  A    between atoms: C3_3  and  C4_4 
REMARK    3  A    between atoms: C4_4  and  C5_5 
REMARK    4  A    between atoms: C5_5  and  C6_6 
REMARK    5  A    between atoms: C8_8  and  C9_9 
REMARK    6  A    between atoms: C20_23  and  C21_24 
REMARK    7  A    between atoms: C21_24  and  N1_25 
REMARK    8  A    between atoms: N1_25  and  C22_26 
REMARK    9  A    between atoms: C22_26  and  C23_27 
REMARK   10  A    between atoms: C23_27  and  C24_28 
REMARK   11  A    between atoms: C24_28  and  O4_29 
REMARK   12  A    between atoms: C29_34  and  O5_35 
REMARK   13  A    between atoms: C30_36  and  O6_37 
REMARK   14  A    between atoms: C34_41  and  C35_42 
REMARK   15  A    between atoms: C41_48  and  O7_49 
REMARK   16  A    between atoms: C42_50  and  O8_51 
ROOT
HETATM    1  C6  UNL     1     -14.147  46.000 -26.781  1.00  0.00     0.016 C 
HETATM    2  C7  UNL     1     -13.238  46.399 -27.934  1.00  0.00     0.027 C 
HETATM    3  C8  UNL     1     -11.841  46.930 -27.459  1.00  0.00     0.051 C 
HETATM    4  C10 UNL     1     -10.885  46.899 -28.716  1.00  0.00     0.041 C 
HETATM    5  C11 UNL     1     -11.339  47.777 -29.888  1.00  0.00     0.010 C 
HETATM    6  C12 UNL     1     -10.693  47.252 -31.163  1.00  0.00     0.013 C 
HETATM    7  C13 UNL     1      -9.152  47.208 -31.109  1.00  0.00    -0.002 C 
HETATM    8  C14 UNL     1      -8.656  48.260 -32.138  1.00  0.00     0.019 C 
HETATM    9  C15 UNL     1      -8.628  45.774 -31.406  1.00  0.00     0.036 C 
HETATM   10  C16 UNL     1      -8.734  45.023 -32.685  1.00  0.00    -0.035 C 
HETATM   11  C17 UNL     1      -9.185  45.324 -33.901  1.00  0.00     0.088 C 
HETATM   12  C18 UNL     1      -8.844  44.176 -34.746  1.00  0.00     0.284 C 
HETATM   13  O2  UNL     1      -9.175  44.034 -35.907  1.00  0.00    -0.260 OA
HETATM   14  O3  UNL     1      -8.100  43.285 -34.031  1.00  0.00    -0.304 OA
HETATM   15  C19 UNL     1      -8.162  43.644 -32.658  1.00  0.00     0.192 C 
HETATM   16  C20 UNL     1      -6.814  43.568 -31.954  1.00  0.00    -0.022 C 
HETATM   17  C26 UNL     1      -6.385  44.586 -31.171  1.00  0.00    -0.014 C 
HETATM   18  C27 UNL     1      -7.133  45.892 -31.070  1.00  0.00     0.021 C 
HETATM   19  C28 UNL     1      -7.156  46.595 -29.716  1.00  0.00     0.051 C 
HETATM   20  C29 UNL     1      -8.484  47.440 -29.682  1.00  0.00     0.098 C 
HETATM   21  C30 UNL     1      -9.407  47.204 -28.390  1.00  0.00     0.095 C 
HETATM   22  C31 UNL     1      -8.960  46.086 -27.452  1.00  0.00     0.049 C 
HETATM   23  C32 UNL     1      -9.745  45.973 -26.132  1.00  0.00     0.025 C 
HETATM   24  C33 UNL     1      -9.216  44.772 -25.291  1.00  0.00     0.012 C 
HETATM   25  C34 UNL     1      -9.101  43.398 -26.012  1.00  0.00    -0.011 C 
HETATM   26  C38 UNL     1     -10.442  42.739 -26.408  1.00  0.00     0.005 C 
HETATM   27  C39 UNL     1     -11.498  43.640 -27.062  1.00  0.00     0.010 C 
HETATM   28  C40 UNL     1     -12.009  44.692 -26.069  1.00  0.00     0.051 C 
HETATM   29  C41 UNL     1     -13.553  44.808 -26.015  1.00  0.00     0.129 C 
HETATM   30  C42 UNL     1     -11.309  46.076 -26.221  1.00  0.00     0.082 C 
ENDROOT
BRANCH  16  31
HETATM   31  C21 UNL     1      -6.065  42.276 -32.205  1.00  0.00     0.306 C 
BRANCH  31  32
HETATM   32  N1  UNL     1      -4.622  42.437 -32.400  1.00  0.00     0.087 N 
HETATM   33  H29 UNL     1      -4.466  43.313 -32.902  1.00  0.00     0.316 HD
BRANCH  32  34
HETATM   34  C22 UNL     1      -4.092  41.344 -33.226  1.00  0.00     0.272 C 
BRANCH  34  35
HETATM   35  C23 UNL     1      -3.452  41.900 -34.503  1.00  0.00     0.056 C 
BRANCH  35  36
HETATM   36  C24 UNL     1      -4.370  41.710 -35.702  1.00  0.00     0.168 C 
BRANCH  36  37
HETATM   37  O4  UNL     1      -4.656  40.330 -35.935  1.00  0.00    -0.396 OA
HETATM   38  C25 UNL     1      -3.572  39.630 -36.537  1.00  0.00     0.201 C 
ENDBRANCH  36  37
ENDBRANCH  35  36
ENDBRANCH  34  35
ENDBRANCH  32  34
ENDBRANCH  31  32
ENDBRANCH  16  31
BRANCH  20  39
HETATM   39  O5  UNL     1      -8.037  48.820 -29.601  1.00  0.00    -0.386 OA
HETATM   40  H43 UNL     1      -8.844  49.375 -29.562  1.00  0.00     0.210 HD
ENDBRANCH  20  39
BRANCH  21  41
HETATM   41  O6  UNL     1      -9.354  48.418 -27.618  1.00  0.00    -0.386 OA
HETATM   42  H44 UNL     1      -8.428  48.737 -27.670  1.00  0.00     0.210 HD
ENDBRANCH  21  41
BRANCH   3  43
HETATM   43  C9  UNL     1     -12.026  48.401 -27.032  1.00  0.00     0.244 C 
HETATM   44  O1  UNL     1     -11.288  48.982 -26.237  1.00  0.00    -0.306 OA
ENDBRANCH   3  43
BRANCH  30  45
HETATM   45  O8  UNL     1     -11.688  46.801 -25.011  1.00  0.00    -0.388 OA
HETATM   46  H65 UNL     1     -12.307  46.259 -24.476  1.00  0.00     0.210 HD
ENDBRANCH  30  45
BRANCH   1  47
HETATM   47  C5  UNL     1     -15.584  45.648 -27.243  1.00  0.00     0.007 C 
BRANCH  47  48
HETATM   48  C4  UNL     1     -15.709  44.744 -28.477  1.00  0.00     0.000 C 
BRANCH  48  49
HETATM   49  C3  UNL     1     -16.661  43.562 -28.294  1.00  0.00    -0.000 C 
BRANCH  49  50
HETATM   50  C2  UNL     1     -18.014  44.022 -27.741  1.00  0.00    -0.005 C 
HETATM   51  C1  UNL     1     -19.150  43.629 -28.669  1.00  0.00     0.005 C 
ENDBRANCH  49  50
ENDBRANCH  48  49
ENDBRANCH  47  48
ENDBRANCH   1  47
BRANCH  25  52
HETATM   52  C35 UNL     1      -8.178  42.429 -25.196  1.00  0.00    -0.019 C 
HETATM   53  C36 UNL     1      -7.570  43.057 -23.943  1.00  0.00     0.010 C 
HETATM   54  C37 UNL     1      -8.891  41.124 -24.841  1.00  0.00     0.010 C 
ENDBRANCH  25  52
BRANCH  29  55
HETATM   55  O7  UNL     1     -13.892  44.991 -24.626  1.00  0.00    -0.395 OA
HETATM   56  H64 UNL     1     -14.863  45.060 -24.563  1.00  0.00     0.210 HD
ENDBRANCH  29  55
TORSDOF 16
ENDMDL
MODEL 5
REMARK minimizedAffinity -6.44711828
REMARK CNNscore 0.403293073
REMARK CNNaffinity 6.4997406
REMARK  16 active torsions:
REMARK  status: ('A' for Active; 'I' for Inactive)
REMARK    1  A    between atoms: C2_2  and  C3_3 
REMARK    2  A    between atoms: C3_3  and  C4_4 
REMARK    3  A    between atoms: C4_4  and  C5_5 
REMARK    4  A    between atoms: C5_5  and  C6_6 
REMARK    5  A    between atoms: C8_8  and  C9_9 
REMARK    6  A    between atoms: C20_23  and  C21_24 
REMARK    7  A    between atoms: C21_24  and  N1_25 
REMARK    8  A    between atoms: N1_25  and  C22_26 
REMARK    9  A    between atoms: C22_26  and  C23_27 
REMARK   10  A    between atoms: C23_27  and  C24_28 
REMARK   11  A    between atoms: C24_28  and  O4_29 
REMARK   12  A    between atoms: C29_34  and  O5_35 
REMARK   13  A    between atoms: C30_36  and  O6_37 
REMARK   14  A    between atoms: C34_41  and  C35_42 
REMARK   15  A    between atoms: C41_48  and  O7_49 
REMARK   16  A    between atoms: C42_50  and  O8_51 
ROOT
HETATM    1  C6  UNL     1      -0.109  53.346  -9.997  1.00  0.00     0.016 C 
HETATM    2  C7  UNL     1      -0.496  53.599  -8.548  1.00  0.00     0.027 C 
HETATM    3  C8  UNL     1       0.584  53.099  -7.528  1.00  0.00     0.051 C 
HETATM    4  C10 UNL     1       0.262  53.787  -6.142  1.00  0.00     0.041 C 
HETATM    5  C11 UNL     1      -1.116  53.447  -5.562  1.00  0.00     0.010 C 
HETATM    6  C12 UNL     1      -1.513  54.545  -4.586  1.00  0.00     0.013 C 
HETATM    7  C13 UNL     1      -0.502  54.758  -3.441  1.00  0.00    -0.002 C 
HETATM    8  C14 UNL     1      -1.228  54.322  -2.139  1.00  0.00     0.019 C 
HETATM    9  C15 UNL     1      -0.015  56.235  -3.398  1.00  0.00     0.036 C 
HETATM   10  C16 UNL     1      -0.824  57.442  -3.082  1.00  0.00    -0.035 C 
HETATM   11  C17 UNL     1      -2.080  57.636  -2.685  1.00  0.00     0.088 C 
HETATM   12  C18 UNL     1      -2.187  59.069  -2.393  1.00  0.00     0.284 C 
HETATM   13  O2  UNL     1      -3.210  59.652  -2.092  1.00  0.00    -0.260 OA
HETATM   14  O3  UNL     1      -0.962  59.654  -2.516  1.00  0.00    -0.304 OA
HETATM   15  C19 UNL     1      -0.085  58.736  -3.153  1.00  0.00     0.192 C 
HETATM   16  C20 UNL     1       1.294  58.675  -2.509  1.00  0.00    -0.022 C 
HETATM   17  C26 UNL     1       1.869  57.483  -2.219  1.00  0.00    -0.014 C 
HETATM   18  C27 UNL     1       1.132  56.177  -2.378  1.00  0.00     0.021 C 
HETATM   19  C28 UNL     1       1.929  54.964  -2.851  1.00  0.00     0.051 C 
HETATM   20  C29 UNL     1       0.904  54.024  -3.588  1.00  0.00     0.098 C 
HETATM   21  C30 UNL     1       1.342  53.564  -5.063  1.00  0.00     0.095 C 
HETATM   22  C31 UNL     1       2.607  54.219  -5.612  1.00  0.00     0.049 C 
HETATM   23  C32 UNL     1       3.119  53.653  -6.950  1.00  0.00     0.025 C 
HETATM   24  C33 UNL     1       4.385  54.434  -7.416  1.00  0.00     0.012 C 
HETATM   25  C34 UNL     1       4.289  55.988  -7.446  1.00  0.00    -0.011 C 
HETATM   26  C38 UNL     1       3.335  56.575  -8.511  1.00  0.00     0.005 C 
HETATM   27  C39 UNL     1       1.958  55.915  -8.658  1.00  0.00     0.010 C 
HETATM   28  C40 UNL     1       2.093  54.483  -9.192  1.00  0.00     0.051 C 
HETATM   29  C41 UNL     1       1.140  54.159 -10.371  1.00  0.00     0.129 C 
HETATM   30  C42 UNL     1       2.052  53.400  -8.073  1.00  0.00     0.082 C 
ENDROOT
BRANCH  16  31
HETATM   31  C21 UNL     1       1.916  60.034  -2.266  1.00  0.00     0.306 C 
BRANCH  31  32
HETATM   32  N1  UNL     1       3.347  60.112  -2.573  1.00  0.00     0.087 N 
HETATM   33  H29 UNL     1       3.836  59.440  -1.979  1.00  0.00     0.316 HD
BRANCH  32  34
HETATM   34  C22 UNL     1       3.865  61.450  -2.261  1.00  0.00     0.272 C 
BRANCH  34  35
HETATM   35  C23 UNL     1       3.927  62.309  -3.528  1.00  0.00     0.056 C 
BRANCH  35  36
HETATM   36  C24 UNL     1       3.154  63.607  -3.348  1.00  0.00     0.168 C 
BRANCH  36  37
HETATM   37  O4  UNL     1       3.210  64.423  -4.519  1.00  0.00    -0.396 OA
HETATM   38  C25 UNL     1       3.258  65.816  -4.228  1.00  0.00     0.201 C 
ENDBRANCH  36  37
ENDBRANCH  35  36
ENDBRANCH  34  35
ENDBRANCH  32  34
ENDBRANCH  31  32
ENDBRANCH  16  31
BRANCH  20  39
HETATM   39  O5  UNL     1       0.877  52.813  -2.788  1.00  0.00    -0.386 OA
HETATM   40  H43 UNL     1       0.258  52.196  -3.230  1.00  0.00     0.210 HD
ENDBRANCH  20  39
BRANCH  21  41
HETATM   41  O6  UNL     1       1.624  52.154  -4.987  1.00  0.00    -0.386 OA
HETATM   42  H44 UNL     1       2.078  52.009  -4.130  1.00  0.00     0.210 HD
ENDBRANCH  21  41
BRANCH   3  43
HETATM   43  C9  UNL     1       0.394  51.577  -7.362  1.00  0.00     0.244 C 
HETATM   44  O1  UNL     1       0.027  50.830  -8.269  1.00  0.00    -0.306 OA
ENDBRANCH   3  43
BRANCH  30  45
HETATM   45  O8  UNL     1       2.515  52.184  -8.737  1.00  0.00    -0.388 OA
HETATM   46  H65 UNL     1       2.666  52.360  -9.691  1.00  0.00     0.210 HD
ENDBRANCH  30  45
BRANCH   1  47
HETATM   47  C5  UNL     1      -1.252  53.675 -10.991  1.00  0.00     0.007 C 
BRANCH  47  48
HETATM   48  C4  UNL     1      -2.364  54.601 -10.480  1.00  0.00     0.000 C 
BRANCH  48  49
HETATM   49  C3  UNL     1      -3.740  53.940 -10.395  1.00  0.00    -0.000 C 
BRANCH  49  50
HETATM   50  C2  UNL     1      -3.887  52.832 -11.443  1.00  0.00    -0.005 C 
HETATM   51  C1  UNL     1      -4.300  51.519 -10.800  1.00  0.00     0.005 C 
ENDBRANCH  49  50
ENDBRANCH  48  49
ENDBRANCH  47  48
ENDBRANCH   1  47
BRANCH  25  52
HETATM   52  C35 UNL     1       5.720  56.622  -7.511  1.00  0.00    -0.019 C 
HETATM   53  C36 UNL     1       6.142  57.340  -6.230  1.00  0.00     0.010 C 
HETATM   54  C37 UNL     1       6.781  55.598  -7.918  1.00  0.00     0.010 C 
ENDBRANCH  25  52
BRANCH  29  55
HETATM   55  O7  UNL     1       1.903  53.357 -11.293  1.00  0.00    -0.395 OA
HETATM   56  H64 UNL     1       1.326  53.145 -12.051  1.00  0.00     0.210 HD
ENDBRANCH  29  55
TORSDOF 16
ENDMDL
MODEL 6
REMARK minimizedAffinity -7.18100691
REMARK CNNscore 0.386969835
REMARK CNNaffinity 6.41588163
REMARK  16 active torsions:
REMARK  status: ('A' for Active; 'I' for Inactive)
REMARK    1  A    between atoms: C2_2  and  C3_3 
REMARK    2  A    between atoms: C3_3  and  C4_4 
REMARK    3  A    between atoms: C4_4  and  C5_5 
REMARK    4  A    between atoms: C5_5  and  C6_6 
REMARK    5  A    between atoms: C8_8  and  C9_9 
REMARK    6  A    between atoms: C20_23  and  C21_24 
REMARK    7  A    between atoms: C21_24  and  N1_25 
REMARK    8  A    between atoms: N1_25  and  C22_26 
REMARK    9  A    between atoms: C22_26  and  C23_27 
REMARK   10  A    between atoms: C23_27  and  C24_28 
REMARK   11  A    between atoms: C24_28  and  O4_29 
REMARK   12  A    between atoms: C29_34  and  O5_35 
REMARK   13  A    between atoms: C30_36  and  O6_37 
REMARK   14  A    between atoms: C34_41  and  C35_42 
REMARK   15  A    between atoms: C41_48  and  O7_49 
REMARK   16  A    between atoms: C42_50  and  O8_51 
ROOT
HETATM    1  C6  UNL     1      -8.867  47.571 -29.762  1.00  0.00     0.016 C 
HETATM    2  C7  UNL     1     -10.042  46.766 -29.228  1.00  0.00     0.027 C 
HETATM    3  C8  UNL     1      -9.616  45.679 -28.181  1.00  0.00     0.051 C 
HETATM    4  C10 UNL     1     -10.927  45.232 -27.422  1.00  0.00     0.041 C 
HETATM    5  C11 UNL     1     -12.008  44.614 -28.317  1.00  0.00     0.010 C 
HETATM    6  C12 UNL     1     -13.352  44.747 -27.615  1.00  0.00     0.013 C 
HETATM    7  C13 UNL     1     -13.393  44.093 -26.219  1.00  0.00    -0.002 C 
HETATM    8  C14 UNL     1     -14.375  42.896 -26.333  1.00  0.00     0.019 C 
HETATM    9  C15 UNL     1     -13.818  45.125 -25.135  1.00  0.00     0.036 C 
HETATM   10  C16 UNL     1     -15.137  45.800 -25.002  1.00  0.00    -0.035 C 
HETATM   11  C17 UNL     1     -16.301  45.693 -25.641  1.00  0.00     0.088 C 
HETATM   12  C18 UNL     1     -17.242  46.534 -24.895  1.00  0.00     0.284 C 
HETATM   13  O2  UNL     1     -18.388  46.771 -25.224  1.00  0.00    -0.260 OA
HETATM   14  O3  UNL     1     -16.636  47.018 -23.774  1.00  0.00    -0.304 OA
HETATM   15  C19 UNL     1     -15.240  46.773 -23.875  1.00  0.00     0.192 C 
HETATM   16  C20 UNL     1     -14.624  46.257 -22.580  1.00  0.00    -0.022 C 
HETATM   17  C26 UNL     1     -13.801  45.182 -22.587  1.00  0.00    -0.014 C 
HETATM   18  C27 UNL     1     -13.566  44.358 -23.829  1.00  0.00     0.021 C 
HETATM   19  C28 UNL     1     -12.168  43.788 -24.050  1.00  0.00     0.051 C 
HETATM   20  C29 UNL     1     -11.996  43.633 -25.607  1.00  0.00     0.098 C 
HETATM   21  C30 UNL     1     -10.670  44.305 -26.215  1.00  0.00     0.095 C 
HETATM   22  C31 UNL     1      -9.840  45.133 -25.237  1.00  0.00     0.049 C 
HETATM   23  C32 UNL     1      -8.486  45.633 -25.775  1.00  0.00     0.025 C 
HETATM   24  C33 UNL     1      -7.762  46.494 -24.696  1.00  0.00     0.012 C 
HETATM   25  C34 UNL     1      -8.582  47.643 -24.040  1.00  0.00    -0.011 C 
HETATM   26  C38 UNL     1      -8.941  48.822 -24.974  1.00  0.00     0.005 C 
HETATM   27  C39 UNL     1      -9.467  48.472 -26.371  1.00  0.00     0.010 C 
HETATM   28  C40 UNL     1      -8.376  47.798 -27.213  1.00  0.00     0.051 C 
HETATM   29  C41 UNL     1      -8.221  48.393 -28.636  1.00  0.00     0.129 C 
HETATM   30  C42 UNL     1      -8.474  46.243 -27.221  1.00  0.00     0.082 C 
ENDROOT
BRANCH  16  31
HETATM   31  C21 UNL     1     -15.008  47.063 -21.357  1.00  0.00     0.306 C 
BRANCH  31  32
HETATM   32  N1  UNL     1     -16.356  46.795 -20.851  1.00  0.00     0.087 N 
HETATM   33  H29 UNL     1     -17.010  47.398 -21.353  1.00  0.00     0.316 HD
BRANCH  32  34
HETATM   34  C22 UNL     1     -16.443  47.128 -19.423  1.00  0.00     0.272 C 
BRANCH  34  35
HETATM   35  C23 UNL     1     -15.042  47.335 -18.836  1.00  0.00     0.056 C 
BRANCH  35  36
HETATM   36  C24 UNL     1     -14.747  48.814 -18.630  1.00  0.00     0.168 C 
BRANCH  36  37
HETATM   37  O4  UNL     1     -15.260  49.286 -17.383  1.00  0.00    -0.396 OA
HETATM   38  C25 UNL     1     -16.147  50.390 -17.527  1.00  0.00     0.201 C 
ENDBRANCH  36  37
ENDBRANCH  35  36
ENDBRANCH  34  35
ENDBRANCH  32  34
ENDBRANCH  31  32
ENDBRANCH  16  31
BRANCH  20  39
HETATM   39  O5  UNL     1     -11.848  42.205 -25.819  1.00  0.00    -0.386 OA
HETATM   40  H43 UNL     1     -11.723  42.074 -26.782  1.00  0.00     0.210 HD
ENDBRANCH  20  39
BRANCH  21  41
HETATM   41  O6  UNL     1      -9.822  43.225 -26.644  1.00  0.00    -0.386 OA
HETATM   42  H44 UNL     1      -9.907  42.520 -25.967  1.00  0.00     0.210 HD
ENDBRANCH  21  41
BRANCH   3  43
HETATM   43  C9  UNL     1      -9.080  44.465 -28.968  1.00  0.00     0.244 C 
HETATM   44  O1  UNL     1      -8.475  44.553 -30.036  1.00  0.00    -0.306 OA
ENDBRANCH   3  43
BRANCH  30  45
HETATM   45  O8  UNL     1      -7.197  45.808 -27.781  1.00  0.00    -0.388 OA
HETATM   46  H65 UNL     1      -6.664  46.589 -28.045  1.00  0.00     0.210 HD
ENDBRANCH  30  45
BRANCH   1  47
HETATM   47  C5  UNL     1      -9.266  48.517 -30.924  1.00  0.00     0.007 C 
BRANCH  47  48
HETATM   48  C4  UNL     1      -8.673  48.201 -32.304  1.00  0.00     0.000 C 
BRANCH  48  49
HETATM   49  C3  UNL     1      -7.153  48.033 -32.309  1.00  0.00    -0.000 C 
BRANCH  49  50
HETATM   50  C2  UNL     1      -6.758  46.576 -32.574  1.00  0.00    -0.005 C 
HETATM   51  C1  UNL     1      -5.774  46.075 -31.533  1.00  0.00     0.005 C 
ENDBRANCH  49  50
ENDBRANCH  48  49
ENDBRANCH  47  48
ENDBRANCH   1  47
BRANCH  25  52
HETATM   52  C35 UNL     1      -7.890  48.119 -22.717  1.00  0.00    -0.019 C 
HETATM   53  C36 UNL     1      -7.573  49.613 -22.682  1.00  0.00     0.010 C 
HETATM   54  C37 UNL     1      -8.692  47.719 -21.477  1.00  0.00     0.010 C 
ENDBRANCH  25  52
BRANCH  29  55
HETATM   55  O7  UNL     1      -6.806  48.430 -28.902  1.00  0.00    -0.395 OA
HETATM   56  H64 UNL     1      -6.680  48.809 -29.792  1.00  0.00     0.210 HD
ENDBRANCH  29  55
TORSDOF 16
ENDMDL
MODEL 7
REMARK minimizedAffinity -7.06869698
REMARK CNNscore 0.373904973
REMARK CNNaffinity 6.63636255
REMARK  16 active torsions:
REMARK  status: ('A' for Active; 'I' for Inactive)
REMARK    1  A    between atoms: C2_2  and  C3_3 
REMARK    2  A    between atoms: C3_3  and  C4_4 
REMARK    3  A    between atoms: C4_4  and  C5_5 
REMARK    4  A    between atoms: C5_5  and  C6_6 
REMARK    5  A    between atoms: C8_8  and  C9_9 
REMARK    6  A    between atoms: C20_23  and  C21_24 
REMARK    7  A    between atoms: C21_24  and  N1_25 
REMARK    8  A    between atoms: N1_25  and  C22_26 
REMARK    9  A    between atoms: C22_26  and  C23_27 
REMARK   10  A    between atoms: C23_27  and  C24_28 
REMARK   11  A    between atoms: C24_28  and  O4_29 
REMARK   12  A    between atoms: C29_34  and  O5_35 
REMARK   13  A    between atoms: C30_36  and  O6_37 
REMARK   14  A    between atoms: C34_41  and  C35_42 
REMARK   15  A    between atoms: C41_48  and  O7_49 
REMARK   16  A    between atoms: C42_50  and  O8_51 
ROOT
HETATM    1  C6  UNL     1      -6.513  48.140 -27.426  1.00  0.00     0.016 C 
HETATM    2  C7  UNL     1      -7.680  47.515 -26.677  1.00  0.00     0.027 C 
HETATM    3  C8  UNL     1      -9.076  48.001 -27.201  1.00  0.00     0.051 C 
HETATM    4  C10 UNL     1     -10.154  46.988 -26.647  1.00  0.00     0.041 C 
HETATM    5  C11 UNL     1     -10.235  46.911 -25.117  1.00  0.00     0.010 C 
HETATM    6  C12 UNL     1     -10.857  45.576 -24.733  1.00  0.00     0.013 C 
HETATM    7  C13 UNL     1     -12.253  45.340 -25.343  1.00  0.00    -0.002 C 
HETATM    8  C14 UNL     1     -13.249  45.337 -24.151  1.00  0.00     0.019 C 
HETATM    9  C15 UNL     1     -12.284  44.017 -26.162  1.00  0.00     0.036 C 
HETATM   10  C16 UNL     1     -12.133  42.632 -25.642  1.00  0.00    -0.035 C 
HETATM   11  C17 UNL     1     -12.023  42.107 -24.423  1.00  0.00     0.088 C 
HETATM   12  C18 UNL     1     -12.075  40.654 -24.610  1.00  0.00     0.284 C 
HETATM   13  O2  UNL     1     -11.911  39.826 -23.737  1.00  0.00    -0.260 OA
HETATM   14  O3  UNL     1     -12.331  40.369 -25.919  1.00  0.00    -0.304 OA
HETATM   15  C19 UNL     1     -12.173  41.559 -26.679  1.00  0.00     0.192 C 
HETATM   16  C20 UNL     1     -13.274  41.764 -27.712  1.00  0.00    -0.022 C 
HETATM   17  C26 UNL     1     -13.898  42.961 -27.828  1.00  0.00    -0.014 C 
HETATM   18  C27 UNL     1     -13.648  44.094 -26.864  1.00  0.00     0.021 C 
HETATM   19  C28 UNL     1     -13.650  45.514 -27.421  1.00  0.00     0.051 C 
HETATM   20  C29 UNL     1     -12.716  46.359 -26.476  1.00  0.00     0.098 C 
HETATM   21  C30 UNL     1     -11.569  47.196 -27.226  1.00  0.00     0.095 C 
HETATM   22  C31 UNL     1     -11.437  46.942 -28.724  1.00  0.00     0.049 C 
HETATM   23  C32 UNL     1     -10.455  47.866 -29.470  1.00  0.00     0.025 C 
HETATM   24  C33 UNL     1     -10.384  47.474 -30.977  1.00  0.00     0.012 C 
HETATM   25  C34 UNL     1     -10.128  45.975 -31.308  1.00  0.00    -0.011 C 
HETATM   26  C38 UNL     1      -8.726  45.442 -30.936  1.00  0.00     0.005 C 
HETATM   27  C39 UNL     1      -8.176  45.823 -29.556  1.00  0.00     0.010 C 
HETATM   28  C40 UNL     1      -7.909  47.332 -29.472  1.00  0.00     0.051 C 
HETATM   29  C41 UNL     1      -6.516  47.694 -28.896  1.00  0.00     0.129 C 
HETATM   30  C42 UNL     1      -9.064  48.126 -28.792  1.00  0.00     0.082 C 
ENDROOT
BRANCH  16  31
HETATM   31  C21 UNL     1     -13.553  40.540 -28.559  1.00  0.00     0.306 C 
BRANCH  31  32
HETATM   32  N1  UNL     1     -12.356  39.828 -29.012  1.00  0.00     0.087 N 
HETATM   33  H29 UNL     1     -11.713  39.753 -28.222  1.00  0.00     0.316 HD
BRANCH  32  34
HETATM   34  C22 UNL     1     -11.680  40.585 -30.072  1.00  0.00     0.272 C 
BRANCH  34  35
HETATM   35  C23 UNL     1     -11.383  39.678 -31.272  1.00  0.00     0.056 C 
BRANCH  35  36
HETATM   36  C24 UNL     1      -9.978  39.100 -31.186  1.00  0.00     0.168 C 
BRANCH  36  37
HETATM   37  O4  UNL     1      -9.988  37.762 -30.687  1.00  0.00    -0.396 OA
HETATM   38  C25 UNL     1      -9.308  37.625 -29.444  1.00  0.00     0.201 C 
ENDBRANCH  36  37
ENDBRANCH  35  36
ENDBRANCH  34  35
ENDBRANCH  32  34
ENDBRANCH  31  32
ENDBRANCH  16  31
BRANCH  20  39
HETATM   39  O5  UNL     1     -13.598  47.345 -25.877  1.00  0.00    -0.386 OA
HETATM   40  H43 UNL     1     -13.042  47.901 -25.292  1.00  0.00     0.210 HD
ENDBRANCH  20  39
BRANCH  21  41
HETATM   41  O6  UNL     1     -11.917  48.586 -27.086  1.00  0.00    -0.386 OA
HETATM   42  H44 UNL     1     -12.891  48.639 -27.187  1.00  0.00     0.210 HD
ENDBRANCH  21  41
BRANCH   3  43
HETATM   43  C9  UNL     1      -9.350  49.383 -26.574  1.00  0.00     0.244 C 
HETATM   44  O1  UNL     1      -9.423  49.584 -25.362  1.00  0.00    -0.306 OA
ENDBRANCH   3  43
BRANCH  30  45
HETATM   45  O8  UNL     1      -8.770  49.522 -29.105  1.00  0.00    -0.388 OA
HETATM   46  H65 UNL     1      -7.920  49.583 -29.593  1.00  0.00     0.210 HD
ENDBRANCH  30  45
BRANCH   1  47
HETATM   47  C5  UNL     1      -5.140  47.800 -26.790  1.00  0.00     0.007 C 
BRANCH  47  48
HETATM   48  C4  UNL     1      -4.029  48.846 -26.950  1.00  0.00     0.000 C 
BRANCH  48  49
HETATM   49  C3  UNL     1      -2.857  48.667 -25.985  1.00  0.00    -0.000 C 
BRANCH  49  50
HETATM   50  C2  UNL     1      -3.341  48.595 -24.533  1.00  0.00    -0.005 C 
HETATM   51  C1  UNL     1      -2.467  49.436 -23.619  1.00  0.00     0.005 C 
ENDBRANCH  49  50
ENDBRANCH  48  49
ENDBRANCH  47  48
ENDBRANCH   1  47
BRANCH  25  52
HETATM   52  C35 UNL     1     -10.506  45.674 -32.799  1.00  0.00    -0.019 C 
HETATM   53  C36 UNL     1      -9.315  45.679 -33.756  1.00  0.00     0.010 C 
HETATM   54  C37 UNL     1     -11.290  44.369 -32.937  1.00  0.00     0.010 C 
ENDBRANCH  25  52
BRANCH  29  55
HETATM   55  O7  UNL     1      -6.040  48.809 -29.674  1.00  0.00    -0.395 OA
HETATM   56  H64 UNL     1      -5.158  49.053 -29.336  1.00  0.00     0.210 HD
ENDBRANCH  29  55
TORSDOF 16
ENDMDL
MODEL 8
REMARK minimizedAffinity -6.18912315
REMARK CNNscore 0.360059142
REMARK CNNaffinity 6.1704011
REMARK  16 active torsions:
REMARK  status: ('A' for Active; 'I' for Inactive)
REMARK    1  A    between atoms: C2_2  and  C3_3 
REMARK    2  A    between atoms: C3_3  and  C4_4 
REMARK    3  A    between atoms: C4_4  and  C5_5 
REMARK    4  A    between atoms: C5_5  and  C6_6 
REMARK    5  A    between atoms: C8_8  and  C9_9 
REMARK    6  A    between atoms: C20_23  and  C21_24 
REMARK    7  A    between atoms: C21_24  and  N1_25 
REMARK    8  A    between atoms: N1_25  and  C22_26 
REMARK    9  A    between atoms: C22_26  and  C23_27 
REMARK   10  A    between atoms: C23_27  and  C24_28 
REMARK   11  A    between atoms: C24_28  and  O4_29 
REMARK   12  A    between atoms: C29_34  and  O5_35 
REMARK   13  A    between atoms: C30_36  and  O6_37 
REMARK   14  A    between atoms: C34_41  and  C35_42 
REMARK   15  A    between atoms: C41_48  and  O7_49 
REMARK   16  A    between atoms: C42_50  and  O8_51 
ROOT
HETATM    1  C6  UNL     1     -19.841  41.930 -20.896  1.00  0.00     0.016 C 
HETATM    2  C7  UNL     1     -19.413  42.059 -22.350  1.00  0.00     0.027 C 
HETATM    3  C8  UNL     1     -19.371  43.545 -22.848  1.00  0.00     0.051 C 
HETATM    4  C10 UNL     1     -18.530  43.559 -24.186  1.00  0.00     0.041 C 
HETATM    5  C11 UNL     1     -19.114  42.707 -25.319  1.00  0.00     0.010 C 
HETATM    6  C12 UNL     1     -17.995  42.363 -26.291  1.00  0.00     0.013 C 
HETATM    7  C13 UNL     1     -17.278  43.595 -26.879  1.00  0.00    -0.002 C 
HETATM    8  C14 UNL     1     -17.621  43.611 -28.393  1.00  0.00     0.019 C 
HETATM    9  C15 UNL     1     -15.748  43.530 -26.605  1.00  0.00     0.036 C 
HETATM   10  C16 UNL     1     -14.776  42.543 -27.148  1.00  0.00    -0.035 C 
HETATM   11  C17 UNL     1     -14.862  41.546 -28.026  1.00  0.00     0.088 C 
HETATM   12  C18 UNL     1     -13.488  41.078 -28.232  1.00  0.00     0.284 C 
HETATM   13  O2  UNL     1     -13.165  40.114 -28.896  1.00  0.00    -0.260 OA
HETATM   14  O3  UNL     1     -12.623  41.889 -27.559  1.00  0.00    -0.304 OA
HETATM   15  C19 UNL     1     -13.370  42.714 -26.677  1.00  0.00     0.192 C 
HETATM   16  C20 UNL     1     -12.911  44.167 -26.677  1.00  0.00    -0.022 C 
HETATM   17  C26 UNL     1     -13.809  45.175 -26.779  1.00  0.00    -0.014 C 
HETATM   18  C27 UNL     1     -15.273  44.924 -27.042  1.00  0.00     0.021 C 
HETATM   19  C28 UNL     1     -16.285  45.842 -26.363  1.00  0.00     0.051 C 
HETATM   20  C29 UNL     1     -17.604  44.999 -26.201  1.00  0.00     0.098 C 
HETATM   21  C30 UNL     1     -18.217  44.974 -24.717  1.00  0.00     0.095 C 
HETATM   22  C31 UNL     1     -17.363  45.633 -23.638  1.00  0.00     0.049 C 
HETATM   23  C32 UNL     1     -18.026  45.759 -22.253  1.00  0.00     0.025 C 
HETATM   24  C33 UNL     1     -17.035  46.409 -21.238  1.00  0.00     0.012 C 
HETATM   25  C34 UNL     1     -15.611  45.788 -21.141  1.00  0.00    -0.011 C 
HETATM   26  C38 UNL     1     -15.545  44.364 -20.543  1.00  0.00     0.005 C 
HETATM   27  C39 UNL     1     -16.579  43.346 -21.043  1.00  0.00     0.010 C 
HETATM   28  C40 UNL     1     -17.994  43.745 -20.606  1.00  0.00     0.051 C 
HETATM   29  C41 UNL     1     -18.806  42.588 -19.970  1.00  0.00     0.129 C 
HETATM   30  C42 UNL     1     -18.791  44.501 -21.711  1.00  0.00     0.082 C 
ENDROOT
BRANCH  16  31
HETATM   31  C21 UNL     1     -11.413  44.334 -26.535  1.00  0.00     0.306 C 
BRANCH  31  32
HETATM   32  N1  UNL     1     -10.991  45.646 -26.038  1.00  0.00     0.087 N 
HETATM   33  H29 UNL     1     -11.446  46.362 -26.607  1.00  0.00     0.316 HD
BRANCH  32  34
HETATM   34  C22 UNL     1      -9.539  45.808 -26.188  1.00  0.00     0.272 C 
BRANCH  34  35
HETATM   35  C23 UNL     1      -9.126  47.249 -25.870  1.00  0.00     0.056 C 
BRANCH  35  36
HETATM   36  C24 UNL     1      -8.817  47.415 -24.389  1.00  0.00     0.168 C 
BRANCH  36  37
HETATM   37  O4  UNL     1      -7.415  47.333 -24.129  1.00  0.00    -0.396 OA
HETATM   38  C25 UNL     1      -6.622  47.937 -25.146  1.00  0.00     0.201 C 
ENDBRANCH  36  37
ENDBRANCH  35  36
ENDBRANCH  34  35
ENDBRANCH  32  34
ENDBRANCH  31  32
ENDBRANCH  16  31
BRANCH  20  39
HETATM   39  O5  UNL     1     -18.583  45.690 -27.022  1.00  0.00    -0.386 OA
HETATM   40  H43 UNL     1     -19.425  45.197 -26.930  1.00  0.00     0.210 HD
ENDBRANCH  20  39
BRANCH  21  41
HETATM   41  O6  UNL     1     -19.445  45.723 -24.767  1.00  0.00    -0.386 OA
HETATM   42  H44 UNL     1     -19.279  46.488 -25.358  1.00  0.00     0.210 HD
ENDBRANCH  21  41
BRANCH   3  43
HETATM   43  C9  UNL     1     -20.818  43.960 -23.187  1.00  0.00     0.244 C 
HETATM   44  O1  UNL     1     -21.809  43.291 -22.896  1.00  0.00    -0.306 OA
ENDBRANCH   3  43
BRANCH  30  45
HETATM   45  O8  UNL     1     -19.939  45.061 -21.002  1.00  0.00    -0.388 OA
HETATM   46  H65 UNL     1     -19.928  44.770 -20.064  1.00  0.00     0.210 HD
ENDBRANCH  30  45
BRANCH   1  47
HETATM   47  C5  UNL     1     -20.055  40.458 -20.461  1.00  0.00     0.007 C 
BRANCH  47  48
HETATM   48  C4  UNL     1     -21.502  40.023 -20.190  1.00  0.00     0.000 C 
BRANCH  48  49
HETATM   49  C3  UNL     1     -22.534  41.136 -20.370  1.00  0.00    -0.000 C 
BRANCH  49  50
HETATM   50  C2  UNL     1     -22.939  41.741 -19.021  1.00  0.00    -0.005 C 
HETATM   51  C1  UNL     1     -22.904  40.697 -17.919  1.00  0.00     0.005 C 
ENDBRANCH  49  50
ENDBRANCH  48  49
ENDBRANCH  47  48
ENDBRANCH   1  47
BRANCH  25  52
HETATM   52  C35 UNL     1     -14.631  46.781 -20.429  1.00  0.00    -0.019 C 
HETATM   53  C36 UNL     1     -13.789  47.620 -21.389  1.00  0.00     0.010 C 
HETATM   54  C37 UNL     1     -15.357  47.686 -19.433  1.00  0.00     0.010 C 
ENDBRANCH  25  52
BRANCH  29  55
HETATM   55  O7  UNL     1     -19.536  43.168 -18.871  1.00  0.00    -0.395 OA
HETATM   56  H64 UNL     1     -20.052  42.457 -18.448  1.00  0.00     0.210 HD
ENDBRANCH  29  55
TORSDOF 16
ENDMDL
MODEL 9
REMARK minimizedAffinity -6.93797159
REMARK CNNscore 0.355671793
REMARK CNNaffinity 7.1352334
REMARK  16 active torsions:
REMARK  status: ('A' for Active; 'I' for Inactive)
REMARK    1  A    between atoms: C2_2  and  C3_3 
REMARK    2  A    between atoms: C3_3  and  C4_4 
REMARK    3  A    between atoms: C4_4  and  C5_5 
REMARK    4  A    between atoms: C5_5  and  C6_6 
REMARK    5  A    between atoms: C8_8  and  C9_9 
REMARK    6  A    between atoms: C20_23  and  C21_24 
REMARK    7  A    between atoms: C21_24  and  N1_25 
REMARK    8  A    between atoms: N1_25  and  C22_26 
REMARK    9  A    between atoms: C22_26  and  C23_27 
REMARK   10  A    between atoms: C23_27  and  C24_28 
REMARK   11  A    between atoms: C24_28  and  O4_29 
REMARK   12  A    between atoms: C29_34  and  O5_35 
REMARK   13  A    between atoms: C30_36  and  O6_37 
REMARK   14  A    between atoms: C34_41  and  C35_42 
REMARK   15  A    between atoms: C41_48  and  O7_49 
REMARK   16  A    between atoms: C42_50  and  O8_51 
ROOT
HETATM    1  C6  UNL     1       0.291  54.170  -8.585  1.00  0.00     0.016 C 
HETATM    2  C7  UNL     1       1.007  53.611  -9.806  1.00  0.00     0.027 C 
HETATM    3  C8  UNL     1       1.098  52.046  -9.800  1.00  0.00     0.051 C 
HETATM    4  C10 UNL     1       1.466  51.601 -11.271  1.00  0.00     0.041 C 
HETATM    5  C11 UNL     1       2.805  52.140 -11.787  1.00  0.00     0.010 C 
HETATM    6  C12 UNL     1       2.778  52.121 -13.309  1.00  0.00     0.013 C 
HETATM    7  C13 UNL     1       2.508  50.728 -13.912  1.00  0.00    -0.002 C 
HETATM    8  C14 UNL     1       3.816  50.313 -14.640  1.00  0.00     0.019 C 
HETATM    9  C15 UNL     1       1.272  50.761 -14.856  1.00  0.00     0.036 C 
HETATM   10  C16 UNL     1       1.145  51.487 -16.148  1.00  0.00    -0.035 C 
HETATM   11  C17 UNL     1       1.984  52.203 -16.894  1.00  0.00     0.088 C 
HETATM   12  C18 UNL     1       1.259  52.498 -18.133  1.00  0.00     0.284 C 
HETATM   13  O2  UNL     1       1.660  53.215 -19.030  1.00  0.00    -0.260 OA
HETATM   14  O3  UNL     1       0.059  51.851 -18.129  1.00  0.00    -0.304 OA
HETATM   15  C19 UNL     1      -0.182  51.358 -16.818  1.00  0.00     0.192 C 
HETATM   16  C20 UNL     1      -0.727  49.936 -16.800  1.00  0.00    -0.022 C 
HETATM   17  C26 UNL     1      -0.196  49.003 -15.974  1.00  0.00    -0.014 C 
HETATM   18  C27 UNL     1       1.037  49.271 -15.147  1.00  0.00     0.021 C 
HETATM   19  C28 UNL     1       1.107  48.651 -13.754  1.00  0.00     0.051 C 
HETATM   20  C29 UNL     1       2.031  49.595 -12.898  1.00  0.00     0.098 C 
HETATM   21  C30 UNL     1       1.404  50.075 -11.500  1.00  0.00     0.095 C 
HETATM   22  C31 UNL     1      -0.052  49.687 -11.260  1.00  0.00     0.049 C 
HETATM   23  C32 UNL     1      -0.598  49.999  -9.854  1.00  0.00     0.025 C 
HETATM   24  C33 UNL     1      -2.100  49.592  -9.756  1.00  0.00     0.012 C 
HETATM   25  C34 UNL     1      -3.050  50.116 -10.873  1.00  0.00    -0.011 C 
HETATM   26  C38 UNL     1      -3.295  51.642 -10.876  1.00  0.00     0.005 C 
HETATM   27  C39 UNL     1      -2.071  52.548 -10.698  1.00  0.00     0.010 C 
HETATM   28  C40 UNL     1      -1.470  52.386  -9.295  1.00  0.00     0.051 C 
HETATM   29  C41 UNL     1      -1.180  53.727  -8.575  1.00  0.00     0.129 C 
HETATM   30  C42 UNL     1      -0.258  51.408  -9.252  1.00  0.00     0.082 C 
ENDROOT
BRANCH  16  31
HETATM   31  C21 UNL     1      -1.884  49.712 -17.751  1.00  0.00     0.306 C 
BRANCH  31  32
HETATM   32  N1  UNL     1      -2.886  50.781 -17.751  1.00  0.00     0.087 N 
HETATM   33  H29 UNL     1      -3.778  50.380 -17.456  1.00  0.00     0.316 HD
BRANCH  32  34
HETATM   34  C22 UNL     1      -3.061  51.318 -19.107  1.00  0.00     0.272 C 
BRANCH  34  35
HETATM   35  C23 UNL     1      -2.504  50.339 -20.147  1.00  0.00     0.056 C 
BRANCH  35  36
HETATM   36  C24 UNL     1      -2.870  50.774 -21.559  1.00  0.00     0.168 C 
BRANCH  36  37
HETATM   37  O4  UNL     1      -2.224  49.967 -22.544  1.00  0.00    -0.396 OA
HETATM   38  C25 UNL     1      -2.520  50.370 -23.877  1.00  0.00     0.201 C 
ENDBRANCH  36  37
ENDBRANCH  35  36
ENDBRANCH  34  35
ENDBRANCH  32  34
ENDBRANCH  31  32
ENDBRANCH  16  31
BRANCH  20  39
HETATM   39  O5  UNL     1       3.177  48.772 -12.555  1.00  0.00    -0.386 OA
HETATM   40  H43 UNL     1       3.768  49.327 -12.006  1.00  0.00     0.210 HD
ENDBRANCH  20  39
BRANCH  21  41
HETATM   41  O6  UNL     1       2.166  49.429 -10.464  1.00  0.00    -0.386 OA
HETATM   42  H44 UNL     1       2.350  48.520 -10.783  1.00  0.00     0.210 HD
ENDBRANCH  21  41
BRANCH   3  43
HETATM   43  C9  UNL     1       2.267  51.653  -8.873  1.00  0.00     0.244 C 
HETATM   44  O1  UNL     1       2.765  52.410  -8.040  1.00  0.00    -0.306 OA
ENDBRANCH   3  43
BRANCH  30  45
HETATM   45  O8  UNL     1      -0.060  51.149  -7.829  1.00  0.00    -0.388 OA
HETATM   46  H65 UNL     1      -0.686  51.689  -7.300  1.00  0.00     0.210 HD
ENDBRANCH  30  45
BRANCH   1  47
HETATM   47  C5  UNL     1       0.362  55.717  -8.504  1.00  0.00     0.007 C 
BRANCH  47  48
HETATM   48  C4  UNL     1       1.486  56.310  -7.643  1.00  0.00     0.000 C 
BRANCH  48  49
HETATM   49  C3  UNL     1       2.892  55.901  -8.082  1.00  0.00    -0.000 C 
BRANCH  49  50
HETATM   50  C2  UNL     1       3.461  56.889  -9.106  1.00  0.00    -0.005 C 
HETATM   51  C1  UNL     1       3.466  56.291 -10.502  1.00  0.00     0.005 C 
ENDBRANCH  49  50
ENDBRANCH  48  49
ENDBRANCH  47  48
ENDBRANCH   1  47
BRANCH  25  52
HETATM   52  C35 UNL     1      -4.385  49.296 -10.881  1.00  0.00    -0.019 C 
HETATM   53  C36 UNL     1      -4.222  47.835 -10.464  1.00  0.00     0.010 C 
HETATM   54  C37 UNL     1      -5.474  49.967 -10.043  1.00  0.00     0.010 C 
ENDBRANCH  25  52
BRANCH  29  55
HETATM   55  O7  UNL     1      -1.549  53.529  -7.197  1.00  0.00    -0.395 OA
HETATM   56  H64 UNL     1      -1.383  54.364  -6.721  1.00  0.00     0.210 HD
ENDBRANCH  29  55
TORSDOF 16
ENDMDL
