MODEL 1
REMARK minimizedAffinity -8.38477039
REMARK CNNscore 0.10849268
REMARK CNNaffinity 6.7365284
REMARK  11 active torsions:
REMARK  status: ('A' for Active; 'I' for Inactive)
REMARK    1  A    between atoms: C13_13  and  S1_14 
REMARK    2  A    between atoms: C25_30  and  O5_31 
REMARK    3  A    between atoms: C31_37  and  C32_38 
REMARK    4  A    between atoms: C32_38  and  O6_39 
REMARK    5  A    between atoms: C40_47  and  C41_48 
REMARK    6  A    between atoms: C40_47  and  N1_63 
REMARK    7  A    between atoms: C41_48  and  C42_49 
REMARK    8  A    between atoms: C42_49  and  C43_50 
REMARK    9  A    between atoms: C42_49  and  C50_57 
REMARK   10  A    between atoms: C43_50  and  C44_51 
REMARK   11  A    between atoms: C50_57  and  O7_58 
REMARK       I    between atoms: C55_65  and  N2_66 
REMARK       I    between atoms: C55_65  and  N3_67 
ROOT
HETATM    1  C1  UNL     1      -4.271  17.203  13.484  1.00  0.00     0.010 C 
HETATM    2  C2  UNL     1      -3.127  16.222  13.743  1.00  0.00    -0.010 C 
HETATM    3  C3  UNL     1      -1.949  16.926  14.409  1.00  0.00     0.009 C 
HETATM    4  C4  UNL     1      -0.761  15.996  14.655  1.00  0.00     0.039 C 
HETATM    5  C5  UNL     1      -1.093  14.560  14.974  1.00  0.00    -0.049 C 
HETATM    6  C6  UNL     1      -0.085  13.728  15.491  1.00  0.00     0.044 C 
HETATM    7  C7  UNL     1      -0.337  12.384  15.767  1.00  0.00     0.073 C 
HETATM    8  C8  UNL     1      -1.542  11.822  15.361  1.00  0.00     0.037 C 
HETATM    9  C9  UNL     1      -2.568  12.644  14.893  1.00  0.00     0.011 C 
HETATM   10  C10 UNL     1      -2.375  14.029  14.764  1.00  0.00    -0.047 C 
HETATM   11  C11 UNL     1      -3.558  14.938  14.499  1.00  0.00     0.024 C 
HETATM   12  C12 UNL     1      -4.550  15.077  15.710  1.00  0.00     0.033 C 
HETATM   13  C13 UNL     1      -4.066  14.869  17.192  1.00  0.00     0.139 C 
HETATM   14  C14 UNL     1      -5.236  14.281  18.092  1.00  0.00     0.037 C 
HETATM   15  C15 UNL     1      -6.213  15.273  18.736  1.00  0.00    -0.014 C 
HETATM   16  C16 UNL     1      -6.980  14.928  19.794  1.00  0.00    -0.050 C 
HETATM   17  C17 UNL     1      -6.975  13.495  20.250  1.00  0.00     0.042 C 
HETATM   18  C18 UNL     1      -5.512  13.114  20.497  1.00  0.00    -0.001 C 
HETATM   19  C19 UNL     1      -4.776  14.010  21.550  1.00  0.00     0.038 C 
HETATM   20  C20 UNL     1      -5.656  14.964  22.403  1.00  0.00     0.130 C 
HETATM   21  O4  UNL     1      -6.102  16.048  21.587  1.00  0.00    -0.371 OA
HETATM   22  C21 UNL     1      -7.348  15.867  20.914  1.00  0.00     0.185 C 
HETATM   23  C22 UNL     1      -7.989  17.234  20.701  1.00  0.00    -0.006 A 
HETATM   24  C23 UNL     1      -8.562  17.614  19.478  1.00  0.00     0.014 A 
HETATM   25  C24 UNL     1      -9.186  18.858  19.339  1.00  0.00     0.037 A 
HETATM   26  C25 UNL     1      -9.267  19.720  20.430  1.00  0.00     0.067 A 
HETATM   27  C26 UNL     1      -8.738  19.367  21.664  1.00  0.00     0.057 A 
HETATM   28  C27 UNL     1      -8.099  18.134  21.806  1.00  0.00     0.029 A 
HETATM   29  C28 UNL     1      -7.515  17.786  23.076  1.00  0.00    -0.066 C 
HETATM   30  C29 UNL     1      -6.842  17.246  23.915  1.00  0.00    -0.101 C 
HETATM   31  C30 UNL     1      -5.894  16.337  24.590  1.00  0.00     0.103 C 
HETATM   32  C31 UNL     1      -4.910  15.617  23.604  1.00  0.00     0.049 C 
HETATM   33  C33 UNL     1      -4.856  13.059  19.077  1.00  0.00     0.033 C 
HETATM   34  C34 UNL     1      -3.489  12.388  19.025  1.00  0.00     0.073 A 
HETATM   35  C35 UNL     1      -3.413  11.040  18.634  1.00  0.00     0.007 C 
HETATM   36  C36 UNL     1      -2.196  10.460  18.279  1.00  0.00     0.010 C 
HETATM   37  C37 UNL     1      -1.017  11.220  18.279  1.00  0.00    -0.005 C 
HETATM   38  C38 UNL     1      -1.070  12.503  18.852  1.00  0.00     0.012 C 
HETATM   39  C39 UNL     1      -2.290  13.068  19.244  1.00  0.00     0.133 A 
HETATM   40  C40 UNL     1       0.235  10.738  17.496  1.00  0.00     0.171 C 
HETATM   41  O8  UNL     1       0.635  11.728  16.479  1.00  0.00    -0.316 OA
HETATM   42 NA1  UNL     1      -2.285  13.132  18.942  1.00  0.00    -0.397 Na
ATOM     43  HA1 UNL     1      -1.710  13.616  18.253  1.00  0.00     0.155 HD
ENDROOT
BRANCH  40  44
HETATM   44  C41 UNL     1       1.468  10.697  18.473  1.00  0.00     0.075 C 
BRANCH  44  45
HETATM   45  C42 UNL     1       2.063  12.040  19.005  1.00  0.00     0.029 C 
BRANCH  45  46
HETATM   46  C43 UNL     1       2.018  12.234  20.549  1.00  0.00     0.046 C 
BRANCH  46  47
HETATM   47  C44 UNL     1       2.489  11.125  21.466  1.00  0.00    -0.058 A 
HETATM   48  C45 UNL     1       3.533  11.366  22.373  1.00  0.00     0.007 A 
HETATM   49  C46 UNL     1       3.999  10.360  23.223  1.00  0.00     0.001 A 
HETATM   50  C47 UNL     1       3.417   9.096  23.187  1.00  0.00     0.000 A 
HETATM   51  C48 UNL     1       2.359   8.849  22.317  1.00  0.00     0.001 A 
HETATM   52  C49 UNL     1       1.896   9.857  21.469  1.00  0.00     0.007 A 
ENDBRANCH  46  47
ENDBRANCH  45  46
BRANCH  45  53
HETATM   53  C50 UNL     1       3.456  12.335  18.363  1.00  0.00     0.062 C 
HETATM   54  C51 UNL     1       3.366  13.246  17.126  1.00  0.00     0.038 C 
HETATM   55  C52 UNL     1       4.754  13.876  16.972  1.00  0.00     0.003 C 
HETATM   56  C53 UNL     1       5.480  13.646  18.291  1.00  0.00     0.003 C 
HETATM   57  C54 UNL     1       4.416  13.135  19.255  1.00  0.00     0.038 C 
BRANCH  53  58
HETATM   58  O7  UNL     1       4.088  11.124  17.937  1.00  0.00    -0.389 OA
HETATM   59  H50 UNL     1       4.399  10.652  18.731  1.00  0.00     0.210 HD
ENDBRANCH  53  58
ENDBRANCH  45  53
ENDBRANCH  44  45
ENDBRANCH  40  44
BRANCH  40  60
HETATM   60  N1  UNL     1       0.058   9.357  16.991  1.00  0.00    -0.336 N 
HETATM   61  C55 UNL     1       1.039   8.660  16.569  1.00  0.00     0.124 C 
HETATM   62  N2  UNL     1       0.826   7.391  16.159  1.00  0.00    -0.279 NA
HETATM   63  N3  UNL     1       2.348   8.955  16.442  1.00  0.00    -0.279 NA
HETATM   64  H59 UNL     1       1.314   7.185  15.296  1.00  0.00     0.126 HD
HETATM   65  H60 UNL     1      -0.169   7.211  16.071  1.00  0.00     0.126 HD
HETATM   66  H61 UNL     1       2.586   9.876  16.805  1.00  0.00     0.126 HD
HETATM   67  H62 UNL     1       2.958   8.242  16.822  1.00  0.00     0.126 HD
ATOM     68  H1  UNL     1      -0.877   8.951  16.980  1.00  0.00     0.165 HD
ENDBRANCH  40  60
BRANCH  13  69
HETATM   69  S1  UNL     1      -3.299  16.360  17.894  1.00  0.00     0.106 S 
HETATM   70  O1  UNL     1      -3.850  17.482  17.139  1.00  0.00    -0.595 OA
HETATM   71  O2  UNL     1      -1.866  16.149  17.692  1.00  0.00    -0.595 OA
HETATM   72  O3  UNL     1      -3.723  16.373  19.290  1.00  0.00    -0.595 OA
ENDBRANCH  13  69
BRANCH  32  73
HETATM   73  C32 UNL     1      -3.813  16.583  23.134  1.00  0.00     0.172 C 
BRANCH  73  74
HETATM   74  O6  UNL     1      -2.526  16.006  23.380  1.00  0.00    -0.400 OA
HETATM   75  H34 UNL     1      -1.893  16.670  23.051  1.00  0.00     0.209 HD
ENDBRANCH  73  74
ENDBRANCH  32  73
BRANCH  26  76
HETATM   76  O5  UNL     1      -9.865  20.944  20.317  1.00  0.00    -0.361 OA
HETATM   77  H27 UNL     1      -9.998  21.119  19.371  1.00  0.00     0.217 HD
ENDBRANCH  26  76
TORSDOF 11
ENDMDL
MODEL 2
REMARK minimizedAffinity -11.0403061
REMARK CNNscore 0.103778832
REMARK CNNaffinity 6.8168416
REMARK  11 active torsions:
REMARK  status: ('A' for Active; 'I' for Inactive)
REMARK    1  A    between atoms: C13_13  and  S1_14 
REMARK    2  A    between atoms: C25_30  and  O5_31 
REMARK    3  A    between atoms: C31_37  and  C32_38 
REMARK    4  A    between atoms: C32_38  and  O6_39 
REMARK    5  A    between atoms: C40_47  and  C41_48 
REMARK    6  A    between atoms: C40_47  and  N1_63 
REMARK    7  A    between atoms: C41_48  and  C42_49 
REMARK    8  A    between atoms: C42_49  and  C43_50 
REMARK    9  A    between atoms: C42_49  and  C50_57 
REMARK   10  A    between atoms: C43_50  and  C44_51 
REMARK   11  A    between atoms: C50_57  and  O7_58 
REMARK       I    between atoms: C55_65  and  N2_66 
REMARK       I    between atoms: C55_65  and  N3_67 
ROOT
HETATM    1  C1  UNL     1      -2.009  10.047  15.620  1.00  0.00     0.010 C 
HETATM    2  C2  UNL     1      -1.545  10.869  16.823  1.00  0.00    -0.010 C 
HETATM    3  C3  UNL     1      -1.078   9.960  17.954  1.00  0.00     0.009 C 
HETATM    4  C4  UNL     1      -0.639  10.733  19.198  1.00  0.00     0.039 C 
HETATM    5  C5  UNL     1       0.010  12.073  18.955  1.00  0.00    -0.049 C 
HETATM    6  C6  UNL     1       0.692  12.699  20.013  1.00  0.00     0.044 C 
HETATM    7  C7  UNL     1       1.277  13.954  19.845  1.00  0.00     0.073 C 
HETATM    8  C8  UNL     1       1.030  14.667  18.677  1.00  0.00     0.037 C 
HETATM    9  C9  UNL     1       0.399  14.040  17.601  1.00  0.00     0.011 C 
HETATM   10  C10 UNL     1      -0.052  12.714  17.709  1.00  0.00    -0.047 C 
HETATM   11  C11 UNL     1      -0.505  11.965  16.472  1.00  0.00     0.024 C 
HETATM   12  C12 UNL     1       0.655  11.608  15.473  1.00  0.00     0.033 C 
HETATM   13  C13 UNL     1       2.137  11.434  15.968  1.00  0.00     0.139 C 
HETATM   14  C14 UNL     1       3.165  11.866  14.837  1.00  0.00     0.037 C 
HETATM   15  C15 UNL     1       3.575  10.812  13.801  1.00  0.00    -0.014 C 
HETATM   16  C16 UNL     1       4.695  10.946  13.055  1.00  0.00    -0.050 C 
HETATM   17  C17 UNL     1       5.472  12.230  13.149  1.00  0.00     0.042 C 
HETATM   18  C18 UNL     1       5.780  12.454  14.633  1.00  0.00    -0.001 C 
HETATM   19  C19 UNL     1       6.585  11.295  15.312  1.00  0.00     0.038 C 
HETATM   20  C20 UNL     1       7.205  10.223  14.374  1.00  0.00     0.130 C 
HETATM   21  O4  UNL     1       6.166   9.388  13.863  1.00  0.00    -0.371 OA
HETATM   22  C21 UNL     1       5.571   9.796  12.630  1.00  0.00     0.185 C 
HETATM   23  C22 UNL     1       5.055   8.558  11.906  1.00  0.00    -0.006 A 
HETATM   24  C23 UNL     1       3.785   8.508  11.311  1.00  0.00     0.014 A 
HETATM   25  C24 UNL     1       3.369   7.371  10.611  1.00  0.00     0.037 A 
HETATM   26  C25 UNL     1       4.230   6.285  10.476  1.00  0.00     0.067 A 
HETATM   27  C26 UNL     1       5.505   6.308  11.026  1.00  0.00     0.057 A 
HETATM   28  C27 UNL     1       5.921   7.433  11.740  1.00  0.00     0.029 A 
HETATM   29  C28 UNL     1       7.229   7.440  12.344  1.00  0.00    -0.066 C 
HETATM   30  C29 UNL     1       8.161   7.727  13.048  1.00  0.00    -0.101 C 
HETATM   31  C30 UNL     1       9.015   8.395  14.051  1.00  0.00     0.103 C 
HETATM   32  C31 UNL     1       8.210   9.264  15.078  1.00  0.00     0.049 C 
HETATM   33  C33 UNL     1       4.403  12.799  15.292  1.00  0.00     0.033 C 
HETATM   34  C34 UNL     1       4.489  13.381  16.697  1.00  0.00     0.073 A 
HETATM   35  C35 UNL     1       4.422  14.775  16.857  1.00  0.00     0.007 C 
HETATM   36  C36 UNL     1       4.194  15.348  18.108  1.00  0.00     0.010 C 
HETATM   37  C37 UNL     1       4.000  14.539  19.237  1.00  0.00    -0.005 C 
HETATM   38  C38 UNL     1       4.260  13.163  19.105  1.00  0.00     0.012 C 
HETATM   39  C39 UNL     1       4.526  12.597  17.852  1.00  0.00     0.133 A 
HETATM   40  C40 UNL     1       3.334  15.114  20.517  1.00  0.00     0.171 C 
HETATM   41  O8  UNL     1       2.108  14.367  20.856  1.00  0.00    -0.316 OA
HETATM   42 NA1  UNL     1       4.218  12.605  17.853  1.00  0.00    -0.397 Na
ATOM     43  HA1 UNL     1       3.428  12.261  18.398  1.00  0.00     0.155 HD
ENDROOT
BRANCH  40  44
HETATM   44  C41 UNL     1       4.275  14.851  21.750  1.00  0.00     0.075 C 
BRANCH  44  45
HETATM   45  C42 UNL     1       4.633  13.380  22.136  1.00  0.00     0.029 C 
BRANCH  45  46
HETATM   46  C43 UNL     1       3.861  12.272  21.362  1.00  0.00     0.046 C 
BRANCH  46  47
HETATM   47  C44 UNL     1       3.350  11.051  22.097  1.00  0.00    -0.058 A 
HETATM   48  C45 UNL     1       3.327  11.041  23.502  1.00  0.00     0.007 A 
HETATM   49  C46 UNL     1       2.874   9.925  24.209  1.00  0.00     0.001 A 
HETATM   50  C47 UNL     1       2.423   8.802  23.521  1.00  0.00     0.000 A 
HETATM   51  C48 UNL     1       2.407   8.807  22.129  1.00  0.00     0.001 A 
HETATM   52  C49 UNL     1       2.861   9.925  21.425  1.00  0.00     0.007 A 
ENDBRANCH  46  47
ENDBRANCH  45  46
BRANCH  45  53
HETATM   53  C50 UNL     1       6.180  13.169  22.183  1.00  0.00     0.062 C 
HETATM   54  C51 UNL     1       6.922  14.322  22.882  1.00  0.00     0.038 C 
HETATM   55  C52 UNL     1       8.262  13.737  23.339  1.00  0.00     0.003 C 
HETATM   56  C53 UNL     1       8.120  12.223  23.261  1.00  0.00     0.003 C 
HETATM   57  C54 UNL     1       6.637  11.967  23.022  1.00  0.00     0.038 C 
BRANCH  53  58
HETATM   58  O7  UNL     1       6.722  13.071  20.864  1.00  0.00    -0.389 OA
HETATM   59  H50 UNL     1       6.475  12.201  20.501  1.00  0.00     0.210 HD
ENDBRANCH  53  58
ENDBRANCH  45  53
ENDBRANCH  44  45
ENDBRANCH  40  44
BRANCH  40  60
HETATM   60  N1  UNL     1       3.166  16.583  20.426  1.00  0.00    -0.336 N 
HETATM   61  C55 UNL     1       2.355  17.219  21.176  1.00  0.00     0.124 C 
HETATM   62  N2  UNL     1       2.274  18.563  21.080  1.00  0.00    -0.279 NA
HETATM   63  N3  UNL     1       1.498  16.788  22.124  1.00  0.00    -0.279 NA
HETATM   64  H59 UNL     1       1.314  18.886  21.084  1.00  0.00     0.126 HD
HETATM   65  H60 UNL     1       2.768  18.888  20.255  1.00  0.00     0.126 HD
HETATM   66  H61 UNL     1       1.566  15.787  22.296  1.00  0.00     0.126 HD
HETATM   67  H62 UNL     1       1.556  17.315  22.986  1.00  0.00     0.126 HD
ATOM     68  H1  UNL     1       3.717  17.101  19.742  1.00  0.00     0.165 HD
ENDBRANCH  40  60
BRANCH  13  69
HETATM   69  S1  UNL     1       2.461   9.778  16.641  1.00  0.00     0.106 S 
HETATM   70  O1  UNL     1       2.281   9.894  18.085  1.00  0.00    -0.595 OA
HETATM   71  O2  UNL     1       3.835   9.492  16.230  1.00  0.00    -0.595 OA
HETATM   72  O3  UNL     1       1.451   8.923  16.025  1.00  0.00    -0.595 OA
ENDBRANCH  13  69
BRANCH  32  73
HETATM   73  C32 UNL     1       7.512   8.370  16.113  1.00  0.00     0.172 C 
BRANCH  73  74
HETATM   74  O6  UNL     1       8.487   7.813  17.002  1.00  0.00    -0.400 OA
HETATM   75  H34 UNL     1       7.969   7.270  17.625  1.00  0.00     0.209 HD
ENDBRANCH  73  74
ENDBRANCH  32  73
BRANCH  26  76
HETATM   76  O5  UNL     1       3.844   5.160   9.804  1.00  0.00    -0.361 OA
HETATM   77  H27 UNL     1       2.885   5.218   9.660  1.00  0.00     0.217 HD
ENDBRANCH  26  76
TORSDOF 11
ENDMDL
MODEL 3
REMARK minimizedAffinity -8.30749702
REMARK CNNscore 0.0760971382
REMARK CNNaffinity 5.81260872
REMARK  11 active torsions:
REMARK  status: ('A' for Active; 'I' for Inactive)
REMARK    1  A    between atoms: C13_13  and  S1_14 
REMARK    2  A    between atoms: C25_30  and  O5_31 
REMARK    3  A    between atoms: C31_37  and  C32_38 
REMARK    4  A    between atoms: C32_38  and  O6_39 
REMARK    5  A    between atoms: C40_47  and  C41_48 
REMARK    6  A    between atoms: C40_47  and  N1_63 
REMARK    7  A    between atoms: C41_48  and  C42_49 
REMARK    8  A    between atoms: C42_49  and  C43_50 
REMARK    9  A    between atoms: C42_49  and  C50_57 
REMARK   10  A    between atoms: C43_50  and  C44_51 
REMARK   11  A    between atoms: C50_57  and  O7_58 
REMARK       I    between atoms: C55_65  and  N2_66 
REMARK       I    between atoms: C55_65  and  N3_67 
ROOT
HETATM    1  C1  UNL     1       5.896  12.562  23.013  1.00  0.00     0.010 C 
HETATM    2  C2  UNL     1       4.436  12.613  22.562  1.00  0.00    -0.010 C 
HETATM    3  C3  UNL     1       4.034  14.034  22.183  1.00  0.00     0.009 C 
HETATM    4  C4  UNL     1       2.568  14.146  21.761  1.00  0.00     0.039 C 
HETATM    5  C5  UNL     1       1.987  12.953  21.044  1.00  0.00    -0.049 C 
HETATM    6  C6  UNL     1       0.758  13.093  20.379  1.00  0.00     0.044 C 
HETATM    7  C7  UNL     1       0.164  12.008  19.733  1.00  0.00     0.073 C 
HETATM    8  C8  UNL     1       0.708  10.739  19.901  1.00  0.00     0.037 C 
HETATM    9  C9  UNL     1       1.953  10.593  20.515  1.00  0.00     0.011 C 
HETATM   10  C10 UNL     1       2.634  11.709  21.028  1.00  0.00    -0.047 C 
HETATM   11  C11 UNL     1       4.081  11.580  21.462  1.00  0.00     0.024 C 
HETATM   12  C12 UNL     1       5.093  11.364  20.279  1.00  0.00     0.033 C 
HETATM   13  C13 UNL     1       4.777  11.878  18.827  1.00  0.00     0.139 C 
HETATM   14  C14 UNL     1       5.442  10.935  17.735  1.00  0.00     0.037 C 
HETATM   15  C15 UNL     1       6.894  11.222  17.331  1.00  0.00    -0.014 C 
HETATM   16  C16 UNL     1       7.416  10.749  16.176  1.00  0.00    -0.050 C 
HETATM   17  C17 UNL     1       6.591   9.803  15.348  1.00  0.00     0.042 C 
HETATM   18  C18 UNL     1       5.249  10.493  15.092  1.00  0.00    -0.001 C 
HETATM   19  C19 UNL     1       5.357  11.878  14.367  1.00  0.00     0.038 C 
HETATM   20  C20 UNL     1       6.738  12.248  13.756  1.00  0.00     0.130 C 
HETATM   21  O4  UNL     1       7.646  12.572  14.809  1.00  0.00    -0.371 OA
HETATM   22  C21 UNL     1       8.421  11.493  15.335  1.00  0.00     0.185 C 
HETATM   23  C22 UNL     1       9.731  12.054  15.875  1.00  0.00    -0.006 A 
HETATM   24  C23 UNL     1      10.256  11.676  17.120  1.00  0.00     0.014 A 
HETATM   25  C24 UNL     1      11.488  12.175  17.556  1.00  0.00     0.037 A 
HETATM   26  C25 UNL     1      12.218  13.033  16.739  1.00  0.00     0.067 A 
HETATM   27  C26 UNL     1      11.746  13.407  15.488  1.00  0.00     0.057 A 
HETATM   28  C27 UNL     1      10.510  12.927  15.052  1.00  0.00     0.029 A 
HETATM   29  C28 UNL     1      10.002  13.347  13.772  1.00  0.00    -0.066 C 
HETATM   30  C29 UNL     1       9.254  13.574  12.858  1.00  0.00    -0.101 C 
HETATM   31  C30 UNL     1       8.043  13.659  12.016  1.00  0.00     0.103 C 
HETATM   32  C31 UNL     1       6.709  13.495  12.824  1.00  0.00     0.049 C 
HETATM   33  C33 UNL     1       4.523  10.510  16.478  1.00  0.00     0.033 C 
HETATM   34  C34 UNL     1       3.039  10.852  16.424  1.00  0.00     0.073 A 
HETATM   35  C35 UNL     1       2.103   9.804  16.436  1.00  0.00     0.007 C 
HETATM   36  C36 UNL     1       0.753  10.044  16.690  1.00  0.00     0.010 C 
HETATM   37  C37 UNL     1       0.300  11.343  16.965  1.00  0.00    -0.005 C 
HETATM   38  C38 UNL     1       1.202  12.403  16.761  1.00  0.00     0.012 C 
HETATM   39  C39 UNL     1       2.549  12.158  16.468  1.00  0.00     0.133 A 
HETATM   40  C40 UNL     1      -1.071  11.572  17.657  1.00  0.00     0.171 C 
HETATM   41  O8  UNL     1      -0.906  12.304  18.927  1.00  0.00    -0.316 OA
HETATM   42 NA1  UNL     1       2.546  12.134  16.775  1.00  0.00    -0.397 Na
ATOM     43  HA1 UNL     1       2.307  12.682  17.602  1.00  0.00     0.155 HD
ENDROOT
BRANCH  40  44
HETATM   44  C41 UNL     1      -1.933  12.553  16.780  1.00  0.00     0.075 C 
BRANCH  44  45
HETATM   45  C42 UNL     1      -3.266  13.124  17.361  1.00  0.00     0.029 C 
BRANCH  45  46
HETATM   46  C43 UNL     1      -3.113  14.263  18.411  1.00  0.00     0.046 C 
BRANCH  46  47
HETATM   47  C44 UNL     1      -3.911  14.220  19.697  1.00  0.00    -0.058 A 
HETATM   48  C45 UNL     1      -3.745  15.233  20.655  1.00  0.00     0.007 A 
HETATM   49  C46 UNL     1      -4.457  15.214  21.856  1.00  0.00     0.001 A 
HETATM   50  C47 UNL     1      -5.358  14.185  22.114  1.00  0.00     0.000 A 
HETATM   51  C48 UNL     1      -5.560  13.191  21.162  1.00  0.00     0.001 A 
HETATM   52  C49 UNL     1      -4.847  13.213  19.961  1.00  0.00     0.007 A 
ENDBRANCH  46  47
ENDBRANCH  45  46
BRANCH  45  53
HETATM   53  C50 UNL     1      -4.291  13.436  16.223  1.00  0.00     0.062 C 
HETATM   54  C51 UNL     1      -5.722  13.648  16.748  1.00  0.00     0.038 C 
HETATM   55  C52 UNL     1      -6.443  14.464  15.670  1.00  0.00     0.003 C 
HETATM   56  C53 UNL     1      -5.358  15.032  14.763  1.00  0.00     0.003 C 
HETATM   57  C54 UNL     1      -4.044  14.758  15.483  1.00  0.00     0.038 C 
BRANCH  53  58
HETATM   58  O7  UNL     1      -4.352  12.360  15.283  1.00  0.00    -0.389 OA
HETATM   59  H50 UNL     1      -3.539  12.383  14.746  1.00  0.00     0.210 HD
ENDBRANCH  53  58
ENDBRANCH  45  53
ENDBRANCH  44  45
ENDBRANCH  40  44
BRANCH  40  60
HETATM   60  N1  UNL     1      -1.844  10.313  17.757  1.00  0.00    -0.336 N 
HETATM   61  C55 UNL     1      -2.377   9.764  16.737  1.00  0.00     0.124 C 
HETATM   62  N2  UNL     1      -3.034   8.593  16.878  1.00  0.00    -0.279 NA
HETATM   63  N3  UNL     1      -2.417  10.143  15.444  1.00  0.00    -0.279 NA
HETATM   64  H59 UNL     1      -3.912   8.588  16.372  1.00  0.00     0.126 HD
HETATM   65  H60 UNL     1      -3.176   8.384  17.861  1.00  0.00     0.126 HD
HETATM   66  H61 UNL     1      -1.874  10.984  15.258  1.00  0.00     0.126 HD
HETATM   67  H62 UNL     1      -2.176   9.400  14.801  1.00  0.00     0.126 HD
ATOM     68  H1  UNL     1      -1.953   9.871  18.669  1.00  0.00     0.165 HD
ENDBRANCH  40  60
BRANCH  13  69
HETATM   69  S1  UNL     1       5.183  13.636  18.604  1.00  0.00     0.106 S 
HETATM   70  O1  UNL     1       3.936  14.361  18.829  1.00  0.00    -0.595 OA
HETATM   71  O2  UNL     1       5.680  13.712  17.230  1.00  0.00    -0.595 OA
HETATM   72  O3  UNL     1       6.181  13.919  19.630  1.00  0.00    -0.595 OA
ENDBRANCH  13  69
BRANCH  32  73
HETATM   73  C32 UNL     1       6.386  14.779  13.602  1.00  0.00     0.172 C 
BRANCH  73  74
HETATM   74  O6  UNL     1       6.332  15.888  12.697  1.00  0.00    -0.400 OA
HETATM   75  H34 UNL     1       6.119  16.653  13.262  1.00  0.00     0.209 HD
ENDBRANCH  73  74
ENDBRANCH  32  73
BRANCH  26  76
HETATM   76  O5  UNL     1      13.420  13.540  17.146  1.00  0.00    -0.361 OA
HETATM   77  H27 UNL     1      13.511  13.353  18.095  1.00  0.00     0.217 HD
ENDBRANCH  26  76
TORSDOF 11
ENDMDL
MODEL 4
REMARK minimizedAffinity -8.22708702
REMARK CNNscore 0.0731809661
REMARK CNNaffinity 6.13704538
REMARK  11 active torsions:
REMARK  status: ('A' for Active; 'I' for Inactive)
REMARK    1  A    between atoms: C13_13  and  S1_14 
REMARK    2  A    between atoms: C25_30  and  O5_31 
REMARK    3  A    between atoms: C31_37  and  C32_38 
REMARK    4  A    between atoms: C32_38  and  O6_39 
REMARK    5  A    between atoms: C40_47  and  C41_48 
REMARK    6  A    between atoms: C40_47  and  N1_63 
REMARK    7  A    between atoms: C41_48  and  C42_49 
REMARK    8  A    between atoms: C42_49  and  C43_50 
REMARK    9  A    between atoms: C42_49  and  C50_57 
REMARK   10  A    between atoms: C43_50  and  C44_51 
REMARK   11  A    between atoms: C50_57  and  O7_58 
REMARK       I    between atoms: C55_65  and  N2_66 
REMARK       I    between atoms: C55_65  and  N3_67 
ROOT
HETATM    1  C1  UNL     1     -14.619   7.925  23.773  1.00  0.00     0.010 C 
HETATM    2  C2  UNL     1     -13.621   9.055  24.029  1.00  0.00    -0.010 C 
HETATM    3  C3  UNL     1     -12.187   8.545  23.938  1.00  0.00     0.009 C 
HETATM    4  C4  UNL     1     -11.149   9.630  24.226  1.00  0.00     0.039 C 
HETATM    5  C5  UNL     1     -11.508  11.028  23.791  1.00  0.00    -0.049 C 
HETATM    6  C6  UNL     1     -10.502  12.009  23.756  1.00  0.00     0.044 C 
HETATM    7  C7  UNL     1     -10.795  13.324  23.395  1.00  0.00     0.073 C 
HETATM    8  C8  UNL     1     -12.123  13.706  23.241  1.00  0.00     0.037 C 
HETATM    9  C9  UNL     1     -13.126  12.735  23.223  1.00  0.00     0.011 C 
HETATM   10  C10 UNL     1     -12.817  11.381  23.427  1.00  0.00    -0.047 C 
HETATM   11  C11 UNL     1     -13.861  10.316  23.158  1.00  0.00     0.024 C 
HETATM   12  C12 UNL     1     -14.211  10.123  21.638  1.00  0.00     0.033 C 
HETATM   13  C13 UNL     1     -13.175  10.474  20.509  1.00  0.00     0.139 C 
HETATM   14  C14 UNL     1     -13.917  10.961  19.191  1.00  0.00     0.037 C 
HETATM   15  C15 UNL     1     -14.377   9.892  18.192  1.00  0.00    -0.014 C 
HETATM   16  C16 UNL     1     -14.658  10.197  16.905  1.00  0.00    -0.050 C 
HETATM   17  C17 UNL     1     -14.658  11.643  16.492  1.00  0.00     0.042 C 
HETATM   18  C18 UNL     1     -13.298  12.219  16.899  1.00  0.00    -0.001 C 
HETATM   19  C19 UNL     1     -12.066  11.485  16.268  1.00  0.00     0.038 C 
HETATM   20  C20 UNL     1     -12.356  10.478  15.122  1.00  0.00     0.130 C 
HETATM   21  O4  UNL     1     -12.952   9.302  15.669  1.00  0.00    -0.371 OA
HETATM   22  C21 UNL     1     -14.379   9.285  15.738  1.00  0.00     0.185 C 
HETATM   23  C22 UNL     1     -14.853   7.839  15.658  1.00  0.00    -0.006 A 
HETATM   24  C23 UNL     1     -15.835   7.320  16.516  1.00  0.00     0.014 A 
HETATM   25  C24 UNL     1     -16.279   6.001  16.375  1.00  0.00     0.037 A 
HETATM   26  C25 UNL     1     -15.767   5.200  15.359  1.00  0.00     0.067 A 
HETATM   27  C26 UNL     1     -14.816   5.687  14.472  1.00  0.00     0.057 A 
HETATM   28  C27 UNL     1     -14.354   6.997  14.616  1.00  0.00     0.029 A 
HETATM   29  C28 UNL     1     -13.338   7.488  13.721  1.00  0.00    -0.066 C 
HETATM   30  C29 UNL     1     -12.454   8.155  13.252  1.00  0.00    -0.101 C 
HETATM   31  C30 UNL     1     -11.444   9.214  13.049  1.00  0.00     0.103 C 
HETATM   32  C31 UNL     1     -11.086   9.994  14.362  1.00  0.00     0.049 C 
HETATM   33  C33 UNL     1     -13.326  12.275  18.463  1.00  0.00     0.033 C 
HETATM   34  C34 UNL     1     -12.220  13.109  19.097  1.00  0.00     0.073 A 
HETATM   35  C35 UNL     1     -12.505  14.432  19.479  1.00  0.00     0.007 C 
HETATM   36  C36 UNL     1     -11.650  15.139  20.322  1.00  0.00     0.010 C 
HETATM   37  C37 UNL     1     -10.491  14.535  20.833  1.00  0.00    -0.005 C 
HETATM   38  C38 UNL     1     -10.116  13.290  20.296  1.00  0.00     0.012 C 
HETATM   39  C39 UNL     1     -10.961  12.599  19.418  1.00  0.00     0.133 A 
HETATM   40  C40 UNL     1      -9.773  15.126  22.077  1.00  0.00     0.171 C 
HETATM   41  O8  UNL     1      -9.713  14.138  23.170  1.00  0.00    -0.316 OA
HETATM   42 NA1  UNL     1     -11.076  12.520  19.693  1.00  0.00    -0.397 Na
ATOM     43  HA1 UNL     1     -10.789  12.073  20.563  1.00  0.00     0.155 HD
ENDROOT
BRANCH  40  44
HETATM   44  C41 UNL     1      -8.261  15.377  21.727  1.00  0.00     0.075 C 
BRANCH  44  45
HETATM   45  C42 UNL     1      -7.157  14.605  22.519  1.00  0.00     0.029 C 
BRANCH  45  46
HETATM   46  C43 UNL     1      -6.582  13.340  21.818  1.00  0.00     0.046 C 
BRANCH  46  47
HETATM   47  C44 UNL     1      -6.086  13.425  20.390  1.00  0.00    -0.058 A 
HETATM   48  C45 UNL     1      -6.887  14.030  19.408  1.00  0.00     0.007 A 
HETATM   49  C46 UNL     1      -6.463  14.112  18.080  1.00  0.00     0.001 A 
HETATM   50  C47 UNL     1      -5.222  13.599  17.713  1.00  0.00     0.000 A 
HETATM   51  C48 UNL     1      -4.401  13.026  18.679  1.00  0.00     0.001 A 
HETATM   52  C49 UNL     1      -4.828  12.946  20.007  1.00  0.00     0.007 A 
ENDBRANCH  46  47
ENDBRANCH  45  46
BRANCH  45  53
HETATM   53  C50 UNL     1      -6.069  15.581  23.069  1.00  0.00     0.062 C 
HETATM   54  C51 UNL     1      -6.229  15.873  24.572  1.00  0.00     0.038 C 
HETATM   55  C52 UNL     1      -4.852  16.338  25.055  1.00  0.00     0.003 C 
HETATM   56  C53 UNL     1      -3.859  15.944  23.968  1.00  0.00     0.003 C 
HETATM   57  C54 UNL     1      -4.635  15.036  23.022  1.00  0.00     0.038 C 
BRANCH  53  58
HETATM   58  O7  UNL     1      -6.128  16.842  22.397  1.00  0.00    -0.389 OA
HETATM   59  H50 UNL     1      -5.765  16.723  21.501  1.00  0.00     0.210 HD
ENDBRANCH  53  58
ENDBRANCH  45  53
ENDBRANCH  44  45
ENDBRANCH  40  44
BRANCH  40  60
HETATM   60  N1  UNL     1     -10.339  16.442  22.453  1.00  0.00    -0.336 N 
HETATM   61  C55 UNL     1     -10.224  16.916  23.631  1.00  0.00     0.124 C 
HETATM   62  N2  UNL     1     -10.721  18.140  23.907  1.00  0.00    -0.279 NA
HETATM   63  N3  UNL     1      -9.658  16.404  24.743  1.00  0.00    -0.279 NA
HETATM   64  H59 UNL     1     -11.222  18.155  24.788  1.00  0.00     0.126 HD
HETATM   65  H60 UNL     1     -11.308  18.463  23.145  1.00  0.00     0.126 HD
HETATM   66  H61 UNL     1      -9.198  15.510  24.580  1.00  0.00     0.126 HD
HETATM   67  H62 UNL     1      -9.043  17.054  25.215  1.00  0.00     0.126 HD
ATOM     68  H1  UNL     1     -10.835  16.986  21.748  1.00  0.00     0.165 HD
ENDBRANCH  40  60
BRANCH  13  69
HETATM   69  S1  UNL     1     -11.983   9.134  20.210  1.00  0.00     0.106 S 
HETATM   70  O1  UNL     1     -11.686   9.180  18.782  1.00  0.00    -0.595 OA
HETATM   71  O2  UNL     1     -12.693   7.929  20.637  1.00  0.00    -0.595 OA
HETATM   72  O3  UNL     1     -10.824   9.480  21.027  1.00  0.00    -0.595 OA
ENDBRANCH  13  69
BRANCH  32  73
HETATM   73  C32 UNL     1     -10.173   9.149  15.261  1.00  0.00     0.172 C 
BRANCH  73  74
HETATM   74  O6  UNL     1     -10.967   8.248  16.042  1.00  0.00    -0.400 OA
HETATM   75  H34 UNL     1     -10.319   7.749  16.573  1.00  0.00     0.209 HD
ENDBRANCH  73  74
ENDBRANCH  32  73
BRANCH  26  76
HETATM   76  O5  UNL     1     -16.180   3.906  15.206  1.00  0.00    -0.361 OA
HETATM   77  H27 UNL     1     -16.678   3.661  16.003  1.00  0.00     0.217 HD
ENDBRANCH  26  76
TORSDOF 11
ENDMDL
MODEL 5
REMARK minimizedAffinity -8.06617451
REMARK CNNscore 0.0730105266
REMARK CNNaffinity 6.03062677
REMARK  11 active torsions:
REMARK  status: ('A' for Active; 'I' for Inactive)
REMARK    1  A    between atoms: C13_13  and  S1_14 
REMARK    2  A    between atoms: C25_30  and  O5_31 
REMARK    3  A    between atoms: C31_37  and  C32_38 
REMARK    4  A    between atoms: C32_38  and  O6_39 
REMARK    5  A    between atoms: C40_47  and  C41_48 
REMARK    6  A    between atoms: C40_47  and  N1_63 
REMARK    7  A    between atoms: C41_48  and  C42_49 
REMARK    8  A    between atoms: C42_49  and  C43_50 
REMARK    9  A    between atoms: C42_49  and  C50_57 
REMARK   10  A    between atoms: C43_50  and  C44_51 
REMARK   11  A    between atoms: C50_57  and  O7_58 
REMARK       I    between atoms: C55_65  and  N2_66 
REMARK       I    between atoms: C55_65  and  N3_67 
ROOT
HETATM    1  C1  UNL     1       6.289  12.682  23.022  1.00  0.00     0.010 C 
HETATM    2  C2  UNL     1       4.830  12.837  22.590  1.00  0.00    -0.010 C 
HETATM    3  C3  UNL     1       4.539  14.275  22.172  1.00  0.00     0.009 C 
HETATM    4  C4  UNL     1       3.080  14.493  21.767  1.00  0.00     0.039 C 
HETATM    5  C5  UNL     1       2.394  13.331  21.095  1.00  0.00    -0.049 C 
HETATM    6  C6  UNL     1       1.169  13.550  20.443  1.00  0.00     0.044 C 
HETATM    7  C7  UNL     1       0.480  12.497  19.838  1.00  0.00     0.073 C 
HETATM    8  C8  UNL     1       0.921  11.194  20.038  1.00  0.00     0.037 C 
HETATM    9  C9  UNL     1       2.160  10.966  20.640  1.00  0.00     0.011 C 
HETATM   10  C10 UNL     1       2.938  12.037  21.108  1.00  0.00    -0.047 C 
HETATM   11  C11 UNL     1       4.376  11.805  21.527  1.00  0.00     0.024 C 
HETATM   12  C12 UNL     1       5.349  11.472  20.338  1.00  0.00     0.033 C 
HETATM   13  C13 UNL     1       5.052  11.967  18.875  1.00  0.00     0.139 C 
HETATM   14  C14 UNL     1       5.622  10.942  17.804  1.00  0.00     0.037 C 
HETATM   15  C15 UNL     1       7.086  11.097  17.372  1.00  0.00    -0.014 C 
HETATM   16  C16 UNL     1       7.549  10.550  16.225  1.00  0.00    -0.050 C 
HETATM   17  C17 UNL     1       6.638   9.649  15.438  1.00  0.00     0.042 C 
HETATM   18  C18 UNL     1       5.351  10.439  15.179  1.00  0.00    -0.001 C 
HETATM   19  C19 UNL     1       5.560  11.788  14.410  1.00  0.00     0.038 C 
HETATM   20  C20 UNL     1       6.956  12.026  13.770  1.00  0.00     0.130 C 
HETATM   21  O4  UNL     1       7.904  12.306  14.800  1.00  0.00    -0.371 OA
HETATM   22  C21 UNL     1       8.597  11.185  15.348  1.00  0.00     0.185 C 
HETATM   23  C22 UNL     1       9.957  11.653  15.853  1.00  0.00    -0.006 A 
HETATM   24  C23 UNL     1      10.469  11.271  17.102  1.00  0.00     0.014 A 
HETATM   25  C24 UNL     1      11.744  11.681  17.507  1.00  0.00     0.037 A 
HETATM   26  C25 UNL     1      12.528  12.452  16.653  1.00  0.00     0.067 A 
HETATM   27  C26 UNL     1      12.068  12.826  15.398  1.00  0.00     0.057 A 
HETATM   28  C27 UNL     1      10.791  12.435  14.994  1.00  0.00     0.029 A 
HETATM   29  C28 UNL     1      10.298  12.857  13.708  1.00  0.00    -0.066 C 
HETATM   30  C29 UNL     1       9.556  13.117  12.797  1.00  0.00    -0.101 C 
HETATM   31  C30 UNL     1       8.343  13.274  11.970  1.00  0.00     0.103 C 
HETATM   32  C31 UNL     1       7.013  13.243  12.800  1.00  0.00     0.049 C 
HETATM   33  C33 UNL     1       4.651  10.555  16.573  1.00  0.00     0.033 C 
HETATM   34  C34 UNL     1       3.199  11.014  16.529  1.00  0.00     0.073 A 
HETATM   35  C35 UNL     1       2.182  10.047  16.586  1.00  0.00     0.007 C 
HETATM   36  C36 UNL     1       0.860  10.403  16.849  1.00  0.00     0.010 C 
HETATM   37  C37 UNL     1       0.518  11.742  17.091  1.00  0.00    -0.005 C 
HETATM   38  C38 UNL     1       1.499  12.719  16.842  1.00  0.00     0.012 C 
HETATM   39  C39 UNL     1       2.817  12.357  16.539  1.00  0.00     0.133 A 
HETATM   40  C40 UNL     1      -0.819  12.102  17.793  1.00  0.00     0.171 C 
HETATM   41  O8  UNL     1      -0.575  12.855  19.038  1.00  0.00    -0.316 OA
HETATM   42 NA1  UNL     1       2.816  12.342  16.847  1.00  0.00    -0.397 Na
ATOM     43  HA1 UNL     1       2.635  12.932  17.659  1.00  0.00     0.155 HD
ENDROOT
BRANCH  40  44
HETATM   44  C41 UNL     1      -1.613  13.123  16.898  1.00  0.00     0.075 C 
BRANCH  44  45
HETATM   45  C42 UNL     1      -1.824  12.803  15.383  1.00  0.00     0.029 C 
BRANCH  45  46
HETATM   46  C43 UNL     1      -2.920  11.745  15.062  1.00  0.00     0.046 C 
BRANCH  46  47
HETATM   47  C44 UNL     1      -2.541  10.444  14.386  1.00  0.00    -0.058 A 
HETATM   48  C45 UNL     1      -3.501   9.431  14.234  1.00  0.00     0.007 A 
HETATM   49  C46 UNL     1      -3.179   8.215  13.626  1.00  0.00     0.001 A 
HETATM   50  C47 UNL     1      -1.890   7.997  13.148  1.00  0.00     0.000 A 
HETATM   51  C48 UNL     1      -0.934   9.003  13.260  1.00  0.00     0.001 A 
HETATM   52  C49 UNL     1      -1.260  10.217  13.868  1.00  0.00     0.007 A 
ENDBRANCH  46  47
ENDBRANCH  45  46
BRANCH  45  53
HETATM   53  C50 UNL     1      -1.933  14.113  14.539  1.00  0.00     0.062 C 
HETATM   54  C51 UNL     1      -3.389  14.565  14.318  1.00  0.00     0.038 C 
HETATM   55  C52 UNL     1      -3.316  16.062  14.004  1.00  0.00     0.003 C 
HETATM   56  C53 UNL     1      -1.925  16.523  14.424  1.00  0.00     0.003 C 
HETATM   57  C54 UNL     1      -1.332  15.358  15.206  1.00  0.00     0.038 C 
BRANCH  53  58
HETATM   58  O7  UNL     1      -1.357  13.934  13.242  1.00  0.00    -0.389 OA
HETATM   59  H50 UNL     1      -0.388  13.916  13.344  1.00  0.00     0.210 HD
ENDBRANCH  53  58
ENDBRANCH  45  53
ENDBRANCH  44  45
ENDBRANCH  40  44
BRANCH  40  60
HETATM   60  N1  UNL     1      -1.690  10.913  17.942  1.00  0.00    -0.336 N 
HETATM   61  C55 UNL     1      -2.836  10.979  18.496  1.00  0.00     0.124 C 
HETATM   62  N2  UNL     1      -3.606   9.872  18.566  1.00  0.00    -0.279 NA
HETATM   63  N3  UNL     1      -3.488  12.011  19.067  1.00  0.00    -0.279 NA
HETATM   64  H59 UNL     1      -4.031   9.764  19.479  1.00  0.00     0.126 HD
HETATM   65  H60 UNL     1      -3.067   9.050  18.313  1.00  0.00     0.126 HD
HETATM   66  H61 UNL     1      -2.989  12.894  18.981  1.00  0.00     0.126 HD
HETATM   67  H62 UNL     1      -4.448  12.099  18.759  1.00  0.00     0.126 HD
ATOM     68  H1  UNL     1      -1.362  10.014  17.589  1.00  0.00     0.165 HD
ENDBRANCH  40  60
BRANCH  13  69
HETATM   69  S1  UNL     1       5.595  13.679  18.592  1.00  0.00     0.106 S 
HETATM   70  O1  UNL     1       6.644  13.929  19.575  1.00  0.00    -0.595 OA
HETATM   71  O2  UNL     1       4.382  14.472  18.794  1.00  0.00    -0.595 OA
HETATM   72  O3  UNL     1       6.106  13.684  17.225  1.00  0.00    -0.595 OA
ENDBRANCH  13  69
BRANCH  32  73
HETATM   73  C32 UNL     1       6.807  14.571  13.542  1.00  0.00     0.172 C 
BRANCH  73  74
HETATM   74  O6  UNL     1       7.505  14.537  14.792  1.00  0.00    -0.400 OA
HETATM   75  H34 UNL     1       7.332  15.408  15.193  1.00  0.00     0.209 HD
ENDBRANCH  73  74
ENDBRANCH  32  73
BRANCH  26  76
HETATM   76  O5  UNL     1      13.773  12.872  17.029  1.00  0.00    -0.361 OA
HETATM   77  H27 UNL     1      13.864  12.706  17.982  1.00  0.00     0.217 HD
ENDBRANCH  26  76
TORSDOF 11
ENDMDL
MODEL 6
REMARK minimizedAffinity -9.25882244
REMARK CNNscore 0.0709285438
REMARK CNNaffinity 5.95200491
REMARK  11 active torsions:
REMARK  status: ('A' for Active; 'I' for Inactive)
REMARK    1  A    between atoms: C13_13  and  S1_14 
REMARK    2  A    between atoms: C25_30  and  O5_31 
REMARK    3  A    between atoms: C31_37  and  C32_38 
REMARK    4  A    between atoms: C32_38  and  O6_39 
REMARK    5  A    between atoms: C40_47  and  C41_48 
REMARK    6  A    between atoms: C40_47  and  N1_63 
REMARK    7  A    between atoms: C41_48  and  C42_49 
REMARK    8  A    between atoms: C42_49  and  C43_50 
REMARK    9  A    between atoms: C42_49  and  C50_57 
REMARK   10  A    between atoms: C43_50  and  C44_51 
REMARK   11  A    between atoms: C50_57  and  O7_58 
REMARK       I    between atoms: C55_65  and  N2_66 
REMARK       I    between atoms: C55_65  and  N3_67 
ROOT
HETATM    1  C1  UNL     1       1.006  18.748  17.111  1.00  0.00     0.010 C 
HETATM    2  C2  UNL     1       0.587  17.416  16.486  1.00  0.00    -0.010 C 
HETATM    3  C3  UNL     1       1.650  16.915  15.515  1.00  0.00     0.009 C 
HETATM    4  C4  UNL     1       1.262  15.603  14.831  1.00  0.00     0.039 C 
HETATM    5  C5  UNL     1       0.440  14.642  15.652  1.00  0.00    -0.049 C 
HETATM    6  C6  UNL     1       0.296  13.317  15.205  1.00  0.00     0.044 C 
HETATM    7  C7  UNL     1      -0.485  12.403  15.913  1.00  0.00     0.073 C 
HETATM    8  C8  UNL     1      -1.268  12.854  16.969  1.00  0.00     0.037 C 
HETATM    9  C9  UNL     1      -1.098  14.152  17.454  1.00  0.00     0.011 C 
HETATM   10  C10 UNL     1      -0.190  15.032  16.843  1.00  0.00    -0.047 C 
HETATM   11  C11 UNL     1       0.171  16.339  17.520  1.00  0.00     0.024 C 
HETATM   12  C12 UNL     1       1.034  16.175  18.824  1.00  0.00     0.033 C 
HETATM   13  C13 UNL     1       1.965  14.925  19.036  1.00  0.00     0.139 C 
HETATM   14  C14 UNL     1       2.080  14.561  20.578  1.00  0.00     0.037 C 
HETATM   15  C15 UNL     1       3.154  15.280  21.405  1.00  0.00    -0.014 C 
HETATM   16  C16 UNL     1       3.586  14.789  22.588  1.00  0.00    -0.050 C 
HETATM   17  C17 UNL     1       2.890  13.588  23.166  1.00  0.00     0.042 C 
HETATM   18  C18 UNL     1       2.914  12.500  22.087  1.00  0.00    -0.001 C 
HETATM   19  C19 UNL     1       4.348  12.100  21.600  1.00  0.00     0.038 C 
HETATM   20  C20 UNL     1       5.549  12.624  22.435  1.00  0.00     0.130 C 
HETATM   21  O4  UNL     1       5.709  14.024  22.201  1.00  0.00    -0.371 OA
HETATM   22  C21 UNL     1       5.005  14.900  23.082  1.00  0.00     0.185 C 
HETATM   23  C22 UNL     1       5.772  16.214  23.175  1.00  0.00    -0.006 A 
HETATM   24  C23 UNL     1       5.137  17.463  23.093  1.00  0.00     0.014 A 
HETATM   25  C24 UNL     1       5.870  18.646  23.235  1.00  0.00     0.037 A 
HETATM   26  C25 UNL     1       7.238  18.589  23.489  1.00  0.00     0.067 A 
HETATM   27  C26 UNL     1       7.896  17.372  23.606  1.00  0.00     0.057 A 
HETATM   28  C27 UNL     1       7.175  16.188  23.449  1.00  0.00     0.029 A 
HETATM   29  C28 UNL     1       7.865  14.926  23.530  1.00  0.00    -0.066 C 
HETATM   30  C29 UNL     1       8.126  13.757  23.420  1.00  0.00    -0.101 C 
HETATM   31  C30 UNL     1       8.034  12.316  23.109  1.00  0.00     0.103 C 
HETATM   32  C31 UNL     1       6.915  11.975  22.065  1.00  0.00     0.049 C 
HETATM   33  C33 UNL     1       1.936  13.002  20.974  1.00  0.00     0.033 C 
HETATM   34  C34 UNL     1       1.537  11.952  19.945  1.00  0.00     0.073 A 
HETATM   35  C35 UNL     1       0.314  11.278  20.106  1.00  0.00     0.007 C 
HETATM   36  C36 UNL     1      -0.245  10.539  19.065  1.00  0.00     0.010 C 
HETATM   37  C37 UNL     1       0.392  10.471  17.817  1.00  0.00    -0.005 C 
HETATM   38  C38 UNL     1       1.699  10.983  17.725  1.00  0.00     0.012 C 
HETATM   39  C39 UNL     1       2.272  11.693  18.787  1.00  0.00     0.133 A 
HETATM   40  C40 UNL     1      -0.393  10.034  16.550  1.00  0.00     0.171 C 
HETATM   41  O8  UNL     1      -0.371  11.092  15.523  1.00  0.00    -0.316 OA
HETATM   42 NA1  UNL     1       2.107  11.911  18.647  1.00  0.00    -0.397 Na
ATOM     43  HA1 UNL     1       2.016  12.364  17.738  1.00  0.00     0.155 HD
ENDROOT
BRANCH  40  44
HETATM   44  C41 UNL     1       0.364   8.840  15.862  1.00  0.00     0.075 C 
BRANCH  44  45
HETATM   45  C42 UNL     1      -0.019   8.434  14.402  1.00  0.00     0.029 C 
BRANCH  45  46
HETATM   46  C43 UNL     1       1.074   8.684  13.322  1.00  0.00     0.046 C 
BRANCH  46  47
HETATM   47  C44 UNL     1       0.727   8.570  11.853  1.00  0.00    -0.058 A 
HETATM   48  C45 UNL     1       1.681   8.080  10.946  1.00  0.00     0.007 A 
HETATM   49  C46 UNL     1       1.395   7.976   9.583  1.00  0.00     0.001 A 
HETATM   50  C47 UNL     1       0.143   8.350   9.105  1.00  0.00     0.000 A 
HETATM   51  C48 UNL     1      -0.826   8.806   9.994  1.00  0.00     0.001 A 
HETATM   52  C49 UNL     1      -0.537   8.909  11.357  1.00  0.00     0.007 A 
ENDBRANCH  46  47
ENDBRANCH  45  46
BRANCH  45  53
HETATM   53  C50 UNL     1      -0.646   7.004  14.359  1.00  0.00     0.062 C 
HETATM   54  C51 UNL     1      -1.960   6.949  13.559  1.00  0.00     0.038 C 
HETATM   55  C52 UNL     1      -2.131   5.485  13.141  1.00  0.00     0.003 C 
HETATM   56  C53 UNL     1      -0.777   4.817  13.347  1.00  0.00     0.003 C 
HETATM   57  C54 UNL     1       0.198   5.956  13.621  1.00  0.00     0.038 C 
BRANCH  53  58
HETATM   58  O7  UNL     1      -0.948   6.539  15.678  1.00  0.00    -0.389 OA
HETATM   59  H50 UNL     1      -0.108   6.308  16.114  1.00  0.00     0.210 HD
ENDBRANCH  53  58
ENDBRANCH  45  53
ENDBRANCH  44  45
ENDBRANCH  40  44
BRANCH  40  60
HETATM   60  N1  UNL     1      -1.741   9.528  16.898  1.00  0.00    -0.336 N 
HETATM   61  C55 UNL     1      -2.732   9.642  16.104  1.00  0.00     0.124 C 
HETATM   62  N2  UNL     1      -3.929   9.124  16.454  1.00  0.00    -0.279 NA
HETATM   63  N3  UNL     1      -2.835  10.217  14.889  1.00  0.00    -0.279 NA
HETATM   64  H59 UNL     1      -4.690   9.761  16.254  1.00  0.00     0.126 HD
HETATM   65  H60 UNL     1      -3.924   8.854  17.432  1.00  0.00     0.126 HD
HETATM   66  H61 UNL     1      -1.944  10.562  14.535  1.00  0.00     0.126 HD
HETATM   67  H62 UNL     1      -3.299   9.631  14.207  1.00  0.00     0.126 HD
ATOM     68  H1  UNL     1      -1.880   9.073  17.800  1.00  0.00     0.165 HD
ENDBRANCH  40  60
BRANCH  13  69
HETATM   69  S1  UNL     1       3.577  15.106  18.216  1.00  0.00     0.106 S 
HETATM   70  O1  UNL     1       4.543  14.451  19.094  1.00  0.00    -0.595 OA
HETATM   71  O2  UNL     1       3.756  16.553  18.102  1.00  0.00    -0.595 OA
HETATM   72  O3  UNL     1       3.426  14.408  16.944  1.00  0.00    -0.595 OA
ENDBRANCH  13  69
BRANCH  32  73
HETATM   73  C32 UNL     1       7.362  12.360  20.647  1.00  0.00     0.172 C 
BRANCH  73  74
HETATM   74  O6  UNL     1       8.688  11.873  20.413  1.00  0.00    -0.400 OA
HETATM   75  H34 UNL     1       8.893  12.150  19.501  1.00  0.00     0.209 HD
ENDBRANCH  73  74
ENDBRANCH  32  73
BRANCH  26  76
HETATM   76  O5  UNL     1       7.977  19.731  23.623  1.00  0.00    -0.361 OA
HETATM   77  H27 UNL     1       7.428  20.474  23.321  1.00  0.00     0.217 HD
ENDBRANCH  26  76
TORSDOF 11
ENDMDL
MODEL 7
REMARK minimizedAffinity -8.88058949
REMARK CNNscore 0.0681144297
REMARK CNNaffinity 5.80982733
REMARK  11 active torsions:
REMARK  status: ('A' for Active; 'I' for Inactive)
REMARK    1  A    between atoms: C13_13  and  S1_14 
REMARK    2  A    between atoms: C25_30  and  O5_31 
REMARK    3  A    between atoms: C31_37  and  C32_38 
REMARK    4  A    between atoms: C32_38  and  O6_39 
REMARK    5  A    between atoms: C40_47  and  C41_48 
REMARK    6  A    between atoms: C40_47  and  N1_63 
REMARK    7  A    between atoms: C41_48  and  C42_49 
REMARK    8  A    between atoms: C42_49  and  C43_50 
REMARK    9  A    between atoms: C42_49  and  C50_57 
REMARK   10  A    between atoms: C43_50  and  C44_51 
REMARK   11  A    between atoms: C50_57  and  O7_58 
REMARK       I    between atoms: C55_65  and  N2_66 
REMARK       I    between atoms: C55_65  and  N3_67 
ROOT
HETATM    1  C1  UNL     1      -0.311  19.114  19.639  1.00  0.00     0.010 C 
HETATM    2  C2  UNL     1      -0.708  17.975  18.701  1.00  0.00    -0.010 C 
HETATM    3  C3  UNL     1       0.175  17.963  17.458  1.00  0.00     0.009 C 
HETATM    4  C4  UNL     1      -0.207  16.864  16.465  1.00  0.00     0.039 C 
HETATM    5  C5  UNL     1      -0.734  15.583  17.060  1.00  0.00    -0.049 C 
HETATM    6  C6  UNL     1      -0.828  14.443  16.244  1.00  0.00     0.044 C 
HETATM    7  C7  UNL     1      -1.343  13.245  16.741  1.00  0.00     0.073 C 
HETATM    8  C8  UNL     1      -1.932  13.231  18.001  1.00  0.00     0.037 C 
HETATM    9  C9  UNL     1      -1.801  14.339  18.840  1.00  0.00     0.011 C 
HETATM   10  C10 UNL     1      -1.139  15.497  18.401  1.00  0.00    -0.047 C 
HETATM   11  C11 UNL     1      -0.784  16.588  19.390  1.00  0.00     0.024 C 
HETATM   12  C12 UNL     1       0.345  16.194  20.410  1.00  0.00     0.033 C 
HETATM   13  C13 UNL     1       1.426  15.108  20.054  1.00  0.00     0.139 C 
HETATM   14  C14 UNL     1       1.898  14.332  21.357  1.00  0.00     0.037 C 
HETATM   15  C15 UNL     1       3.039  14.943  22.181  1.00  0.00    -0.014 C 
HETATM   16  C16 UNL     1       3.759  14.204  23.056  1.00  0.00    -0.050 C 
HETATM   17  C17 UNL     1       3.328  12.790  23.326  1.00  0.00     0.042 C 
HETATM   18  C18 UNL     1       3.241  12.086  21.968  1.00  0.00    -0.001 C 
HETATM   19  C19 UNL     1       4.575  12.088  21.148  1.00  0.00     0.038 C 
HETATM   20  C20 UNL     1       5.862  12.535  21.895  1.00  0.00     0.130 C 
HETATM   21  O4  UNL     1       5.822  13.948  22.098  1.00  0.00    -0.371 OA
HETATM   22  C21 UNL     1       5.230  14.398  23.317  1.00  0.00     0.185 C 
HETATM   23  C22 UNL     1       5.857  15.735  23.696  1.00  0.00    -0.006 A 
HETATM   24  C23 UNL     1       5.091  16.831  24.124  1.00  0.00     0.014 A 
HETATM   25  C24 UNL     1       5.709  18.024  24.513  1.00  0.00     0.037 A 
HETATM   26  C25 UNL     1       7.098  18.121  24.505  1.00  0.00     0.067 A 
HETATM   27  C26 UNL     1       7.890  17.049  24.116  1.00  0.00     0.057 A 
HETATM   28  C27 UNL     1       7.281  15.861  23.710  1.00  0.00     0.029 A 
HETATM   29  C28 UNL     1       8.102  14.763  23.268  1.00  0.00    -0.066 C 
HETATM   30  C29 UNL     1       8.455  13.737  22.749  1.00  0.00    -0.101 C 
HETATM   31  C30 UNL     1       8.451  12.456  22.013  1.00  0.00     0.103 C 
HETATM   32  C31 UNL     1       7.181  12.257  21.115  1.00  0.00     0.049 C 
HETATM   33  C33 UNL     1       2.004  12.724  21.253  1.00  0.00     0.033 C 
HETATM   34  C34 UNL     1       1.512  11.971  20.023  1.00  0.00     0.073 A 
HETATM   35  C35 UNL     1       0.427  11.088  20.161  1.00  0.00     0.007 C 
HETATM   36  C36 UNL     1      -0.256  10.605  19.046  1.00  0.00     0.010 C 
HETATM   37  C37 UNL     1       0.110  11.012  17.754  1.00  0.00    -0.005 C 
HETATM   38  C38 UNL     1       1.308  11.737  17.615  1.00  0.00     0.012 C 
HETATM   39  C39 UNL     1       2.013  12.187  18.738  1.00  0.00     0.133 A 
HETATM   40  C40 UNL     1      -0.872  10.843  16.563  1.00  0.00     0.171 C 
HETATM   41  O8  UNL     1      -1.176  12.144  15.940  1.00  0.00    -0.316 OA
HETATM   42 NA1  UNL     1       1.799  12.407  18.705  1.00  0.00    -0.397 Na
ATOM     43  HA1 UNL     1       1.473  13.085  18.016  1.00  0.00     0.155 HD
ENDROOT
BRANCH  40  44
HETATM   44  C41 UNL     1      -0.154  10.045  15.414  1.00  0.00     0.075 C 
BRANCH  44  45
HETATM   45  C42 UNL     1       0.085   8.510  15.585  1.00  0.00     0.029 C 
BRANCH  45  46
HETATM   46  C43 UNL     1      -0.768   7.586  14.668  1.00  0.00     0.046 C 
BRANCH  46  47
HETATM   47  C44 UNL     1      -0.567   7.613  13.168  1.00  0.00    -0.058 A 
HETATM   48  C45 UNL     1      -0.241   6.430  12.486  1.00  0.00     0.007 A 
HETATM   49  C46 UNL     1      -0.037   6.425  11.104  1.00  0.00     0.001 A 
HETATM   50  C47 UNL     1      -0.168   7.605  10.379  1.00  0.00     0.000 A 
HETATM   51  C48 UNL     1      -0.524   8.781  11.033  1.00  0.00     0.001 A 
HETATM   52  C49 UNL     1      -0.728   8.782  12.415  1.00  0.00     0.007 A 
ENDBRANCH  46  47
ENDBRANCH  45  46
BRANCH  45  53
HETATM   53  C50 UNL     1       1.610   8.173  15.592  1.00  0.00     0.062 C 
HETATM   54  C51 UNL     1       2.099   7.580  14.258  1.00  0.00     0.038 C 
HETATM   55  C52 UNL     1       3.609   7.833  14.219  1.00  0.00     0.003 C 
HETATM   56  C53 UNL     1       3.899   8.875  15.292  1.00  0.00     0.003 C 
HETATM   57  C54 UNL     1       2.535   9.390  15.735  1.00  0.00     0.038 C 
BRANCH  53  58
HETATM   58  O7  UNL     1       1.916   7.212  16.605  1.00  0.00    -0.389 OA
HETATM   59  H50 UNL     1       1.871   7.661  17.469  1.00  0.00     0.210 HD
ENDBRANCH  53  58
ENDBRANCH  45  53
ENDBRANCH  44  45
ENDBRANCH  40  44
BRANCH  40  60
HETATM   60  N1  UNL     1      -2.057  10.042  16.949  1.00  0.00    -0.336 N 
HETATM   61  C55 UNL     1      -3.133  10.053  16.265  1.00  0.00     0.124 C 
HETATM   62  N2  UNL     1      -4.167   9.270  16.640  1.00  0.00    -0.279 NA
HETATM   63  N3  UNL     1      -3.472  10.737  15.154  1.00  0.00    -0.279 NA
HETATM   64  H59 UNL     1      -5.051   9.763  16.595  1.00  0.00     0.126 HD
HETATM   65  H60 UNL     1      -4.006   8.890  17.567  1.00  0.00     0.126 HD
HETATM   66  H61 UNL     1      -2.705  11.292  14.779  1.00  0.00     0.126 HD
HETATM   67  H62 UNL     1      -3.892  10.157  14.439  1.00  0.00     0.126 HD
ATOM     68  H1  UNL     1      -2.011   9.464  17.788  1.00  0.00     0.165 HD
ENDBRANCH  40  60
BRANCH  13  69
HETATM   69  S1  UNL     1       2.803  15.784  19.080  1.00  0.00     0.106 S 
HETATM   70  O1  UNL     1       3.994  15.069  19.529  1.00  0.00    -0.595 OA
HETATM   71  O2  UNL     1       2.802  17.209  19.407  1.00  0.00    -0.595 OA
HETATM   72  O3  UNL     1       2.463  15.476  17.695  1.00  0.00    -0.595 OA
ENDBRANCH  13  69
BRANCH  32  73
HETATM   73  C32 UNL     1       7.279  13.109  19.842  1.00  0.00     0.172 C 
BRANCH  73  74
HETATM   74  O6  UNL     1       8.492  13.870  19.865  1.00  0.00    -0.400 OA
HETATM   75  H34 UNL     1       8.482  14.372  19.030  1.00  0.00     0.209 HD
ENDBRANCH  73  74
ENDBRANCH  32  73
BRANCH  26  76
HETATM   76  O5  UNL     1       7.725  19.279  24.872  1.00  0.00    -0.361 OA
HETATM   77  H27 UNL     1       7.050  19.976  24.919  1.00  0.00     0.217 HD
ENDBRANCH  26  76
TORSDOF 11
ENDMDL
MODEL 8
REMARK minimizedAffinity -10.147748
REMARK CNNscore 0.0662774891
REMARK CNNaffinity 6.19680071
REMARK  11 active torsions:
REMARK  status: ('A' for Active; 'I' for Inactive)
REMARK    1  A    between atoms: C13_13  and  S1_14 
REMARK    2  A    between atoms: C25_30  and  O5_31 
REMARK    3  A    between atoms: C31_37  and  C32_38 
REMARK    4  A    between atoms: C32_38  and  O6_39 
REMARK    5  A    between atoms: C40_47  and  C41_48 
REMARK    6  A    between atoms: C40_47  and  N1_63 
REMARK    7  A    between atoms: C41_48  and  C42_49 
REMARK    8  A    between atoms: C42_49  and  C43_50 
REMARK    9  A    between atoms: C42_49  and  C50_57 
REMARK   10  A    between atoms: C43_50  and  C44_51 
REMARK   11  A    between atoms: C50_57  and  O7_58 
REMARK       I    between atoms: C55_65  and  N2_66 
REMARK       I    between atoms: C55_65  and  N3_67 
ROOT
HETATM    1  C1  UNL     1      -2.312   9.807  15.142  1.00  0.00     0.010 C 
HETATM    2  C2  UNL     1      -1.949  10.686  16.339  1.00  0.00    -0.010 C 
HETATM    3  C3  UNL     1      -1.504   9.834  17.523  1.00  0.00     0.009 C 
HETATM    4  C4  UNL     1      -1.167  10.664  18.762  1.00  0.00     0.039 C 
HETATM    5  C5  UNL     1      -0.566  12.024  18.510  1.00  0.00    -0.049 C 
HETATM    6  C6  UNL     1       0.030  12.712  19.580  1.00  0.00     0.044 C 
HETATM    7  C7  UNL     1       0.568  13.988  19.402  1.00  0.00     0.073 C 
HETATM    8  C8  UNL     1       0.352  14.653  18.200  1.00  0.00     0.037 C 
HETATM    9  C9  UNL     1      -0.193  13.964  17.114  1.00  0.00     0.011 C 
HETATM   10  C10 UNL     1      -0.590  12.623  17.242  1.00  0.00    -0.047 C 
HETATM   11  C11 UNL     1      -0.941  11.817  16.008  1.00  0.00     0.024 C 
HETATM   12  C12 UNL     1       0.285  11.483  15.083  1.00  0.00     0.033 C 
HETATM   13  C13 UNL     1       1.745  11.393  15.660  1.00  0.00     0.139 C 
HETATM   14  C14 UNL     1       2.812  11.837  14.571  1.00  0.00     0.037 C 
HETATM   15  C15 UNL     1       3.323  10.771  13.592  1.00  0.00    -0.014 C 
HETATM   16  C16 UNL     1       4.475  10.934  12.903  1.00  0.00    -0.050 C 
HETATM   17  C17 UNL     1       5.187  12.254  12.995  1.00  0.00     0.042 C 
HETATM   18  C18 UNL     1       5.405  12.538  14.484  1.00  0.00    -0.001 C 
HETATM   19  C19 UNL     1       6.223  11.437  15.243  1.00  0.00     0.038 C 
HETATM   20  C20 UNL     1       6.939  10.367  14.374  1.00  0.00     0.130 C 
HETATM   21  O4  UNL     1       5.967   9.470  13.837  1.00  0.00    -0.371 OA
HETATM   22  C21 UNL     1       5.422   9.813  12.562  1.00  0.00     0.185 C 
HETATM   23  C22 UNL     1       5.000   8.531  11.853  1.00  0.00    -0.006 A 
HETATM   24  C23 UNL     1       3.768   8.405  11.194  1.00  0.00     0.014 A 
HETATM   25  C24 UNL     1       3.441   7.229  10.511  1.00  0.00     0.037 A 
HETATM   26  C25 UNL     1       4.355   6.180  10.457  1.00  0.00     0.067 A 
HETATM   27  C26 UNL     1       5.596   6.278  11.072  1.00  0.00     0.057 A 
HETATM   28  C27 UNL     1       5.924   7.442  11.769  1.00  0.00     0.029 A 
HETATM   29  C28 UNL     1       7.195   7.527  12.441  1.00  0.00    -0.066 C 
HETATM   30  C29 UNL     1       8.074   7.879  13.183  1.00  0.00    -0.101 C 
HETATM   31  C30 UNL     1       8.843   8.615  14.206  1.00  0.00     0.103 C 
HETATM   32  C31 UNL     1       7.946   9.477  15.161  1.00  0.00     0.049 C 
HETATM   33  C33 UNL     1       3.981  12.839  15.058  1.00  0.00     0.033 C 
HETATM   34  C34 UNL     1       3.965  13.466  16.447  1.00  0.00     0.073 A 
HETATM   35  C35 UNL     1       3.828  14.861  16.557  1.00  0.00     0.007 C 
HETATM   36  C36 UNL     1       3.509  15.460  17.774  1.00  0.00     0.010 C 
HETATM   37  C37 UNL     1       3.290  14.678  18.918  1.00  0.00    -0.005 C 
HETATM   38  C38 UNL     1       3.617  13.312  18.845  1.00  0.00     0.012 C 
HETATM   39  C39 UNL     1       3.975  12.720  17.627  1.00  0.00     0.133 A 
HETATM   40  C40 UNL     1       2.532  15.260  20.142  1.00  0.00     0.171 C 
HETATM   41  O8  UNL     1       1.324  14.468  20.440  1.00  0.00    -0.316 OA
HETATM   42 NA1  UNL     1       3.668  12.715  17.612  1.00  0.00    -0.397 Na
ATOM     43  HA1 UNL     1       2.865  12.351  18.125  1.00  0.00     0.155 HD
ENDROOT
BRANCH  40  44
HETATM   44  C41 UNL     1       3.416  15.079  21.430  1.00  0.00     0.075 C 
BRANCH  44  45
HETATM   45  C42 UNL     1       2.857  14.245  22.627  1.00  0.00     0.029 C 
BRANCH  45  46
HETATM   46  C43 UNL     1       3.743  13.051  23.091  1.00  0.00     0.046 C 
BRANCH  46  47
HETATM   47  C44 UNL     1       3.366  11.635  22.710  1.00  0.00    -0.058 A 
HETATM   48  C45 UNL     1       2.453  11.413  21.666  1.00  0.00     0.007 A 
HETATM   49  C46 UNL     1       2.075  10.119  21.300  1.00  0.00     0.001 A 
HETATM   50  C47 UNL     1       2.615   9.023  21.966  1.00  0.00     0.000 A 
HETATM   51  C48 UNL     1       3.546   9.223  22.981  1.00  0.00     0.001 A 
HETATM   52  C49 UNL     1       3.922  10.519  23.344  1.00  0.00     0.007 A 
ENDBRANCH  46  47
ENDBRANCH  45  46
BRANCH  45  53
HETATM   53  C50 UNL     1       2.376  15.173  23.787  1.00  0.00     0.062 C 
HETATM   54  C51 UNL     1       1.916  14.389  25.030  1.00  0.00     0.038 C 
HETATM   55  C52 UNL     1       2.024  15.370  26.202  1.00  0.00     0.003 C 
HETATM   56  C53 UNL     1       2.885  16.529  25.717  1.00  0.00     0.003 C 
HETATM   57  C54 UNL     1       3.469  16.070  24.386  1.00  0.00     0.038 C 
BRANCH  53  58
HETATM   58  O7  UNL     1       1.267  15.974  23.373  1.00  0.00    -0.389 OA
HETATM   59  H50 UNL     1       1.603  16.666  22.774  1.00  0.00     0.210 HD
ENDBRANCH  53  58
ENDBRANCH  45  53
ENDBRANCH  44  45
ENDBRANCH  40  44
BRANCH  40  60
HETATM   60  N1  UNL     1       2.304  16.716  19.994  1.00  0.00    -0.336 N 
HETATM   61  C55 UNL     1       3.171  17.577  20.359  1.00  0.00     0.124 C 
HETATM   62  N2  UNL     1       2.930  18.891  20.161  1.00  0.00    -0.279 NA
HETATM   63  N3  UNL     1       4.377  17.430  20.945  1.00  0.00    -0.279 NA
HETATM   64  H59 UNL     1       3.174  19.447  20.971  1.00  0.00     0.126 HD
HETATM   65  H60 UNL     1       1.961  19.035  19.895  1.00  0.00     0.126 HD
HETATM   66  H61 UNL     1       4.650  16.455  21.053  1.00  0.00     0.126 HD
HETATM   67  H62 UNL     1       5.107  17.969  20.498  1.00  0.00     0.126 HD
ATOM     68  H1  UNL     1       1.427  17.041  19.587  1.00  0.00     0.165 HD
ENDBRANCH  40  60
BRANCH  13  69
HETATM   69  S1  UNL     1       2.105   9.774  16.404  1.00  0.00     0.106 S 
HETATM   70  O1  UNL     1       1.242   8.820  15.713  1.00  0.00    -0.595 OA
HETATM   71  O2  UNL     1       1.785   9.956  17.819  1.00  0.00    -0.595 OA
HETATM   72  O3  UNL     1       3.519   9.544  16.123  1.00  0.00    -0.595 OA
ENDBRANCH  13  69
BRANCH  32  73
HETATM   73  C32 UNL     1       7.234   8.584  16.187  1.00  0.00     0.172 C 
BRANCH  73  74
HETATM   74  O6  UNL     1       8.205   7.833  16.925  1.00  0.00    -0.400 OA
HETATM   75  H34 UNL     1       7.678   7.303  17.552  1.00  0.00     0.209 HD
ENDBRANCH  73  74
ENDBRANCH  32  73
BRANCH  26  76
HETATM   76  O5  UNL     1       4.055   5.018   9.803  1.00  0.00    -0.361 OA
HETATM   77  H27 UNL     1       3.104   5.028   9.608  1.00  0.00     0.217 HD
ENDBRANCH  26  76
TORSDOF 11
ENDMDL
MODEL 9
REMARK minimizedAffinity -9.51291752
REMARK CNNscore 0.0638110787
REMARK CNNaffinity 5.74481153
REMARK  11 active torsions:
REMARK  status: ('A' for Active; 'I' for Inactive)
REMARK    1  A    between atoms: C13_13  and  S1_14 
REMARK    2  A    between atoms: C25_30  and  O5_31 
REMARK    3  A    between atoms: C31_37  and  C32_38 
REMARK    4  A    between atoms: C32_38  and  O6_39 
REMARK    5  A    between atoms: C40_47  and  C41_48 
REMARK    6  A    between atoms: C40_47  and  N1_63 
REMARK    7  A    between atoms: C41_48  and  C42_49 
REMARK    8  A    between atoms: C42_49  and  C43_50 
REMARK    9  A    between atoms: C42_49  and  C50_57 
REMARK   10  A    between atoms: C43_50  and  C44_51 
REMARK   11  A    between atoms: C50_57  and  O7_58 
REMARK       I    between atoms: C55_65  and  N2_66 
REMARK       I    between atoms: C55_65  and  N3_67 
ROOT
HETATM    1  C1  UNL     1      -0.497  18.913  20.279  1.00  0.00     0.010 C 
HETATM    2  C2  UNL     1      -0.969  17.860  19.276  1.00  0.00    -0.010 C 
HETATM    3  C3  UNL     1      -0.199  17.976  17.965  1.00  0.00     0.009 C 
HETATM    4  C4  UNL     1      -0.661  16.969  16.911  1.00  0.00     0.039 C 
HETATM    5  C5  UNL     1      -1.125  15.630  17.427  1.00  0.00    -0.049 C 
HETATM    6  C6  UNL     1      -1.283  14.569  16.519  1.00  0.00     0.044 C 
HETATM    7  C7  UNL     1      -1.745  13.323  16.945  1.00  0.00     0.073 C 
HETATM    8  C8  UNL     1      -2.219  13.184  18.245  1.00  0.00     0.037 C 
HETATM    9  C9  UNL     1      -2.022  14.211  19.169  1.00  0.00     0.011 C 
HETATM   10  C10 UNL     1      -1.409  15.414  18.784  1.00  0.00    -0.047 C 
HETATM   11  C11 UNL     1      -0.974  16.414  19.837  1.00  0.00     0.024 C 
HETATM   12  C12 UNL     1       0.244  15.943  20.712  1.00  0.00     0.033 C 
HETATM   13  C13 UNL     1       1.295  14.911  20.163  1.00  0.00     0.139 C 
HETATM   14  C14 UNL     1       1.886  14.025  21.341  1.00  0.00     0.037 C 
HETATM   15  C15 UNL     1       3.092  14.574  22.115  1.00  0.00    -0.014 C 
HETATM   16  C16 UNL     1       3.891  13.767  22.850  1.00  0.00    -0.050 C 
HETATM   17  C17 UNL     1       3.495  12.327  23.023  1.00  0.00     0.042 C 
HETATM   18  C18 UNL     1       3.292  11.752  21.619  1.00  0.00    -0.001 C 
HETATM   19  C19 UNL     1       4.549  11.850  20.688  1.00  0.00     0.038 C 
HETATM   20  C20 UNL     1       5.894  12.244  21.358  1.00  0.00     0.130 C 
HETATM   21  O4  UNL     1       5.863  13.631  21.695  1.00  0.00    -0.371 OA
HETATM   22  C21 UNL     1       5.378  13.958  22.998  1.00  0.00     0.185 C 
HETATM   23  C22 UNL     1       6.027  15.263  23.445  1.00  0.00    -0.006 A 
HETATM   24  C23 UNL     1       5.296  16.303  24.039  1.00  0.00     0.014 A 
HETATM   25  C24 UNL     1       5.938  17.463  24.482  1.00  0.00     0.037 A 
HETATM   26  C25 UNL     1       7.320  17.582  24.361  1.00  0.00     0.067 A 
HETATM   27  C26 UNL     1       8.081  16.562  23.805  1.00  0.00     0.057 A 
HETATM   28  C27 UNL     1       7.446  15.408  23.345  1.00  0.00     0.029 A 
HETATM   29  C28 UNL     1       8.232  14.368  22.732  1.00  0.00    -0.066 C 
HETATM   30  C29 UNL     1       8.544  13.400  22.090  1.00  0.00    -0.101 C 
HETATM   31  C30 UNL     1       8.483  12.193  21.241  1.00  0.00     0.103 C 
HETATM   32  C31 UNL     1       7.140  12.058  20.443  1.00  0.00     0.049 C 
HETATM   33  C33 UNL     1       1.993  12.435  21.077  1.00  0.00     0.033 C 
HETATM   34  C34 UNL     1       1.398  11.792  19.831  1.00  0.00     0.073 A 
HETATM   35  C35 UNL     1       0.336  10.884  19.979  1.00  0.00     0.007 C 
HETATM   36  C36 UNL     1      -0.440  10.496  18.888  1.00  0.00     0.010 C 
HETATM   37  C37 UNL     1      -0.193  11.028  17.614  1.00  0.00    -0.005 C 
HETATM   38  C38 UNL     1       0.983  11.779  17.438  1.00  0.00     0.012 C 
HETATM   39  C39 UNL     1       1.782  12.134  18.532  1.00  0.00     0.133 A 
HETATM   40  C40 UNL     1      -1.276  10.955  16.502  1.00  0.00     0.171 C 
HETATM   41  O8  UNL     1      -1.642  12.304  16.033  1.00  0.00    -0.316 OA
HETATM   42 NA1  UNL     1       1.565  12.353  18.539  1.00  0.00    -0.397 Na
ATOM     43  HA1 UNL     1       1.175  13.087  17.948  1.00  0.00     0.155 HD
ENDROOT
BRANCH  40  44
HETATM   44  C41 UNL     1      -0.658  10.277  15.225  1.00  0.00     0.075 C 
BRANCH  44  45
HETATM   45  C42 UNL     1      -1.027   8.796  14.893  1.00  0.00     0.029 C 
BRANCH  45  46
HETATM   46  C43 UNL     1      -1.702   8.561  13.510  1.00  0.00     0.046 C 
BRANCH  46  47
HETATM   47  C44 UNL     1      -2.778   7.506  13.362  1.00  0.00    -0.058 A 
HETATM   48  C45 UNL     1      -4.130   7.866  13.490  1.00  0.00     0.007 A 
HETATM   49  C46 UNL     1      -5.145   6.913  13.371  1.00  0.00     0.001 A 
HETATM   50  C47 UNL     1      -4.824   5.585  13.109  1.00  0.00     0.000 A 
HETATM   51  C48 UNL     1      -3.492   5.217  12.946  1.00  0.00     0.001 A 
HETATM   52  C49 UNL     1      -2.479   6.172  13.065  1.00  0.00     0.007 A 
ENDBRANCH  46  47
ENDBRANCH  45  46
BRANCH  45  53
HETATM   53  C50 UNL     1       0.167   7.834  15.193  1.00  0.00     0.062 C 
HETATM   54  C51 UNL     1       0.910   7.386  13.922  1.00  0.00     0.038 C 
HETATM   55  C52 UNL     1       2.305   6.956  14.387  1.00  0.00     0.003 C 
HETATM   56  C53 UNL     1       2.481   7.513  15.794  1.00  0.00     0.003 C 
HETATM   57  C54 UNL     1       1.309   8.464  16.002  1.00  0.00     0.038 C 
BRANCH  53  58
HETATM   58  O7  UNL     1      -0.288   6.645  15.845  1.00  0.00    -0.389 OA
HETATM   59  H50 UNL     1      -0.515   6.874  16.764  1.00  0.00     0.210 HD
ENDBRANCH  53  58
ENDBRANCH  45  53
ENDBRANCH  44  45
ENDBRANCH  40  44
BRANCH  40  60
HETATM   60  N1  UNL     1      -2.417  10.104  16.914  1.00  0.00    -0.336 N 
HETATM   61  C55 UNL     1      -3.559  10.187  16.354  1.00  0.00     0.124 C 
HETATM   62  N2  UNL     1      -4.551   9.357  16.741  1.00  0.00    -0.279 NA
HETATM   63  N3  UNL     1      -4.011  10.996  15.375  1.00  0.00    -0.279 NA
HETATM   64  H59 UNL     1      -5.433   9.845  16.849  1.00  0.00     0.126 HD
HETATM   65  H60 UNL     1      -4.294   8.872  17.594  1.00  0.00     0.126 HD
HETATM   66  H61 UNL     1      -3.286  11.597  14.989  1.00  0.00     0.126 HD
HETATM   67  H62 UNL     1      -4.507  10.501  14.644  1.00  0.00     0.126 HD
ATOM     68  H1  UNL     1      -2.284   9.431  17.669  1.00  0.00     0.165 HD
ENDBRANCH  40  60
BRANCH  13  69
HETATM   69  S1  UNL     1       2.576  15.695  19.139  1.00  0.00     0.106 S 
HETATM   70  O1  UNL     1       2.126  15.546  17.759  1.00  0.00    -0.595 OA
HETATM   71  O2  UNL     1       3.791  14.944  19.457  1.00  0.00    -0.595 OA
HETATM   72  O3  UNL     1       2.592  17.089  19.568  1.00  0.00    -0.595 OA
ENDBRANCH  13  69
BRANCH  32  73
HETATM   73  C32 UNL     1       7.120  13.027  19.252  1.00  0.00     0.172 C 
BRANCH  73  74
HETATM   74  O6  UNL     1       8.362  12.944  18.544  1.00  0.00    -0.400 OA
HETATM   75  H34 UNL     1       8.266  13.576  17.808  1.00  0.00     0.209 HD
ENDBRANCH  73  74
ENDBRANCH  32  73
BRANCH  26  76
HETATM   76  O5  UNL     1       7.969  18.709  24.779  1.00  0.00    -0.361 OA
HETATM   77  H27 UNL     1       7.297  19.389  24.950  1.00  0.00     0.217 HD
ENDBRANCH  26  76
TORSDOF 11
ENDMDL
