MODEL 1
REMARK minimizedAffinity -7.25019932
REMARK CNNscore 0.447025716
REMARK CNNaffinity 6.84757996
REMARK  14 active torsions:
REMARK  status: ('A' for Active; 'I' for Inactive)
REMARK    1  A    between atoms: C2_2  and  C3_3 
REMARK    2  A    between atoms: C2_2  and  C35_44 
REMARK    3  A    between atoms: C3_3  and  C4_4 
REMARK    4  A    between atoms: C4_4  and  C5_5 
REMARK    5  A    between atoms: C5_5  and  C6_6 
REMARK    6  A    between atoms: C5_5  and  C7_9 
REMARK    7  A    between atoms: C6_6  and  O2_8 
REMARK    8  A    between atoms: C28_31  and  O4_32 
REMARK    9  A    between atoms: O4_32  and  C29_33 
REMARK   10  A    between atoms: C30_35  and  C31_36 
REMARK   11  A    between atoms: C31_36  and  O6_37 
REMARK   12  A    between atoms: C32_38  and  O7_39 
REMARK   13  A    between atoms: C33_40  and  O8_41 
REMARK   14  A    between atoms: C34_42  and  O9_43 
ROOT
HETATM    1  C7  UNL     1       0.332  50.540 -13.206  1.00  0.00     0.009 C 
HETATM    2  C8  UNL     1       1.280  49.336 -12.980  1.00  0.00     0.007 C 
HETATM    3  C9  UNL     1       2.286  49.756 -11.886  1.00  0.00     0.015 C 
HETATM    4  C10 UNL     1       1.729  51.057 -11.274  1.00  0.00    -0.010 C 
HETATM    5  C11 UNL     1       0.687  50.644 -10.189  1.00  0.00     0.021 C 
HETATM    6  C12 UNL     1       2.674  52.050 -10.585  1.00  0.00    -0.039 C 
HETATM    7  C13 UNL     1       2.359  53.377 -10.581  1.00  0.00    -0.066 C 
HETATM    8  C14 UNL     1       1.091  53.899 -11.274  1.00  0.00     0.036 C 
HETATM    9  C15 UNL     1       0.273  52.913 -12.132  1.00  0.00     0.015 C 
HETATM   10  C16 UNL     1       1.122  51.722 -12.572  1.00  0.00    -0.028 C 
HETATM   11  C17 UNL     1       2.205  52.231 -13.573  1.00  0.00     0.016 C 
HETATM   12  C18 UNL     1       3.294  54.441  -9.946  1.00  0.00    -0.015 C 
HETATM   13  C19 UNL     1       4.065  55.070 -11.134  1.00  0.00     0.020 C 
HETATM   14  C20 UNL     1       2.488  55.536  -9.207  1.00  0.00     0.021 C 
HETATM   15  C21 UNL     1       3.366  56.553  -8.496  1.00  0.00     0.080 C 
HETATM   16  C22 UNL     1       4.302  55.894  -7.515  1.00  0.00     0.135 C 
HETATM   17  O3  UNL     1       4.473  56.396  -6.400  1.00  0.00    -0.297 OA
HETATM   18  C23 UNL     1       5.117  54.681  -7.997  1.00  0.00     0.018 C 
HETATM   19  C24 UNL     1       6.380  55.206  -8.698  1.00  0.00     0.023 C 
HETATM   20  C25 UNL     1       5.583  53.905  -6.737  1.00  0.00     0.023 C 
HETATM   21  C26 UNL     1       4.209  53.750  -8.870  1.00  0.00     0.016 C 
HETATM   22  C27 UNL     1       4.944  52.554  -9.508  1.00  0.00     0.043 C 
HETATM   23  C28 UNL     1       3.932  51.482  -9.942  1.00  0.00     0.155 C 
ENDROOT
BRANCH  23  24
HETATM   24  O4  UNL     1       3.554  50.762  -8.761  1.00  0.00    -0.349 OA
BRANCH  24  25
HETATM   25  C29 UNL     1       4.531  49.791  -8.354  1.00  0.00     0.292 C 
HETATM   26  O5  UNL     1       5.370  50.420  -7.384  1.00  0.00    -0.348 OA
HETATM   27  C30 UNL     1       6.708  49.927  -7.252  1.00  0.00     0.179 C 
HETATM   28  C32 UNL     1       6.898  48.491  -7.766  1.00  0.00     0.180 C 
HETATM   29  C33 UNL     1       6.360  48.288  -9.191  1.00  0.00     0.183 C 
HETATM   30  C34 UNL     1       5.322  49.342  -9.596  1.00  0.00     0.204 C 
BRANCH  27  31
HETATM   31  C31 UNL     1       7.683  50.929  -7.888  1.00  0.00     0.198 C 
BRANCH  31  32
HETATM   32  O6  UNL     1       8.895  50.290  -8.263  1.00  0.00    -0.398 OA
HETATM   33  H45 UNL     1       9.423  50.951  -8.748  1.00  0.00     0.209 HD
ENDBRANCH  31  32
ENDBRANCH  27  31
BRANCH  28  34
HETATM   34  O7  UNL     1       6.160  47.614  -6.888  1.00  0.00    -0.390 OA
HETATM   35  H47 UNL     1       6.577  46.733  -6.952  1.00  0.00     0.210 HD
ENDBRANCH  28  34
BRANCH  29  36
HETATM   36  O8  UNL     1       7.438  48.297 -10.137  1.00  0.00    -0.390 OA
HETATM   37  H49 UNL     1       7.131  47.803 -10.920  1.00  0.00     0.210 HD
ENDBRANCH  29  36
BRANCH  30  38
HETATM   38  O9  UNL     1       4.472  48.760 -10.599  1.00  0.00    -0.388 OA
HETATM   39  H51 UNL     1       4.803  49.052 -11.469  1.00  0.00     0.210 HD
ENDBRANCH  30  38
ENDBRANCH  24  25
ENDBRANCH  23  24
BRANCH   1  40
HETATM   40  C5  UNL     1      -0.247  50.715 -14.640  1.00  0.00     0.089 C 
BRANCH  40  41
HETATM   41  C4  UNL     1       0.546  50.088 -15.809  1.00  0.00     0.020 C 
BRANCH  41  42
HETATM   42  C3  UNL     1       0.137  50.558 -17.220  1.00  0.00     0.034 C 
BRANCH  42  43
HETATM   43  C2  UNL     1       0.680  51.879 -17.737  1.00  0.00    -0.086 C 
HETATM   44  C1  UNL     1       1.671  52.568 -17.141  1.00  0.00     0.014 C 
BRANCH  43  45
HETATM   45  C35 UNL     1       0.063  52.418 -19.027  1.00  0.00     0.005 C 
HETATM   46  C36 UNL     1       1.020  53.338 -19.794  1.00  0.00     0.014 C 
HETATM   47  C37 UNL     1      -0.438  51.285 -19.928  1.00  0.00     0.014 C 
ENDBRANCH  43  45
ENDBRANCH  42  43
ENDBRANCH  41  42
ENDBRANCH  40  41
BRANCH  40  48
HETATM   48  C6  UNL     1      -1.667  50.176 -14.629  1.00  0.00     0.144 C 
HETATM   49  O1  UNL     1      -1.992  49.015 -14.443  1.00  0.00    -0.650 OA
BRANCH  48  50
HETATM   50  O2  UNL     1      -2.600  51.108 -14.910  1.00  0.00    -0.776 OA
HETATM   51  H8  UNL     1      -3.447  50.611 -14.897  1.00  0.00     0.167 HD
ENDBRANCH  48  50
ENDBRANCH  40  48
ENDBRANCH   1  40
TORSDOF 14
ENDMDL
MODEL 2
REMARK minimizedAffinity -9.24788666
REMARK CNNscore 0.422222197
REMARK CNNaffinity 7.2048192
REMARK  14 active torsions:
REMARK  status: ('A' for Active; 'I' for Inactive)
REMARK    1  A    between atoms: C2_2  and  C3_3 
REMARK    2  A    between atoms: C2_2  and  C35_44 
REMARK    3  A    between atoms: C3_3  and  C4_4 
REMARK    4  A    between atoms: C4_4  and  C5_5 
REMARK    5  A    between atoms: C5_5  and  C6_6 
REMARK    6  A    between atoms: C5_5  and  C7_9 
REMARK    7  A    between atoms: C6_6  and  O2_8 
REMARK    8  A    between atoms: C28_31  and  O4_32 
REMARK    9  A    between atoms: O4_32  and  C29_33 
REMARK   10  A    between atoms: C30_35  and  C31_36 
REMARK   11  A    between atoms: C31_36  and  O6_37 
REMARK   12  A    between atoms: C32_38  and  O7_39 
REMARK   13  A    between atoms: C33_40  and  O8_41 
REMARK   14  A    between atoms: C34_42  and  O9_43 
ROOT
HETATM    1  C7  UNL     1       0.320  51.910 -20.328  1.00  0.00     0.009 C 
HETATM    2  C8  UNL     1      -0.169  52.786 -19.149  1.00  0.00     0.007 C 
HETATM    3  C9  UNL     1      -1.203  51.948 -18.366  1.00  0.00     0.015 C 
HETATM    4  C10 UNL     1      -1.073  50.507 -18.901  1.00  0.00    -0.010 C 
HETATM    5  C11 UNL     1       0.097  49.832 -18.121  1.00  0.00     0.021 C 
HETATM    6  C12 UNL     1      -2.257  49.536 -18.794  1.00  0.00    -0.039 C 
HETATM    7  C13 UNL     1      -2.394  48.547 -19.722  1.00  0.00    -0.066 C 
HETATM    8  C14 UNL     1      -1.401  48.400 -20.886  1.00  0.00     0.036 C 
HETATM    9  C15 UNL     1      -0.347  49.509 -21.086  1.00  0.00     0.015 C 
HETATM   10  C16 UNL     1      -0.781  50.814 -20.422  1.00  0.00    -0.028 C 
HETATM   11  C17 UNL     1      -2.018  51.373 -21.192  1.00  0.00     0.016 C 
HETATM   12  C18 UNL     1      -3.593  47.562 -19.702  1.00  0.00    -0.015 C 
HETATM   13  C19 UNL     1      -4.584  48.103 -20.764  1.00  0.00     0.020 C 
HETATM   14  C20 UNL     1      -3.155  46.126 -20.077  1.00  0.00     0.021 C 
HETATM   15  C21 UNL     1      -4.282  45.110 -19.987  1.00  0.00     0.080 C 
HETATM   16  C22 UNL     1      -4.902  45.084 -18.614  1.00  0.00     0.135 C 
HETATM   17  O3  UNL     1      -5.174  44.003 -18.085  1.00  0.00    -0.297 OA
HETATM   18  C23 UNL     1      -5.298  46.427 -17.975  1.00  0.00     0.018 C 
HETATM   19  C24 UNL     1      -6.695  46.806 -18.491  1.00  0.00     0.023 C 
HETATM   20  C25 UNL     1      -5.423  46.194 -16.446  1.00  0.00     0.023 C 
HETATM   21  C26 UNL     1      -4.179  47.489 -18.244  1.00  0.00     0.016 C 
HETATM   22  C27 UNL     1      -4.512  48.911 -17.750  1.00  0.00     0.043 C 
HETATM   23  C28 UNL     1      -3.227  49.747 -17.639  1.00  0.00     0.155 C 
ENDROOT
BRANCH  23  24
HETATM   24  O4  UNL     1      -2.577  49.356 -16.423  1.00  0.00    -0.349 OA
BRANCH  24  25
HETATM   25  C29 UNL     1      -2.782  50.288 -15.349  1.00  0.00     0.292 C 
HETATM   26  O5  UNL     1      -1.728  51.249 -15.419  1.00  0.00    -0.348 OA
HETATM   27  C30 UNL     1      -1.352  51.904 -14.203  1.00  0.00     0.179 C 
HETATM   28  C32 UNL     1      -2.444  51.890 -13.122  1.00  0.00     0.180 C 
HETATM   29  C33 UNL     1      -3.006  50.484 -12.856  1.00  0.00     0.183 C 
HETATM   30  C34 UNL     1      -2.769  49.513 -14.019  1.00  0.00     0.204 C 
BRANCH  27  31
HETATM   31  C31 UNL     1      -0.012  51.334 -13.712  1.00  0.00     0.198 C 
BRANCH  31  32
HETATM   32  O6  UNL     1       0.985  52.345 -13.668  1.00  0.00    -0.398 OA
HETATM   33  H45 UNL     1       1.773  51.946 -13.257  1.00  0.00     0.209 HD
ENDBRANCH  31  32
ENDBRANCH  27  31
BRANCH  28  34
HETATM   34  O7  UNL     1      -3.531  52.716 -13.592  1.00  0.00    -0.390 OA
HETATM   35  H47 UNL     1      -4.013  53.026 -12.800  1.00  0.00     0.210 HD
ENDBRANCH  28  34
BRANCH  29  36
HETATM   36  O8  UNL     1      -2.436  49.939 -11.658  1.00  0.00    -0.390 OA
HETATM   37  H49 UNL     1      -3.062  49.269 -11.327  1.00  0.00     0.210 HD
ENDBRANCH  29  36
BRANCH  30  38
HETATM   38  O9  UNL     1      -3.794  48.506 -13.967  1.00  0.00    -0.388 OA
HETATM   39  H51 UNL     1      -3.417  47.729 -13.513  1.00  0.00     0.210 HD
ENDBRANCH  30  38
ENDBRANCH  24  25
ENDBRANCH  23  24
BRANCH   1  40
HETATM   40  C5  UNL     1       0.741  52.658 -21.628  1.00  0.00     0.089 C 
BRANCH  40  41
HETATM   41  C4  UNL     1      -0.358  52.929 -22.680  1.00  0.00     0.020 C 
BRANCH  41  42
HETATM   42  C3  UNL     1       0.142  53.180 -24.117  1.00  0.00     0.034 C 
BRANCH  42  43
HETATM   43  C2  UNL     1       0.118  52.033 -25.112  1.00  0.00    -0.086 C 
HETATM   44  C1  UNL     1      -0.669  50.948 -24.986  1.00  0.00     0.014 C 
BRANCH  43  45
HETATM   45  C35 UNL     1       1.030  52.161 -26.331  1.00  0.00     0.005 C 
HETATM   46  C36 UNL     1       2.239  51.221 -26.259  1.00  0.00     0.014 C 
HETATM   47  C37 UNL     1       0.257  51.952 -27.637  1.00  0.00     0.014 C 
ENDBRANCH  43  45
ENDBRANCH  42  43
ENDBRANCH  41  42
ENDBRANCH  40  41
BRANCH  40  48
HETATM   48  C6  UNL     1       1.396  53.964 -21.212  1.00  0.00     0.144 C 
HETATM   49  O1  UNL     1       1.580  54.933 -21.930  1.00  0.00    -0.650 OA
BRANCH  48  50
HETATM   50  O2  UNL     1       1.838  53.964 -19.938  1.00  0.00    -0.776 OA
HETATM   51  H8  UNL     1       2.256  54.846 -19.830  1.00  0.00     0.167 HD
ENDBRANCH  48  50
ENDBRANCH  40  48
ENDBRANCH   1  40
TORSDOF 14
ENDMDL
MODEL 3
REMARK minimizedAffinity -8.74110126
REMARK CNNscore 0.356017888
REMARK CNNaffinity 6.85914993
REMARK  14 active torsions:
REMARK  status: ('A' for Active; 'I' for Inactive)
REMARK    1  A    between atoms: C2_2  and  C3_3 
REMARK    2  A    between atoms: C2_2  and  C35_44 
REMARK    3  A    between atoms: C3_3  and  C4_4 
REMARK    4  A    between atoms: C4_4  and  C5_5 
REMARK    5  A    between atoms: C5_5  and  C6_6 
REMARK    6  A    between atoms: C5_5  and  C7_9 
REMARK    7  A    between atoms: C6_6  and  O2_8 
REMARK    8  A    between atoms: C28_31  and  O4_32 
REMARK    9  A    between atoms: O4_32  and  C29_33 
REMARK   10  A    between atoms: C30_35  and  C31_36 
REMARK   11  A    between atoms: C31_36  and  O6_37 
REMARK   12  A    between atoms: C32_38  and  O7_39 
REMARK   13  A    between atoms: C33_40  and  O8_41 
REMARK   14  A    between atoms: C34_42  and  O9_43 
ROOT
HETATM    1  C7  UNL     1      -4.244  49.573 -21.764  1.00  0.00     0.009 C 
HETATM    2  C8  UNL     1      -4.140  49.016 -23.205  1.00  0.00     0.007 C 
HETATM    3  C9  UNL     1      -5.514  48.397 -23.547  1.00  0.00     0.015 C 
HETATM    4  C10 UNL     1      -6.479  48.872 -22.442  1.00  0.00    -0.010 C 
HETATM    5  C11 UNL     1      -6.989  50.287 -22.857  1.00  0.00     0.021 C 
HETATM    6  C12 UNL     1      -7.738  48.057 -22.117  1.00  0.00    -0.039 C 
HETATM    7  C13 UNL     1      -8.246  48.092 -20.852  1.00  0.00    -0.066 C 
HETATM    8  C14 UNL     1      -7.570  48.911 -19.742  1.00  0.00     0.036 C 
HETATM    9  C15 UNL     1      -6.198  49.549 -20.042  1.00  0.00     0.015 C 
HETATM   10  C16 UNL     1      -5.500  48.845 -21.203  1.00  0.00    -0.028 C 
HETATM   11  C17 UNL     1      -5.115  47.403 -20.748  1.00  0.00     0.016 C 
HETATM   12  C18 UNL     1      -9.486  47.254 -20.442  1.00  0.00    -0.015 C 
HETATM   13  C19 UNL     1      -8.917  46.009 -19.715  1.00  0.00     0.020 C 
HETATM   14  C20 UNL     1     -10.412  48.041 -19.484  1.00  0.00     0.021 C 
HETATM   15  C21 UNL     1     -11.684  47.290 -19.124  1.00  0.00     0.080 C 
HETATM   16  C22 UNL     1     -12.471  46.904 -20.350  1.00  0.00     0.135 C 
HETATM   17  O3  UNL     1     -13.698  47.042 -20.359  1.00  0.00    -0.297 OA
HETATM   18  C23 UNL     1     -11.718  46.221 -21.506  1.00  0.00     0.018 C 
HETATM   19  C24 UNL     1     -11.643  44.717 -21.201  1.00  0.00     0.023 C 
HETATM   20  C25 UNL     1     -12.583  46.385 -22.784  1.00  0.00     0.023 C 
HETATM   21  C26 UNL     1     -10.337  46.926 -21.724  1.00  0.00     0.016 C 
HETATM   22  C27 UNL     1      -9.437  46.258 -22.783  1.00  0.00     0.043 C 
HETATM   23  C28 UNL     1      -8.349  47.240 -23.247  1.00  0.00     0.155 C 
ENDROOT
BRANCH  23  24
HETATM   24  O4  UNL     1      -8.966  48.139 -24.177  1.00  0.00    -0.349 OA
BRANCH  24  25
HETATM   25  C29 UNL     1      -8.975  47.640 -25.524  1.00  0.00     0.292 C 
HETATM   26  O5  UNL     1      -7.728  46.977 -25.736  1.00  0.00    -0.348 OA
HETATM   27  C30 UNL     1      -7.238  46.909 -27.080  1.00  0.00     0.179 C 
HETATM   28  C32 UNL     1      -8.328  47.073 -28.150  1.00  0.00     0.180 C 
HETATM   29  C33 UNL     1      -9.202  48.318 -27.931  1.00  0.00     0.183 C 
HETATM   30  C34 UNL     1      -9.168  48.827 -26.484  1.00  0.00     0.204 C 
BRANCH  27  31
HETATM   31  C31 UNL     1      -6.075  47.899 -27.247  1.00  0.00     0.198 C 
BRANCH  31  32
HETATM   32  O6  UNL     1      -6.035  48.418 -28.569  1.00  0.00    -0.398 OA
HETATM   33  H45 UNL     1      -5.347  49.107 -28.580  1.00  0.00     0.209 HD
ENDBRANCH  31  32
ENDBRANCH  27  31
BRANCH  28  34
HETATM   34  O7  UNL     1      -9.187  45.915 -28.078  1.00  0.00    -0.390 OA
HETATM   35  H47 UNL     1      -9.603  45.815 -28.957  1.00  0.00     0.210 HD
ENDBRANCH  28  34
BRANCH  29  36
HETATM   36  O8  UNL     1      -8.798  49.373 -28.815  1.00  0.00    -0.390 OA
HETATM   37  H49 UNL     1      -9.568  49.961 -28.923  1.00  0.00     0.210 HD
ENDBRANCH  29  36
BRANCH  30  38
HETATM   38  O9  UNL     1     -10.397  49.531 -26.237  1.00  0.00    -0.388 OA
HETATM   39  H51 UNL     1     -10.218  50.483 -26.357  1.00  0.00     0.210 HD
ENDBRANCH  30  38
ENDBRANCH  24  25
ENDBRANCH  23  24
BRANCH   1  40
HETATM   40  C5  UNL     1      -2.938  49.567 -20.916  1.00  0.00     0.089 C 
BRANCH  40  41
HETATM   41  C4  UNL     1      -1.646  50.077 -21.596  1.00  0.00     0.020 C 
BRANCH  41  42
HETATM   42  C3  UNL     1      -0.409  50.180 -20.682  1.00  0.00     0.034 C 
BRANCH  42  43
HETATM   43  C2  UNL     1      -0.076  51.519 -20.048  1.00  0.00    -0.086 C 
HETATM   44  C1  UNL     1       0.018  51.718 -18.719  1.00  0.00     0.014 C 
BRANCH  43  45
HETATM   45  C35 UNL     1       0.191  52.683 -21.001  1.00  0.00     0.005 C 
HETATM   46  C36 UNL     1       0.978  53.818 -20.333  1.00  0.00     0.014 C 
HETATM   47  C37 UNL     1       0.892  52.216 -22.279  1.00  0.00     0.014 C 
ENDBRANCH  43  45
ENDBRANCH  42  43
ENDBRANCH  41  42
ENDBRANCH  40  41
BRANCH  40  48
HETATM   48  C6  UNL     1      -3.209  50.365 -19.653  1.00  0.00     0.144 C 
HETATM   49  O1  UNL     1      -3.480  51.554 -19.599  1.00  0.00    -0.650 OA
BRANCH  48  50
HETATM   50  O2  UNL     1      -3.069  49.646 -18.520  1.00  0.00    -0.776 OA
HETATM   51  H8  UNL     1      -3.241  50.293 -17.803  1.00  0.00     0.167 HD
ENDBRANCH  48  50
ENDBRANCH  40  48
ENDBRANCH   1  40
TORSDOF 14
ENDMDL
MODEL 4
REMARK minimizedAffinity -7.3755126
REMARK CNNscore 0.326445699
REMARK CNNaffinity 6.456038
REMARK  14 active torsions:
REMARK  status: ('A' for Active; 'I' for Inactive)
REMARK    1  A    between atoms: C2_2  and  C3_3 
REMARK    2  A    between atoms: C2_2  and  C35_44 
REMARK    3  A    between atoms: C3_3  and  C4_4 
REMARK    4  A    between atoms: C4_4  and  C5_5 
REMARK    5  A    between atoms: C5_5  and  C6_6 
REMARK    6  A    between atoms: C5_5  and  C7_9 
REMARK    7  A    between atoms: C6_6  and  O2_8 
REMARK    8  A    between atoms: C28_31  and  O4_32 
REMARK    9  A    between atoms: O4_32  and  C29_33 
REMARK   10  A    between atoms: C30_35  and  C31_36 
REMARK   11  A    between atoms: C31_36  and  O6_37 
REMARK   12  A    between atoms: C32_38  and  O7_39 
REMARK   13  A    between atoms: C33_40  and  O8_41 
REMARK   14  A    between atoms: C34_42  and  O9_43 
ROOT
HETATM    1  C7  UNL     1      -1.500  51.765 -11.188  1.00  0.00     0.009 C 
HETATM    2  C8  UNL     1      -0.752  50.409 -11.238  1.00  0.00     0.007 C 
HETATM    3  C9  UNL     1       0.638  50.641 -10.607  1.00  0.00     0.015 C 
HETATM    4  C10 UNL     1       0.569  52.022  -9.924  1.00  0.00    -0.010 C 
HETATM    5  C11 UNL     1      -0.059  51.803  -8.512  1.00  0.00     0.021 C 
HETATM    6  C12 UNL     1       1.853  52.828  -9.686  1.00  0.00    -0.039 C 
HETATM    7  C13 UNL     1       1.789  54.190  -9.657  1.00  0.00    -0.066 C 
HETATM    8  C14 UNL     1       0.462  54.932  -9.882  1.00  0.00     0.036 C 
HETATM    9  C15 UNL     1      -0.766  54.109 -10.322  1.00  0.00     0.015 C 
HETATM   10  C16 UNL     1      -0.348  52.785 -10.959  1.00  0.00    -0.028 C 
HETATM   11  C17 UNL     1       0.365  53.090 -12.313  1.00  0.00     0.016 C 
HETATM   12  C18 UNL     1       3.054  55.068  -9.471  1.00  0.00    -0.015 C 
HETATM   13  C19 UNL     1       3.434  55.547 -10.895  1.00  0.00     0.020 C 
HETATM   14  C20 UNL     1       2.769  56.290  -8.565  1.00  0.00     0.021 C 
HETATM   15  C21 UNL     1       4.004  57.132  -8.285  1.00  0.00     0.080 C 
HETATM   16  C22 UNL     1       5.108  56.316  -7.663  1.00  0.00     0.135 C 
HETATM   17  O3  UNL     1       5.755  56.779  -6.720  1.00  0.00    -0.297 OA
HETATM   18  C23 UNL     1       5.475  54.976  -8.325  1.00  0.00     0.018 C 
HETATM   19  C24 UNL     1       6.464  55.264  -9.465  1.00  0.00     0.023 C 
HETATM   20  C25 UNL     1       6.231  54.129  -7.267  1.00  0.00     0.023 C 
HETATM   21  C26 UNL     1       4.169  54.223  -8.751  1.00  0.00     0.016 C 
HETATM   22  C27 UNL     1       4.409  52.915  -9.530  1.00  0.00     0.043 C 
HETATM   23  C28 UNL     1       3.144  52.042  -9.500  1.00  0.00     0.155 C 
ENDROOT
BRANCH  23  24
HETATM   24  O4  UNL     1       3.107  51.403  -8.218  1.00  0.00    -0.349 OA
BRANCH  24  25
HETATM   25  C29 UNL     1       4.030  50.308  -8.106  1.00  0.00     0.292 C 
HETATM   26  O5  UNL     1       5.318  50.804  -8.472  1.00  0.00    -0.348 OA
HETATM   27  C30 UNL     1       6.260  49.863  -9.000  1.00  0.00     0.179 C 
HETATM   28  C32 UNL     1       5.967  48.404  -8.618  1.00  0.00     0.180 C 
HETATM   29  C33 UNL     1       4.520  47.984  -8.921  1.00  0.00     0.183 C 
HETATM   30  C34 UNL     1       3.561  49.176  -9.038  1.00  0.00     0.204 C 
BRANCH  27  31
HETATM   31  C31 UNL     1       6.393  50.074 -10.517  1.00  0.00     0.198 C 
BRANCH  31  32
HETATM   32  O6  UNL     1       7.745  49.949 -10.931  1.00  0.00    -0.398 OA
HETATM   33  H45 UNL     1       7.747  49.991 -11.904  1.00  0.00     0.209 HD
ENDBRANCH  31  32
ENDBRANCH  27  31
BRANCH  28  34
HETATM   34  O7  UNL     1       6.173  48.278  -7.194  1.00  0.00    -0.390 OA
HETATM   35  H47 UNL     1       6.377  47.338  -7.020  1.00  0.00     0.210 HD
ENDBRANCH  28  34
BRANCH  29  36
HETATM   36  O8  UNL     1       4.468  47.213 -10.129  1.00  0.00    -0.390 OA
HETATM   37  H49 UNL     1       3.662  46.666 -10.081  1.00  0.00     0.210 HD
ENDBRANCH  29  36
BRANCH  30  38
HETATM   38  O9  UNL     1       2.241  48.712  -8.707  1.00  0.00    -0.388 OA
HETATM   39  H51 UNL     1       1.779  48.523  -9.545  1.00  0.00     0.210 HD
ENDBRANCH  30  38
ENDBRANCH  24  25
ENDBRANCH  23  24
BRANCH   1  40
HETATM   40  C5  UNL     1      -2.525  52.041 -12.327  1.00  0.00     0.089 C 
BRANCH  40  41
HETATM   41  C4  UNL     1      -3.116  50.817 -13.064  1.00  0.00     0.020 C 
BRANCH  41  42
HETATM   42  C3  UNL     1      -3.061  49.484 -12.291  1.00  0.00     0.034 C 
BRANCH  42  43
HETATM   43  C2  UNL     1      -4.306  49.008 -11.564  1.00  0.00    -0.086 C 
HETATM   44  C1  UNL     1      -5.095  48.008 -12.002  1.00  0.00     0.014 C 
BRANCH  43  45
HETATM   45  C35 UNL     1      -4.641  49.704 -10.246  1.00  0.00     0.005 C 
HETATM   46  C36 UNL     1      -6.151  49.879 -10.044  1.00  0.00     0.014 C 
HETATM   47  C37 UNL     1      -4.014  48.980  -9.051  1.00  0.00     0.014 C 
ENDBRANCH  43  45
ENDBRANCH  42  43
ENDBRANCH  41  42
ENDBRANCH  40  41
BRANCH  40  48
HETATM   48  C6  UNL     1      -3.644  52.884 -11.742  1.00  0.00     0.144 C 
HETATM   49  O1  UNL     1      -4.339  53.678 -12.354  1.00  0.00    -0.650 OA
BRANCH  48  50
HETATM   50  O2  UNL     1      -3.793  52.733 -10.410  1.00  0.00    -0.776 OA
HETATM   51  H8  UNL     1      -4.518  53.353 -10.178  1.00  0.00     0.167 HD
ENDBRANCH  48  50
ENDBRANCH  40  48
ENDBRANCH   1  40
TORSDOF 14
ENDMDL
MODEL 5
REMARK minimizedAffinity -9.66231918
REMARK CNNscore 0.295011044
REMARK CNNaffinity 7.15536499
REMARK  14 active torsions:
REMARK  status: ('A' for Active; 'I' for Inactive)
REMARK    1  A    between atoms: C2_2  and  C3_3 
REMARK    2  A    between atoms: C2_2  and  C35_44 
REMARK    3  A    between atoms: C3_3  and  C4_4 
REMARK    4  A    between atoms: C4_4  and  C5_5 
REMARK    5  A    between atoms: C5_5  and  C6_6 
REMARK    6  A    between atoms: C5_5  and  C7_9 
REMARK    7  A    between atoms: C6_6  and  O2_8 
REMARK    8  A    between atoms: C28_31  and  O4_32 
REMARK    9  A    between atoms: O4_32  and  C29_33 
REMARK   10  A    between atoms: C30_35  and  C31_36 
REMARK   11  A    between atoms: C31_36  and  O6_37 
REMARK   12  A    between atoms: C32_38  and  O7_39 
REMARK   13  A    between atoms: C33_40  and  O8_41 
REMARK   14  A    between atoms: C34_42  and  O9_43 
ROOT
HETATM    1  C7  UNL     1      -0.055  50.954 -21.345  1.00  0.00     0.009 C 
HETATM    2  C8  UNL     1      -0.381  50.727 -19.848  1.00  0.00     0.007 C 
HETATM    3  C9  UNL     1      -1.696  49.918 -19.793  1.00  0.00     0.015 C 
HETATM    4  C10 UNL     1      -1.949  49.423 -21.232  1.00  0.00    -0.010 C 
HETATM    5  C11 UNL     1      -1.125  48.110 -21.415  1.00  0.00     0.021 C 
HETATM    6  C12 UNL     1      -3.373  49.085 -21.690  1.00  0.00    -0.039 C 
HETATM    7  C13 UNL     1      -3.702  49.227 -23.006  1.00  0.00    -0.066 C 
HETATM    8  C14 UNL     1      -2.681  49.742 -24.033  1.00  0.00     0.036 C 
HETATM    9  C15 UNL     1      -1.328  50.269 -23.511  1.00  0.00     0.015 C 
HETATM   10  C16 UNL     1      -1.418  50.670 -22.040  1.00  0.00    -0.028 C 
HETATM   11  C17 UNL     1      -2.340  51.923 -21.925  1.00  0.00     0.016 C 
HETATM   12  C18 UNL     1      -5.136  48.951 -23.529  1.00  0.00    -0.015 C 
HETATM   13  C19 UNL     1      -5.800  50.346 -23.658  1.00  0.00     0.020 C 
HETATM   14  C20 UNL     1      -5.112  48.253 -24.910  1.00  0.00     0.021 C 
HETATM   15  C21 UNL     1      -6.496  47.885 -25.423  1.00  0.00     0.080 C 
HETATM   16  C22 UNL     1      -7.237  47.007 -24.448  1.00  0.00     0.135 C 
HETATM   17  O3  UNL     1      -7.876  46.035 -24.863  1.00  0.00    -0.297 OA
HETATM   18  C23 UNL     1      -7.277  47.439 -22.972  1.00  0.00     0.018 C 
HETATM   19  C24 UNL     1      -8.433  48.437 -22.800  1.00  0.00     0.023 C 
HETATM   20  C25 UNL     1      -7.628  46.184 -22.130  1.00  0.00     0.023 C 
HETATM   21  C26 UNL     1      -5.869  47.971 -22.540  1.00  0.00     0.016 C 
HETATM   22  C27 UNL     1      -5.810  48.543 -21.110  1.00  0.00     0.043 C 
HETATM   23  C28 UNL     1      -4.353  48.608 -20.626  1.00  0.00     0.155 C 
ENDROOT
BRANCH  23  24
HETATM   24  O4  UNL     1      -3.984  47.281 -20.230  1.00  0.00    -0.349 OA
BRANCH  24  25
HETATM   25  C29 UNL     1      -4.219  47.021 -18.837  1.00  0.00     0.292 C 
HETATM   26  O5  UNL     1      -3.885  48.212 -18.124  1.00  0.00    -0.348 OA
HETATM   27  C30 UNL     1      -3.473  48.070 -16.760  1.00  0.00     0.179 C 
HETATM   28  C32 UNL     1      -3.941  46.764 -16.099  1.00  0.00     0.180 C 
HETATM   29  C33 UNL     1      -3.596  45.516 -16.926  1.00  0.00     0.183 C 
HETATM   30  C34 UNL     1      -3.347  45.828 -18.407  1.00  0.00     0.204 C 
BRANCH  27  31
HETATM   31  C31 UNL     1      -1.954  48.283 -16.664  1.00  0.00     0.198 C 
BRANCH  31  32
HETATM   32  O6  UNL     1      -1.639  49.259 -15.682  1.00  0.00    -0.398 OA
HETATM   33  H45 UNL     1      -0.668  49.273 -15.599  1.00  0.00     0.209 HD
ENDBRANCH  31  32
ENDBRANCH  27  31
BRANCH  28  34
HETATM   34  O7  UNL     1      -5.379  46.829 -15.979  1.00  0.00    -0.390 OA
HETATM   35  H47 UNL     1      -5.629  46.236 -15.244  1.00  0.00     0.210 HD
ENDBRANCH  28  34
BRANCH  29  36
HETATM   36  O8  UNL     1      -2.444  44.859 -16.380  1.00  0.00    -0.390 OA
HETATM   37  H49 UNL     1      -2.489  43.927 -16.662  1.00  0.00     0.210 HD
ENDBRANCH  29  36
BRANCH  30  38
HETATM   38  O9  UNL     1      -3.643  44.640 -19.162  1.00  0.00    -0.388 OA
HETATM   39  H51 UNL     1      -2.797  44.182 -19.330  1.00  0.00     0.210 HD
ENDBRANCH  30  38
ENDBRANCH  24  25
ENDBRANCH  23  24
BRANCH   1  40
HETATM   40  C5  UNL     1       0.707  52.264 -21.703  1.00  0.00     0.089 C 
BRANCH  40  41
HETATM   41  C4  UNL     1       0.382  52.927 -23.062  1.00  0.00     0.020 C 
BRANCH  41  42
HETATM   42  C3  UNL     1       1.116  52.335 -24.283  1.00  0.00     0.034 C 
BRANCH  42  43
HETATM   43  C2  UNL     1       0.646  52.719 -25.675  1.00  0.00    -0.086 C 
HETATM   44  C1  UNL     1      -0.079  53.821 -25.945  1.00  0.00     0.014 C 
BRANCH  43  45
HETATM   45  C35 UNL     1       1.062  51.796 -26.820  1.00  0.00     0.005 C 
HETATM   46  C36 UNL     1       0.519  52.264 -28.175  1.00  0.00     0.014 C 
HETATM   47  C37 UNL     1       2.582  51.617 -26.876  1.00  0.00     0.014 C 
ENDBRANCH  43  45
ENDBRANCH  42  43
ENDBRANCH  41  42
ENDBRANCH  40  41
BRANCH  40  48
HETATM   48  C6  UNL     1       0.473  53.253 -20.575  1.00  0.00     0.144 C 
HETATM   49  O1  UNL     1      -0.413  53.190 -19.738  1.00  0.00    -0.650 OA
BRANCH  48  50
HETATM   50  O2  UNL     1       1.322  54.300 -20.590  1.00  0.00    -0.776 OA
HETATM   51  H8  UNL     1       1.031  54.856 -19.835  1.00  0.00     0.167 HD
ENDBRANCH  48  50
ENDBRANCH  40  48
ENDBRANCH   1  40
TORSDOF 14
ENDMDL
MODEL 6
REMARK minimizedAffinity -8.08957386
REMARK CNNscore 0.264534026
REMARK CNNaffinity 6.54042864
REMARK  14 active torsions:
REMARK  status: ('A' for Active; 'I' for Inactive)
REMARK    1  A    between atoms: C2_2  and  C3_3 
REMARK    2  A    between atoms: C2_2  and  C35_44 
REMARK    3  A    between atoms: C3_3  and  C4_4 
REMARK    4  A    between atoms: C4_4  and  C5_5 
REMARK    5  A    between atoms: C5_5  and  C6_6 
REMARK    6  A    between atoms: C5_5  and  C7_9 
REMARK    7  A    between atoms: C6_6  and  O2_8 
REMARK    8  A    between atoms: C28_31  and  O4_32 
REMARK    9  A    between atoms: O4_32  and  C29_33 
REMARK   10  A    between atoms: C30_35  and  C31_36 
REMARK   11  A    between atoms: C31_36  and  O6_37 
REMARK   12  A    between atoms: C32_38  and  O7_39 
REMARK   13  A    between atoms: C33_40  and  O8_41 
REMARK   14  A    between atoms: C34_42  and  O9_43 
ROOT
HETATM    1  C7  UNL     1      -8.201  48.027 -24.517  1.00  0.00     0.009 C 
HETATM    2  C8  UNL     1      -8.255  46.614 -23.885  1.00  0.00     0.007 C 
HETATM    3  C9  UNL     1      -7.147  46.562 -22.809  1.00  0.00     0.015 C 
HETATM    4  C10 UNL     1      -6.679  48.018 -22.612  1.00  0.00    -0.010 C 
HETATM    5  C11 UNL     1      -7.662  48.681 -21.598  1.00  0.00     0.021 C 
HETATM    6  C12 UNL     1      -5.271  48.308 -22.075  1.00  0.00    -0.039 C 
HETATM    7  C13 UNL     1      -4.644  49.463 -22.436  1.00  0.00    -0.066 C 
HETATM    8  C14 UNL     1      -5.309  50.467 -23.391  1.00  0.00     0.036 C 
HETATM    9  C15 UNL     1      -6.628  50.056 -24.076  1.00  0.00     0.015 C 
HETATM   10  C16 UNL     1      -6.792  48.537 -24.099  1.00  0.00    -0.028 C 
HETATM   11  C17 UNL     1      -5.709  47.938 -25.050  1.00  0.00     0.016 C 
HETATM   12  C18 UNL     1      -3.202  49.796 -21.970  1.00  0.00    -0.015 C 
HETATM   13  C19 UNL     1      -2.290  49.433 -23.169  1.00  0.00     0.020 C 
HETATM   14  C20 UNL     1      -3.048  51.298 -21.631  1.00  0.00     0.021 C 
HETATM   15  C21 UNL     1      -1.673  51.654 -21.087  1.00  0.00     0.080 C 
HETATM   16  C22 UNL     1      -1.330  50.843 -19.864  1.00  0.00     0.135 C 
HETATM   17  O3  UNL     1      -0.798  51.392 -18.894  1.00  0.00    -0.297 OA
HETATM   18  C23 UNL     1      -1.536  49.319 -19.926  1.00  0.00     0.018 C 
HETATM   19  C24 UNL     1      -0.288  48.696 -20.570  1.00  0.00     0.023 C 
HETATM   20  C25 UNL     1      -1.605  48.800 -18.465  1.00  0.00     0.023 C 
HETATM   21  C26 UNL     1      -2.888  49.000 -20.650  1.00  0.00     0.016 C 
HETATM   22  C27 UNL     1      -3.155  47.499 -20.877  1.00  0.00     0.043 C 
HETATM   23  C28 UNL     1      -4.648  47.264 -21.158  1.00  0.00     0.155 C 
ENDROOT
BRANCH  23  24
HETATM   24  O4  UNL     1      -5.323  47.307 -19.894  1.00  0.00    -0.349 OA
BRANCH  24  25
HETATM   25  C29 UNL     1      -4.581  46.678 -18.836  1.00  0.00     0.292 C 
HETATM   26  O5  UNL     1      -4.839  45.277 -18.916  1.00  0.00    -0.348 OA
HETATM   27  C30 UNL     1      -4.725  44.516 -17.709  1.00  0.00     0.179 C 
HETATM   28  C32 UNL     1      -3.849  45.178 -16.633  1.00  0.00     0.180 C 
HETATM   29  C33 UNL     1      -4.250  46.634 -16.348  1.00  0.00     0.183 C 
HETATM   30  C34 UNL     1      -5.043  47.274 -17.494  1.00  0.00     0.204 C 
BRANCH  27  31
HETATM   31  C31 UNL     1      -6.130  44.152 -17.202  1.00  0.00     0.198 C 
BRANCH  31  32
HETATM   32  O6  UNL     1      -6.114  43.883 -15.808  1.00  0.00    -0.398 OA
HETATM   33  H45 UNL     1      -7.041  43.761 -15.534  1.00  0.00     0.209 HD
ENDBRANCH  31  32
ENDBRANCH  27  31
BRANCH  28  34
HETATM   34  O7  UNL     1      -2.490  45.183 -17.121  1.00  0.00    -0.390 OA
HETATM   35  H47 UNL     1      -1.908  45.221 -16.337  1.00  0.00     0.210 HD
ENDBRANCH  28  34
BRANCH  29  36
HETATM   36  O8  UNL     1      -5.018  46.711 -15.138  1.00  0.00    -0.390 OA
HETATM   37  H49 UNL     1      -4.921  47.620 -14.799  1.00  0.00     0.210 HD
ENDBRANCH  29  36
BRANCH  30  38
HETATM   38  O9  UNL     1      -4.836  48.696 -17.431  1.00  0.00    -0.388 OA
HETATM   39  H51 UNL     1      -5.600  49.082 -16.963  1.00  0.00     0.210 HD
ENDBRANCH  30  38
ENDBRANCH  24  25
ENDBRANCH  23  24
BRANCH   1  40
HETATM   40  C5  UNL     1      -8.622  48.140 -26.012  1.00  0.00     0.089 C 
BRANCH  40  41
HETATM   41  C4  UNL     1      -8.826  46.823 -26.795  1.00  0.00     0.020 C 
BRANCH  41  42
HETATM   42  C3  UNL     1      -7.554  46.221 -27.427  1.00  0.00     0.034 C 
BRANCH  42  43
HETATM   43  C2  UNL     1      -7.267  46.492 -28.894  1.00  0.00    -0.086 C 
HETATM   44  C1  UNL     1      -7.572  45.636 -29.888  1.00  0.00     0.014 C 
BRANCH  43  45
HETATM   45  C35 UNL     1      -6.620  47.834 -29.232  1.00  0.00     0.005 C 
HETATM   46  C36 UNL     1      -5.258  48.015 -28.552  1.00  0.00     0.014 C 
HETATM   47  C37 UNL     1      -6.502  48.036 -30.746  1.00  0.00     0.014 C 
ENDBRANCH  43  45
ENDBRANCH  42  43
ENDBRANCH  41  42
ENDBRANCH  40  41
BRANCH  40  48
HETATM   48  C6  UNL     1      -9.888  48.978 -26.068  1.00  0.00     0.144 C 
HETATM   49  O1  UNL     1     -11.020  48.557 -26.242  1.00  0.00    -0.650 OA
BRANCH  48  50
HETATM   50  O2  UNL     1      -9.662  50.304 -25.964  1.00  0.00    -0.776 OA
HETATM   51  H8  UNL     1     -10.553  50.706 -26.048  1.00  0.00     0.167 HD
ENDBRANCH  48  50
ENDBRANCH  40  48
ENDBRANCH   1  40
TORSDOF 14
ENDMDL
MODEL 7
REMARK minimizedAffinity -7.88792658
REMARK CNNscore 0.258202553
REMARK CNNaffinity 6.32873726
REMARK  14 active torsions:
REMARK  status: ('A' for Active; 'I' for Inactive)
REMARK    1  A    between atoms: C2_2  and  C3_3 
REMARK    2  A    between atoms: C2_2  and  C35_44 
REMARK    3  A    between atoms: C3_3  and  C4_4 
REMARK    4  A    between atoms: C4_4  and  C5_5 
REMARK    5  A    between atoms: C5_5  and  C6_6 
REMARK    6  A    between atoms: C5_5  and  C7_9 
REMARK    7  A    between atoms: C6_6  and  O2_8 
REMARK    8  A    between atoms: C28_31  and  O4_32 
REMARK    9  A    between atoms: O4_32  and  C29_33 
REMARK   10  A    between atoms: C30_35  and  C31_36 
REMARK   11  A    between atoms: C31_36  and  O6_37 
REMARK   12  A    between atoms: C32_38  and  O7_39 
REMARK   13  A    between atoms: C33_40  and  O8_41 
REMARK   14  A    between atoms: C34_42  and  O9_43 
ROOT
HETATM    1  C7  UNL     1      -0.697  53.424 -11.317  1.00  0.00     0.009 C 
HETATM    2  C8  UNL     1       0.129  52.644 -12.370  1.00  0.00     0.007 C 
HETATM    3  C9  UNL     1      -0.697  51.396 -12.753  1.00  0.00     0.015 C 
HETATM    4  C10 UNL     1      -2.105  51.623 -12.167  1.00  0.00    -0.010 C 
HETATM    5  C11 UNL     1      -2.895  52.489 -13.197  1.00  0.00     0.021 C 
HETATM    6  C12 UNL     1      -3.010  50.425 -11.852  1.00  0.00    -0.039 C 
HETATM    7  C13 UNL     1      -3.929  50.529 -10.849  1.00  0.00    -0.066 C 
HETATM    8  C14 UNL     1      -4.058  51.812 -10.014  1.00  0.00     0.036 C 
HETATM    9  C15 UNL     1      -3.002  52.919 -10.213  1.00  0.00     0.015 C 
HETATM   10  C16 UNL     1      -1.718  52.358 -10.824  1.00  0.00    -0.028 C 
HETATM   11  C17 UNL     1      -1.040  51.422  -9.776  1.00  0.00     0.016 C 
HETATM   12  C18 UNL     1      -4.841  49.341 -10.445  1.00  0.00    -0.015 C 
HETATM   13  C19 UNL     1      -4.177  48.724  -9.187  1.00  0.00     0.020 C 
HETATM   14  C20 UNL     1      -6.274  49.816 -10.101  1.00  0.00     0.021 C 
HETATM   15  C21 UNL     1      -7.226  48.675  -9.782  1.00  0.00     0.080 C 
HETATM   16  C22 UNL     1      -7.304  47.680 -10.912  1.00  0.00     0.135 C 
HETATM   17  O3  UNL     1      -8.400  47.226 -11.253  1.00  0.00    -0.297 OA
HETATM   18  C23 UNL     1      -5.984  47.165 -11.512  1.00  0.00     0.018 C 
HETATM   19  C24 UNL     1      -5.493  45.994 -10.646  1.00  0.00     0.023 C 
HETATM   20  C25 UNL     1      -6.307  46.590 -12.917  1.00  0.00     0.023 C 
HETATM   21  C26 UNL     1      -4.974  48.352 -11.661  1.00  0.00     0.016 C 
HETATM   22  C27 UNL     1      -3.570  47.942 -12.148  1.00  0.00     0.043 C 
HETATM   23  C28 UNL     1      -2.819  49.168 -12.690  1.00  0.00     0.155 C 
ENDROOT
BRANCH  23  24
HETATM   24  O4  UNL     1      -3.324  49.419 -14.008  1.00  0.00    -0.349 OA
BRANCH  24  25
HETATM   25  C29 UNL     1      -2.369  49.133 -15.043  1.00  0.00     0.292 C 
HETATM   26  O5  UNL     1      -2.098  50.362 -15.717  1.00  0.00    -0.348 OA
HETATM   27  C30 UNL     1      -1.673  50.284 -17.082  1.00  0.00     0.179 C 
HETATM   28  C32 UNL     1      -1.067  48.927 -17.471  1.00  0.00     0.180 C 
HETATM   29  C33 UNL     1      -1.963  47.738 -17.090  1.00  0.00     0.183 C 
HETATM   30  C34 UNL     1      -2.972  48.077 -15.986  1.00  0.00     0.204 C 
BRANCH  27  31
HETATM   31  C31 UNL     1      -2.830  50.712 -17.999  1.00  0.00     0.198 C 
BRANCH  31  32
HETATM   32  O6  UNL     1      -2.573  51.980 -18.584  1.00  0.00    -0.398 OA
HETATM   33  H45 UNL     1      -3.288  52.145 -19.225  1.00  0.00     0.209 HD
ENDBRANCH  31  32
ENDBRANCH  27  31
BRANCH  28  34
HETATM   34  O7  UNL     1       0.179  48.786 -16.755  1.00  0.00    -0.390 OA
HETATM   35  H47 UNL     1       0.732  48.165 -17.268  1.00  0.00     0.210 HD
ENDBRANCH  28  34
BRANCH  29  36
HETATM   36  O8  UNL     1      -2.666  47.254 -18.243  1.00  0.00    -0.390 OA
HETATM   37  H49 UNL     1      -2.897  46.324 -18.064  1.00  0.00     0.210 HD
ENDBRANCH  29  36
BRANCH  30  38
HETATM   38  O9  UNL     1      -3.299  46.857 -15.299  1.00  0.00    -0.388 OA
HETATM   39  H51 UNL     1      -4.135  46.524 -15.675  1.00  0.00     0.210 HD
ENDBRANCH  30  38
ENDBRANCH  24  25
ENDBRANCH  23  24
BRANCH   1  40
HETATM   40  C5  UNL     1       0.107  54.233 -10.257  1.00  0.00     0.089 C 
BRANCH  40  41
HETATM   41  C4  UNL     1       1.431  54.886 -10.716  1.00  0.00     0.020 C 
BRANCH  41  42
HETATM   42  C3  UNL     1       2.464  55.152  -9.601  1.00  0.00     0.034 C 
BRANCH  42  43
HETATM   43  C2  UNL     1       3.907  55.418  -9.989  1.00  0.00    -0.086 C 
HETATM   44  C1  UNL     1       4.288  55.869 -11.200  1.00  0.00     0.014 C 
BRANCH  43  45
HETATM   45  C35 UNL     1       4.964  55.179  -8.912  1.00  0.00     0.005 C 
HETATM   46  C36 UNL     1       6.372  55.020  -9.498  1.00  0.00     0.014 C 
HETATM   47  C37 UNL     1       4.941  56.278  -7.846  1.00  0.00     0.014 C 
ENDBRANCH  43  45
ENDBRANCH  42  43
ENDBRANCH  41  42
ENDBRANCH  40  41
BRANCH  40  48
HETATM   48  C6  UNL     1      -0.823  55.290  -9.687  1.00  0.00     0.144 C 
HETATM   49  O1  UNL     1      -0.927  55.593  -8.510  1.00  0.00    -0.650 OA
BRANCH  48  50
HETATM   50  O2  UNL     1      -1.614  55.868 -10.613  1.00  0.00    -0.776 OA
HETATM   51  H8  UNL     1      -2.169  56.493 -10.097  1.00  0.00     0.167 HD
ENDBRANCH  48  50
ENDBRANCH  40  48
ENDBRANCH   1  40
TORSDOF 14
ENDMDL
MODEL 8
REMARK minimizedAffinity -7.89569092
REMARK CNNscore 0.253140479
REMARK CNNaffinity 6.29072762
REMARK  14 active torsions:
REMARK  status: ('A' for Active; 'I' for Inactive)
REMARK    1  A    between atoms: C2_2  and  C3_3 
REMARK    2  A    between atoms: C2_2  and  C35_44 
REMARK    3  A    between atoms: C3_3  and  C4_4 
REMARK    4  A    between atoms: C4_4  and  C5_5 
REMARK    5  A    between atoms: C5_5  and  C6_6 
REMARK    6  A    between atoms: C5_5  and  C7_9 
REMARK    7  A    between atoms: C6_6  and  O2_8 
REMARK    8  A    between atoms: C28_31  and  O4_32 
REMARK    9  A    between atoms: O4_32  and  C29_33 
REMARK   10  A    between atoms: C30_35  and  C31_36 
REMARK   11  A    between atoms: C31_36  and  O6_37 
REMARK   12  A    between atoms: C32_38  and  O7_39 
REMARK   13  A    between atoms: C33_40  and  O8_41 
REMARK   14  A    between atoms: C34_42  and  O9_43 
ROOT
HETATM    1  C7  UNL     1      -8.422  47.542 -24.721  1.00  0.00     0.009 C 
HETATM    2  C8  UNL     1      -8.171  46.025 -24.537  1.00  0.00     0.007 C 
HETATM    3  C9  UNL     1      -7.164  45.874 -23.376  1.00  0.00     0.015 C 
HETATM    4  C10 UNL     1      -7.084  47.259 -22.702  1.00  0.00    -0.010 C 
HETATM    5  C11 UNL     1      -8.270  47.345 -21.691  1.00  0.00     0.021 C 
HETATM    6  C12 UNL     1      -5.833  47.658 -21.908  1.00  0.00    -0.039 C 
HETATM    7  C13 UNL     1      -5.486  48.974 -21.827  1.00  0.00    -0.066 C 
HETATM    8  C14 UNL     1      -6.309  50.061 -22.536  1.00  0.00     0.036 C 
HETATM    9  C15 UNL     1      -7.433  49.615 -23.492  1.00  0.00     0.015 C 
HETATM   10  C16 UNL     1      -7.215  48.183 -23.976  1.00  0.00    -0.028 C 
HETATM   11  C17 UNL     1      -5.954  48.157 -24.894  1.00  0.00     0.016 C 
HETATM   12  C18 UNL     1      -4.208  49.442 -21.083  1.00  0.00    -0.015 C 
HETATM   13  C19 UNL     1      -3.151  49.677 -22.192  1.00  0.00     0.020 C 
HETATM   14  C20 UNL     1      -4.453  50.758 -20.306  1.00  0.00     0.021 C 
HETATM   15  C21 UNL     1      -3.250  51.208 -19.491  1.00  0.00     0.080 C 
HETATM   16  C22 UNL     1      -2.806  50.147 -18.518  1.00  0.00     0.135 C 
HETATM   17  O3  UNL     1      -2.496  50.463 -17.366  1.00  0.00    -0.297 OA
HETATM   18  C23 UNL     1      -2.626  48.713 -19.047  1.00  0.00     0.018 C 
HETATM   19  C24 UNL     1      -1.219  48.603 -19.657  1.00  0.00     0.023 C 
HETATM   20  C25 UNL     1      -2.668  47.759 -17.823  1.00  0.00     0.023 C 
HETATM   21  C26 UNL     1      -3.802  48.357 -20.018  1.00  0.00     0.016 C 
HETATM   22  C27 UNL     1      -3.674  46.983 -20.704  1.00  0.00     0.043 C 
HETATM   23  C28 UNL     1      -5.039  46.536 -21.251  1.00  0.00     0.155 C 
ENDROOT
BRANCH  23  24
HETATM   24  O4  UNL     1      -5.792  46.036 -20.139  1.00  0.00    -0.349 OA
BRANCH  24  25
HETATM   25  C29 UNL     1      -5.820  44.600 -20.077  1.00  0.00     0.292 C 
HETATM   26  O5  UNL     1      -7.130  44.188 -20.469  1.00  0.00    -0.348 OA
HETATM   27  C30 UNL     1      -7.606  42.937 -19.960  1.00  0.00     0.179 C 
HETATM   28  C32 UNL     1      -6.490  41.979 -19.513  1.00  0.00     0.180 C 
HETATM   29  C33 UNL     1      -5.488  42.635 -18.550  1.00  0.00     0.183 C 
HETATM   30  C34 UNL     1      -5.484  44.166 -18.639  1.00  0.00     0.204 C 
BRANCH  27  31
HETATM   31  C31 UNL     1      -8.651  43.199 -18.864  1.00  0.00     0.198 C 
BRANCH  31  32
HETATM   32  O6  UNL     1      -9.105  44.544 -18.906  1.00  0.00    -0.398 OA
HETATM   33  H45 UNL     1      -9.831  44.616 -18.260  1.00  0.00     0.209 HD
ENDBRANCH  31  32
ENDBRANCH  27  31
BRANCH  28  34
HETATM   34  O7  UNL     1      -5.766  41.573 -20.694  1.00  0.00    -0.390 OA
HETATM   35  H47 UNL     1      -5.352  40.712 -20.490  1.00  0.00     0.210 HD
ENDBRANCH  28  34
BRANCH  29  36
HETATM   36  O8  UNL     1      -5.761  42.239 -17.199  1.00  0.00    -0.390 OA
HETATM   37  H49 UNL     1      -4.930  42.342 -16.701  1.00  0.00     0.210 HD
ENDBRANCH  29  36
BRANCH  30  38
HETATM   38  O9  UNL     1      -4.189  44.628 -18.221  1.00  0.00    -0.388 OA
HETATM   39  H51 UNL     1      -4.259  44.889 -17.283  1.00  0.00     0.210 HD
ENDBRANCH  30  38
ENDBRANCH  24  25
ENDBRANCH  23  24
BRANCH   1  40
HETATM   40  C5  UNL     1      -8.751  48.027 -26.163  1.00  0.00     0.089 C 
BRANCH  40  41
HETATM   41  C4  UNL     1      -8.911  46.947 -27.258  1.00  0.00     0.020 C 
BRANCH  41  42
HETATM   42  C3  UNL     1      -7.710  46.781 -28.211  1.00  0.00     0.034 C 
BRANCH  42  43
HETATM   43  C2  UNL     1      -7.435  47.867 -29.236  1.00  0.00    -0.086 C 
HETATM   44  C1  UNL     1      -8.390  48.643 -29.783  1.00  0.00     0.014 C 
BRANCH  43  45
HETATM   45  C35 UNL     1      -5.974  48.087 -29.629  1.00  0.00     0.005 C 
HETATM   46  C36 UNL     1      -5.035  48.080 -28.417  1.00  0.00     0.014 C 
HETATM   47  C37 UNL     1      -5.514  47.073 -30.679  1.00  0.00     0.014 C 
ENDBRANCH  43  45
ENDBRANCH  42  43
ENDBRANCH  41  42
ENDBRANCH  40  41
BRANCH  40  48
HETATM   48  C6  UNL     1     -10.007  48.877 -26.085  1.00  0.00     0.144 C 
HETATM   49  O1  UNL     1     -11.154  48.463 -26.084  1.00  0.00    -0.650 OA
BRANCH  48  50
HETATM   50  O2  UNL     1      -9.761  50.203 -26.074  1.00  0.00    -0.776 OA
HETATM   51  H8  UNL     1     -10.653  50.612 -26.054  1.00  0.00     0.167 HD
ENDBRANCH  48  50
ENDBRANCH  40  48
ENDBRANCH   1  40
TORSDOF 14
ENDMDL
MODEL 9
REMARK minimizedAffinity -9.54602051
REMARK CNNscore 0.244954482
REMARK CNNaffinity 6.67903948
REMARK  14 active torsions:
REMARK  status: ('A' for Active; 'I' for Inactive)
REMARK    1  A    between atoms: C2_2  and  C3_3 
REMARK    2  A    between atoms: C2_2  and  C35_44 
REMARK    3  A    between atoms: C3_3  and  C4_4 
REMARK    4  A    between atoms: C4_4  and  C5_5 
REMARK    5  A    between atoms: C5_5  and  C6_6 
REMARK    6  A    between atoms: C5_5  and  C7_9 
REMARK    7  A    between atoms: C6_6  and  O2_8 
REMARK    8  A    between atoms: C28_31  and  O4_32 
REMARK    9  A    between atoms: O4_32  and  C29_33 
REMARK   10  A    between atoms: C30_35  and  C31_36 
REMARK   11  A    between atoms: C31_36  and  O6_37 
REMARK   12  A    between atoms: C32_38  and  O7_39 
REMARK   13  A    between atoms: C33_40  and  O8_41 
REMARK   14  A    between atoms: C34_42  and  O9_43 
ROOT
HETATM    1  C7  UNL     1      -3.050  50.446 -25.186  1.00  0.00     0.009 C 
HETATM    2  C8  UNL     1      -2.298  51.335 -24.164  1.00  0.00     0.007 C 
HETATM    3  C9  UNL     1      -2.755  50.888 -22.758  1.00  0.00     0.015 C 
HETATM    4  C10 UNL     1      -3.513  49.560 -22.961  1.00  0.00    -0.010 C 
HETATM    5  C11 UNL     1      -2.443  48.424 -22.999  1.00  0.00     0.021 C 
HETATM    6  C12 UNL     1      -4.562  49.108 -21.937  1.00  0.00    -0.039 C 
HETATM    7  C13 UNL     1      -5.604  48.331 -22.349  1.00  0.00    -0.066 C 
HETATM    8  C14 UNL     1      -5.761  47.921 -23.822  1.00  0.00     0.036 C 
HETATM    9  C15 UNL     1      -4.814  48.557 -24.859  1.00  0.00     0.015 C 
HETATM   10  C16 UNL     1      -4.220  49.865 -24.340  1.00  0.00    -0.028 C 
HETATM   11  C17 UNL     1      -5.366  50.919 -24.229  1.00  0.00     0.016 C 
HETATM   12  C18 UNL     1      -6.727  47.880 -21.378  1.00  0.00    -0.015 C 
HETATM   13  C19 UNL     1      -7.908  48.848 -21.639  1.00  0.00     0.020 C 
HETATM   14  C20 UNL     1      -7.171  46.424 -21.660  1.00  0.00     0.021 C 
HETATM   15  C21 UNL     1      -8.209  45.910 -20.675  1.00  0.00     0.080 C 
HETATM   16  C22 UNL     1      -7.723  46.001 -19.252  1.00  0.00     0.135 C 
HETATM   17  O3  UNL     1      -7.922  45.063 -18.475  1.00  0.00    -0.297 OA
HETATM   18  C23 UNL     1      -7.108  47.332 -18.783  1.00  0.00     0.018 C 
HETATM   19  C24 UNL     1      -8.254  48.258 -18.346  1.00  0.00     0.023 C 
HETATM   20  C25 UNL     1      -6.258  47.030 -17.519  1.00  0.00     0.023 C 
HETATM   21  C26 UNL     1      -6.178  47.907 -19.904  1.00  0.00     0.016 C 
HETATM   22  C27 UNL     1      -5.590  49.298 -19.597  1.00  0.00     0.043 C 
HETATM   23  C28 UNL     1      -4.374  49.569 -20.498  1.00  0.00     0.155 C 
ENDROOT
BRANCH  23  24
HETATM   24  O4  UNL     1      -3.268  48.854 -19.933  1.00  0.00    -0.349 OA
BRANCH  24  25
HETATM   25  C29 UNL     1      -2.869  49.356 -18.647  1.00  0.00     0.292 C 
HETATM   26  O5  UNL     1      -2.422  50.699 -18.839  1.00  0.00    -0.348 OA
HETATM   27  C30 UNL     1      -1.467  51.215 -17.906  1.00  0.00     0.179 C 
HETATM   28  C32 UNL     1      -1.451  50.479 -16.557  1.00  0.00     0.180 C 
HETATM   29  C33 UNL     1      -1.325  48.955 -16.708  1.00  0.00     0.183 C 
HETATM   30  C34 UNL     1      -1.755  48.451 -18.092  1.00  0.00     0.204 C 
BRANCH  27  31
HETATM   31  C31 UNL     1      -0.085  51.278 -18.575  1.00  0.00     0.198 C 
BRANCH  31  32
HETATM   32  O6  UNL     1      -0.014  52.358 -19.495  1.00  0.00    -0.398 OA
HETATM   33  H45 UNL     1       0.908  52.404 -19.805  1.00  0.00     0.209 HD
ENDBRANCH  31  32
ENDBRANCH  27  31
BRANCH  28  34
HETATM   34  O7  UNL     1      -2.705  50.754 -15.896  1.00  0.00    -0.390 OA
HETATM   35  H47 UNL     1      -2.550  50.641 -14.938  1.00  0.00     0.210 HD
ENDBRANCH  28  34
BRANCH  29  36
HETATM   36  O8  UNL     1       0.023  48.537 -16.449  1.00  0.00    -0.390 OA
HETATM   37  H49 UNL     1      -0.018  47.601 -16.180  1.00  0.00     0.210 HD
ENDBRANCH  29  36
BRANCH  30  38
HETATM   38  O9  UNL     1      -2.184  47.087 -17.949  1.00  0.00    -0.388 OA
HETATM   39  H51 UNL     1      -1.435  46.516 -18.203  1.00  0.00     0.210 HD
ENDBRANCH  30  38
ENDBRANCH  24  25
ENDBRANCH  23  24
BRANCH   1  40
HETATM   40  C5  UNL     1      -3.375  51.089 -26.566  1.00  0.00     0.089 C 
BRANCH  40  41
HETATM   41  C4  UNL     1      -2.572  52.346 -26.972  1.00  0.00     0.020 C 
BRANCH  41  42
HETATM   42  C3  UNL     1      -1.197  52.507 -26.292  1.00  0.00     0.034 C 
BRANCH  42  43
HETATM   43  C2  UNL     1       0.031  51.944 -26.985  1.00  0.00    -0.086 C 
HETATM   44  C1  UNL     1       0.165  51.859 -28.322  1.00  0.00     0.014 C 
BRANCH  43  45
HETATM   45  C35 UNL     1       1.177  51.483 -26.086  1.00  0.00     0.005 C 
HETATM   46  C36 UNL     1       2.534  51.525 -26.799  1.00  0.00     0.014 C 
HETATM   47  C37 UNL     1       1.226  52.282 -24.780  1.00  0.00     0.014 C 
ENDBRANCH  43  45
ENDBRANCH  42  43
ENDBRANCH  41  42
ENDBRANCH  40  41
BRANCH  40  48
HETATM   48  C6  UNL     1      -3.216  50.009 -27.622  1.00  0.00     0.144 C 
HETATM   49  O1  UNL     1      -2.845  48.864 -27.427  1.00  0.00    -0.650 OA
BRANCH  48  50
HETATM   50  O2  UNL     1      -3.473  50.438 -28.875  1.00  0.00    -0.776 OA
HETATM   51  H8  UNL     1      -3.300  49.652 -29.437  1.00  0.00     0.167 HD
ENDBRANCH  48  50
ENDBRANCH  40  48
ENDBRANCH   1  40
TORSDOF 14
ENDMDL
