MODEL 1
REMARK minimizedAffinity -9.44091034
REMARK  9 active torsions:
REMARK  status: ('A' for Active; 'I' for Inactive)
REMARK    1  A    between atoms: C2_2  and  C3_3 
REMARK    2  A    between atoms: C2_2  and  C9_12 
REMARK    3  A    between atoms: C3_3  and  C4_4 
REMARK    4  A    between atoms: C4_4  and  C5_5 
REMARK    5  A    between atoms: C5_5  and  O1_6 
REMARK    6  A    between atoms: C5_5  and  C6_7 
REMARK    7  A    between atoms: C6_7  and  O2_9 
REMARK    8  A    between atoms: C6_7  and  C8_10 
REMARK    9  A    between atoms: C8_10  and  O3_11 
ROOT
HETATM    1  C9  UNL     1       1.285   6.864  12.977  1.00  0.00    -0.002 C 
HETATM    2  C10 UNL     1       0.529   8.032  13.667  1.00  0.00     0.006 C 
HETATM    3  C11 UNL     1      -0.944   7.605  13.800  1.00  0.00     0.011 C 
HETATM    4  C12 UNL     1      -0.967   6.097  13.470  1.00  0.00    -0.032 C 
HETATM    5  C13 UNL     1      -0.608   5.335  14.785  1.00  0.00     0.016 C 
HETATM    6  C14 UNL     1      -2.324   5.584  12.917  1.00  0.00     0.004 C 
HETATM    7  C15 UNL     1      -3.439   5.471  13.971  1.00  0.00     0.007 C 
HETATM    8  C16 UNL     1      -4.754   5.080  13.297  1.00  0.00     0.007 C 
HETATM    9  C17 UNL     1      -4.682   3.635  12.775  1.00  0.00     0.010 C 
HETATM   10  C18 UNL     1      -5.959   3.141  12.016  1.00  0.00     0.018 C 
HETATM   11  C19 UNL     1      -7.106   2.896  13.012  1.00  0.00     0.023 C 
HETATM   12  C20 UNL     1      -6.452   4.116  10.929  1.00  0.00     0.023 C 
HETATM   13  C21 UNL     1      -5.647   1.794  11.340  1.00  0.00     0.135 C 
HETATM   14  O4  UNL     1      -6.330   1.344  10.421  1.00  0.00    -0.297 OA
HETATM   15  C22 UNL     1      -4.481   1.012  11.890  1.00  0.00     0.080 C 
HETATM   16  C23 UNL     1      -3.202   1.827  11.746  1.00  0.00     0.018 C 
HETATM   17  C24 UNL     1      -3.413   3.330  11.969  1.00  0.00    -0.026 A 
HETATM   18  C25 UNL     1      -2.999   4.227  10.828  1.00  0.00     0.021 A 
HETATM   19  C26 UNL     1      -2.179   4.269  12.107  1.00  0.00    -0.027 A 
HETATM   20  C27 UNL     1      -0.792   3.614  12.068  1.00  0.00     0.011 C 
HETATM   21  C28 UNL     1       0.442   4.533  12.092  1.00  0.00     0.011 C 
HETATM   22  C29 UNL     1       0.133   6.014  12.345  1.00  0.00    -0.032 C 
HETATM   23  C30 UNL     1      -0.310   6.639  10.994  1.00  0.00     0.016 C 
ENDROOT
BRANCH   1  24
HETATM   24  C2  UNL     1       2.553   7.333  12.204  1.00  0.00    -0.014 C 
HETATM   25  C1  UNL     1       2.510   8.729  11.569  1.00  0.00     0.010 C 
BRANCH  24  26
HETATM   26  C3  UNL     1       3.022   6.275  11.177  1.00  0.00     0.007 C 
BRANCH  26  27
HETATM   27  C4  UNL     1       3.400   6.878   9.811  1.00  0.00     0.035 C 
BRANCH  27  28
HETATM   28  C5  UNL     1       2.431   6.512   8.674  1.00  0.00     0.154 C 
BRANCH  28  29
HETATM   29  O1  UNL     1       3.090   5.545   7.842  1.00  0.00    -0.392 OA
HETATM   30  H10 UNL     1       3.081   4.687   8.296  1.00  0.00     0.210 HD
ENDBRANCH  28  29
BRANCH  28  31
HETATM   31  C6  UNL     1       1.985   7.725   7.787  1.00  0.00     0.101 C 
HETATM   32  C7  UNL     1       1.646   7.227   6.368  1.00  0.00     0.051 C 
BRANCH  31  33
HETATM   33  O2  UNL     1       3.039   8.691   7.615  1.00  0.00    -0.385 OA
HETATM   34  H14 UNL     1       3.540   8.748   8.447  1.00  0.00     0.210 HD
ENDBRANCH  31  33
BRANCH  31  35
HETATM   35  C8  UNL     1       0.762   8.453   8.387  1.00  0.00     0.204 C 
BRANCH  35  36
HETATM   36  O3  UNL     1      -0.433   8.228   7.644  1.00  0.00    -0.398 OA
HETATM   37  H17 UNL     1      -0.357   8.728   6.813  1.00  0.00     0.209 HD
ENDBRANCH  35  36
ENDBRANCH  31  35
ENDBRANCH  28  31
ENDBRANCH  27  28
ENDBRANCH  26  27
ENDBRANCH  24  26
ENDBRANCH   1  24
TORSDOF 9
ENDMDL
MODEL 2
REMARK minimizedAffinity -9.1585083
REMARK  9 active torsions:
REMARK  status: ('A' for Active; 'I' for Inactive)
REMARK    1  A    between atoms: C2_2  and  C3_3 
REMARK    2  A    between atoms: C2_2  and  C9_12 
REMARK    3  A    between atoms: C3_3  and  C4_4 
REMARK    4  A    between atoms: C4_4  and  C5_5 
REMARK    5  A    between atoms: C5_5  and  O1_6 
REMARK    6  A    between atoms: C5_5  and  C6_7 
REMARK    7  A    between atoms: C6_7  and  O2_9 
REMARK    8  A    between atoms: C6_7  and  C8_10 
REMARK    9  A    between atoms: C8_10  and  O3_11 
ROOT
HETATM    1  C9  UNL     1       1.099   8.095  12.711  1.00  0.00    -0.002 C 
HETATM    2  C10 UNL     1       1.323   8.995  13.957  1.00  0.00     0.006 C 
HETATM    3  C11 UNL     1       0.044   8.917  14.810  1.00  0.00     0.011 C 
HETATM    4  C12 UNL     1      -0.777   7.753  14.216  1.00  0.00    -0.032 C 
HETATM    5  C13 UNL     1      -0.243   6.438  14.865  1.00  0.00     0.016 C 
HETATM    6  C14 UNL     1      -2.309   7.870  14.444  1.00  0.00     0.004 C 
HETATM    7  C15 UNL     1      -2.762   7.584  15.886  1.00  0.00     0.007 C 
HETATM    8  C16 UNL     1      -4.260   7.848  16.023  1.00  0.00     0.007 C 
HETATM    9  C17 UNL     1      -5.065   6.799  15.239  1.00  0.00     0.010 C 
HETATM   10  C18 UNL     1      -6.618   7.003  15.264  1.00  0.00     0.018 C 
HETATM   11  C19 UNL     1      -7.178   6.634  16.648  1.00  0.00     0.023 C 
HETATM   12  C20 UNL     1      -7.063   8.437  14.920  1.00  0.00     0.023 C 
HETATM   13  C21 UNL     1      -7.261   6.047  14.243  1.00  0.00     0.135 C 
HETATM   14  O4  UNL     1      -8.401   6.216  13.810  1.00  0.00    -0.297 OA
HETATM   15  C22 UNL     1      -6.445   4.851  13.823  1.00  0.00     0.080 C 
HETATM   16  C23 UNL     1      -5.154   5.317  13.163  1.00  0.00     0.018 C 
HETATM   17  C24 UNL     1      -4.564   6.578  13.806  1.00  0.00    -0.026 A 
HETATM   18  C25 UNL     1      -4.358   7.752  12.880  1.00  0.00     0.021 A 
HETATM   19  C26 UNL     1      -3.128   7.041  13.421  1.00  0.00    -0.027 A 
HETATM   20  C27 UNL     1      -2.347   6.156  12.442  1.00  0.00     0.011 C 
HETATM   21  C28 UNL     1      -0.969   6.650  11.963  1.00  0.00     0.011 C 
HETATM   22  C29 UNL     1      -0.454   7.904  12.681  1.00  0.00    -0.032 C 
HETATM   23  C30 UNL     1      -1.130   9.136  12.020  1.00  0.00     0.016 C 
ENDROOT
BRANCH   1  24
HETATM   24  C2  UNL     1       1.951   8.534  11.483  1.00  0.00    -0.014 C 
HETATM   25  C1  UNL     1       1.418   8.165  10.092  1.00  0.00     0.010 C 
BRANCH  24  26
HETATM   26  C3  UNL     1       3.433   8.113  11.635  1.00  0.00     0.007 C 
BRANCH  26  27
HETATM   27  C4  UNL     1       3.994   7.403  10.390  1.00  0.00     0.035 C 
BRANCH  27  28
HETATM   28  C5  UNL     1       4.202   5.890  10.571  1.00  0.00     0.154 C 
BRANCH  28  29
HETATM   29  O1  UNL     1       5.604   5.626  10.408  1.00  0.00    -0.392 OA
HETATM   30  H10 UNL     1       6.069   5.913  11.210  1.00  0.00     0.210 HD
ENDBRANCH  28  29
BRANCH  28  31
HETATM   31  C6  UNL     1       3.398   5.000   9.561  1.00  0.00     0.101 C 
HETATM   32  C7  UNL     1       2.863   5.878   8.414  1.00  0.00     0.051 C 
BRANCH  31  33
HETATM   33  O2  UNL     1       2.236   4.404  10.165  1.00  0.00    -0.385 OA
HETATM   34  H14 UNL     1       2.455   4.167  11.083  1.00  0.00     0.210 HD
ENDBRANCH  31  33
BRANCH  31  35
HETATM   35  C8  UNL     1       4.272   3.865   8.981  1.00  0.00     0.204 C 
BRANCH  35  36
HETATM   36  O3  UNL     1       4.338   2.728   9.838  1.00  0.00    -0.398 OA
HETATM   37  H17 UNL     1       4.896   2.969  10.597  1.00  0.00     0.209 HD
ENDBRANCH  35  36
ENDBRANCH  31  35
ENDBRANCH  28  31
ENDBRANCH  27  28
ENDBRANCH  26  27
ENDBRANCH  24  26
ENDBRANCH   1  24
TORSDOF 9
ENDMDL
MODEL 3
REMARK minimizedAffinity -9.11671162
REMARK  9 active torsions:
REMARK  status: ('A' for Active; 'I' for Inactive)
REMARK    1  A    between atoms: C2_2  and  C3_3 
REMARK    2  A    between atoms: C2_2  and  C9_12 
REMARK    3  A    between atoms: C3_3  and  C4_4 
REMARK    4  A    between atoms: C4_4  and  C5_5 
REMARK    5  A    between atoms: C5_5  and  O1_6 
REMARK    6  A    between atoms: C5_5  and  C6_7 
REMARK    7  A    between atoms: C6_7  and  O2_9 
REMARK    8  A    between atoms: C6_7  and  C8_10 
REMARK    9  A    between atoms: C8_10  and  O3_11 
ROOT
HETATM    1  C9  UNL     1       1.541   6.838  12.437  1.00  0.00    -0.002 C 
HETATM    2  C10 UNL     1       0.820   8.063  13.065  1.00  0.00     0.006 C 
HETATM    3  C11 UNL     1      -0.653   7.666  13.273  1.00  0.00     0.011 C 
HETATM    4  C12 UNL     1      -0.703   6.139  13.051  1.00  0.00    -0.032 C 
HETATM    5  C13 UNL     1      -0.313   5.467  14.405  1.00  0.00     0.016 C 
HETATM    6  C14 UNL     1      -2.083   5.608  12.577  1.00  0.00     0.004 C 
HETATM    7  C15 UNL     1      -3.166   5.584  13.669  1.00  0.00     0.007 C 
HETATM    8  C16 UNL     1      -4.505   5.165  13.065  1.00  0.00     0.007 C 
HETATM    9  C17 UNL     1      -4.466   3.687  12.644  1.00  0.00     0.010 C 
HETATM   10  C18 UNL     1      -5.773   3.158  11.961  1.00  0.00     0.018 C 
HETATM   11  C19 UNL     1      -6.891   3.000  13.006  1.00  0.00     0.023 C 
HETATM   12  C20 UNL     1      -6.288   4.061  10.823  1.00  0.00     0.023 C 
HETATM   13  C21 UNL     1      -5.498   1.762  11.373  1.00  0.00     0.135 C 
HETATM   14  O4  UNL     1      -6.214   1.259  10.509  1.00  0.00    -0.297 OA
HETATM   15  C22 UNL     1      -4.324   1.005  11.941  1.00  0.00     0.080 C 
HETATM   16  C23 UNL     1      -3.041   1.790  11.701  1.00  0.00     0.018 C 
HETATM   17  C24 UNL     1      -3.227   3.308  11.824  1.00  0.00    -0.026 A 
HETATM   18  C25 UNL     1      -2.838   4.117  10.610  1.00  0.00     0.021 A 
HETATM   19  C26 UNL     1      -1.978   4.237  11.858  1.00  0.00    -0.027 A 
HETATM   20  C27 UNL     1      -0.602   3.561  11.823  1.00  0.00     0.011 C 
HETATM   21  C28 UNL     1       0.644   4.463  11.745  1.00  0.00     0.011 C 
HETATM   22  C29 UNL     1       0.360   5.962  11.901  1.00  0.00    -0.032 C 
HETATM   23  C30 UNL     1      -0.117   6.496  10.524  1.00  0.00     0.016 C 
ENDROOT
BRANCH   1  24
HETATM   24  C2  UNL     1       2.790   7.234  11.594  1.00  0.00    -0.014 C 
HETATM   25  C1  UNL     1       3.448   6.131  10.756  1.00  0.00     0.010 C 
BRANCH  24  26
HETATM   26  C3  UNL     1       3.843   7.980  12.449  1.00  0.00     0.007 C 
BRANCH  26  27
HETATM   27  C4  UNL     1       5.287   7.523  12.169  1.00  0.00     0.035 C 
BRANCH  27  28
HETATM   28  C5  UNL     1       6.360   8.370  12.873  1.00  0.00     0.154 C 
BRANCH  28  29
HETATM   29  O1  UNL     1       7.444   8.545  11.947  1.00  0.00    -0.392 OA
HETATM   30  H10 UNL     1       7.182   9.202  11.282  1.00  0.00     0.210 HD
ENDBRANCH  28  29
BRANCH  28  31
HETATM   31  C6  UNL     1       6.920   7.741  14.195  1.00  0.00     0.101 C 
HETATM   32  C7  UNL     1       8.458   7.682  14.127  1.00  0.00     0.051 C 
BRANCH  31  33
HETATM   33  O2  UNL     1       6.489   6.380  14.375  1.00  0.00    -0.385 OA
HETATM   34  H14 UNL     1       5.576   6.301  14.050  1.00  0.00     0.210 HD
ENDBRANCH  31  33
BRANCH  31  35
HETATM   35  C8  UNL     1       6.487   8.549  15.439  1.00  0.00     0.204 C 
BRANCH  35  36
HETATM   36  O3  UNL     1       7.150   8.127  16.628  1.00  0.00    -0.398 OA
HETATM   37  H17 UNL     1       6.778   7.264  16.877  1.00  0.00     0.209 HD
ENDBRANCH  35  36
ENDBRANCH  31  35
ENDBRANCH  28  31
ENDBRANCH  27  28
ENDBRANCH  26  27
ENDBRANCH  24  26
ENDBRANCH   1  24
TORSDOF 9
ENDMDL
MODEL 4
REMARK minimizedAffinity -9.10455132
REMARK  9 active torsions:
REMARK  status: ('A' for Active; 'I' for Inactive)
REMARK    1  A    between atoms: C2_2  and  C3_3 
REMARK    2  A    between atoms: C2_2  and  C9_12 
REMARK    3  A    between atoms: C3_3  and  C4_4 
REMARK    4  A    between atoms: C4_4  and  C5_5 
REMARK    5  A    between atoms: C5_5  and  O1_6 
REMARK    6  A    between atoms: C5_5  and  C6_7 
REMARK    7  A    between atoms: C6_7  and  O2_9 
REMARK    8  A    between atoms: C6_7  and  C8_10 
REMARK    9  A    between atoms: C8_10  and  O3_11 
ROOT
HETATM    1  C9  UNL     1      -2.897   6.217  12.939  1.00  0.00    -0.002 C 
HETATM    2  C10 UNL     1      -2.913   6.976  14.294  1.00  0.00     0.006 C 
HETATM    3  C11 UNL     1      -1.580   7.736  14.405  1.00  0.00     0.011 C 
HETATM    4  C12 UNL     1      -0.943   7.658  13.000  1.00  0.00    -0.032 C 
HETATM    5  C13 UNL     1      -1.556   8.820  12.156  1.00  0.00     0.016 C 
HETATM    6  C14 UNL     1       0.606   7.763  12.995  1.00  0.00     0.004 C 
HETATM    7  C15 UNL     1       1.151   9.174  13.271  1.00  0.00     0.007 C 
HETATM    8  C16 UNL     1       2.675   9.135  13.365  1.00  0.00     0.007 C 
HETATM    9  C17 UNL     1       3.291   8.837  11.988  1.00  0.00     0.010 C 
HETATM   10  C18 UNL     1       4.853   8.719  11.973  1.00  0.00     0.018 C 
HETATM   11  C19 UNL     1       5.490  10.110  12.137  1.00  0.00     0.023 C 
HETATM   12  C20 UNL     1       5.417   7.788  13.063  1.00  0.00     0.023 C 
HETATM   13  C21 UNL     1       5.298   8.173  10.604  1.00  0.00     0.135 C 
HETATM   14  O4  UNL     1       6.406   7.670  10.424  1.00  0.00    -0.297 OA
HETATM   15  C22 UNL     1       4.323   8.324   9.463  1.00  0.00     0.080 C 
HETATM   16  C23 UNL     1       3.037   7.575   9.783  1.00  0.00     0.018 C 
HETATM   17  C24 UNL     1       2.645   7.648  11.264  1.00  0.00    -0.026 A 
HETATM   18  C25 UNL     1       2.485   6.322  11.966  1.00  0.00     0.021 A 
HETATM   19  C26 UNL     1       1.238   7.155  11.715  1.00  0.00    -0.027 A 
HETATM   20  C27 UNL     1       0.283   6.667  10.618  1.00  0.00     0.011 C 
HETATM   21  C28 UNL     1      -1.070   6.074  11.051  1.00  0.00     0.011 C 
HETATM   22  C29 UNL     1      -1.383   6.215  12.545  1.00  0.00    -0.032 C 
HETATM   23  C30 UNL     1      -0.640   5.074  13.291  1.00  0.00     0.016 C 
ENDROOT
BRANCH   1  24
HETATM   24  C2  UNL     1      -3.803   4.949  12.941  1.00  0.00    -0.014 C 
HETATM   25  C1  UNL     1      -3.812   4.092  11.669  1.00  0.00     0.010 C 
BRANCH  24  26
HETATM   26  C3  UNL     1      -5.246   5.277  13.396  1.00  0.00     0.007 C 
BRANCH  26  27
HETATM   27  C4  UNL     1      -6.235   4.121  13.160  1.00  0.00     0.035 C 
BRANCH  27  28
HETATM   28  C5  UNL     1      -7.324   3.997  14.239  1.00  0.00     0.154 C 
BRANCH  28  29
HETATM   29  O1  UNL     1      -8.507   3.495  13.600  1.00  0.00    -0.392 OA
HETATM   30  H10 UNL     1      -8.390   2.546  13.430  1.00  0.00     0.210 HD
ENDBRANCH  28  29
BRANCH  28  31
HETATM   31  C6  UNL     1      -7.672   5.342  14.966  1.00  0.00     0.101 C 
HETATM   32  C7  UNL     1      -6.384   5.973  15.528  1.00  0.00     0.051 C 
BRANCH  31  33
HETATM   33  O2  UNL     1      -8.530   5.139  16.104  1.00  0.00    -0.385 OA
HETATM   34  H14 UNL     1      -9.159   4.428  15.891  1.00  0.00     0.210 HD
ENDBRANCH  31  33
BRANCH  31  35
HETATM   35  C8  UNL     1      -8.367   6.341  14.015  1.00  0.00     0.204 C 
BRANCH  35  36
HETATM   36  O3  UNL     1      -9.783   6.181  13.984  1.00  0.00    -0.398 OA
HETATM   37  H17 UNL     1      -9.971   5.360  13.497  1.00  0.00     0.209 HD
ENDBRANCH  35  36
ENDBRANCH  31  35
ENDBRANCH  28  31
ENDBRANCH  27  28
ENDBRANCH  26  27
ENDBRANCH  24  26
ENDBRANCH   1  24
TORSDOF 9
ENDMDL
MODEL 5
REMARK minimizedAffinity -9.08013916
REMARK  9 active torsions:
REMARK  status: ('A' for Active; 'I' for Inactive)
REMARK    1  A    between atoms: C2_2  and  C3_3 
REMARK    2  A    between atoms: C2_2  and  C9_12 
REMARK    3  A    between atoms: C3_3  and  C4_4 
REMARK    4  A    between atoms: C4_4  and  C5_5 
REMARK    5  A    between atoms: C5_5  and  O1_6 
REMARK    6  A    between atoms: C5_5  and  C6_7 
REMARK    7  A    between atoms: C6_7  and  O2_9 
REMARK    8  A    between atoms: C6_7  and  C8_10 
REMARK    9  A    between atoms: C8_10  and  O3_11 
ROOT
HETATM    1  C9  UNL     1      -3.339   7.062  13.870  1.00  0.00    -0.002 C 
HETATM    2  C10 UNL     1      -3.563   5.889  12.876  1.00  0.00     0.006 C 
HETATM    3  C11 UNL     1      -2.198   5.565  12.241  1.00  0.00     0.011 C 
HETATM    4  C12 UNL     1      -1.159   6.336  13.083  1.00  0.00    -0.032 C 
HETATM    5  C13 UNL     1      -0.816   5.442  14.316  1.00  0.00     0.016 C 
HETATM    6  C14 UNL     1       0.142   6.698  12.317  1.00  0.00     0.004 C 
HETATM    7  C15 UNL     1       1.084   5.509  12.062  1.00  0.00     0.007 C 
HETATM    8  C16 UNL     1       2.263   5.954  11.199  1.00  0.00     0.007 C 
HETATM    9  C17 UNL     1       3.180   6.903  11.989  1.00  0.00     0.010 C 
HETATM   10  C18 UNL     1       4.398   7.468  11.183  1.00  0.00     0.018 C 
HETATM   11  C19 UNL     1       5.451   6.366  10.972  1.00  0.00     0.023 C 
HETATM   12  C20 UNL     1       4.018   8.055   9.810  1.00  0.00     0.023 C 
HETATM   13  C21 UNL     1       5.066   8.583  12.009  1.00  0.00     0.135 C 
HETATM   14  O4  UNL     1       5.817   9.417  11.503  1.00  0.00    -0.297 OA
HETATM   15  C22 UNL     1       4.797   8.584  13.492  1.00  0.00     0.080 C 
HETATM   16  C23 UNL     1       3.305   8.753  13.744  1.00  0.00     0.018 C 
HETATM   17  C24 UNL     1       2.430   8.030  12.711  1.00  0.00    -0.026 A 
HETATM   18  C25 UNL     1       1.448   8.896  11.962  1.00  0.00     0.021 A 
HETATM   19  C26 UNL     1       0.900   7.889  12.960  1.00  0.00    -0.027 A 
HETATM   20  C27 UNL     1       0.352   8.444  14.281  1.00  0.00     0.011 C 
HETATM   21  C28 UNL     1      -1.172   8.414  14.500  1.00  0.00     0.011 C 
HETATM   22  C29 UNL     1      -1.958   7.649  13.428  1.00  0.00    -0.032 C 
HETATM   23  C30 UNL     1      -2.148   8.600  12.215  1.00  0.00     0.016 C 
ENDROOT
BRANCH   1  24
HETATM   24  C2  UNL     1      -4.622   7.916  14.100  1.00  0.00    -0.014 C 
HETATM   25  C1  UNL     1      -4.778   8.591  15.469  1.00  0.00     0.010 C 
BRANCH  24  26
HETATM   26  C3  UNL     1      -5.904   7.137  13.720  1.00  0.00     0.007 C 
BRANCH  26  27
HETATM   27  C4  UNL     1      -6.171   5.925  14.631  1.00  0.00     0.035 C 
BRANCH  27  28
HETATM   28  C5  UNL     1      -7.589   5.342  14.499  1.00  0.00     0.154 C 
BRANCH  28  29
HETATM   29  O1  UNL     1      -7.807   4.484  15.630  1.00  0.00    -0.392 OA
HETATM   30  H10 UNL     1      -7.971   5.035  16.412  1.00  0.00     0.210 HD
ENDBRANCH  28  29
BRANCH  28  31
HETATM   31  C6  UNL     1      -7.832   4.521  13.186  1.00  0.00     0.101 C 
HETATM   32  C7  UNL     1      -8.455   5.438  12.114  1.00  0.00     0.051 C 
BRANCH  31  33
HETATM   33  O2  UNL     1      -8.778   3.454  13.378  1.00  0.00    -0.385 OA
HETATM   34  H14 UNL     1      -8.642   3.080  14.265  1.00  0.00     0.210 HD
ENDBRANCH  31  33
BRANCH  31  35
HETATM   35  C8  UNL     1      -6.522   3.908  12.645  1.00  0.00     0.204 C 
BRANCH  35  36
HETATM   36  O3  UNL     1      -6.665   2.539  12.275  1.00  0.00    -0.398 OA
HETATM   37  H17 UNL     1      -6.740   2.023  13.096  1.00  0.00     0.209 HD
ENDBRANCH  35  36
ENDBRANCH  31  35
ENDBRANCH  28  31
ENDBRANCH  27  28
ENDBRANCH  26  27
ENDBRANCH  24  26
ENDBRANCH   1  24
TORSDOF 9
ENDMDL
MODEL 6
REMARK minimizedAffinity -9.0637846
REMARK  9 active torsions:
REMARK  status: ('A' for Active; 'I' for Inactive)
REMARK    1  A    between atoms: C2_2  and  C3_3 
REMARK    2  A    between atoms: C2_2  and  C9_12 
REMARK    3  A    between atoms: C3_3  and  C4_4 
REMARK    4  A    between atoms: C4_4  and  C5_5 
REMARK    5  A    between atoms: C5_5  and  O1_6 
REMARK    6  A    between atoms: C5_5  and  C6_7 
REMARK    7  A    between atoms: C6_7  and  O2_9 
REMARK    8  A    between atoms: C6_7  and  C8_10 
REMARK    9  A    between atoms: C8_10  and  O3_11 
ROOT
HETATM    1  C9  UNL     1       0.810   6.972  13.207  1.00  0.00    -0.002 C 
HETATM    2  C10 UNL     1       0.985   7.690  14.574  1.00  0.00     0.006 C 
HETATM    3  C11 UNL     1      -0.378   7.644  15.288  1.00  0.00     0.011 C 
HETATM    4  C12 UNL     1      -1.235   6.649  14.477  1.00  0.00    -0.032 C 
HETATM    5  C13 UNL     1      -0.892   5.218  14.999  1.00  0.00     0.016 C 
HETATM    6  C14 UNL     1      -2.765   6.895  14.577  1.00  0.00     0.004 C 
HETATM    7  C15 UNL     1      -3.389   6.487  15.922  1.00  0.00     0.007 C 
HETATM    8  C16 UNL     1      -4.864   6.886  15.954  1.00  0.00     0.007 C 
HETATM    9  C17 UNL     1      -5.674   6.026  14.971  1.00  0.00     0.010 C 
HETATM   10  C18 UNL     1      -7.197   6.383  14.879  1.00  0.00     0.018 C 
HETATM   11  C19 UNL     1      -7.929   5.913  16.148  1.00  0.00     0.023 C 
HETATM   12  C20 UNL     1      -7.472   7.887  14.682  1.00  0.00     0.023 C 
HETATM   13  C21 UNL     1      -7.815   5.627  13.690  1.00  0.00     0.135 C 
HETATM   14  O4  UNL     1      -8.883   5.961  13.179  1.00  0.00    -0.297 OA
HETATM   15  C22 UNL     1      -7.070   4.411  13.197  1.00  0.00     0.080 C 
HETATM   16  C23 UNL     1      -5.681   4.817  12.723  1.00  0.00     0.018 C 
HETATM   17  C24 UNL     1      -5.049   5.926  13.574  1.00  0.00    -0.026 A 
HETATM   18  C25 UNL     1      -4.643   7.174  12.828  1.00  0.00     0.021 A 
HETATM   19  C26 UNL     1      -3.545   6.281  13.385  1.00  0.00    -0.027 A 
HETATM   20  C27 UNL     1      -2.750   5.443  12.376  1.00  0.00     0.011 C 
HETATM   21  C28 UNL     1      -1.291   5.847  12.094  1.00  0.00     0.011 C 
HETATM   22  C29 UNL     1      -0.742   6.947  13.010  1.00  0.00    -0.032 C 
HETATM   23  C30 UNL     1      -1.231   8.311  12.453  1.00  0.00     0.016 C 
ENDROOT
BRANCH   1  24
HETATM   24  C2  UNL     1       1.822   7.464  12.129  1.00  0.00    -0.014 C 
HETATM   25  C1  UNL     1       2.488   8.826  12.362  1.00  0.00     0.010 C 
BRANCH  24  26
HETATM   26  C3  UNL     1       1.226   7.378  10.703  1.00  0.00     0.007 C 
BRANCH  26  27
HETATM   27  C4  UNL     1       1.841   6.250   9.854  1.00  0.00     0.035 C 
BRANCH  27  28
HETATM   28  C5  UNL     1       2.783   6.744   8.743  1.00  0.00     0.154 C 
BRANCH  28  29
HETATM   29  O1  UNL     1       3.943   7.302   9.381  1.00  0.00    -0.392 OA
HETATM   30  H10 UNL     1       4.500   6.575   9.704  1.00  0.00     0.210 HD
ENDBRANCH  28  29
BRANCH  28  31
HETATM   31  C6  UNL     1       2.158   7.825   7.795  1.00  0.00     0.101 C 
HETATM   32  C7  UNL     1       1.826   7.184   6.433  1.00  0.00     0.051 C 
BRANCH  31  33
HETATM   33  O2  UNL     1       3.077   8.893   7.505  1.00  0.00    -0.385 OA
HETATM   34  H14 UNL     1       3.600   9.073   8.305  1.00  0.00     0.210 HD
ENDBRANCH  31  33
BRANCH  31  35
HETATM   35  C8  UNL     1       0.879   8.445   8.401  1.00  0.00     0.204 C 
BRANCH  35  36
HETATM   36  O3  UNL     1      -0.284   8.185   7.620  1.00  0.00    -0.398 OA
HETATM   37  H17 UNL     1      -0.223   8.731   6.818  1.00  0.00     0.209 HD
ENDBRANCH  35  36
ENDBRANCH  31  35
ENDBRANCH  28  31
ENDBRANCH  27  28
ENDBRANCH  26  27
ENDBRANCH  24  26
ENDBRANCH   1  24
TORSDOF 9
ENDMDL
MODEL 7
REMARK minimizedAffinity -8.98927402
REMARK  9 active torsions:
REMARK  status: ('A' for Active; 'I' for Inactive)
REMARK    1  A    between atoms: C2_2  and  C3_3 
REMARK    2  A    between atoms: C2_2  and  C9_12 
REMARK    3  A    between atoms: C3_3  and  C4_4 
REMARK    4  A    between atoms: C4_4  and  C5_5 
REMARK    5  A    between atoms: C5_5  and  O1_6 
REMARK    6  A    between atoms: C5_5  and  C6_7 
REMARK    7  A    between atoms: C6_7  and  O2_9 
REMARK    8  A    between atoms: C6_7  and  C8_10 
REMARK    9  A    between atoms: C8_10  and  O3_11 
ROOT
HETATM    1  C9  UNL     1      -3.360   6.489  13.551  1.00  0.00    -0.002 C 
HETATM    2  C10 UNL     1      -3.292   7.523  14.708  1.00  0.00     0.006 C 
HETATM    3  C11 UNL     1      -1.933   8.238  14.600  1.00  0.00     0.011 C 
HETATM    4  C12 UNL     1      -1.364   7.833  13.223  1.00  0.00    -0.032 C 
HETATM    5  C13 UNL     1      -1.980   8.807  12.170  1.00  0.00     0.016 C 
HETATM    6  C14 UNL     1       0.186   7.874  13.136  1.00  0.00     0.004 C 
HETATM    7  C15 UNL     1       0.784   9.290  13.078  1.00  0.00     0.007 C 
HETATM    8  C16 UNL     1       2.309   9.213  13.120  1.00  0.00     0.007 C 
HETATM    9  C17 UNL     1       2.853   8.600  11.819  1.00  0.00     0.010 C 
HETATM   10  C18 UNL     1       4.408   8.422  11.770  1.00  0.00     0.018 C 
HETATM   11  C19 UNL     1       5.093   9.790  11.604  1.00  0.00     0.023 C 
HETATM   12  C20 UNL     1       4.993   7.728  13.015  1.00  0.00     0.023 C 
HETATM   13  C21 UNL     1       4.774   7.576  10.537  1.00  0.00     0.135 C 
HETATM   14  O4  UNL     1       5.858   7.004  10.429  1.00  0.00    -0.297 OA
HETATM   15  C22 UNL     1       3.754   7.515   9.429  1.00  0.00     0.080 C 
HETATM   16  C23 UNL     1       2.462   6.903   9.953  1.00  0.00     0.018 C 
HETATM   17  C24 UNL     1       2.140   7.310  11.396  1.00  0.00    -0.026 A 
HETATM   18  C25 UNL     1       1.973   6.174  12.376  1.00  0.00     0.021 A 
HETATM   19  C26 UNL     1       0.741   6.980  11.997  1.00  0.00    -0.027 A 
HETATM   20  C27 UNL     1      -0.276   6.304  11.069  1.00  0.00     0.011 C 
HETATM   21  C28 UNL     1      -1.625   5.871  11.672  1.00  0.00     0.011 C 
HETATM   22  C29 UNL     1      -1.866   6.344  13.111  1.00  0.00    -0.032 C 
HETATM   23  C30 UNL     1      -1.124   5.363  14.058  1.00  0.00     0.016 C 
ENDROOT
BRANCH   1  24
HETATM   24  C2  UNL     1      -4.302   5.288  13.864  1.00  0.00    -0.014 C 
HETATM   25  C1  UNL     1      -4.253   4.091  12.905  1.00  0.00     0.010 C 
BRANCH  24  26
HETATM   26  C3  UNL     1      -5.761   5.749  14.096  1.00  0.00     0.007 C 
BRANCH  26  27
HETATM   27  C4  UNL     1      -6.058   6.109  15.564  1.00  0.00     0.035 C 
BRANCH  27  28
HETATM   28  C5  UNL     1      -7.515   5.859  15.988  1.00  0.00     0.154 C 
BRANCH  28  29
HETATM   29  O1  UNL     1      -7.801   4.472  15.745  1.00  0.00    -0.392 OA
HETATM   30  H10 UNL     1      -7.375   3.941  16.438  1.00  0.00     0.210 HD
ENDBRANCH  28  29
BRANCH  28  31
HETATM   31  C6  UNL     1      -8.571   6.734  15.229  1.00  0.00     0.101 C 
HETATM   32  C7  UNL     1      -8.209   8.224  15.379  1.00  0.00     0.051 C 
BRANCH  31  33
HETATM   33  O2  UNL     1      -9.891   6.600  15.785  1.00  0.00    -0.385 OA
HETATM   34  H14 UNL     1     -10.014   5.676  16.065  1.00  0.00     0.210 HD
ENDBRANCH  31  33
BRANCH  31  35
HETATM   35  C8  UNL     1      -8.644   6.367  13.729  1.00  0.00     0.204 C 
BRANCH  35  36
HETATM   36  O3  UNL     1      -9.259   5.102  13.500  1.00  0.00    -0.398 OA
HETATM   37  H17 UNL     1      -8.632   4.418  13.788  1.00  0.00     0.209 HD
ENDBRANCH  35  36
ENDBRANCH  31  35
ENDBRANCH  28  31
ENDBRANCH  27  28
ENDBRANCH  26  27
ENDBRANCH  24  26
ENDBRANCH   1  24
TORSDOF 9
ENDMDL
MODEL 8
REMARK minimizedAffinity -8.83372021
REMARK  9 active torsions:
REMARK  status: ('A' for Active; 'I' for Inactive)
REMARK    1  A    between atoms: C2_2  and  C3_3 
REMARK    2  A    between atoms: C2_2  and  C9_12 
REMARK    3  A    between atoms: C3_3  and  C4_4 
REMARK    4  A    between atoms: C4_4  and  C5_5 
REMARK    5  A    between atoms: C5_5  and  O1_6 
REMARK    6  A    between atoms: C5_5  and  C6_7 
REMARK    7  A    between atoms: C6_7  and  O2_9 
REMARK    8  A    between atoms: C6_7  and  C8_10 
REMARK    9  A    between atoms: C8_10  and  O3_11 
ROOT
HETATM    1  C9  UNL     1      -1.966   6.987  13.327  1.00  0.00    -0.002 C 
HETATM    2  C10 UNL     1      -1.706   6.793  14.846  1.00  0.00     0.006 C 
HETATM    3  C11 UNL     1      -0.207   7.050  15.087  1.00  0.00     0.011 C 
HETATM    4  C12 UNL     1       0.319   7.679  13.779  1.00  0.00    -0.032 C 
HETATM    5  C13 UNL     1       0.026   9.210  13.858  1.00  0.00     0.016 C 
HETATM    6  C14 UNL     1       1.832   7.444  13.520  1.00  0.00     0.004 C 
HETATM    7  C15 UNL     1       2.768   8.277  14.413  1.00  0.00     0.007 C 
HETATM    8  C16 UNL     1       4.220   7.877  14.160  1.00  0.00     0.007 C 
HETATM    9  C17 UNL     1       4.664   8.322  12.757  1.00  0.00     0.010 C 
HETATM   10  C18 UNL     1       6.126   7.916  12.367  1.00  0.00     0.018 C 
HETATM   11  C19 UNL     1       7.139   8.779  13.138  1.00  0.00     0.023 C 
HETATM   12  C20 UNL     1       6.449   6.431  12.623  1.00  0.00     0.023 C 
HETATM   13  C21 UNL     1       6.337   8.197  10.868  1.00  0.00     0.135 C 
HETATM   14  O4  UNL     1       7.247   7.679  10.222  1.00  0.00    -0.297 OA
HETATM   15  C22 UNL     1       5.397   9.184  10.223  1.00  0.00     0.080 C 
HETATM   16  C23 UNL     1       3.965   8.675  10.328  1.00  0.00     0.018 C 
HETATM   17  C24 UNL     1       3.676   7.946  11.646  1.00  0.00    -0.026 A 
HETATM   18  C25 UNL     1       3.176   6.528  11.516  1.00  0.00     0.021 A 
HETATM   19  C26 UNL     1       2.208   7.586  12.022  1.00  0.00    -0.027 A 
HETATM   20  C27 UNL     1       1.107   8.042  11.057  1.00  0.00     0.011 C 
HETATM   21  C28 UNL     1      -0.339   7.603  11.352  1.00  0.00     0.011 C 
HETATM   22  C29 UNL     1      -0.533   6.904  12.703  1.00  0.00    -0.032 C 
HETATM   23  C30 UNL     1      -0.114   5.419  12.529  1.00  0.00     0.016 C 
ENDROOT
BRANCH   1  24
HETATM   24  C2  UNL     1      -3.194   6.178  12.812  1.00  0.00    -0.014 C 
HETATM   25  C1  UNL     1      -4.581   6.643  13.273  1.00  0.00     0.010 C 
BRANCH  24  26
HETATM   26  C3  UNL     1      -3.016   4.658  13.044  1.00  0.00     0.007 C 
BRANCH  26  27
HETATM   27  C4  UNL     1      -3.173   3.825  11.759  1.00  0.00     0.035 C 
BRANCH  27  28
HETATM   28  C5  UNL     1      -3.992   2.536  11.944  1.00  0.00     0.154 C 
BRANCH  28  29
HETATM   29  O1  UNL     1      -3.242   1.463  11.355  1.00  0.00    -0.392 OA
HETATM   30  H10 UNL     1      -2.510   1.232  11.949  1.00  0.00     0.210 HD
ENDBRANCH  28  29
BRANCH  28  31
HETATM   31  C6  UNL     1      -5.418   2.575  11.293  1.00  0.00     0.101 C 
HETATM   32  C7  UNL     1      -5.992   1.147  11.226  1.00  0.00     0.051 C 
BRANCH  31  33
HETATM   33  O2  UNL     1      -5.382   3.041   9.932  1.00  0.00    -0.385 OA
HETATM   34  H14 UNL     1      -4.707   3.738   9.863  1.00  0.00     0.210 HD
ENDBRANCH  31  33
BRANCH  31  35
HETATM   35  C8  UNL     1      -6.382   3.485  12.086  1.00  0.00     0.204 C 
BRANCH  35  36
HETATM   36  O3  UNL     1      -7.493   2.774  12.625  1.00  0.00    -0.398 OA
HETATM   37  H17 UNL     1      -8.080   2.547  11.884  1.00  0.00     0.209 HD
ENDBRANCH  35  36
ENDBRANCH  31  35
ENDBRANCH  28  31
ENDBRANCH  27  28
ENDBRANCH  26  27
ENDBRANCH  24  26
ENDBRANCH   1  24
TORSDOF 9
ENDMDL
MODEL 9
REMARK minimizedAffinity -8.81664276
REMARK  9 active torsions:
REMARK  status: ('A' for Active; 'I' for Inactive)
REMARK    1  A    between atoms: C2_2  and  C3_3 
REMARK    2  A    between atoms: C2_2  and  C9_12 
REMARK    3  A    between atoms: C3_3  and  C4_4 
REMARK    4  A    between atoms: C4_4  and  C5_5 
REMARK    5  A    between atoms: C5_5  and  O1_6 
REMARK    6  A    between atoms: C5_5  and  C6_7 
REMARK    7  A    between atoms: C6_7  and  O2_9 
REMARK    8  A    between atoms: C6_7  and  C8_10 
REMARK    9  A    between atoms: C8_10  and  O3_11 
ROOT
HETATM    1  C9  UNL     1      -3.563   6.898  14.128  1.00  0.00    -0.002 C 
HETATM    2  C10 UNL     1      -3.799   5.671  13.205  1.00  0.00     0.006 C 
HETATM    3  C11 UNL     1      -2.458   5.355  12.517  1.00  0.00     0.011 C 
HETATM    4  C12 UNL     1      -1.403   6.196  13.267  1.00  0.00    -0.032 C 
HETATM    5  C13 UNL     1      -0.973   5.375  14.524  1.00  0.00     0.016 C 
HETATM    6  C14 UNL     1      -0.153   6.556  12.419  1.00  0.00     0.004 C 
HETATM    7  C15 UNL     1       0.811   5.382  12.176  1.00  0.00     0.007 C 
HETATM    8  C16 UNL     1       1.932   5.817  11.233  1.00  0.00     0.007 C 
HETATM    9  C17 UNL     1       2.857   6.830  11.928  1.00  0.00     0.010 C 
HETATM   10  C18 UNL     1       4.017   7.388  11.036  1.00  0.00     0.018 C 
HETATM   11  C19 UNL     1       5.091   6.307  10.825  1.00  0.00     0.023 C 
HETATM   12  C20 UNL     1       3.551   7.894   9.656  1.00  0.00     0.023 C 
HETATM   13  C21 UNL     1       4.690   8.561  11.771  1.00  0.00     0.135 C 
HETATM   14  O4  UNL     1       5.389   9.390  11.188  1.00  0.00    -0.297 OA
HETATM   15  C22 UNL     1       4.494   8.629  13.264  1.00  0.00     0.080 C 
HETATM   16  C23 UNL     1       3.011   8.768  13.582  1.00  0.00     0.018 C 
HETATM   17  C24 UNL     1       2.110   7.970  12.632  1.00  0.00    -0.026 A 
HETATM   18  C25 UNL     1       1.065   8.769  11.892  1.00  0.00     0.021 A 
HETATM   19  C26 UNL     1       0.598   7.798  12.965  1.00  0.00    -0.027 A 
HETATM   20  C27 UNL     1       0.099   8.403  14.283  1.00  0.00     0.011 C 
HETATM   21  C28 UNL     1      -1.410   8.341  14.580  1.00  0.00     0.011 C 
HETATM   22  C29 UNL     1      -2.224   7.501  13.588  1.00  0.00    -0.032 C 
HETATM   23  C30 UNL     1      -2.502   8.384  12.342  1.00  0.00     0.016 C 
ENDROOT
BRANCH   1  24
HETATM   24  C2  UNL     1      -4.859   7.726  14.380  1.00  0.00    -0.014 C 
HETATM   25  C1  UNL     1      -4.805   8.792  15.482  1.00  0.00     0.010 C 
BRANCH  24  26
HETATM   26  C3  UNL     1      -6.096   6.813  14.556  1.00  0.00     0.007 C 
BRANCH  26  27
HETATM   27  C4  UNL     1      -6.665   6.829  15.987  1.00  0.00     0.035 C 
BRANCH  27  28
HETATM   28  C5  UNL     1      -8.094   6.272  16.100  1.00  0.00     0.154 C 
BRANCH  28  29
HETATM   29  O1  UNL     1      -8.014   4.848  15.929  1.00  0.00    -0.392 OA
HETATM   30  H10 UNL     1      -7.662   4.456  16.744  1.00  0.00     0.210 HD
ENDBRANCH  28  29
BRANCH  28  31
HETATM   31  C6  UNL     1      -9.102   6.853  15.049  1.00  0.00     0.101 C 
HETATM   32  C7  UNL     1      -9.119   8.390  15.148  1.00  0.00     0.051 C 
BRANCH  31  33
HETATM   33  O2  UNL     1     -10.455   6.435  15.303  1.00  0.00    -0.385 OA
HETATM   34  H14 UNL     1     -10.437   5.518  15.627  1.00  0.00     0.210 HD
ENDBRANCH  31  33
BRANCH  31  35
HETATM   35  C8  UNL     1      -8.732   6.430  13.610  1.00  0.00     0.204 C 
BRANCH  35  36
HETATM   36  O3  UNL     1      -9.123   5.093  13.310  1.00  0.00    -0.398 OA
HETATM   37  H17 UNL     1      -8.525   4.499  13.795  1.00  0.00     0.209 HD
ENDBRANCH  35  36
ENDBRANCH  31  35
ENDBRANCH  28  31
ENDBRANCH  27  28
ENDBRANCH  26  27
ENDBRANCH  24  26
ENDBRANCH   1  24
TORSDOF 9
ENDMDL
