MODEL 1
REMARK minimizedAffinity -9.56507492
REMARK  6 active torsions:
REMARK  status: ('A' for Active; 'I' for Inactive)
REMARK    1  A    between atoms: C2_2  and  O2_4 
REMARK    2  A    between atoms: O2_4  and  C3_5 
REMARK    3  A    between atoms: C13_15  and  C14_16 
REMARK    4  A    between atoms: C14_16  and  C16_18 
REMARK    5  A    between atoms: C16_18  and  C17_19 
REMARK    6  A    between atoms: C17_19  and  C18_20 
ROOT
HETATM    1  C3  UNL     1      -5.898   4.603  13.127  1.00  0.00     0.132 C 
HETATM    2  C4  UNL     1      -4.637   3.757  12.919  1.00  0.00     0.033 C 
HETATM    3  C5  UNL     1      -3.442   4.609  12.492  1.00  0.00     0.013 C 
HETATM    4  C6  UNL     1      -3.215   5.737  13.486  1.00  0.00    -0.028 A 
HETATM    5  C7  UNL     1      -2.375   5.427  14.699  1.00  0.00     0.021 A 
HETATM    6  C8  UNL     1      -1.826   6.382  13.645  1.00  0.00    -0.027 A 
HETATM    7  C9  UNL     1      -0.643   5.840  12.863  1.00  0.00     0.011 C 
HETATM    8  C10 UNL     1       0.652   6.381  13.442  1.00  0.00     0.011 C 
HETATM    9  C11 UNL     1       0.827   7.911  13.315  1.00  0.00    -0.032 C 
HETATM   10  C12 UNL     1       1.685   8.337  14.533  1.00  0.00     0.016 C 
HETATM   11  C13 UNL     1       1.478   8.405  11.974  1.00  0.00    -0.002 C 
HETATM   12  C22 UNL     1       0.317   8.477  10.976  1.00  0.00     0.006 C 
HETATM   13  C23 UNL     1      -0.935   8.796  11.782  1.00  0.00     0.011 C 
HETATM   14  C24 UNL     1      -0.582   8.654  13.292  1.00  0.00    -0.032 C 
HETATM   15  C25 UNL     1      -0.475  10.099  13.862  1.00  0.00     0.016 C 
HETATM   16  C26 UNL     1      -1.699   7.866  14.081  1.00  0.00     0.004 C 
HETATM   17  C27 UNL     1      -3.052   8.620  14.054  1.00  0.00     0.006 C 
HETATM   18  C28 UNL     1      -4.234   7.803  14.557  1.00  0.00     0.006 C 
HETATM   19  C29 UNL     1      -4.456   6.605  13.639  1.00  0.00    -0.003 C 
HETATM   20  C30 UNL     1      -5.633   5.746  14.116  1.00  0.00     0.038 C 
ENDROOT
BRANCH  11  21
HETATM   21  C14 UNL     1       2.778   7.800  11.350  1.00  0.00    -0.014 C 
HETATM   22  C15 UNL     1       4.022   8.103  12.191  1.00  0.00     0.010 C 
BRANCH  21  23
HETATM   23  C16 UNL     1       2.747   6.311  10.929  1.00  0.00     0.008 C 
BRANCH  23  24
HETATM   24  C17 UNL     1       3.544   6.040   9.643  1.00  0.00     0.028 C 
BRANCH  24  25
HETATM   25  C18 UNL     1       2.671   6.174   8.424  1.00  0.00    -0.025 C 
HETATM   26  C19 UNL     1       2.468   7.277   7.676  1.00  0.00    -0.091 C 
HETATM   27  C20 UNL     1       3.054   8.633   7.964  1.00  0.00     0.042 C 
HETATM   28  C21 UNL     1       1.594   7.224   6.451  1.00  0.00     0.042 C 
ENDBRANCH  24  25
ENDBRANCH  23  24
ENDBRANCH  21  23
ENDBRANCH  11  21
BRANCH   1  29
HETATM   29  O2  UNL     1      -6.919   3.725  13.640  1.00  0.00    -0.316 OA
BRANCH  29  30
HETATM   30  C2  UNL     1      -8.044   3.604  12.884  1.00  0.00     0.255 C 
HETATM   31  C1  UNL     1      -8.525   4.961  12.468  1.00  0.00     0.126 C 
HETATM   32  O1  UNL     1      -8.597   2.556  12.589  1.00  0.00    -0.266 OA
ENDBRANCH  29  30
ENDBRANCH   1  29
TORSDOF 6
ENDMDL
MODEL 2
REMARK minimizedAffinity -9.10044956
REMARK  6 active torsions:
REMARK  status: ('A' for Active; 'I' for Inactive)
REMARK    1  A    between atoms: C2_2  and  O2_4 
REMARK    2  A    between atoms: O2_4  and  C3_5 
REMARK    3  A    between atoms: C13_15  and  C14_16 
REMARK    4  A    between atoms: C14_16  and  C16_18 
REMARK    5  A    between atoms: C16_18  and  C17_19 
REMARK    6  A    between atoms: C17_19  and  C18_20 
ROOT
HETATM    1  C3  UNL     1      -5.808   4.762  13.021  1.00  0.00     0.132 C 
HETATM    2  C4  UNL     1      -4.809   3.854  12.297  1.00  0.00     0.033 C 
HETATM    3  C5  UNL     1      -3.637   4.643  11.715  1.00  0.00     0.013 C 
HETATM    4  C6  UNL     1      -2.970   5.475  12.799  1.00  0.00    -0.028 A 
HETATM    5  C7  UNL     1      -1.912   4.799  13.632  1.00  0.00     0.021 A 
HETATM    6  C8  UNL     1      -1.497   5.906  12.670  1.00  0.00    -0.027 A 
HETATM    7  C9  UNL     1      -0.669   5.434  11.489  1.00  0.00     0.011 C 
HETATM    8  C10 UNL     1       0.805   5.677  11.761  1.00  0.00     0.011 C 
HETATM    9  C11 UNL     1       1.203   7.164  11.887  1.00  0.00    -0.032 C 
HETATM   10  C12 UNL     1       2.406   7.196  12.862  1.00  0.00     0.016 C 
HETATM   11  C13 UNL     1       1.559   7.883  10.537  1.00  0.00    -0.002 C 
HETATM   12  C22 UNL     1       0.210   8.315   9.952  1.00  0.00     0.006 C 
HETATM   13  C23 UNL     1      -0.716   8.574  11.133  1.00  0.00     0.011 C 
HETATM   14  C24 UNL     1      -0.015   8.045  12.418  1.00  0.00    -0.032 C 
HETATM   15  C25 UNL     1       0.483   9.295  13.201  1.00  0.00     0.016 C 
HETATM   16  C26 UNL     1      -1.009   7.224  13.329  1.00  0.00     0.004 C 
HETATM   17  C27 UNL     1      -2.172   8.109  13.842  1.00  0.00     0.006 C 
HETATM   18  C28 UNL     1      -3.306   7.334  14.497  1.00  0.00     0.006 C 
HETATM   19  C29 UNL     1      -3.961   6.415  13.470  1.00  0.00    -0.003 C 
HETATM   20  C30 UNL     1      -5.104   5.606  14.092  1.00  0.00     0.038 C 
ENDROOT
BRANCH  11  21
HETATM   21  C14 UNL     1       2.529   7.300   9.458  1.00  0.00    -0.014 C 
HETATM   22  C15 UNL     1       2.410   8.027   8.115  1.00  0.00     0.010 C 
BRANCH  21  23
HETATM   23  C16 UNL     1       4.014   7.113   9.852  1.00  0.00     0.008 C 
BRANCH  23  24
HETATM   24  C17 UNL     1       4.721   8.443  10.158  1.00  0.00     0.028 C 
BRANCH  24  25
HETATM   25  C18 UNL     1       5.392   8.405  11.505  1.00  0.00    -0.025 C 
HETATM   26  C19 UNL     1       6.354   7.557  11.919  1.00  0.00    -0.091 C 
HETATM   27  C20 UNL     1       6.912   6.422  11.103  1.00  0.00     0.042 C 
HETATM   28  C21 UNL     1       6.955   7.690  13.294  1.00  0.00     0.042 C 
ENDBRANCH  24  25
ENDBRANCH  23  24
ENDBRANCH  21  23
ENDBRANCH  11  21
BRANCH   1  29
HETATM   29  O2  UNL     1      -6.797   3.908  13.628  1.00  0.00    -0.316 OA
BRANCH  29  30
HETATM   30  C2  UNL     1      -7.986   3.805  12.974  1.00  0.00     0.255 C 
HETATM   31  C1  UNL     1      -8.436   5.159  12.520  1.00  0.00     0.126 C 
HETATM   32  O1  UNL     1      -8.610   2.772  12.786  1.00  0.00    -0.266 OA
ENDBRANCH  29  30
ENDBRANCH   1  29
TORSDOF 6
ENDMDL
MODEL 3
REMARK minimizedAffinity -8.96608925
REMARK  6 active torsions:
REMARK  status: ('A' for Active; 'I' for Inactive)
REMARK    1  A    between atoms: C2_2  and  O2_4 
REMARK    2  A    between atoms: O2_4  and  C3_5 
REMARK    3  A    between atoms: C13_15  and  C14_16 
REMARK    4  A    between atoms: C14_16  and  C16_18 
REMARK    5  A    between atoms: C16_18  and  C17_19 
REMARK    6  A    between atoms: C17_19  and  C18_20 
ROOT
HETATM    1  C3  UNL     1       2.328   6.133  11.067  1.00  0.00     0.132 C 
HETATM    2  C4  UNL     1       0.987   6.205  10.330  1.00  0.00     0.033 C 
HETATM    3  C5  UNL     1      -0.196   6.222  11.297  1.00  0.00     0.013 C 
HETATM    4  C6  UNL     1      -0.038   7.348  12.306  1.00  0.00    -0.028 A 
HETATM    5  C7  UNL     1      -0.538   8.711  11.900  1.00  0.00     0.021 A 
HETATM    6  C8  UNL     1      -1.265   7.958  13.008  1.00  0.00    -0.027 A 
HETATM    7  C9  UNL     1      -2.662   7.491  12.638  1.00  0.00     0.011 C 
HETATM    8  C10 UNL     1      -3.693   8.465  13.180  1.00  0.00     0.011 C 
HETATM    9  C11 UNL     1      -3.756   8.548  14.721  1.00  0.00    -0.032 C 
HETATM   10  C12 UNL     1      -4.204   9.995  15.045  1.00  0.00     0.016 C 
HETATM   11  C13 UNL     1      -4.701   7.502  15.415  1.00  0.00    -0.002 C 
HETATM   12  C22 UNL     1      -3.857   6.229  15.539  1.00  0.00     0.006 C 
HETATM   13  C23 UNL     1      -2.408   6.677  15.681  1.00  0.00     0.011 C 
HETATM   14  C24 UNL     1      -2.345   8.202  15.377  1.00  0.00    -0.032 C 
HETATM   15  C25 UNL     1      -2.159   8.923  16.745  1.00  0.00     0.016 C 
HETATM   16  C26 UNL     1      -1.131   8.560  14.433  1.00  0.00     0.004 C 
HETATM   17  C27 UNL     1       0.225   8.228  15.102  1.00  0.00     0.006 C 
HETATM   18  C28 UNL     1       1.420   8.290  14.161  1.00  0.00     0.006 C 
HETATM   19  C29 UNL     1       1.272   7.231  13.073  1.00  0.00    -0.003 C 
HETATM   20  C30 UNL     1       2.451   7.267  12.094  1.00  0.00     0.038 C 
ENDROOT
BRANCH  11  21
HETATM   21  C14 UNL     1      -6.172   7.213  14.969  1.00  0.00    -0.014 C 
HETATM   22  C15 UNL     1      -7.053   8.465  15.026  1.00  0.00     0.010 C 
BRANCH  21  23
HETATM   23  C16 UNL     1      -6.383   6.452  13.639  1.00  0.00     0.008 C 
BRANCH  23  24
HETATM   24  C17 UNL     1      -6.648   4.952  13.848  1.00  0.00     0.028 C 
BRANCH  24  25
HETATM   25  C18 UNL     1      -6.418   4.177  12.577  1.00  0.00    -0.025 C 
HETATM   26  C19 UNL     1      -5.249   3.703  12.105  1.00  0.00    -0.091 C 
HETATM   27  C20 UNL     1      -3.908   3.915  12.754  1.00  0.00     0.042 C 
HETATM   28  C21 UNL     1      -5.204   2.900  10.832  1.00  0.00     0.042 C 
ENDBRANCH  24  25
ENDBRANCH  23  24
ENDBRANCH  21  23
ENDBRANCH  11  21
BRANCH   1  29
HETATM   29  O2  UNL     1       3.366   6.245  10.074  1.00  0.00    -0.316 OA
BRANCH  29  30
HETATM   30  C2  UNL     1       2.953   6.400   8.787  1.00  0.00     0.255 C 
HETATM   31  C1  UNL     1       2.890   7.857   8.445  1.00  0.00     0.126 C 
HETATM   32  O1  UNL     1       2.661   5.498   8.016  1.00  0.00    -0.266 OA
ENDBRANCH  29  30
ENDBRANCH   1  29
TORSDOF 6
ENDMDL
MODEL 4
REMARK minimizedAffinity -8.52845097
REMARK  6 active torsions:
REMARK  status: ('A' for Active; 'I' for Inactive)
REMARK    1  A    between atoms: C2_2  and  O2_4 
REMARK    2  A    between atoms: O2_4  and  C3_5 
REMARK    3  A    between atoms: C13_15  and  C14_16 
REMARK    4  A    between atoms: C14_16  and  C16_18 
REMARK    5  A    between atoms: C16_18  and  C17_19 
REMARK    6  A    between atoms: C17_19  and  C18_20 
ROOT
HETATM    1  C3  UNL     1      -7.348   6.289  13.455  1.00  0.00     0.132 C 
HETATM    2  C4  UNL     1      -6.388   5.097  13.508  1.00  0.00     0.033 C 
HETATM    3  C5  UNL     1      -4.953   5.504  13.177  1.00  0.00     0.013 C 
HETATM    4  C6  UNL     1      -4.503   6.639  14.082  1.00  0.00    -0.028 A 
HETATM    5  C7  UNL     1      -3.931   6.263  15.426  1.00  0.00     0.021 A 
HETATM    6  C8  UNL     1      -3.009   6.871  14.376  1.00  0.00    -0.027 A 
HETATM    7  C9  UNL     1      -1.969   5.914  13.823  1.00  0.00     0.011 C 
HETATM    8  C10 UNL     1      -0.641   6.130  14.526  1.00  0.00     0.011 C 
HETATM    9  C11 UNL     1       0.002   7.513  14.283  1.00  0.00    -0.032 C 
HETATM   10  C12 UNL     1       0.812   7.831  15.564  1.00  0.00     0.016 C 
HETATM   11  C13 UNL     1       0.911   7.618  13.007  1.00  0.00    -0.002 C 
HETATM   12  C22 UNL     1      -0.059   7.890  11.852  1.00  0.00     0.006 C 
HETATM   13  C23 UNL     1      -1.235   8.659  12.440  1.00  0.00     0.011 C 
HETATM   14  C24 UNL     1      -1.105   8.621  13.991  1.00  0.00    -0.032 C 
HETATM   15  C25 UNL     1      -0.628  10.036  14.433  1.00  0.00     0.016 C 
HETATM   16  C26 UNL     1      -2.487   8.300  14.684  1.00  0.00     0.004 C 
HETATM   17  C27 UNL     1      -3.536   9.401  14.396  1.00  0.00     0.006 C 
HETATM   18  C28 UNL     1      -4.957   9.034  14.800  1.00  0.00     0.006 C 
HETATM   19  C29 UNL     1      -5.432   7.840  13.977  1.00  0.00    -0.003 C 
HETATM   20  C30 UNL     1      -6.858   7.428  14.361  1.00  0.00     0.038 C 
ENDROOT
BRANCH  11  21
HETATM   21  C14 UNL     1       2.026   6.588  12.632  1.00  0.00    -0.014 C 
HETATM   22  C15 UNL     1       1.541   5.551  11.613  1.00  0.00     0.010 C 
BRANCH  21  23
HETATM   23  C16 UNL     1       3.414   7.143  12.234  1.00  0.00     0.008 C 
BRANCH  23  24
HETATM   24  C17 UNL     1       3.880   6.647  10.855  1.00  0.00     0.028 C 
BRANCH  24  25
HETATM   25  C18 UNL     1       3.686   7.707   9.803  1.00  0.00    -0.025 C 
HETATM   26  C19 UNL     1       3.075   7.576   8.609  1.00  0.00    -0.091 C 
HETATM   27  C20 UNL     1       2.505   6.293   8.068  1.00  0.00     0.042 C 
HETATM   28  C21 UNL     1       2.924   8.760   7.690  1.00  0.00     0.042 C 
ENDBRANCH  24  25
ENDBRANCH  23  24
ENDBRANCH  21  23
ENDBRANCH  11  21
BRANCH   1  29
HETATM   29  O2  UNL     1      -8.636   5.819  13.899  1.00  0.00    -0.316 OA
BRANCH  29  30
HETATM   30  C2  UNL     1      -9.714   6.539  13.485  1.00  0.00     0.255 C 
HETATM   31  C1  UNL     1     -10.437   7.100  14.670  1.00  0.00     0.126 C 
HETATM   32  O1  UNL     1     -10.061   6.701  12.325  1.00  0.00    -0.266 OA
ENDBRANCH  29  30
ENDBRANCH   1  29
TORSDOF 6
ENDMDL
MODEL 5
REMARK minimizedAffinity -8.45883465
REMARK  6 active torsions:
REMARK  status: ('A' for Active; 'I' for Inactive)
REMARK    1  A    between atoms: C2_2  and  O2_4 
REMARK    2  A    between atoms: O2_4  and  C3_5 
REMARK    3  A    between atoms: C13_15  and  C14_16 
REMARK    4  A    between atoms: C14_16  and  C16_18 
REMARK    5  A    between atoms: C16_18  and  C17_19 
REMARK    6  A    between atoms: C17_19  and  C18_20 
ROOT
HETATM    1  C3  UNL     1      -6.558   6.879  15.890  1.00  0.00     0.132 C 
HETATM    2  C4  UNL     1      -5.848   8.225  15.713  1.00  0.00     0.033 C 
HETATM    3  C5  UNL     1      -4.379   8.051  15.334  1.00  0.00     0.013 C 
HETATM    4  C6  UNL     1      -4.252   7.173  14.099  1.00  0.00    -0.028 A 
HETATM    5  C7  UNL     1      -4.366   7.851  12.758  1.00  0.00     0.021 A 
HETATM    6  C8  UNL     1      -3.020   7.275  13.181  1.00  0.00    -0.027 A 
HETATM    7  C9  UNL     1      -1.950   8.315  13.458  1.00  0.00     0.011 C 
HETATM    8  C10 UNL     1      -1.047   8.464  12.246  1.00  0.00     0.011 C 
HETATM    9  C11 UNL     1      -0.221   7.206  11.897  1.00  0.00    -0.032 C 
HETATM   10  C12 UNL     1      -0.022   7.247  10.362  1.00  0.00     0.016 C 
HETATM   11  C13 UNL     1       1.159   7.081  12.636  1.00  0.00    -0.002 C 
HETATM   12  C22 UNL     1       0.824   6.458  13.996  1.00  0.00     0.006 C 
HETATM   13  C23 UNL     1      -0.402   5.580  13.784  1.00  0.00     0.011 C 
HETATM   14  C24 UNL     1      -0.967   5.877  12.365  1.00  0.00    -0.032 C 
HETATM   15  C25 UNL     1      -0.584   4.663  11.469  1.00  0.00     0.016 C 
HETATM   16  C26 UNL     1      -2.537   6.034  12.382  1.00  0.00     0.004 C 
HETATM   17  C27 UNL     1      -3.234   4.724  12.824  1.00  0.00     0.006 C 
HETATM   18  C28 UNL     1      -4.718   4.874  13.124  1.00  0.00     0.006 C 
HETATM   19  C29 UNL     1      -4.910   5.816  14.308  1.00  0.00    -0.003 C 
HETATM   20  C30 UNL     1      -6.394   6.006  14.638  1.00  0.00     0.038 C 
ENDROOT
BRANCH  11  21
HETATM   21  C14 UNL     1       2.210   8.234  12.740  1.00  0.00    -0.014 C 
HETATM   22  C15 UNL     1       2.166   8.940  14.100  1.00  0.00     0.010 C 
BRANCH  21  23
HETATM   23  C16 UNL     1       3.669   7.917  12.333  1.00  0.00     0.008 C 
BRANCH  23  24
HETATM   24  C17 UNL     1       3.957   8.235  10.856  1.00  0.00     0.028 C 
BRANCH  24  25
HETATM   25  C18 UNL     1       3.546   7.093   9.965  1.00  0.00    -0.025 C 
HETATM   26  C19 UNL     1       3.052   7.166   8.713  1.00  0.00    -0.091 C 
HETATM   27  C20 UNL     1       2.762   8.445   7.974  1.00  0.00     0.042 C 
HETATM   28  C21 UNL     1       2.736   5.914   7.938  1.00  0.00     0.042 C 
ENDBRANCH  24  25
ENDBRANCH  23  24
ENDBRANCH  21  23
ENDBRANCH  11  21
BRANCH   1  29
HETATM   29  O2  UNL     1      -7.952   7.160  16.123  1.00  0.00    -0.316 OA
BRANCH  29  30
HETATM   30  C2  UNL     1      -8.684   7.516  15.033  1.00  0.00     0.255 C 
HETATM   31  C1  UNL     1      -9.209   8.909  15.206  1.00  0.00     0.126 C 
HETATM   32  O1  UNL     1      -8.901   6.814  14.058  1.00  0.00    -0.266 OA
ENDBRANCH  29  30
ENDBRANCH   1  29
TORSDOF 6
ENDMDL
MODEL 6
REMARK minimizedAffinity -8.26752281
REMARK  6 active torsions:
REMARK  status: ('A' for Active; 'I' for Inactive)
REMARK    1  A    between atoms: C2_2  and  O2_4 
REMARK    2  A    between atoms: O2_4  and  C3_5 
REMARK    3  A    between atoms: C13_15  and  C14_16 
REMARK    4  A    between atoms: C14_16  and  C16_18 
REMARK    5  A    between atoms: C16_18  and  C17_19 
REMARK    6  A    between atoms: C17_19  and  C18_20 
ROOT
HETATM    1  C3  UNL     1      -5.662   3.835  12.251  1.00  0.00     0.132 C 
HETATM    2  C4  UNL     1      -4.271   3.204  12.378  1.00  0.00     0.033 C 
HETATM    3  C5  UNL     1      -3.157   4.225  12.150  1.00  0.00     0.013 C 
HETATM    4  C6  UNL     1      -3.331   5.413  13.083  1.00  0.00    -0.028 A 
HETATM    5  C7  UNL     1      -2.742   5.295  14.465  1.00  0.00     0.021 A 
HETATM    6  C8  UNL     1      -2.127   6.286  13.484  1.00  0.00    -0.027 A 
HETATM    7  C9  UNL     1      -0.732   5.918  13.011  1.00  0.00     0.011 C 
HETATM    8  C10 UNL     1       0.304   6.689  13.809  1.00  0.00     0.011 C 
HETATM    9  C11 UNL     1       0.266   8.221  13.608  1.00  0.00    -0.032 C 
HETATM   10  C12 UNL     1       0.758   8.831  14.944  1.00  0.00     0.016 C 
HETATM   11  C13 UNL     1       1.112   8.764  12.402  1.00  0.00    -0.002 C 
HETATM   12  C22 UNL     1       0.203   8.602  11.179  1.00  0.00     0.006 C 
HETATM   13  C23 UNL     1      -1.230   8.739  11.677  1.00  0.00     0.011 C 
HETATM   14  C24 UNL     1      -1.201   8.718  13.233  1.00  0.00    -0.032 C 
HETATM   15  C25 UNL     1      -1.446  10.182  13.704  1.00  0.00     0.016 C 
HETATM   16  C26 UNL     1      -2.330   7.787  13.825  1.00  0.00     0.004 C 
HETATM   17  C27 UNL     1      -3.743   8.303  13.457  1.00  0.00     0.006 C 
HETATM   18  C28 UNL     1      -4.866   7.322  13.758  1.00  0.00     0.006 C 
HETATM   19  C29 UNL     1      -4.694   6.068  12.906  1.00  0.00    -0.003 C 
HETATM   20  C30 UNL     1      -5.801   5.045  13.186  1.00  0.00     0.038 C 
ENDROOT
BRANCH  11  21
HETATM   21  C14 UNL     1       2.594   8.359  12.113  1.00  0.00    -0.014 C 
HETATM   22  C15 UNL     1       3.495   8.534  13.340  1.00  0.00     0.010 C 
BRANCH  21  23
HETATM   23  C16 UNL     1       2.848   6.991  11.436  1.00  0.00     0.008 C 
BRANCH  23  24
HETATM   24  C17 UNL     1       3.944   7.053  10.360  1.00  0.00     0.028 C 
BRANCH  24  25
HETATM   25  C18 UNL     1       5.285   6.672  10.929  1.00  0.00    -0.025 C 
HETATM   26  C19 UNL     1       6.341   7.478  11.152  1.00  0.00    -0.091 C 
HETATM   27  C20 UNL     1       6.394   8.943  10.813  1.00  0.00     0.042 C 
HETATM   28  C21 UNL     1       7.601   6.939  11.778  1.00  0.00     0.042 C 
ENDBRANCH  24  25
ENDBRANCH  23  24
ENDBRANCH  21  23
ENDBRANCH  11  21
BRANCH   1  29
HETATM   29  O2  UNL     1      -6.623   2.821  12.601  1.00  0.00    -0.316 OA
BRANCH  29  30
HETATM   30  C2  UNL     1      -7.753   3.253  13.225  1.00  0.00     0.255 C 
HETATM   31  C1  UNL     1      -7.474   3.485  14.679  1.00  0.00     0.126 C 
HETATM   32  O1  UNL     1      -8.841   3.421  12.697  1.00  0.00    -0.266 OA
ENDBRANCH  29  30
ENDBRANCH   1  29
TORSDOF 6
ENDMDL
MODEL 7
REMARK minimizedAffinity -8.06662655
REMARK  6 active torsions:
REMARK  status: ('A' for Active; 'I' for Inactive)
REMARK    1  A    between atoms: C2_2  and  O2_4 
REMARK    2  A    between atoms: O2_4  and  C3_5 
REMARK    3  A    between atoms: C13_15  and  C14_16 
REMARK    4  A    between atoms: C14_16  and  C16_18 
REMARK    5  A    between atoms: C16_18  and  C17_19 
REMARK    6  A    between atoms: C17_19  and  C18_20 
ROOT
HETATM    1  C3  UNL     1       2.181   5.739  11.129  1.00  0.00     0.132 C 
HETATM    2  C4  UNL     1       0.873   5.958  10.362  1.00  0.00     0.033 C 
HETATM    3  C5  UNL     1      -0.329   6.055  11.300  1.00  0.00     0.013 C 
HETATM    4  C6  UNL     1      -0.096   7.131  12.348  1.00  0.00    -0.028 A 
HETATM    5  C7  UNL     1      -0.458   8.546  11.974  1.00  0.00     0.021 A 
HETATM    6  C8  UNL     1      -1.281   7.831  13.039  1.00  0.00    -0.027 A 
HETATM    7  C9  UNL     1      -2.704   7.507  12.620  1.00  0.00     0.011 C 
HETATM    8  C10 UNL     1      -3.656   8.555  13.167  1.00  0.00     0.011 C 
HETATM    9  C11 UNL     1      -3.753   8.598  14.709  1.00  0.00    -0.032 C 
HETATM   10  C12 UNL     1      -4.075  10.070  15.068  1.00  0.00     0.016 C 
HETATM   11  C13 UNL     1      -4.809   7.625  15.344  1.00  0.00    -0.002 C 
HETATM   12  C22 UNL     1      -4.089   6.276  15.448  1.00  0.00     0.006 C 
HETATM   13  C23 UNL     1      -2.610   6.583  15.640  1.00  0.00     0.011 C 
HETATM   14  C24 UNL     1      -2.399   8.104  15.387  1.00  0.00    -0.032 C 
HETATM   15  C25 UNL     1      -2.184   8.763  16.781  1.00  0.00     0.016 C 
HETATM   16  C26 UNL     1      -1.131   8.375  14.485  1.00  0.00     0.004 C 
HETATM   17  C27 UNL     1       0.170   7.899  15.177  1.00  0.00     0.006 C 
HETATM   18  C28 UNL     1       1.390   7.879  14.268  1.00  0.00     0.006 C 
HETATM   19  C29 UNL     1       1.175   6.870  13.143  1.00  0.00    -0.003 C 
HETATM   20  C30 UNL     1       2.379   6.826  12.195  1.00  0.00     0.038 C 
ENDROOT
BRANCH  11  21
HETATM   21  C14 UNL     1      -6.287   7.487  14.854  1.00  0.00    -0.014 C 
HETATM   22  C15 UNL     1      -6.480   6.288  13.919  1.00  0.00     0.010 C 
BRANCH  21  23
HETATM   23  C16 UNL     1      -7.407   7.538  15.921  1.00  0.00     0.008 C 
BRANCH  23  24
HETATM   24  C17 UNL     1      -8.757   7.027  15.392  1.00  0.00     0.028 C 
BRANCH  24  25
HETATM   25  C18 UNL     1      -9.540   8.134  14.739  1.00  0.00    -0.025 C 
HETATM   26  C19 UNL     1     -10.259   9.099  15.346  1.00  0.00    -0.091 C 
HETATM   27  C20 UNL     1     -10.462   9.216  16.833  1.00  0.00     0.042 C 
HETATM   28  C21 UNL     1     -10.947  10.168  14.538  1.00  0.00     0.042 C 
ENDBRANCH  24  25
ENDBRANCH  23  24
ENDBRANCH  21  23
ENDBRANCH  11  21
BRANCH   1  29
HETATM   29  O2  UNL     1       3.252   5.784  10.166  1.00  0.00    -0.316 OA
BRANCH  29  30
HETATM   30  C2  UNL     1       2.954   6.342   8.961  1.00  0.00     0.255 C 
HETATM   31  C1  UNL     1       3.267   7.807   8.988  1.00  0.00     0.126 C 
HETATM   32  O1  UNL     1       2.489   5.754   7.997  1.00  0.00    -0.266 OA
ENDBRANCH  29  30
ENDBRANCH   1  29
TORSDOF 6
ENDMDL
MODEL 8
REMARK minimizedAffinity -8.06519699
REMARK  6 active torsions:
REMARK  status: ('A' for Active; 'I' for Inactive)
REMARK    1  A    between atoms: C2_2  and  O2_4 
REMARK    2  A    between atoms: O2_4  and  C3_5 
REMARK    3  A    between atoms: C13_15  and  C14_16 
REMARK    4  A    between atoms: C14_16  and  C16_18 
REMARK    5  A    between atoms: C16_18  and  C17_19 
REMARK    6  A    between atoms: C17_19  and  C18_20 
ROOT
HETATM    1  C3  UNL     1      -6.033   4.945  13.272  1.00  0.00     0.132 C 
HETATM    2  C4  UNL     1      -6.752   6.277  13.511  1.00  0.00     0.033 C 
HETATM    3  C5  UNL     1      -5.970   7.186  14.459  1.00  0.00     0.013 C 
HETATM    4  C6  UNL     1      -4.552   7.386  13.949  1.00  0.00    -0.028 A 
HETATM    5  C7  UNL     1      -4.331   8.488  12.944  1.00  0.00     0.021 A 
HETATM    6  C8  UNL     1      -3.740   8.635  14.342  1.00  0.00    -0.027 A 
HETATM    7  C9  UNL     1      -4.381   9.723  15.184  1.00  0.00     0.011 C 
HETATM    8  C10 UNL     1      -3.533  10.981  15.135  1.00  0.00     0.011 C 
HETATM    9  C11 UNL     1      -2.130  10.840  15.767  1.00  0.00    -0.032 C 
HETATM   10  C12 UNL     1      -1.219  11.822  14.990  1.00  0.00     0.016 C 
HETATM   11  C13 UNL     1      -2.056  11.114  17.312  1.00  0.00    -0.002 C 
HETATM   12  C22 UNL     1      -2.462   9.789  17.967  1.00  0.00     0.006 C 
HETATM   13  C23 UNL     1      -2.028   8.680  17.017  1.00  0.00     0.011 C 
HETATM   14  C24 UNL     1      -1.603   9.339  15.673  1.00  0.00    -0.032 C 
HETATM   15  C25 UNL     1      -0.048   9.282  15.621  1.00  0.00     0.016 C 
HETATM   16  C26 UNL     1      -2.192   8.563  14.430  1.00  0.00     0.004 C 
HETATM   17  C27 UNL     1      -1.650   7.115  14.356  1.00  0.00     0.006 C 
HETATM   18  C28 UNL     1      -2.371   6.227  13.353  1.00  0.00     0.006 C 
HETATM   19  C29 UNL     1      -3.829   6.059  13.772  1.00  0.00    -0.003 C 
HETATM   20  C30 UNL     1      -4.598   5.178  12.780  1.00  0.00     0.038 C 
ENDROOT
BRANCH  11  21
HETATM   21  C14 UNL     1      -2.689  12.358  18.017  1.00  0.00    -0.014 C 
HETATM   22  C15 UNL     1      -2.703  13.594  17.113  1.00  0.00     0.010 C 
BRANCH  21  23
HETATM   23  C16 UNL     1      -4.059  12.170  18.713  1.00  0.00     0.008 C 
BRANCH  23  24
HETATM   24  C17 UNL     1      -4.408  13.329  19.661  1.00  0.00     0.028 C 
BRANCH  24  25
HETATM   25  C18 UNL     1      -5.895  13.430  19.871  1.00  0.00    -0.025 C 
HETATM   26  C19 UNL     1      -6.565  13.377  21.039  1.00  0.00    -0.091 C 
HETATM   27  C20 UNL     1      -5.933  13.146  22.385  1.00  0.00     0.042 C 
HETATM   28  C21 UNL     1      -8.061  13.545  21.075  1.00  0.00     0.042 C 
ENDBRANCH  24  25
ENDBRANCH  23  24
ENDBRANCH  21  23
ENDBRANCH  11  21
BRANCH   1  29
HETATM   29  O2  UNL     1      -6.790   4.225  12.279  1.00  0.00    -0.316 OA
BRANCH  29  30
HETATM   30  C2  UNL     1      -7.067   2.924  12.562  1.00  0.00     0.255 C 
HETATM   31  C1  UNL     1      -6.217   2.027  11.716  1.00  0.00     0.126 C 
HETATM   32  O1  UNL     1      -7.891   2.529  13.372  1.00  0.00    -0.266 OA
ENDBRANCH  29  30
ENDBRANCH   1  29
TORSDOF 6
ENDMDL
MODEL 9
REMARK minimizedAffinity -8.03683186
REMARK  6 active torsions:
REMARK  status: ('A' for Active; 'I' for Inactive)
REMARK    1  A    between atoms: C2_2  and  O2_4 
REMARK    2  A    between atoms: O2_4  and  C3_5 
REMARK    3  A    between atoms: C13_15  and  C14_16 
REMARK    4  A    between atoms: C14_16  and  C16_18 
REMARK    5  A    between atoms: C16_18  and  C17_19 
REMARK    6  A    between atoms: C17_19  and  C18_20 
ROOT
HETATM    1  C3  UNL     1      -5.953   4.829  13.187  1.00  0.00     0.132 C 
HETATM    2  C4  UNL     1      -6.726   6.108  13.524  1.00  0.00     0.033 C 
HETATM    3  C5  UNL     1      -5.943   7.015  14.473  1.00  0.00     0.013 C 
HETATM    4  C6  UNL     1      -4.566   7.314  13.903  1.00  0.00    -0.028 A 
HETATM    5  C7  UNL     1      -4.455   8.469  12.941  1.00  0.00     0.021 A 
HETATM    6  C8  UNL     1      -3.800   8.585  14.313  1.00  0.00    -0.027 A 
HETATM    7  C9  UNL     1      -4.451   9.599  15.236  1.00  0.00     0.011 C 
HETATM    8  C10 UNL     1      -3.672  10.902  15.204  1.00  0.00     0.011 C 
HETATM    9  C11 UNL     1      -2.233  10.809  15.757  1.00  0.00    -0.032 C 
HETATM   10  C12 UNL     1      -1.416  11.872  14.982  1.00  0.00     0.016 C 
HETATM   11  C13 UNL     1      -2.092  11.018  17.307  1.00  0.00    -0.002 C 
HETATM   12  C22 UNL     1      -2.393   9.645  17.919  1.00  0.00     0.006 C 
HETATM   13  C23 UNL     1      -1.954   8.605  16.898  1.00  0.00     0.011 C 
HETATM   14  C24 UNL     1      -1.635   9.344  15.566  1.00  0.00    -0.032 C 
HETATM   15  C25 UNL     1      -0.083   9.374  15.433  1.00  0.00     0.016 C 
HETATM   16  C26 UNL     1      -2.248   8.594  14.320  1.00  0.00     0.004 C 
HETATM   17  C27 UNL     1      -1.636   7.181  14.151  1.00  0.00     0.006 C 
HETATM   18  C28 UNL     1      -2.363   6.301  13.144  1.00  0.00     0.006 C 
HETATM   19  C29 UNL     1      -3.786   6.036  13.628  1.00  0.00    -0.003 C 
HETATM   20  C30 UNL     1      -4.560   5.160  12.636  1.00  0.00     0.038 C 
ENDROOT
BRANCH  11  21
HETATM   21  C14 UNL     1      -2.750  12.193  18.101  1.00  0.00    -0.014 C 
HETATM   22  C15 UNL     1      -3.943  11.730  18.944  1.00  0.00     0.010 C 
BRANCH  21  23
HETATM   23  C16 UNL     1      -1.819  13.114  18.926  1.00  0.00     0.008 C 
BRANCH  23  24
HETATM   24  C17 UNL     1      -0.329  12.840  18.667  1.00  0.00     0.028 C 
BRANCH  24  25
HETATM   25  C18 UNL     1       0.285  12.057  19.797  1.00  0.00    -0.025 C 
HETATM   26  C19 UNL     1       1.189  11.061  19.710  1.00  0.00    -0.091 C 
HETATM   27  C20 UNL     1       1.727  10.496  18.424  1.00  0.00     0.042 C 
HETATM   28  C21 UNL     1       1.739  10.413  20.953  1.00  0.00     0.042 C 
ENDBRANCH  24  25
ENDBRANCH  23  24
ENDBRANCH  21  23
ENDBRANCH  11  21
BRANCH   1  29
HETATM   29  O2  UNL     1      -6.723   4.114  12.201  1.00  0.00    -0.316 OA
BRANCH  29  30
HETATM   30  C2  UNL     1      -6.962   2.800  12.462  1.00  0.00     0.255 C 
HETATM   31  C1  UNL     1      -6.075   1.943  11.612  1.00  0.00     0.126 C 
HETATM   32  O1  UNL     1      -7.781   2.367  13.258  1.00  0.00    -0.266 OA
ENDBRANCH  29  30
ENDBRANCH   1  29
TORSDOF 6
ENDMDL
