MODEL 1
REMARK minimizedAffinity -8.35905743
REMARK  18 active torsions:
REMARK  status: ('A' for Active; 'I' for Inactive)
REMARK    1  A    between atoms: C4_4  and  C5_5 
REMARK    2  A    between atoms: C5_5  and  C6_6 
REMARK    3  A    between atoms: C6_6  and  C7_7 
REMARK    4  A    between atoms: C9_9  and  C10_10 
REMARK    5  A    between atoms: C10_10  and  O1_11 
REMARK    6  A    between atoms: C10_10  and  C11_12 
REMARK    7  A    between atoms: C11_12  and  C12_13 
REMARK    8  A    between atoms: C14_15  and  C15_16 
REMARK    9  A    between atoms: C15_16  and  C16_17 
REMARK   10  A    between atoms: C16_17  and  C17_18 
REMARK   11  A    between atoms: C17_18  and  C18_19 
REMARK   12  A    between atoms: C18_19  and  O2_20 
REMARK   13  A    between atoms: C19_21  and  C20_22 
REMARK   14  A    between atoms: C20_22  and  C21_23 
REMARK   15  A    between atoms: C21_23  and  C22_24 
REMARK   16  A    between atoms: C22_24  and  O3_25 
REMARK   17  A    between atoms: C24_27  and  C26_29 
REMARK   18  A    between atoms: C29_33  and  O5_35 
ROOT
HETATM    1  C17 UNL     1      -6.174  47.949 -30.558  1.00  0.00     0.019 C 
HETATM    2  C19 UNL     1      -5.777  46.509 -31.159  1.00  0.00     0.029 C 
HETATM    3  C23 UNL     1      -6.773  45.999 -32.219  1.00  0.00    -0.066 C 
HETATM    4  C24 UNL     1      -7.268  44.735 -32.323  1.00  0.00    -0.021 C 
HETATM    5  C25 UNL     1      -8.248  44.289 -33.381  1.00  0.00     0.052 C 
HETATM    6  C27 UNL     1      -7.299  47.118 -33.085  1.00  0.00     0.038 C 
HETATM    7  C28 UNL     1      -8.115  48.111 -32.252  1.00  0.00     0.042 C 
HETATM    8  C29 UNL     1      -7.731  48.189 -30.748  1.00  0.00     0.065 C 
HETATM    9  C30 UNL     1      -8.635  47.256 -29.923  1.00  0.00     0.047 C 
ENDROOT
BRANCH   1  10
HETATM   10  C16 UNL     1      -5.725  48.091 -29.046  1.00  0.00     0.019 C 
BRANCH  10  11
HETATM   11  C15 UNL     1      -6.508  47.338 -27.958  1.00  0.00     0.028 C 
BRANCH  11  12
HETATM   12  C14 UNL     1      -6.036  47.735 -26.584  1.00  0.00    -0.024 C 
HETATM   13  C12 UNL     1      -4.843  48.252 -26.228  1.00  0.00    -0.085 C 
HETATM   14  C13 UNL     1      -3.692  48.486 -27.169  1.00  0.00     0.043 C 
BRANCH  13  15
HETATM   15  C11 UNL     1      -4.579  48.634 -24.775  1.00  0.00     0.069 C 
BRANCH  15  16
HETATM   16  C10 UNL     1      -4.287  50.136 -24.560  1.00  0.00     0.145 C 
BRANCH  16  17
HETATM   17  C9  UNL     1      -3.504  50.356 -23.293  1.00  0.00     0.007 C 
HETATM   18  C7  UNL     1      -2.813  51.454 -22.921  1.00  0.00    -0.085 C 
HETATM   19  C8  UNL     1      -2.659  52.674 -23.795  1.00  0.00     0.043 C 
BRANCH  18  20
HETATM   20  C6  UNL     1      -2.086  51.589 -21.585  1.00  0.00     0.037 C 
BRANCH  20  21
HETATM   21  C5  UNL     1      -0.617  51.146 -21.475  1.00  0.00     0.031 C 
BRANCH  21  22
HETATM   22  C4  UNL     1       0.354  52.255 -21.796  1.00  0.00    -0.024 C 
HETATM   23  C2  UNL     1       0.729  53.287 -21.014  1.00  0.00    -0.091 C 
HETATM   24  C1  UNL     1       0.261  53.532 -19.606  1.00  0.00     0.042 C 
HETATM   25  C3  UNL     1       1.711  54.311 -21.522  1.00  0.00     0.042 C 
ENDBRANCH  21  22
ENDBRANCH  20  21
ENDBRANCH  18  20
ENDBRANCH  16  17
BRANCH  16  26
HETATM   26  O1  UNL     1      -5.489  50.895 -24.418  1.00  0.00    -0.391 OA
HETATM   27  H17 UNL     1      -6.232  50.274 -24.324  1.00  0.00     0.210 HD
ENDBRANCH  16  26
ENDBRANCH  15  16
ENDBRANCH  13  15
ENDBRANCH  11  12
ENDBRANCH  10  11
ENDBRANCH   1  10
BRANCH   1  28
HETATM   28  C18 UNL     1      -5.408  49.120 -31.297  1.00  0.00     0.177 C 
BRANCH  28  29
HETATM   29  O2  UNL     1      -4.525  49.832 -30.436  1.00  0.00    -0.400 OA
HETATM   30  H30 UNL     1      -5.061  50.115 -29.663  1.00  0.00     0.209 HD
ENDBRANCH  28  29
ENDBRANCH   1  28
BRANCH   2  31
HETATM   31  C20 UNL     1      -4.300  46.465 -31.642  1.00  0.00     0.012 C 
BRANCH  31  32
HETATM   32  C21 UNL     1      -4.060  46.320 -33.147  1.00  0.00     0.027 C 
BRANCH  32  33
HETATM   33  C22 UNL     1      -3.692  47.619 -33.849  1.00  0.00     0.164 C 
BRANCH  33  34
HETATM   34  O3  UNL     1      -2.368  47.968 -33.470  1.00  0.00    -0.401 OA
HETATM   35  H38 UNL     1      -2.146  48.801 -33.922  1.00  0.00     0.209 HD
ENDBRANCH  33  34
ENDBRANCH  32  33
ENDBRANCH  31  32
ENDBRANCH   2  31
BRANCH   8  36
HETATM   36  O5  UNL     1      -8.084  49.530 -30.342  1.00  0.00    -0.389 OA
HETATM   37  H50 UNL     1      -8.193  49.543 -29.373  1.00  0.00     0.210 HD
ENDBRANCH   8  36
BRANCH   4  38
HETATM   38  C26 UNL     1      -6.906  43.634 -31.368  1.00  0.00     0.265 C 
HETATM   39  O4  UNL     1      -6.962  42.447 -31.672  1.00  0.00    -0.302 OA
ENDBRANCH   4  38
TORSDOF 18
ENDMDL
MODEL 2
REMARK minimizedAffinity -8.15247631
REMARK  18 active torsions:
REMARK  status: ('A' for Active; 'I' for Inactive)
REMARK    1  A    between atoms: C4_4  and  C5_5 
REMARK    2  A    between atoms: C5_5  and  C6_6 
REMARK    3  A    between atoms: C6_6  and  C7_7 
REMARK    4  A    between atoms: C9_9  and  C10_10 
REMARK    5  A    between atoms: C10_10  and  O1_11 
REMARK    6  A    between atoms: C10_10  and  C11_12 
REMARK    7  A    between atoms: C11_12  and  C12_13 
REMARK    8  A    between atoms: C14_15  and  C15_16 
REMARK    9  A    between atoms: C15_16  and  C16_17 
REMARK   10  A    between atoms: C16_17  and  C17_18 
REMARK   11  A    between atoms: C17_18  and  C18_19 
REMARK   12  A    between atoms: C18_19  and  O2_20 
REMARK   13  A    between atoms: C19_21  and  C20_22 
REMARK   14  A    between atoms: C20_22  and  C21_23 
REMARK   15  A    between atoms: C21_23  and  C22_24 
REMARK   16  A    between atoms: C22_24  and  O3_25 
REMARK   17  A    between atoms: C24_27  and  C26_29 
REMARK   18  A    between atoms: C29_33  and  O5_35 
ROOT
HETATM    1  C17 UNL     1      -7.913  47.977 -30.389  1.00  0.00     0.019 C 
HETATM    2  C19 UNL     1      -7.256  46.854 -31.339  1.00  0.00     0.029 C 
HETATM    3  C23 UNL     1      -8.261  45.778 -31.792  1.00  0.00    -0.066 C 
HETATM    4  C24 UNL     1      -8.045  44.434 -31.830  1.00  0.00    -0.021 C 
HETATM    5  C25 UNL     1      -9.070  43.421 -32.280  1.00  0.00     0.052 C 
HETATM    6  C27 UNL     1      -9.629  46.358 -32.057  1.00  0.00     0.038 C 
HETATM    7  C28 UNL     1     -10.238  46.921 -30.769  1.00  0.00     0.042 C 
HETATM    8  C29 UNL     1      -9.213  47.386 -29.697  1.00  0.00     0.065 C 
HETATM    9  C30 UNL     1      -8.951  46.252 -28.690  1.00  0.00     0.047 C 
ENDROOT
BRANCH   1  10
HETATM   10  C16 UNL     1      -6.870  48.530 -29.334  1.00  0.00     0.019 C 
BRANCH  10  11
HETATM   11  C15 UNL     1      -6.194  47.547 -28.363  1.00  0.00     0.028 C 
BRANCH  11  12
HETATM   12  C14 UNL     1      -4.792  47.991 -28.040  1.00  0.00    -0.024 C 
HETATM   13  C12 UNL     1      -4.274  48.308 -26.836  1.00  0.00    -0.085 C 
HETATM   14  C13 UNL     1      -5.048  48.332 -25.545  1.00  0.00     0.043 C 
BRANCH  13  15
HETATM   15  C11 UNL     1      -2.802  48.691 -26.715  1.00  0.00     0.069 C 
BRANCH  15  16
HETATM   16  C10 UNL     1      -2.508  50.175 -27.028  1.00  0.00     0.145 C 
BRANCH  16  17
HETATM   17  C9  UNL     1      -1.466  50.727 -26.092  1.00  0.00     0.007 C 
HETATM   18  C7  UNL     1      -0.299  51.326 -26.405  1.00  0.00    -0.085 C 
HETATM   19  C8  UNL     1       0.198  51.487 -27.821  1.00  0.00     0.043 C 
BRANCH  18  20
HETATM   20  C6  UNL     1       0.670  51.892 -25.371  1.00  0.00     0.037 C 
BRANCH  20  21
HETATM   21  C5  UNL     1       0.164  52.917 -24.340  1.00  0.00     0.031 C 
BRANCH  21  22
HETATM   22  C4  UNL     1       0.023  52.335 -22.957  1.00  0.00    -0.024 C 
HETATM   23  C2  UNL     1       0.549  52.792 -21.803  1.00  0.00    -0.091 C 
HETATM   24  C1  UNL     1       1.386  54.032 -21.653  1.00  0.00     0.042 C 
HETATM   25  C3  UNL     1       0.304  52.057 -20.509  1.00  0.00     0.042 C 
ENDBRANCH  21  22
ENDBRANCH  20  21
ENDBRANCH  18  20
ENDBRANCH  16  17
BRANCH  16  26
HETATM   26  O1  UNL     1      -3.667  50.993 -26.856  1.00  0.00    -0.391 OA
HETATM   27  H17 UNL     1      -4.353  50.460 -26.417  1.00  0.00     0.210 HD
ENDBRANCH  16  26
ENDBRANCH  15  16
ENDBRANCH  13  15
ENDBRANCH  11  12
ENDBRANCH  10  11
ENDBRANCH   1  10
BRANCH   1  28
HETATM   28  C18 UNL     1      -8.341  49.258 -31.213  1.00  0.00     0.177 C 
BRANCH  28  29
HETATM   29  O2  UNL     1      -8.645  50.374 -30.381  1.00  0.00    -0.400 OA
HETATM   30  H30 UNL     1      -9.312  50.060 -29.732  1.00  0.00     0.209 HD
ENDBRANCH  28  29
ENDBRANCH   1  28
BRANCH   2  31
HETATM   31  C20 UNL     1      -6.462  47.482 -32.520  1.00  0.00     0.012 C 
BRANCH  31  32
HETATM   32  C21 UNL     1      -4.953  47.658 -32.333  1.00  0.00     0.027 C 
BRANCH  32  33
HETATM   33  C22 UNL     1      -4.127  47.317 -33.565  1.00  0.00     0.164 C 
BRANCH  33  34
HETATM   34  O3  UNL     1      -2.864  47.958 -33.442  1.00  0.00    -0.401 OA
HETATM   35  H38 UNL     1      -2.347  47.736 -34.236  1.00  0.00     0.209 HD
ENDBRANCH  33  34
ENDBRANCH  32  33
ENDBRANCH  31  32
ENDBRANCH   2  31
BRANCH   8  36
HETATM   36  O5  UNL     1      -9.896  48.417 -28.951  1.00  0.00    -0.389 OA
HETATM   37  H50 UNL     1      -9.465  48.508 -28.080  1.00  0.00     0.210 HD
ENDBRANCH   8  36
BRANCH   4  38
HETATM   38  C26 UNL     1      -6.753  43.801 -31.403  1.00  0.00     0.265 C 
HETATM   39  O4  UNL     1      -6.536  42.598 -31.507  1.00  0.00    -0.302 OA
ENDBRANCH   4  38
TORSDOF 18
ENDMDL
MODEL 3
REMARK minimizedAffinity -8.11736393
REMARK  18 active torsions:
REMARK  status: ('A' for Active; 'I' for Inactive)
REMARK    1  A    between atoms: C4_4  and  C5_5 
REMARK    2  A    between atoms: C5_5  and  C6_6 
REMARK    3  A    between atoms: C6_6  and  C7_7 
REMARK    4  A    between atoms: C9_9  and  C10_10 
REMARK    5  A    between atoms: C10_10  and  O1_11 
REMARK    6  A    between atoms: C10_10  and  C11_12 
REMARK    7  A    between atoms: C11_12  and  C12_13 
REMARK    8  A    between atoms: C14_15  and  C15_16 
REMARK    9  A    between atoms: C15_16  and  C16_17 
REMARK   10  A    between atoms: C16_17  and  C17_18 
REMARK   11  A    between atoms: C17_18  and  C18_19 
REMARK   12  A    between atoms: C18_19  and  O2_20 
REMARK   13  A    between atoms: C19_21  and  C20_22 
REMARK   14  A    between atoms: C20_22  and  C21_23 
REMARK   15  A    between atoms: C21_23  and  C22_24 
REMARK   16  A    between atoms: C22_24  and  O3_25 
REMARK   17  A    between atoms: C24_27  and  C26_29 
REMARK   18  A    between atoms: C29_33  and  O5_35 
ROOT
HETATM    1  C17 UNL     1      -6.994  47.315 -30.353  1.00  0.00     0.019 C 
HETATM    2  C19 UNL     1      -7.284  46.059 -31.319  1.00  0.00     0.029 C 
HETATM    3  C23 UNL     1      -8.738  46.009 -31.830  1.00  0.00    -0.066 C 
HETATM    4  C24 UNL     1      -9.532  44.906 -31.903  1.00  0.00    -0.021 C 
HETATM    5  C25 UNL     1     -10.954  44.914 -32.408  1.00  0.00     0.052 C 
HETATM    6  C27 UNL     1      -9.285  47.387 -32.112  1.00  0.00     0.038 C 
HETATM    7  C28 UNL     1      -9.369  48.212 -30.823  1.00  0.00     0.042 C 
HETATM    8  C29 UNL     1      -8.358  47.813 -29.712  1.00  0.00     0.065 C 
HETATM    9  C30 UNL     1      -9.012  46.822 -28.733  1.00  0.00     0.047 C 
ENDROOT
BRANCH   1  10
HETATM   10  C16 UNL     1      -5.908  46.966 -29.256  1.00  0.00     0.019 C 
BRANCH  10  11
HETATM   11  C15 UNL     1      -5.870  47.782 -27.953  1.00  0.00     0.028 C 
BRANCH  11  12
HETATM   12  C14 UNL     1      -4.470  48.249 -27.652  1.00  0.00    -0.024 C 
HETATM   13  C12 UNL     1      -3.923  48.528 -26.451  1.00  0.00    -0.085 C 
HETATM   14  C13 UNL     1      -4.658  48.474 -25.138  1.00  0.00     0.043 C 
BRANCH  13  15
HETATM   15  C11 UNL     1      -2.460  48.946 -26.357  1.00  0.00     0.069 C 
BRANCH  15  16
HETATM   16  C10 UNL     1      -2.195  50.415 -26.755  1.00  0.00     0.145 C 
BRANCH  16  17
HETATM   17  C9  UNL     1      -1.129  51.026 -25.885  1.00  0.00     0.007 C 
HETATM   18  C7  UNL     1       0.089  51.474 -26.252  1.00  0.00    -0.085 C 
HETATM   19  C8  UNL     1       0.624  51.368 -27.659  1.00  0.00     0.043 C 
BRANCH  18  20
HETATM   20  C6  UNL     1       1.083  52.120 -25.290  1.00  0.00     0.037 C 
BRANCH  20  21
HETATM   21  C5  UNL     1       0.573  53.106 -24.225  1.00  0.00     0.031 C 
BRANCH  21  22
HETATM   22  C4  UNL     1       0.249  52.436 -22.913  1.00  0.00    -0.024 C 
HETATM   23  C2  UNL     1       0.591  52.830 -21.670  1.00  0.00    -0.091 C 
HETATM   24  C1  UNL     1       1.364  54.072 -21.327  1.00  0.00     0.042 C 
HETATM   25  C3  UNL     1       0.180  52.011 -20.472  1.00  0.00     0.042 C 
ENDBRANCH  21  22
ENDBRANCH  20  21
ENDBRANCH  18  20
ENDBRANCH  16  17
BRANCH  16  26
HETATM   26  O1  UNL     1      -3.358  51.228 -26.584  1.00  0.00    -0.391 OA
HETATM   27  H17 UNL     1      -4.022  50.711 -26.096  1.00  0.00     0.210 HD
ENDBRANCH  16  26
ENDBRANCH  15  16
ENDBRANCH  13  15
ENDBRANCH  11  12
ENDBRANCH  10  11
ENDBRANCH   1  10
BRANCH   1  28
HETATM   28  C18 UNL     1      -6.360  48.527 -31.149  1.00  0.00     0.177 C 
BRANCH  28  29
HETATM   29  O2  UNL     1      -4.941  48.578 -31.039  1.00  0.00    -0.400 OA
HETATM   30  H30 UNL     1      -4.738  48.565 -30.079  1.00  0.00     0.209 HD
ENDBRANCH  28  29
ENDBRANCH   1  28
BRANCH   2  31
HETATM   31  C20 UNL     1      -6.234  45.947 -32.461  1.00  0.00     0.012 C 
BRANCH  31  32
HETATM   32  C21 UNL     1      -5.049  45.007 -32.229  1.00  0.00     0.027 C 
BRANCH  32  33
HETATM   33  C22 UNL     1      -5.407  43.528 -32.266  1.00  0.00     0.164 C 
BRANCH  33  34
HETATM   34  O3  UNL     1      -5.569  43.145 -33.625  1.00  0.00    -0.401 OA
HETATM   35  H38 UNL     1      -5.802  42.200 -33.636  1.00  0.00     0.209 HD
ENDBRANCH  33  34
ENDBRANCH  32  33
ENDBRANCH  31  32
ENDBRANCH   2  31
BRANCH   8  36
HETATM   36  O5  UNL     1      -8.142  49.023 -28.953  1.00  0.00    -0.389 OA
HETATM   37  H50 UNL     1      -7.807  48.780 -28.070  1.00  0.00     0.210 HD
ENDBRANCH   8  36
BRANCH   4  38
HETATM   38  C26 UNL     1      -9.082  43.544 -31.462  1.00  0.00     0.265 C 
HETATM   39  O4  UNL     1      -9.861  42.614 -31.279  1.00  0.00    -0.302 OA
ENDBRANCH   4  38
TORSDOF 18
ENDMDL
MODEL 4
REMARK minimizedAffinity -8.03566074
REMARK  18 active torsions:
REMARK  status: ('A' for Active; 'I' for Inactive)
REMARK    1  A    between atoms: C4_4  and  C5_5 
REMARK    2  A    between atoms: C5_5  and  C6_6 
REMARK    3  A    between atoms: C6_6  and  C7_7 
REMARK    4  A    between atoms: C9_9  and  C10_10 
REMARK    5  A    between atoms: C10_10  and  O1_11 
REMARK    6  A    between atoms: C10_10  and  C11_12 
REMARK    7  A    between atoms: C11_12  and  C12_13 
REMARK    8  A    between atoms: C14_15  and  C15_16 
REMARK    9  A    between atoms: C15_16  and  C16_17 
REMARK   10  A    between atoms: C16_17  and  C17_18 
REMARK   11  A    between atoms: C17_18  and  C18_19 
REMARK   12  A    between atoms: C18_19  and  O2_20 
REMARK   13  A    between atoms: C19_21  and  C20_22 
REMARK   14  A    between atoms: C20_22  and  C21_23 
REMARK   15  A    between atoms: C21_23  and  C22_24 
REMARK   16  A    between atoms: C22_24  and  O3_25 
REMARK   17  A    between atoms: C24_27  and  C26_29 
REMARK   18  A    between atoms: C29_33  and  O5_35 
ROOT
HETATM    1  C17 UNL     1      -1.440  51.561 -26.300  1.00  0.00     0.019 C 
HETATM    2  C19 UNL     1      -1.440  52.021 -24.756  1.00  0.00     0.029 C 
HETATM    3  C23 UNL     1      -0.415  53.132 -24.455  1.00  0.00    -0.066 C 
HETATM    4  C24 UNL     1       0.419  53.193 -23.381  1.00  0.00    -0.021 C 
HETATM    5  C25 UNL     1       1.411  54.304 -23.136  1.00  0.00     0.052 C 
HETATM    6  C27 UNL     1      -0.300  54.119 -25.591  1.00  0.00     0.038 C 
HETATM    7  C28 UNL     1       0.247  53.436 -26.849  1.00  0.00     0.042 C 
HETATM    8  C29 UNL     1      -0.038  51.911 -26.955  1.00  0.00     0.065 C 
HETATM    9  C30 UNL     1       1.154  51.111 -26.400  1.00  0.00     0.047 C 
ENDROOT
BRANCH   1  10
HETATM   10  C16 UNL     1      -1.805  50.027 -26.449  1.00  0.00     0.019 C 
BRANCH  10  11
HETATM   11  C15 UNL     1      -2.957  49.618 -27.383  1.00  0.00     0.028 C 
BRANCH  11  12
HETATM   12  C14 UNL     1      -4.087  49.000 -26.603  1.00  0.00    -0.024 C 
HETATM   13  C12 UNL     1      -5.130  48.284 -27.070  1.00  0.00    -0.085 C 
HETATM   14  C13 UNL     1      -5.398  48.004 -28.524  1.00  0.00     0.043 C 
BRANCH  13  15
HETATM   15  C11 UNL     1      -6.152  47.700 -26.100  1.00  0.00     0.069 C 
BRANCH  15  16
HETATM   16  C10 UNL     1      -6.014  48.218 -24.651  1.00  0.00     0.145 C 
BRANCH  16  17
HETATM   17  C9  UNL     1      -4.570  48.245 -24.223  1.00  0.00     0.007 C 
HETATM   18  C7  UNL     1      -4.074  48.400 -22.978  1.00  0.00    -0.085 C 
HETATM   19  C8  UNL     1      -4.936  48.647 -21.765  1.00  0.00     0.043 C 
BRANCH  18  20
HETATM   20  C6  UNL     1      -2.584  48.368 -22.648  1.00  0.00     0.037 C 
BRANCH  20  21
HETATM   21  C5  UNL     1      -2.067  47.396 -21.573  1.00  0.00     0.031 C 
BRANCH  21  22
HETATM   22  C4  UNL     1      -1.228  48.078 -20.522  1.00  0.00    -0.024 C 
HETATM   23  C2  UNL     1      -1.625  48.585 -19.338  1.00  0.00    -0.091 C 
HETATM   24  C1  UNL     1      -3.027  48.546 -18.796  1.00  0.00     0.042 C 
HETATM   25  C3  UNL     1      -0.630  49.248 -18.419  1.00  0.00     0.042 C 
ENDBRANCH  21  22
ENDBRANCH  20  21
ENDBRANCH  18  20
ENDBRANCH  16  17
BRANCH  16  26
HETATM   26  O1  UNL     1      -6.686  47.368 -23.718  1.00  0.00    -0.391 OA
HETATM   27  H17 UNL     1      -6.948  46.555 -24.182  1.00  0.00     0.210 HD
ENDBRANCH  16  26
ENDBRANCH  15  16
ENDBRANCH  13  15
ENDBRANCH  11  12
ENDBRANCH  10  11
ENDBRANCH   1  10
BRANCH   1  28
HETATM   28  C18 UNL     1      -2.564  52.305 -27.129  1.00  0.00     0.177 C 
BRANCH  28  29
HETATM   29  O2  UNL     1      -2.048  53.361 -27.933  1.00  0.00    -0.400 OA
HETATM   30  H30 UNL     1      -1.531  53.939 -27.331  1.00  0.00     0.209 HD
ENDBRANCH  28  29
ENDBRANCH   1  28
BRANCH   2  31
HETATM   31  C20 UNL     1      -2.870  52.359 -24.248  1.00  0.00     0.012 C 
BRANCH  31  32
HETATM   32  C21 UNL     1      -3.210  51.972 -22.807  1.00  0.00     0.027 C 
BRANCH  32  33
HETATM   33  C22 UNL     1      -4.678  52.139 -22.444  1.00  0.00     0.164 C 
BRANCH  33  34
HETATM   34  O3  UNL     1      -5.417  52.294 -23.648  1.00  0.00    -0.401 OA
HETATM   35  H38 UNL     1      -6.353  52.403 -23.403  1.00  0.00     0.209 HD
ENDBRANCH  33  34
ENDBRANCH  32  33
ENDBRANCH  31  32
ENDBRANCH   2  31
BRANCH   8  36
HETATM   36  O5  UNL     1      -0.065  51.634 -28.372  1.00  0.00    -0.389 OA
HETATM   37  H50 UNL     1       0.103  50.683 -28.507  1.00  0.00     0.210 HD
ENDBRANCH   8  36
BRANCH   4  38
HETATM   38  C26 UNL     1       0.461  52.134 -22.317  1.00  0.00     0.265 C 
HETATM   39  O4  UNL     1       1.270  52.152 -21.395  1.00  0.00    -0.302 OA
ENDBRANCH   4  38
TORSDOF 18
ENDMDL
MODEL 5
REMARK minimizedAffinity -8.01005268
REMARK  18 active torsions:
REMARK  status: ('A' for Active; 'I' for Inactive)
REMARK    1  A    between atoms: C4_4  and  C5_5 
REMARK    2  A    between atoms: C5_5  and  C6_6 
REMARK    3  A    between atoms: C6_6  and  C7_7 
REMARK    4  A    between atoms: C9_9  and  C10_10 
REMARK    5  A    between atoms: C10_10  and  O1_11 
REMARK    6  A    between atoms: C10_10  and  C11_12 
REMARK    7  A    between atoms: C11_12  and  C12_13 
REMARK    8  A    between atoms: C14_15  and  C15_16 
REMARK    9  A    between atoms: C15_16  and  C16_17 
REMARK   10  A    between atoms: C16_17  and  C17_18 
REMARK   11  A    between atoms: C17_18  and  C18_19 
REMARK   12  A    between atoms: C18_19  and  O2_20 
REMARK   13  A    between atoms: C19_21  and  C20_22 
REMARK   14  A    between atoms: C20_22  and  C21_23 
REMARK   15  A    between atoms: C21_23  and  C22_24 
REMARK   16  A    between atoms: C22_24  and  O3_25 
REMARK   17  A    between atoms: C24_27  and  C26_29 
REMARK   18  A    between atoms: C29_33  and  O5_35 
ROOT
HETATM    1  C17 UNL     1      -2.606  50.897 -24.963  1.00  0.00     0.019 C 
HETATM    2  C19 UNL     1      -1.123  51.511 -25.101  1.00  0.00     0.029 C 
HETATM    3  C23 UNL     1      -0.697  51.745 -26.564  1.00  0.00    -0.066 C 
HETATM    4  C24 UNL     1       0.513  51.447 -27.111  1.00  0.00    -0.021 C 
HETATM    5  C25 UNL     1       0.877  51.693 -28.555  1.00  0.00     0.052 C 
HETATM    6  C27 UNL     1      -1.848  52.216 -27.419  1.00  0.00     0.038 C 
HETATM    7  C28 UNL     1      -2.931  51.136 -27.513  1.00  0.00     0.042 C 
HETATM    8  C29 UNL     1      -2.996  50.154 -26.311  1.00  0.00     0.065 C 
HETATM    9  C30 UNL     1      -2.171  48.890 -26.615  1.00  0.00     0.047 C 
ENDROOT
BRANCH   1  10
HETATM   10  C16 UNL     1      -2.728  49.951 -23.700  1.00  0.00     0.019 C 
BRANCH  10  11
HETATM   11  C15 UNL     1      -3.385  48.569 -23.858  1.00  0.00     0.028 C 
BRANCH  11  12
HETATM   12  C14 UNL     1      -4.343  48.297 -22.729  1.00  0.00    -0.024 C 
HETATM   13  C12 UNL     1      -4.126  47.586 -21.603  1.00  0.00    -0.085 C 
HETATM   14  C13 UNL     1      -2.850  46.856 -21.280  1.00  0.00     0.043 C 
BRANCH  13  15
HETATM   15  C11 UNL     1      -5.224  47.468 -20.551  1.00  0.00     0.069 C 
BRANCH  15  16
HETATM   16  C10 UNL     1      -5.506  48.777 -19.782  1.00  0.00     0.145 C 
BRANCH  16  17
HETATM   17  C9  UNL     1      -4.224  49.494 -19.449  1.00  0.00     0.007 C 
HETATM   18  C7  UNL     1      -3.790  50.683 -19.914  1.00  0.00    -0.085 C 
HETATM   19  C8  UNL     1      -4.537  51.494 -20.945  1.00  0.00     0.043 C 
BRANCH  18  20
HETATM   20  C6  UNL     1      -2.486  51.343 -19.474  1.00  0.00     0.037 C 
BRANCH  20  21
HETATM   21  C5  UNL     1      -1.167  50.944 -20.158  1.00  0.00     0.031 C 
BRANCH  21  22
HETATM   22  C4  UNL     1      -0.394  52.130 -20.677  1.00  0.00    -0.024 C 
HETATM   23  C2  UNL     1       0.450  52.934 -20.001  1.00  0.00    -0.091 C 
HETATM   24  C1  UNL     1       0.826  52.789 -18.553  1.00  0.00     0.042 C 
HETATM   25  C3  UNL     1       1.125  54.089 -20.697  1.00  0.00     0.042 C 
ENDBRANCH  21  22
ENDBRANCH  20  21
ENDBRANCH  18  20
ENDBRANCH  16  17
BRANCH  16  26
HETATM   26  O1  UNL     1      -6.156  48.530 -18.533  1.00  0.00    -0.391 OA
HETATM   27  H17 UNL     1      -6.132  47.572 -18.363  1.00  0.00     0.210 HD
ENDBRANCH  16  26
ENDBRANCH  15  16
ENDBRANCH  13  15
ENDBRANCH  11  12
ENDBRANCH  10  11
ENDBRANCH   1  10
BRANCH   1  28
HETATM   28  C18 UNL     1      -3.682  52.027 -24.703  1.00  0.00     0.177 C 
BRANCH  28  29
HETATM   29  O2  UNL     1      -4.977  51.502 -24.425  1.00  0.00    -0.400 OA
HETATM   30  H30 UNL     1      -5.192  50.892 -25.163  1.00  0.00     0.209 HD
ENDBRANCH  28  29
ENDBRANCH   1  28
BRANCH   2  31
HETATM   31  C20 UNL     1      -0.925  52.764 -24.202  1.00  0.00     0.012 C 
BRANCH  31  32
HETATM   32  C21 UNL     1       0.433  53.466 -24.271  1.00  0.00     0.027 C 
BRANCH  32  33
HETATM   33  C22 UNL     1       0.359  54.931 -24.680  1.00  0.00     0.164 C 
BRANCH  33  34
HETATM   34  O3  UNL     1       0.254  54.991 -26.096  1.00  0.00    -0.401 OA
HETATM   35  H38 UNL     1       0.211  55.930 -26.345  1.00  0.00     0.209 HD
ENDBRANCH  33  34
ENDBRANCH  32  33
ENDBRANCH  31  32
ENDBRANCH   2  31
BRANCH   8  36
HETATM   36  O5  UNL     1      -4.371  49.716 -26.261  1.00  0.00    -0.389 OA
HETATM   37  H50 UNL     1      -4.412  48.871 -25.775  1.00  0.00     0.210 HD
ENDBRANCH   8  36
BRANCH   4  38
HETATM   38  C26 UNL     1       1.628  50.810 -26.333  1.00  0.00     0.265 C 
HETATM   39  O4  UNL     1       2.808  51.096 -26.508  1.00  0.00    -0.302 OA
ENDBRANCH   4  38
TORSDOF 18
ENDMDL
MODEL 6
REMARK minimizedAffinity -7.97262812
REMARK  18 active torsions:
REMARK  status: ('A' for Active; 'I' for Inactive)
REMARK    1  A    between atoms: C4_4  and  C5_5 
REMARK    2  A    between atoms: C5_5  and  C6_6 
REMARK    3  A    between atoms: C6_6  and  C7_7 
REMARK    4  A    between atoms: C9_9  and  C10_10 
REMARK    5  A    between atoms: C10_10  and  O1_11 
REMARK    6  A    between atoms: C10_10  and  C11_12 
REMARK    7  A    between atoms: C11_12  and  C12_13 
REMARK    8  A    between atoms: C14_15  and  C15_16 
REMARK    9  A    between atoms: C15_16  and  C16_17 
REMARK   10  A    between atoms: C16_17  and  C17_18 
REMARK   11  A    between atoms: C17_18  and  C18_19 
REMARK   12  A    between atoms: C18_19  and  O2_20 
REMARK   13  A    between atoms: C19_21  and  C20_22 
REMARK   14  A    between atoms: C20_22  and  C21_23 
REMARK   15  A    between atoms: C21_23  and  C22_24 
REMARK   16  A    between atoms: C22_24  and  O3_25 
REMARK   17  A    between atoms: C24_27  and  C26_29 
REMARK   18  A    between atoms: C29_33  and  O5_35 
ROOT
HETATM    1  C17 UNL     1      -1.346  51.395 -26.046  1.00  0.00     0.019 C 
HETATM    2  C19 UNL     1      -1.492  51.793 -24.492  1.00  0.00     0.029 C 
HETATM    3  C23 UNL     1      -0.478  52.862 -24.041  1.00  0.00    -0.066 C 
HETATM    4  C24 UNL     1       0.243  52.857 -22.887  1.00  0.00    -0.021 C 
HETATM    5  C25 UNL     1       1.230  53.931 -22.496  1.00  0.00     0.052 C 
HETATM    6  C27 UNL     1      -0.225  53.891 -25.117  1.00  0.00     0.038 C 
HETATM    7  C28 UNL     1       0.431  53.245 -26.342  1.00  0.00     0.042 C 
HETATM    8  C29 UNL     1       0.123  51.734 -26.541  1.00  0.00     0.065 C 
HETATM    9  C30 UNL     1       1.234  50.880 -25.903  1.00  0.00     0.047 C 
ENDROOT
BRANCH   1  10
HETATM   10  C16 UNL     1      -1.729  49.880 -26.297  1.00  0.00     0.019 C 
BRANCH  10  11
HETATM   11  C15 UNL     1      -3.206  49.458 -26.225  1.00  0.00     0.028 C 
BRANCH  11  12
HETATM   12  C14 UNL     1      -3.660  48.865 -27.533  1.00  0.00    -0.024 C 
HETATM   13  C12 UNL     1      -4.802  48.197 -27.795  1.00  0.00    -0.085 C 
HETATM   14  C13 UNL     1      -5.854  47.858 -26.773  1.00  0.00     0.043 C 
BRANCH  13  15
HETATM   15  C11 UNL     1      -5.096  47.714 -29.211  1.00  0.00     0.069 C 
BRANCH  15  16
HETATM   16  C10 UNL     1      -5.666  48.804 -30.145  1.00  0.00     0.145 C 
BRANCH  16  17
HETATM   17  C9  UNL     1      -6.408  48.188 -31.302  1.00  0.00     0.007 C 
HETATM   18  C7  UNL     1      -7.701  48.359 -31.647  1.00  0.00    -0.085 C 
HETATM   19  C8  UNL     1      -8.672  49.191 -30.845  1.00  0.00     0.043 C 
BRANCH  18  20
HETATM   20  C6  UNL     1      -8.345  47.717 -32.873  1.00  0.00     0.037 C 
BRANCH  20  21
HETATM   21  C5  UNL     1      -7.702  46.468 -33.500  1.00  0.00     0.031 C 
BRANCH  21  22
HETATM   22  C4  UNL     1      -7.731  45.272 -32.582  1.00  0.00    -0.024 C 
HETATM   23  C2  UNL     1      -6.687  44.603 -32.052  1.00  0.00    -0.091 C 
HETATM   24  C1  UNL     1      -5.237  44.944 -32.252  1.00  0.00     0.042 C 
HETATM   25  C3  UNL     1      -6.921  43.412 -31.158  1.00  0.00     0.042 C 
ENDBRANCH  21  22
ENDBRANCH  20  21
ENDBRANCH  18  20
ENDBRANCH  16  17
BRANCH  16  26
HETATM   26  O1  UNL     1      -4.631  49.604 -30.721  1.00  0.00    -0.391 OA
HETATM   27  H17 UNL     1      -3.777  49.181 -30.526  1.00  0.00     0.210 HD
ENDBRANCH  16  26
ENDBRANCH  15  16
ENDBRANCH  13  15
ENDBRANCH  11  12
ENDBRANCH  10  11
ENDBRANCH   1  10
BRANCH   1  28
HETATM   28  C18 UNL     1      -2.362  52.202 -26.952  1.00  0.00     0.177 C 
BRANCH  28  29
HETATM   29  O2  UNL     1      -3.336  52.912 -26.191  1.00  0.00    -0.400 OA
HETATM   30  H30 UNL     1      -3.751  52.254 -25.592  1.00  0.00     0.209 HD
ENDBRANCH  28  29
ENDBRANCH   1  28
BRANCH   2  31
HETATM   31  C20 UNL     1      -2.959  52.149 -24.117  1.00  0.00     0.012 C 
BRANCH  31  32
HETATM   32  C21 UNL     1      -3.631  51.294 -23.039  1.00  0.00     0.027 C 
BRANCH  32  33
HETATM   33  C22 UNL     1      -5.135  51.133 -23.217  1.00  0.00     0.164 C 
BRANCH  33  34
HETATM   34  O3  UNL     1      -5.509  51.781 -24.425  1.00  0.00    -0.401 OA
HETATM   35  H38 UNL     1      -6.471  51.675 -24.527  1.00  0.00     0.209 HD
ENDBRANCH  33  34
ENDBRANCH  32  33
ENDBRANCH  31  32
ENDBRANCH   2  31
BRANCH   8  36
HETATM   36  O5  UNL     1       0.235  51.516 -27.964  1.00  0.00    -0.389 OA
HETATM   37  H50 UNL     1       0.393  50.566 -28.122  1.00  0.00     0.210 HD
ENDBRANCH   8  36
BRANCH   4  38
HETATM   38  C26 UNL     1       0.153  51.756 -21.871  1.00  0.00     0.265 C 
HETATM   39  O4  UNL     1      -0.308  50.649 -22.130  1.00  0.00    -0.302 OA
ENDBRANCH   4  38
TORSDOF 18
ENDMDL
MODEL 7
REMARK minimizedAffinity -7.95136452
REMARK  18 active torsions:
REMARK  status: ('A' for Active; 'I' for Inactive)
REMARK    1  A    between atoms: C4_4  and  C5_5 
REMARK    2  A    between atoms: C5_5  and  C6_6 
REMARK    3  A    between atoms: C6_6  and  C7_7 
REMARK    4  A    between atoms: C9_9  and  C10_10 
REMARK    5  A    between atoms: C10_10  and  O1_11 
REMARK    6  A    between atoms: C10_10  and  C11_12 
REMARK    7  A    between atoms: C11_12  and  C12_13 
REMARK    8  A    between atoms: C14_15  and  C15_16 
REMARK    9  A    between atoms: C15_16  and  C16_17 
REMARK   10  A    between atoms: C16_17  and  C17_18 
REMARK   11  A    between atoms: C17_18  and  C18_19 
REMARK   12  A    between atoms: C18_19  and  O2_20 
REMARK   13  A    between atoms: C19_21  and  C20_22 
REMARK   14  A    between atoms: C20_22  and  C21_23 
REMARK   15  A    between atoms: C21_23  and  C22_24 
REMARK   16  A    between atoms: C22_24  and  O3_25 
REMARK   17  A    between atoms: C24_27  and  C26_29 
REMARK   18  A    between atoms: C29_33  and  O5_35 
ROOT
HETATM    1  C17 UNL     1      -2.506  50.610 -24.475  1.00  0.00     0.019 C 
HETATM    2  C19 UNL     1      -1.031  51.243 -24.607  1.00  0.00     0.029 C 
HETATM    3  C23 UNL     1      -0.731  51.797 -26.014  1.00  0.00    -0.066 C 
HETATM    4  C24 UNL     1       0.420  51.630 -26.720  1.00  0.00    -0.021 C 
HETATM    5  C25 UNL     1       0.660  52.191 -28.101  1.00  0.00     0.052 C 
HETATM    6  C27 UNL     1      -1.945  52.442 -26.637  1.00  0.00     0.038 C 
HETATM    7  C28 UNL     1      -3.051  51.408 -26.869  1.00  0.00     0.042 C 
HETATM    8  C29 UNL     1      -3.027  50.183 -25.912  1.00  0.00     0.065 C 
HETATM    9  C30 UNL     1      -2.254  49.021 -26.561  1.00  0.00     0.047 C 
ENDROOT
BRANCH   1  10
HETATM   10  C16 UNL     1      -2.533  49.408 -23.446  1.00  0.00     0.019 C 
BRANCH  10  11
HETATM   11  C15 UNL     1      -3.322  49.561 -22.134  1.00  0.00     0.028 C 
BRANCH  11  12
HETATM   12  C14 UNL     1      -2.405  49.923 -20.995  1.00  0.00    -0.024 C 
HETATM   13  C12 UNL     1      -1.360  49.223 -20.510  1.00  0.00    -0.085 C 
HETATM   14  C13 UNL     1      -0.931  47.867 -21.001  1.00  0.00     0.043 C 
BRANCH  13  15
HETATM   15  C11 UNL     1      -0.523  49.793 -19.370  1.00  0.00     0.069 C 
BRANCH  15  16
HETATM   16  C10 UNL     1      -1.034  49.417 -17.961  1.00  0.00     0.145 C 
BRANCH  16  17
HETATM   17  C9  UNL     1       0.086  49.451 -16.955  1.00  0.00     0.007 C 
HETATM   18  C7  UNL     1       0.010  49.716 -15.634  1.00  0.00    -0.085 C 
HETATM   19  C8  UNL     1      -1.271  50.100 -14.936  1.00  0.00     0.043 C 
BRANCH  18  20
HETATM   20  C6  UNL     1       1.209  49.680 -14.690  1.00  0.00     0.037 C 
BRANCH  20  21
HETATM   21  C5  UNL     1       1.721  50.991 -14.067  1.00  0.00     0.031 C 
BRANCH  21  22
HETATM   22  C4  UNL     1       3.005  51.474 -14.693  1.00  0.00    -0.024 C 
HETATM   23  C2  UNL     1       3.165  52.166 -15.839  1.00  0.00    -0.091 C 
HETATM   24  C1  UNL     1       2.056  52.635 -16.739  1.00  0.00     0.042 C 
HETATM   25  C3  UNL     1       4.544  52.551 -16.311  1.00  0.00     0.042 C 
ENDBRANCH  21  22
ENDBRANCH  20  21
ENDBRANCH  18  20
ENDBRANCH  16  17
BRANCH  16  26
HETATM   26  O1  UNL     1      -1.557  48.088 -17.924  1.00  0.00    -0.391 OA
HETATM   27  H17 UNL     1      -1.327  47.647 -18.760  1.00  0.00     0.210 HD
ENDBRANCH  16  26
ENDBRANCH  15  16
ENDBRANCH  13  15
ENDBRANCH  11  12
ENDBRANCH  10  11
ENDBRANCH   1  10
BRANCH   1  28
HETATM   28  C18 UNL     1      -3.535  51.652 -23.875  1.00  0.00     0.177 C 
BRANCH  28  29
HETATM   29  O2  UNL     1      -2.904  52.830 -23.382  1.00  0.00    -0.400 OA
HETATM   30  H30 UNL     1      -2.210  52.529 -22.756  1.00  0.00     0.209 HD
ENDBRANCH  28  29
ENDBRANCH   1  28
BRANCH   2  31
HETATM   31  C20 UNL     1      -0.732  52.266 -23.474  1.00  0.00     0.012 C 
BRANCH  31  32
HETATM   32  C21 UNL     1       0.739  52.570 -23.177  1.00  0.00     0.027 C 
BRANCH  32  33
HETATM   33  C22 UNL     1       0.957  53.514 -22.004  1.00  0.00     0.164 C 
BRANCH  33  34
HETATM   34  O3  UNL     1       1.637  54.666 -22.483  1.00  0.00    -0.401 OA
HETATM   35  H38 UNL     1       1.774  55.260 -21.724  1.00  0.00     0.209 HD
ENDBRANCH  33  34
ENDBRANCH  32  33
ENDBRANCH  31  32
ENDBRANCH   2  31
BRANCH   8  36
HETATM   36  O5  UNL     1      -4.400  49.742 -25.836  1.00  0.00    -0.389 OA
HETATM   37  H50 UNL     1      -4.412  48.810 -25.547  1.00  0.00     0.210 HD
ENDBRANCH   8  36
BRANCH   4  38
HETATM   38  C26 UNL     1       1.588  50.839 -26.206  1.00  0.00     0.265 C 
HETATM   39  O4  UNL     1       2.739  51.036 -26.580  1.00  0.00    -0.302 OA
ENDBRANCH   4  38
TORSDOF 18
ENDMDL
MODEL 8
REMARK minimizedAffinity -7.88445807
REMARK  18 active torsions:
REMARK  status: ('A' for Active; 'I' for Inactive)
REMARK    1  A    between atoms: C4_4  and  C5_5 
REMARK    2  A    between atoms: C5_5  and  C6_6 
REMARK    3  A    between atoms: C6_6  and  C7_7 
REMARK    4  A    between atoms: C9_9  and  C10_10 
REMARK    5  A    between atoms: C10_10  and  O1_11 
REMARK    6  A    between atoms: C10_10  and  C11_12 
REMARK    7  A    between atoms: C11_12  and  C12_13 
REMARK    8  A    between atoms: C14_15  and  C15_16 
REMARK    9  A    between atoms: C15_16  and  C16_17 
REMARK   10  A    between atoms: C16_17  and  C17_18 
REMARK   11  A    between atoms: C17_18  and  C18_19 
REMARK   12  A    between atoms: C18_19  and  O2_20 
REMARK   13  A    between atoms: C19_21  and  C20_22 
REMARK   14  A    between atoms: C20_22  and  C21_23 
REMARK   15  A    between atoms: C21_23  and  C22_24 
REMARK   16  A    between atoms: C22_24  and  O3_25 
REMARK   17  A    between atoms: C24_27  and  C26_29 
REMARK   18  A    between atoms: C29_33  and  O5_35 
ROOT
HETATM    1  C17 UNL     1      -7.596  46.876 -30.112  1.00  0.00     0.019 C 
HETATM    2  C19 UNL     1      -8.619  46.604 -28.898  1.00  0.00     0.029 C 
HETATM    3  C23 UNL     1     -10.090  46.866 -29.273  1.00  0.00    -0.066 C 
HETATM    4  C24 UNL     1     -11.014  47.518 -28.516  1.00  0.00    -0.021 C 
HETATM    5  C25 UNL     1     -12.446  47.752 -28.935  1.00  0.00     0.052 C 
HETATM    6  C27 UNL     1     -10.395  46.450 -30.692  1.00  0.00     0.038 C 
HETATM    7  C28 UNL     1      -9.597  47.298 -31.688  1.00  0.00     0.042 C 
HETATM    8  C29 UNL     1      -8.261  47.880 -31.146  1.00  0.00     0.065 C 
HETATM    9  C30 UNL     1      -8.484  49.305 -30.612  1.00  0.00     0.047 C 
ENDROOT
BRANCH   1  10
HETATM   10  C16 UNL     1      -6.196  47.395 -29.588  1.00  0.00     0.019 C 
BRANCH  10  11
HETATM   11  C15 UNL     1      -6.049  47.789 -28.109  1.00  0.00     0.028 C 
BRANCH  11  12
HETATM   12  C14 UNL     1      -4.633  48.201 -27.801  1.00  0.00    -0.024 C 
HETATM   13  C12 UNL     1      -4.076  48.437 -26.595  1.00  0.00    -0.085 C 
HETATM   14  C13 UNL     1      -4.811  48.384 -25.283  1.00  0.00     0.043 C 
BRANCH  13  15
HETATM   15  C11 UNL     1      -2.599  48.803 -26.495  1.00  0.00     0.069 C 
BRANCH  15  16
HETATM   16  C10 UNL     1      -2.286  50.272 -26.856  1.00  0.00     0.145 C 
BRANCH  16  17
HETATM   17  C9  UNL     1      -1.212  50.830 -25.960  1.00  0.00     0.007 C 
HETATM   18  C7  UNL     1      -0.036  51.386 -26.317  1.00  0.00    -0.085 C 
HETATM   19  C8  UNL     1       0.438  51.482 -27.746  1.00  0.00     0.043 C 
BRANCH  18  20
HETATM   20  C6  UNL     1       0.967  51.963 -25.322  1.00  0.00     0.037 C 
BRANCH  20  21
HETATM   21  C5  UNL     1       0.509  53.040 -24.322  1.00  0.00     0.031 C 
BRANCH  21  22
HETATM   22  C4  UNL     1       0.286  52.493 -22.935  1.00  0.00    -0.024 C 
HETATM   23  C2  UNL     1       0.722  52.994 -21.762  1.00  0.00    -0.091 C 
HETATM   24  C1  UNL     1       1.521  54.256 -21.592  1.00  0.00     0.042 C 
HETATM   25  C3  UNL     1       0.403  52.291 -20.467  1.00  0.00     0.042 C 
ENDBRANCH  21  22
ENDBRANCH  20  21
ENDBRANCH  18  20
ENDBRANCH  16  17
BRANCH  16  26
HETATM   26  O1  UNL     1      -3.425  51.116 -26.680  1.00  0.00    -0.391 OA
HETATM   27  H17 UNL     1      -4.110  50.608 -26.211  1.00  0.00     0.210 HD
ENDBRANCH  16  26
ENDBRANCH  15  16
ENDBRANCH  13  15
ENDBRANCH  11  12
ENDBRANCH  10  11
ENDBRANCH   1  10
BRANCH   1  28
HETATM   28  C18 UNL     1      -7.245  45.542 -30.887  1.00  0.00     0.177 C 
BRANCH  28  29
HETATM   29  O2  UNL     1      -5.903  45.517 -31.364  1.00  0.00    -0.400 OA
HETATM   30  H30 UNL     1      -5.780  46.340 -31.885  1.00  0.00     0.209 HD
ENDBRANCH  28  29
ENDBRANCH   1  28
BRANCH   2  31
HETATM   31  C20 UNL     1      -8.396  45.208 -28.249  1.00  0.00     0.012 C 
BRANCH  31  32
HETATM   32  C21 UNL     1      -9.591  44.568 -27.538  1.00  0.00     0.027 C 
BRANCH  32  33
HETATM   33  C22 UNL     1      -9.259  43.287 -26.787  1.00  0.00     0.164 C 
BRANCH  33  34
HETATM   34  O3  UNL     1     -10.210  42.298 -27.155  1.00  0.00    -0.401 OA
HETATM   35  H38 UNL     1      -9.990  41.486 -26.666  1.00  0.00     0.209 HD
ENDBRANCH  33  34
ENDBRANCH  32  33
ENDBRANCH  31  32
ENDBRANCH   2  31
BRANCH   8  36
HETATM   36  O5  UNL     1      -7.420  48.029 -32.310  1.00  0.00    -0.389 OA
HETATM   37  H50 UNL     1      -6.726  48.684 -32.110  1.00  0.00     0.210 HD
ENDBRANCH   8  36
BRANCH   4  38
HETATM   38  C26 UNL     1     -10.702  48.106 -27.170  1.00  0.00     0.265 C 
HETATM   39  O4  UNL     1     -11.556  48.618 -26.454  1.00  0.00    -0.302 OA
ENDBRANCH   4  38
TORSDOF 18
ENDMDL
MODEL 9
REMARK minimizedAffinity -7.86541033
REMARK  18 active torsions:
REMARK  status: ('A' for Active; 'I' for Inactive)
REMARK    1  A    between atoms: C4_4  and  C5_5 
REMARK    2  A    between atoms: C5_5  and  C6_6 
REMARK    3  A    between atoms: C6_6  and  C7_7 
REMARK    4  A    between atoms: C9_9  and  C10_10 
REMARK    5  A    between atoms: C10_10  and  O1_11 
REMARK    6  A    between atoms: C10_10  and  C11_12 
REMARK    7  A    between atoms: C11_12  and  C12_13 
REMARK    8  A    between atoms: C14_15  and  C15_16 
REMARK    9  A    between atoms: C15_16  and  C16_17 
REMARK   10  A    between atoms: C16_17  and  C17_18 
REMARK   11  A    between atoms: C17_18  and  C18_19 
REMARK   12  A    between atoms: C18_19  and  O2_20 
REMARK   13  A    between atoms: C19_21  and  C20_22 
REMARK   14  A    between atoms: C20_22  and  C21_23 
REMARK   15  A    between atoms: C21_23  and  C22_24 
REMARK   16  A    between atoms: C22_24  and  O3_25 
REMARK   17  A    between atoms: C24_27  and  C26_29 
REMARK   18  A    between atoms: C29_33  and  O5_35 
ROOT
HETATM    1  C17 UNL     1      -2.502  51.086 -24.503  1.00  0.00     0.019 C 
HETATM    2  C19 UNL     1      -1.029  51.657 -24.822  1.00  0.00     0.029 C 
HETATM    3  C23 UNL     1      -0.765  51.846 -26.328  1.00  0.00    -0.066 C 
HETATM    4  C24 UNL     1       0.367  51.503 -27.001  1.00  0.00    -0.021 C 
HETATM    5  C25 UNL     1       0.572  51.707 -28.482  1.00  0.00     0.052 C 
HETATM    6  C27 UNL     1      -1.994  52.329 -27.061  1.00  0.00     0.038 C 
HETATM    7  C28 UNL     1      -3.107  51.277 -27.005  1.00  0.00     0.042 C 
HETATM    8  C29 UNL     1      -3.060  50.324 -25.778  1.00  0.00     0.065 C 
HETATM    9  C30 UNL     1      -2.306  49.032 -26.141  1.00  0.00     0.047 C 
ENDROOT
BRANCH   1  10
HETATM   10  C16 UNL     1      -2.503  50.173 -23.209  1.00  0.00     0.019 C 
BRANCH  10  11
HETATM   11  C15 UNL     1      -3.023  48.729 -23.312  1.00  0.00     0.028 C 
BRANCH  11  12
HETATM   12  C14 UNL     1      -3.270  48.148 -21.945  1.00  0.00    -0.024 C 
HETATM   13  C12 UNL     1      -2.365  47.690 -21.057  1.00  0.00    -0.085 C 
HETATM   14  C13 UNL     1      -0.882  47.619 -21.299  1.00  0.00     0.043 C 
BRANCH  13  15
HETATM   15  C11 UNL     1      -2.823  47.180 -19.694  1.00  0.00     0.069 C 
BRANCH  15  16
HETATM   16  C10 UNL     1      -2.944  48.279 -18.616  1.00  0.00     0.145 C 
BRANCH  16  17
HETATM   17  C9  UNL     1      -1.653  49.040 -18.475  1.00  0.00     0.007 C 
HETATM   18  C7  UNL     1      -1.446  50.365 -18.627  1.00  0.00    -0.085 C 
HETATM   19  C8  UNL     1      -2.526  51.331 -19.046  1.00  0.00     0.043 C 
BRANCH  18  20
HETATM   20  C6  UNL     1      -0.095  51.043 -18.416  1.00  0.00     0.037 C 
BRANCH  20  21
HETATM   21  C5  UNL     1       0.308  51.507 -17.005  1.00  0.00     0.031 C 
BRANCH  21  22
HETATM   22  C4  UNL     1       1.652  52.190 -16.975  1.00  0.00    -0.024 C 
HETATM   23  C2  UNL     1       2.603  52.117 -16.022  1.00  0.00    -0.091 C 
HETATM   24  C1  UNL     1       2.524  51.291 -14.769  1.00  0.00     0.042 C 
HETATM   25  C3  UNL     1       3.889  52.891 -16.167  1.00  0.00     0.042 C 
ENDBRANCH  21  22
ENDBRANCH  20  21
ENDBRANCH  18  20
ENDBRANCH  16  17
BRANCH  16  26
HETATM   26  O1  UNL     1      -3.221  47.730 -17.326  1.00  0.00    -0.391 OA
HETATM   27  H17 UNL     1      -3.111  46.764 -17.377  1.00  0.00     0.210 HD
ENDBRANCH  16  26
ENDBRANCH  15  16
ENDBRANCH  13  15
ENDBRANCH  11  12
ENDBRANCH  10  11
ENDBRANCH   1  10
BRANCH   1  28
HETATM   28  C18 UNL     1      -3.513  52.251 -24.151  1.00  0.00     0.177 C 
BRANCH  28  29
HETATM   29  O2  UNL     1      -3.839  52.300 -22.765  1.00  0.00    -0.400 OA
HETATM   30  H30 UNL     1      -4.146  51.400 -22.522  1.00  0.00     0.209 HD
ENDBRANCH  28  29
ENDBRANCH   1  28
BRANCH   2  31
HETATM   31  C20 UNL     1      -0.700  52.923 -23.982  1.00  0.00     0.012 C 
BRANCH  31  32
HETATM   32  C21 UNL     1       0.630  53.626 -24.269  1.00  0.00     0.027 C 
BRANCH  32  33
HETATM   33  C22 UNL     1       0.487  54.986 -24.937  1.00  0.00     0.164 C 
BRANCH  33  34
HETATM   34  O3  UNL     1       1.329  55.905 -24.256  1.00  0.00    -0.401 OA
HETATM   35  H38 UNL     1       1.227  56.771 -24.688  1.00  0.00     0.209 HD
ENDBRANCH  33  34
ENDBRANCH  32  33
ENDBRANCH  31  32
ENDBRANCH   2  31
BRANCH   8  36
HETATM   36  O5  UNL     1      -4.431  49.925 -25.562  1.00  0.00    -0.389 OA
HETATM   37  H50 UNL     1      -4.436  49.093 -25.054  1.00  0.00     0.210 HD
ENDBRANCH   8  36
BRANCH   4  38
HETATM   38  C26 UNL     1       1.547  50.854 -26.337  1.00  0.00     0.265 C 
HETATM   39  O4  UNL     1       2.674  51.337 -26.367  1.00  0.00    -0.302 OA
ENDBRANCH   4  38
TORSDOF 18
ENDMDL
