MODEL 1
REMARK minimizedAffinity -9.13606453
REMARK  4 active torsions:
REMARK  status: ('A' for Active; 'I' for Inactive)
REMARK    1  A    between atoms: C4_5  and  C5_6 
REMARK    2  A    between atoms: C8_11  and  C9_12 
REMARK    3  A    between atoms: C9_12  and  N2_13 
REMARK    4  A    between atoms: N3_16  and  C12_17 
ROOT
HETATM    1  N2  UNL     1      -0.949  52.202 -25.600  1.00  0.00     0.095 N 
HETATM    2  C10 UNL     1      -1.209  51.092 -24.663  1.00  0.00     0.287 C 
HETATM    3  C11 UNL     1      -2.622  50.476 -24.840  1.00  0.00     0.126 C 
HETATM    4  N3  UNL     1      -2.822  50.060 -26.246  1.00  0.00    -0.278 NA
HETATM    5  C20 UNL     1      -2.603  51.177 -27.183  1.00  0.00     0.126 C 
HETATM    6  C21 UNL     1      -1.176  51.751 -26.989  1.00  0.00     0.287 C 
ENDROOT
BRANCH   1   7
HETATM    7  C9  UNL     1       0.336  52.875 -25.393  1.00  0.00     0.312 C 
BRANCH   7   8
HETATM    8  C8  UNL     1       0.672  53.319 -23.992  1.00  0.00    -0.014 A 
HETATM    9  C7  UNL     1       1.308  54.532 -23.758  1.00  0.00     0.096 A 
HETATM   10  N1  UNL     1       1.635  54.993 -22.531  1.00  0.00    -0.374 N 
HETATM   11  C6  UNL     1       1.314  54.202 -21.480  1.00  0.00     0.100 A 
ATOM     12  H1  UNL     1       2.101  55.892 -22.402  1.00  0.00     0.164 HD
HETATM   13  C5  UNL     1       0.674  52.966 -21.580  1.00  0.00    -0.010 A 
HETATM   14  C22 UNL     1       0.350  52.537 -22.874  1.00  0.00     0.024 A 
BRANCH  13  15
HETATM   15  C4  UNL     1       0.358  52.156 -20.394  1.00  0.00    -0.024 A 
HETATM   16  C3  UNL     1       0.625  52.636 -19.099  1.00  0.00     0.015 A 
HETATM   17  C2  UNL     1       0.327  51.865 -17.972  1.00  0.00     0.043 A 
HETATM   18  C1  UNL     1      -0.242  50.609 -18.131  1.00  0.00     0.116 A 
HETATM   19  F1  UNL     1      -0.527  49.871 -17.052  1.00  0.00    -0.206 F 
HETATM   20  C24 UNL     1      -0.517  50.108 -19.397  1.00  0.00     0.043 A 
HETATM   21  C23 UNL     1      -0.217  50.879 -20.524  1.00  0.00     0.015 A 
ENDBRANCH  13  15
ENDBRANCH   7   8
ENDBRANCH   1   7
BRANCH   4  22
HETATM   22  C12 UNL     1      -3.941  49.224 -26.422  1.00  0.00     0.047 A 
HETATM   23  C13 UNL     1      -4.189  48.773 -27.738  1.00  0.00     0.027 A 
HETATM   24  C14 UNL     1      -5.275  47.954 -28.054  1.00  0.00     0.005 A 
HETATM   25  C15 UNL     1      -6.147  47.550 -27.052  1.00  0.00     0.040 A 
HETATM   26  C16 UNL     1      -5.927  47.965 -25.741  1.00  0.00     0.103 A 
HETATM   27  C17 UNL     1      -4.849  48.817 -25.420  1.00  0.00     0.123 A 
HETATM   28  O2  UNL     1      -6.829  47.490 -24.817  1.00  0.00    -0.346 OA
HETATM   29  O1  UNL     1      -4.639  49.229 -24.124  1.00  0.00    -0.344 OA
HETATM   30  C18 UNL     1      -5.799  49.065 -23.305  1.00  0.00     0.202 C 
HETATM   31  C19 UNL     1      -6.361  47.669 -23.479  1.00  0.00     0.202 C 
ENDBRANCH   4  22
TORSDOF 4
ENDMDL
MODEL 2
REMARK minimizedAffinity -9.11009979
REMARK  4 active torsions:
REMARK  status: ('A' for Active; 'I' for Inactive)
REMARK    1  A    between atoms: C4_5  and  C5_6 
REMARK    2  A    between atoms: C8_11  and  C9_12 
REMARK    3  A    between atoms: C9_12  and  N2_13 
REMARK    4  A    between atoms: N3_16  and  C12_17 
ROOT
HETATM    1  N2  UNL     1      -2.404  50.131 -26.205  1.00  0.00     0.095 N 
HETATM    2  C10 UNL     1      -2.948  50.697 -24.956  1.00  0.00     0.287 C 
HETATM    3  C11 UNL     1      -4.453  50.377 -24.757  1.00  0.00     0.126 C 
HETATM    4  N3  UNL     1      -4.676  48.916 -24.836  1.00  0.00    -0.278 NA
HETATM    5  C20 UNL     1      -4.171  48.353 -26.102  1.00  0.00     0.126 C 
HETATM    6  C21 UNL     1      -2.662  48.677 -26.253  1.00  0.00     0.287 C 
ENDROOT
BRANCH   1   7
HETATM    7  C9  UNL     1      -1.012  50.500 -26.477  1.00  0.00     0.312 C 
BRANCH   7   8
HETATM    8  C8  UNL     1      -0.451  51.689 -25.739  1.00  0.00    -0.014 A 
HETATM    9  C7  UNL     1      -0.081  52.844 -26.416  1.00  0.00     0.096 A 
HETATM   10  N1  UNL     1       0.425  53.945 -25.819  1.00  0.00    -0.374 N 
HETATM   11  C6  UNL     1       0.575  53.891 -24.475  1.00  0.00     0.100 A 
ATOM     12  H1  UNL     1       0.682  54.775 -26.354  1.00  0.00     0.164 HD
HETATM   13  C5  UNL     1       0.241  52.795 -23.679  1.00  0.00    -0.010 A 
HETATM   14  C22 UNL     1      -0.287  51.681 -24.347  1.00  0.00     0.024 A 
BRANCH  13  15
HETATM   15  C4  UNL     1       0.434  52.804 -22.222  1.00  0.00    -0.024 A 
HETATM   16  C3  UNL     1       1.214  53.798 -21.602  1.00  0.00     0.015 A 
HETATM   17  C2  UNL     1       1.399  53.806 -20.217  1.00  0.00     0.043 A 
HETATM   18  C1  UNL     1       0.805  52.820 -19.441  1.00  0.00     0.116 A 
HETATM   19  F1  UNL     1       0.983  52.828 -18.114  1.00  0.00    -0.206 F 
HETATM   20  C24 UNL     1       0.030  51.826 -20.023  1.00  0.00     0.043 A 
HETATM   21  C23 UNL     1      -0.154  51.818 -21.409  1.00  0.00     0.015 A 
ENDBRANCH  13  15
ENDBRANCH   7   8
ENDBRANCH   1   7
BRANCH   4  22
HETATM   22  C12 UNL     1      -5.944  48.523 -24.367  1.00  0.00     0.047 A 
HETATM   23  C13 UNL     1      -6.772  47.841 -25.286  1.00  0.00     0.027 A 
HETATM   24  C14 UNL     1      -8.058  47.412 -24.957  1.00  0.00     0.005 A 
HETATM   25  C15 UNL     1      -8.556  47.646 -23.682  1.00  0.00     0.040 A 
HETATM   26  C16 UNL     1      -7.764  48.305 -22.745  1.00  0.00     0.103 A 
HETATM   27  C17 UNL     1      -6.475  48.767 -23.081  1.00  0.00     0.123 A 
HETATM   28  O2  UNL     1      -8.336  48.464 -21.503  1.00  0.00    -0.346 OA
HETATM   29  O1  UNL     1      -5.698  49.423 -22.153  1.00  0.00    -0.344 OA
HETATM   30  C18 UNL     1      -6.465  49.922 -21.056  1.00  0.00     0.202 C 
HETATM   31  C19 UNL     1      -7.368  48.832 -20.519  1.00  0.00     0.202 C 
ENDBRANCH   4  22
TORSDOF 4
ENDMDL
MODEL 3
REMARK minimizedAffinity -9.0304985
REMARK  4 active torsions:
REMARK  status: ('A' for Active; 'I' for Inactive)
REMARK    1  A    between atoms: C4_5  and  C5_6 
REMARK    2  A    between atoms: C8_11  and  C9_12 
REMARK    3  A    between atoms: C9_12  and  N2_13 
REMARK    4  A    between atoms: N3_16  and  C12_17 
ROOT
HETATM    1  N2  UNL     1      -5.005  47.928 -26.456  1.00  0.00     0.095 N 
HETATM    2  C10 UNL     1      -4.542  48.731 -27.604  1.00  0.00     0.287 C 
HETATM    3  C11 UNL     1      -5.085  48.209 -28.960  1.00  0.00     0.126 C 
HETATM    4  N3  UNL     1      -6.562  48.121 -28.916  1.00  0.00    -0.278 NA
HETATM    5  C20 UNL     1      -7.027  47.285 -27.794  1.00  0.00     0.126 C 
HETATM    6  C21 UNL     1      -6.481  47.851 -26.458  1.00  0.00     0.287 C 
ENDROOT
BRANCH   1   7
HETATM    7  C9  UNL     1      -4.429  48.330 -25.170  1.00  0.00     0.312 C 
BRANCH   7   8
HETATM    8  C8  UNL     1      -3.738  49.668 -25.105  1.00  0.00    -0.014 A 
HETATM    9  C7  UNL     1      -4.339  50.756 -24.483  1.00  0.00     0.096 A 
HETATM   10  N1  UNL     1      -3.777  51.981 -24.386  1.00  0.00    -0.374 N 
HETATM   11  C6  UNL     1      -2.551  52.131 -24.940  1.00  0.00     0.100 A 
ATOM     12  H1  UNL     1      -4.253  52.754 -23.919  1.00  0.00     0.164 HD
HETATM   13  C5  UNL     1      -1.840  51.120 -25.588  1.00  0.00    -0.010 A 
HETATM   14  C22 UNL     1      -2.465  49.867 -25.655  1.00  0.00     0.024 A 
BRANCH  13  15
HETATM   15  C4  UNL     1      -0.511  51.356 -26.171  1.00  0.00    -0.024 A 
HETATM   16  C3  UNL     1       0.625  51.486 -25.351  1.00  0.00     0.015 A 
HETATM   17  C2  UNL     1       1.888  51.712 -25.905  1.00  0.00     0.043 A 
HETATM   18  C1  UNL     1       2.025  51.808 -27.283  1.00  0.00     0.116 A 
HETATM   19  F1  UNL     1       3.235  52.024 -27.814  1.00  0.00    -0.206 F 
HETATM   20  C24 UNL     1       0.922  51.684 -28.118  1.00  0.00     0.043 A 
HETATM   21  C23 UNL     1      -0.341  51.459 -27.564  1.00  0.00     0.015 A 
ENDBRANCH  13  15
ENDBRANCH   7   8
ENDBRANCH   1   7
BRANCH   4  22
HETATM   22  C12 UNL     1      -7.145  47.953 -30.186  1.00  0.00     0.047 A 
HETATM   23  C13 UNL     1      -8.557  47.947 -30.235  1.00  0.00     0.027 A 
HETATM   24  C14 UNL     1      -9.262  47.771 -31.427  1.00  0.00     0.005 A 
HETATM   25  C15 UNL     1      -8.568  47.605 -32.618  1.00  0.00     0.040 A 
HETATM   26  C16 UNL     1      -7.176  47.617 -32.611  1.00  0.00     0.103 A 
HETATM   27  C17 UNL     1      -6.458  47.764 -31.405  1.00  0.00     0.123 A 
HETATM   28  O2  UNL     1      -6.582  47.471 -33.843  1.00  0.00    -0.346 OA
HETATM   29  O1  UNL     1      -5.081  47.770 -31.401  1.00  0.00    -0.344 OA
HETATM   30  C18 UNL     1      -4.532  47.211 -32.596  1.00  0.00     0.202 C 
HETATM   31  C19 UNL     1      -5.199  47.826 -33.809  1.00  0.00     0.202 C 
ENDBRANCH   4  22
TORSDOF 4
ENDMDL
MODEL 4
REMARK minimizedAffinity -9.0086937
REMARK  4 active torsions:
REMARK  status: ('A' for Active; 'I' for Inactive)
REMARK    1  A    between atoms: C4_5  and  C5_6 
REMARK    2  A    between atoms: C8_11  and  C9_12 
REMARK    3  A    between atoms: C9_12  and  N2_13 
REMARK    4  A    between atoms: N3_16  and  C12_17 
ROOT
HETATM    1  N2  UNL     1      -2.360  50.166 -26.360  1.00  0.00     0.095 N 
HETATM    2  C10 UNL     1      -2.819  50.381 -24.974  1.00  0.00     0.287 C 
HETATM    3  C11 UNL     1      -4.308  49.999 -24.769  1.00  0.00     0.126 C 
HETATM    4  N3  UNL     1      -4.539  48.605 -25.209  1.00  0.00    -0.278 NA
HETATM    5  C20 UNL     1      -4.120  48.397 -26.608  1.00  0.00     0.126 C 
HETATM    6  C21 UNL     1      -2.624  48.770 -26.766  1.00  0.00     0.287 C 
ENDROOT
BRANCH   1   7
HETATM    7  C9  UNL     1      -0.988  50.613 -26.615  1.00  0.00     0.312 C 
BRANCH   7   8
HETATM    8  C8  UNL     1      -0.500  51.827 -25.866  1.00  0.00    -0.014 A 
HETATM    9  C7  UNL     1      -0.268  53.029 -26.524  1.00  0.00     0.096 A 
HETATM   10  N1  UNL     1       0.165  54.156 -25.916  1.00  0.00    -0.374 N 
HETATM   11  C6  UNL     1       0.382  54.079 -24.581  1.00  0.00     0.100 A 
ATOM     12  H1  UNL     1       0.322  55.019 -26.436  1.00  0.00     0.164 HD
HETATM   13  C5  UNL     1       0.186  52.936 -23.806  1.00  0.00    -0.010 A 
HETATM   14  C22 UNL     1      -0.271  51.798 -24.484  1.00  0.00     0.024 A 
BRANCH  13  15
HETATM   15  C4  UNL     1       0.446  52.924 -22.359  1.00  0.00    -0.024 A 
HETATM   16  C3  UNL     1       1.253  53.909 -21.762  1.00  0.00     0.015 A 
HETATM   17  C2  UNL     1       1.503  53.896 -20.386  1.00  0.00     0.043 A 
HETATM   18  C1  UNL     1       0.944  52.899 -19.598  1.00  0.00     0.116 A 
HETATM   19  F1  UNL     1       1.182  52.887 -18.281  1.00  0.00    -0.206 F 
HETATM   20  C24 UNL     1       0.143  51.913 -20.159  1.00  0.00     0.043 A 
HETATM   21  C23 UNL     1      -0.105  51.926 -21.534  1.00  0.00     0.015 A 
ENDBRANCH  13  15
ENDBRANCH   7   8
ENDBRANCH   1   7
BRANCH   4  22
HETATM   22  C12 UNL     1      -5.775  48.086 -24.778  1.00  0.00     0.047 A 
HETATM   23  C13 UNL     1      -5.960  47.978 -23.382  1.00  0.00     0.027 A 
HETATM   24  C14 UNL     1      -7.131  47.465 -22.821  1.00  0.00     0.005 A 
HETATM   25  C15 UNL     1      -8.165  47.049 -23.649  1.00  0.00     0.040 A 
HETATM   26  C16 UNL     1      -8.024  47.152 -25.030  1.00  0.00     0.103 A 
HETATM   27  C17 UNL     1      -6.832  47.643 -25.603  1.00  0.00     0.123 A 
HETATM   28  O2  UNL     1      -9.114  46.741 -25.763  1.00  0.00    -0.346 OA
HETATM   29  O1  UNL     1      -6.694  47.737 -26.970  1.00  0.00    -0.344 OA
HETATM   30  C18 UNL     1      -7.646  46.933 -27.669  1.00  0.00     0.202 C 
HETATM   31  C19 UNL     1      -9.035  47.181 -27.120  1.00  0.00     0.202 C 
ENDBRANCH   4  22
TORSDOF 4
ENDMDL
MODEL 5
REMARK minimizedAffinity -8.98939037
REMARK  4 active torsions:
REMARK  status: ('A' for Active; 'I' for Inactive)
REMARK    1  A    between atoms: C4_5  and  C5_6 
REMARK    2  A    between atoms: C8_11  and  C9_12 
REMARK    3  A    between atoms: C9_12  and  N2_13 
REMARK    4  A    between atoms: N3_16  and  C12_17 
ROOT
HETATM    1  N2  UNL     1      -2.485  50.139 -21.033  1.00  0.00     0.095 N 
HETATM    2  C10 UNL     1      -1.981  49.289 -22.129  1.00  0.00     0.287 C 
HETATM    3  C11 UNL     1      -3.103  48.466 -22.814  1.00  0.00     0.126 C 
HETATM    4  N3  UNL     1      -4.183  49.366 -23.276  1.00  0.00    -0.278 NA
HETATM    5  C20 UNL     1      -4.718  50.188 -22.174  1.00  0.00     0.126 C 
HETATM    6  C21 UNL     1      -3.572  51.009 -21.530  1.00  0.00     0.287 C 
ENDROOT
BRANCH   1   7
HETATM    7  C9  UNL     1      -1.438  50.853 -20.296  1.00  0.00     0.312 C 
BRANCH   7   8
HETATM    8  C8  UNL     1      -0.556  51.794 -21.076  1.00  0.00    -0.014 A 
HETATM    9  C7  UNL     1       0.271  52.704 -20.427  1.00  0.00     0.096 A 
HETATM   10  N1  UNL     1       1.088  53.573 -21.062  1.00  0.00    -0.374 N 
HETATM   11  C6  UNL     1       1.078  53.537 -22.415  1.00  0.00     0.100 A 
ATOM     12  H1  UNL     1       1.682  54.224 -20.547  1.00  0.00     0.164 HD
HETATM   13  C5  UNL     1       0.298  52.672 -23.184  1.00  0.00    -0.010 A 
HETATM   14  C22 UNL     1      -0.526  51.786 -22.477  1.00  0.00     0.024 A 
BRANCH  13  15
HETATM   15  C4  UNL     1       0.335  52.691 -24.653  1.00  0.00    -0.024 A 
HETATM   16  C3  UNL     1       0.704  51.545 -25.381  1.00  0.00     0.015 A 
HETATM   17  C2  UNL     1       0.742  51.563 -26.778  1.00  0.00     0.043 A 
HETATM   18  C1  UNL     1       0.409  52.727 -27.458  1.00  0.00     0.116 A 
HETATM   19  F1  UNL     1       0.444  52.744 -28.796  1.00  0.00    -0.206 F 
HETATM   20  C24 UNL     1       0.040  53.874 -26.767  1.00  0.00     0.043 A 
HETATM   21  C23 UNL     1       0.004  53.855 -25.370  1.00  0.00     0.015 A 
ENDBRANCH  13  15
ENDBRANCH   7   8
ENDBRANCH   1   7
BRANCH   4  22
HETATM   22  C12 UNL     1      -5.079  48.745 -24.167  1.00  0.00     0.047 A 
HETATM   23  C13 UNL     1      -6.288  48.269 -23.613  1.00  0.00     0.027 A 
HETATM   24  C14 UNL     1      -7.256  47.618 -24.382  1.00  0.00     0.005 A 
HETATM   25  C15 UNL     1      -7.044  47.433 -25.741  1.00  0.00     0.040 A 
HETATM   26  C16 UNL     1      -5.869  47.900 -26.324  1.00  0.00     0.103 A 
HETATM   27  C17 UNL     1      -4.875  48.532 -25.548  1.00  0.00     0.123 A 
HETATM   28  O2  UNL     1      -5.766  47.692 -27.681  1.00  0.00    -0.346 OA
HETATM   29  O1  UNL     1      -3.712  48.987 -26.127  1.00  0.00    -0.344 OA
HETATM   30  C18 UNL     1      -3.472  48.392 -27.405  1.00  0.00     0.202 C 
HETATM   31  C19 UNL     1      -4.721  48.478 -28.257  1.00  0.00     0.202 C 
ENDBRANCH   4  22
TORSDOF 4
ENDMDL
MODEL 6
REMARK minimizedAffinity -8.97708511
REMARK  4 active torsions:
REMARK  status: ('A' for Active; 'I' for Inactive)
REMARK    1  A    between atoms: C4_5  and  C5_6 
REMARK    2  A    between atoms: C8_11  and  C9_12 
REMARK    3  A    between atoms: C9_12  and  N2_13 
REMARK    4  A    between atoms: N3_16  and  C12_17 
ROOT
HETATM    1  N2  UNL     1      -1.901  50.511 -25.474  1.00  0.00     0.095 N 
HETATM    2  C10 UNL     1      -0.526  51.043 -25.538  1.00  0.00     0.287 C 
HETATM    3  C11 UNL     1      -0.217  52.046 -24.397  1.00  0.00     0.126 C 
HETATM    4  N3  UNL     1      -0.501  51.425 -23.083  1.00  0.00    -0.278 NA
HETATM    5  C20 UNL     1      -1.887  50.930 -23.001  1.00  0.00     0.126 C 
HETATM    6  C21 UNL     1      -2.149  49.916 -24.145  1.00  0.00     0.287 C 
ENDROOT
BRANCH   1   7
HETATM    7  C9  UNL     1      -2.261  49.639 -26.596  1.00  0.00     0.312 C 
BRANCH   7   8
HETATM    8  C8  UNL     1      -3.635  49.020 -26.582  1.00  0.00    -0.014 A 
HETATM    9  C7  UNL     1      -4.412  49.024 -25.430  1.00  0.00     0.096 A 
HETATM   10  N1  UNL     1      -5.651  48.491 -25.348  1.00  0.00    -0.374 N 
HETATM   11  C6  UNL     1      -6.141  47.920 -26.473  1.00  0.00     0.100 A 
ATOM     12  H1  UNL     1      -6.189  48.517 -24.481  1.00  0.00     0.164 HD
HETATM   13  C5  UNL     1      -5.465  47.852 -27.692  1.00  0.00    -0.010 A 
HETATM   14  C22 UNL     1      -4.187  48.426 -27.726  1.00  0.00     0.024 A 
BRANCH  13  15
HETATM   15  C4  UNL     1      -6.058  47.212 -28.875  1.00  0.00    -0.024 A 
HETATM   16  C3  UNL     1      -5.508  47.408 -30.155  1.00  0.00     0.015 A 
HETATM   17  C2  UNL     1      -6.074  46.802 -31.280  1.00  0.00     0.043 A 
HETATM   18  C1  UNL     1      -7.193  45.994 -31.134  1.00  0.00     0.116 A 
HETATM   19  F1  UNL     1      -7.734  45.412 -32.212  1.00  0.00    -0.206 F 
HETATM   20  C24 UNL     1      -7.758  45.781 -29.883  1.00  0.00     0.043 A 
HETATM   21  C23 UNL     1      -7.194  46.389 -28.759  1.00  0.00     0.015 A 
ENDBRANCH  13  15
ENDBRANCH   7   8
ENDBRANCH   1   7
BRANCH   4  22
HETATM   22  C12 UNL     1       0.035  52.148 -22.001  1.00  0.00     0.047 A 
HETATM   23  C13 UNL     1       0.736  53.332 -22.321  1.00  0.00     0.027 A 
HETATM   24  C14 UNL     1       1.332  54.134 -21.345  1.00  0.00     0.005 A 
HETATM   25  C15 UNL     1       1.234  53.776 -20.007  1.00  0.00     0.040 A 
HETATM   26  C16 UNL     1       0.541  52.622 -19.653  1.00  0.00     0.103 A 
HETATM   27  C17 UNL     1      -0.038  51.792 -20.636  1.00  0.00     0.123 A 
HETATM   28  O2  UNL     1       0.477  52.368 -18.302  1.00  0.00    -0.346 OA
HETATM   29  O1  UNL     1      -0.718  50.649 -20.282  1.00  0.00    -0.344 OA
HETATM   30  C18 UNL     1      -0.404  50.218 -18.956  1.00  0.00     0.202 C 
HETATM   31  C19 UNL     1      -0.512  51.384 -17.995  1.00  0.00     0.202 C 
ENDBRANCH   4  22
TORSDOF 4
ENDMDL
MODEL 7
REMARK minimizedAffinity -8.97401333
REMARK  4 active torsions:
REMARK  status: ('A' for Active; 'I' for Inactive)
REMARK    1  A    between atoms: C4_5  and  C5_6 
REMARK    2  A    between atoms: C8_11  and  C9_12 
REMARK    3  A    between atoms: C9_12  and  N2_13 
REMARK    4  A    between atoms: N3_16  and  C12_17 
ROOT
HETATM    1  N2  UNL     1       0.557  53.456 -21.300  1.00  0.00     0.095 N 
HETATM    2  C10 UNL     1       0.485  52.030 -21.674  1.00  0.00     0.287 C 
HETATM    3  C11 UNL     1      -0.027  51.815 -23.122  1.00  0.00     0.126 C 
HETATM    4  N3  UNL     1       0.803  52.586 -24.074  1.00  0.00    -0.278 NA
HETATM    5  C20 UNL     1       0.843  54.019 -23.728  1.00  0.00     0.126 C 
HETATM    6  C21 UNL     1       1.378  54.193 -22.283  1.00  0.00     0.287 C 
ENDROOT
BRANCH   1   7
HETATM    7  C9  UNL     1       0.938  53.694 -19.906  1.00  0.00     0.312 C 
BRANCH   7   8
HETATM    8  C8  UNL     1       0.388  52.753 -18.864  1.00  0.00    -0.014 A 
HETATM    9  C7  UNL     1      -0.916  52.278 -18.944  1.00  0.00     0.096 A 
HETATM   10  N1  UNL     1      -1.472  51.433 -18.049  1.00  0.00    -0.374 N 
HETATM   11  C6  UNL     1      -0.688  51.041 -17.016  1.00  0.00     0.100 A 
ATOM     12  H1  UNL     1      -2.434  51.106 -18.146  1.00  0.00     0.164 HD
HETATM   13  C5  UNL     1       0.634  51.443 -16.822  1.00  0.00    -0.010 A 
HETATM   14  C22 UNL     1       1.165  52.314 -17.783  1.00  0.00     0.024 A 
BRANCH  13  15
HETATM   15  C4  UNL     1       1.427  50.980 -15.674  1.00  0.00    -0.024 A 
HETATM   16  C3  UNL     1       1.094  49.792 -14.998  1.00  0.00     0.015 A 
HETATM   17  C2  UNL     1       1.846  49.354 -13.904  1.00  0.00     0.043 A 
HETATM   18  C1  UNL     1       2.937  50.099 -13.480  1.00  0.00     0.116 A 
HETATM   19  F1  UNL     1       3.658  49.679 -12.433  1.00  0.00    -0.206 F 
HETATM   20  C24 UNL     1       3.290  51.276 -14.127  1.00  0.00     0.043 A 
HETATM   21  C23 UNL     1       2.537  51.714 -15.220  1.00  0.00     0.015 A 
ENDBRANCH  13  15
ENDBRANCH   7   8
ENDBRANCH   1   7
BRANCH   4  22
HETATM   22  C12 UNL     1       0.602  52.210 -25.416  1.00  0.00     0.047 A 
HETATM   23  C13 UNL     1       1.761  52.075 -26.212  1.00  0.00     0.027 A 
HETATM   24  C14 UNL     1       1.702  51.723 -27.562  1.00  0.00     0.005 A 
HETATM   25  C15 UNL     1       0.471  51.484 -28.158  1.00  0.00     0.040 A 
HETATM   26  C16 UNL     1      -0.692  51.596 -27.401  1.00  0.00     0.103 A 
HETATM   27  C17 UNL     1      -0.641  51.979 -26.045  1.00  0.00     0.123 A 
HETATM   28  O2  UNL     1      -1.858  51.312 -28.074  1.00  0.00    -0.346 OA
HETATM   29  O1  UNL     1      -1.794  52.094 -25.301  1.00  0.00    -0.344 OA
HETATM   30  C18 UNL     1      -2.961  52.202 -26.120  1.00  0.00     0.202 C 
HETATM   31  C19 UNL     1      -2.953  51.117 -27.177  1.00  0.00     0.202 C 
ENDBRANCH   4  22
TORSDOF 4
ENDMDL
MODEL 8
REMARK minimizedAffinity -8.96409988
REMARK  4 active torsions:
REMARK  status: ('A' for Active; 'I' for Inactive)
REMARK    1  A    between atoms: C4_5  and  C5_6 
REMARK    2  A    between atoms: C8_11  and  C9_12 
REMARK    3  A    between atoms: C9_12  and  N2_13 
REMARK    4  A    between atoms: N3_16  and  C12_17 
ROOT
HETATM    1  N2  UNL     1      -0.531  51.901 -20.250  1.00  0.00     0.095 N 
HETATM    2  C10 UNL     1      -0.981  51.101 -19.094  1.00  0.00     0.287 C 
HETATM    3  C11 UNL     1       0.141  50.874 -18.048  1.00  0.00     0.126 C 
HETATM    4  N3  UNL     1       0.711  52.173 -17.624  1.00  0.00    -0.278 NA
HETATM    5  C20 UNL     1       1.200  52.956 -18.773  1.00  0.00     0.126 C 
HETATM    6  C21 UNL     1       0.045  53.179 -19.784  1.00  0.00     0.287 C 
ENDROOT
BRANCH   1   7
HETATM    7  C9  UNL     1      -1.536  52.049 -21.306  1.00  0.00     0.312 C 
BRANCH   7   8
HETATM    8  C8  UNL     1      -1.088  51.828 -22.728  1.00  0.00    -0.014 A 
HETATM    9  C7  UNL     1       0.151  52.278 -23.168  1.00  0.00     0.096 A 
HETATM   10  N1  UNL     1       0.617  52.112 -24.425  1.00  0.00    -0.374 N 
HETATM   11  C6  UNL     1      -0.197  51.466 -25.293  1.00  0.00     0.100 A 
ATOM     12  H1  UNL     1       1.535  52.457 -24.707  1.00  0.00     0.164 HD
HETATM   13  C5  UNL     1      -1.460  50.964 -24.978  1.00  0.00    -0.010 A 
HETATM   14  C22 UNL     1      -1.893  51.156 -23.659  1.00  0.00     0.024 A 
BRANCH  13  15
HETATM   15  C4  UNL     1      -2.293  50.274 -25.974  1.00  0.00    -0.024 A 
HETATM   16  C3  UNL     1      -2.806  48.989 -25.722  1.00  0.00     0.015 A 
HETATM   17  C2  UNL     1      -3.596  48.332 -26.669  1.00  0.00     0.043 A 
HETATM   18  C1  UNL     1      -3.880  48.957 -27.876  1.00  0.00     0.116 A 
HETATM   19  F1  UNL     1      -4.637  48.328 -28.784  1.00  0.00    -0.206 F 
HETATM   20  C24 UNL     1      -3.388  50.225 -28.154  1.00  0.00     0.043 A 
HETATM   21  C23 UNL     1      -2.597  50.881 -27.206  1.00  0.00     0.015 A 
ENDBRANCH  13  15
ENDBRANCH   7   8
ENDBRANCH   1   7
BRANCH   4  22
HETATM   22  C12 UNL     1       1.510  52.076 -16.469  1.00  0.00     0.047 A 
HETATM   23  C13 UNL     1       2.875  52.406 -16.618  1.00  0.00     0.027 A 
HETATM   24  C14 UNL     1       3.781  52.336 -15.558  1.00  0.00     0.005 A 
HETATM   25  C15 UNL     1       3.340  51.941 -14.302  1.00  0.00     0.040 A 
HETATM   26  C16 UNL     1       1.998  51.619 -14.113  1.00  0.00     0.103 A 
HETATM   27  C17 UNL     1       1.085  51.660 -15.188  1.00  0.00     0.123 A 
HETATM   28  O2  UNL     1       1.655  51.266 -12.829  1.00  0.00    -0.346 OA
HETATM   29  O1  UNL     1      -0.240  51.336 -14.999  1.00  0.00    -0.344 OA
HETATM   30  C18 UNL     1      -0.452  50.594 -13.796  1.00  0.00     0.202 C 
HETATM   31  C19 UNL     1       0.240  51.281 -12.636  1.00  0.00     0.202 C 
ENDBRANCH   4  22
TORSDOF 4
ENDMDL
MODEL 9
REMARK minimizedAffinity -8.8810606
REMARK  4 active torsions:
REMARK  status: ('A' for Active; 'I' for Inactive)
REMARK    1  A    between atoms: C4_5  and  C5_6 
REMARK    2  A    between atoms: C8_11  and  C9_12 
REMARK    3  A    between atoms: C9_12  and  N2_13 
REMARK    4  A    between atoms: N3_16  and  C12_17 
ROOT
HETATM    1  N2  UNL     1       0.324  53.040 -22.090  1.00  0.00     0.095 N 
HETATM    2  C10 UNL     1       0.910  53.931 -21.070  1.00  0.00     0.287 C 
HETATM    3  C11 UNL     1       0.384  53.637 -19.642  1.00  0.00     0.126 C 
HETATM    4  N3  UNL     1       0.597  52.211 -19.305  1.00  0.00    -0.278 NA
HETATM    5  C20 UNL     1      -0.024  51.316 -20.300  1.00  0.00     0.126 C 
HETATM    6  C21 UNL     1       0.542  51.628 -21.709  1.00  0.00     0.287 C 
ENDROOT
BRANCH   1   7
HETATM    7  C9  UNL     1       0.720  53.356 -23.465  1.00  0.00     0.312 C 
BRANCH   7   8
HETATM    8  C8  UNL     1       0.377  52.352 -24.536  1.00  0.00    -0.014 A 
HETATM    9  C7  UNL     1       1.242  52.112 -25.597  1.00  0.00     0.096 A 
HETATM   10  N1  UNL     1       1.000  51.227 -26.588  1.00  0.00    -0.374 N 
HETATM   11  C6  UNL     1      -0.169  50.546 -26.521  1.00  0.00     0.100 A 
ATOM     12  H1  UNL     1       1.663  51.079 -27.349  1.00  0.00     0.164 HD
HETATM   13  C5  UNL     1      -1.120  50.692 -25.511  1.00  0.00    -0.010 A 
HETATM   14  C22 UNL     1      -0.816  51.618 -24.503  1.00  0.00     0.024 A 
BRANCH  13  15
HETATM   15  C4  UNL     1      -2.371  49.921 -25.503  1.00  0.00    -0.024 A 
HETATM   16  C3  UNL     1      -3.237  49.960 -24.396  1.00  0.00     0.015 A 
HETATM   17  C2  UNL     1      -4.426  49.224 -24.387  1.00  0.00     0.043 A 
HETATM   18  C1  UNL     1      -4.758  48.446 -25.488  1.00  0.00     0.116 A 
HETATM   19  F1  UNL     1      -5.897  47.742 -25.480  1.00  0.00    -0.206 F 
HETATM   20  C24 UNL     1      -3.923  48.387 -26.596  1.00  0.00     0.043 A 
HETATM   21  C23 UNL     1      -2.734  49.122 -26.603  1.00  0.00     0.015 A 
ENDBRANCH  13  15
ENDBRANCH   7   8
ENDBRANCH   1   7
BRANCH   4  22
HETATM   22  C12 UNL     1       0.432  51.934 -17.935  1.00  0.00     0.047 A 
HETATM   23  C13 UNL     1       1.481  52.339 -17.080  1.00  0.00     0.027 A 
HETATM   24  C14 UNL     1       1.452  52.111 -15.703  1.00  0.00     0.005 A 
HETATM   25  C15 UNL     1       0.357  51.473 -15.134  1.00  0.00     0.040 A 
HETATM   26  C16 UNL     1      -0.701  51.070 -15.944  1.00  0.00     0.103 A 
HETATM   27  C17 UNL     1      -0.664  51.272 -17.340  1.00  0.00     0.123 A 
HETATM   28  O2  UNL     1      -1.750  50.473 -15.283  1.00  0.00    -0.346 OA
HETATM   29  O1  UNL     1      -1.711  50.867 -18.138  1.00  0.00    -0.344 OA
HETATM   30  C18 UNL     1      -2.549  49.908 -17.490  1.00  0.00     0.202 C 
HETATM   31  C19 UNL     1      -2.917  50.396 -16.104  1.00  0.00     0.202 C 
ENDBRANCH   4  22
TORSDOF 4
ENDMDL
