MODEL 1
REMARK minimizedAffinity -10.0344343
REMARK  9 active torsions:
REMARK  status: ('A' for Active; 'I' for Inactive)
REMARK    1  A    between atoms: C2_2  and  O2_4 
REMARK    2  A    between atoms: O2_4  and  C3_5 
REMARK    3  A    between atoms: C3_5  and  C4_6 
REMARK    4  A    between atoms: C4_6  and  C5_7 
REMARK    5  A    between atoms: C5_7  and  C6_8 
REMARK    6  A    between atoms: C20_22  and  C21_23 
REMARK    7  A    between atoms: C21_23  and  C23_25 
REMARK    8  A    between atoms: C23_25  and  C24_26 
REMARK    9  A    between atoms: C24_26  and  C25_27 
ROOT
HETATM    1  C6  UNL     1      -1.656  50.051 -25.641  1.00  0.00     0.023 C 
HETATM    2  C7  UNL     1      -2.866  49.195 -26.102  1.00  0.00    -0.073 C 
HETATM    3  C8  UNL     1      -3.573  49.258 -27.262  1.00  0.00    -0.085 C 
HETATM    4  C9  UNL     1      -4.636  48.244 -27.631  1.00  0.00     0.043 C 
HETATM    5  C10 UNL     1      -3.461  50.333 -28.314  1.00  0.00     0.043 C 
HETATM    6  C11 UNL     1      -3.269  48.238 -24.983  1.00  0.00     0.035 C 
HETATM    7  C12 UNL     1      -3.680  49.023 -23.729  1.00  0.00     0.010 C 
HETATM    8  C13 UNL     1      -2.557  49.976 -23.275  1.00  0.00     0.003 C 
HETATM    9  C14 UNL     1      -2.099  50.971 -24.421  1.00  0.00    -0.032 C 
HETATM   10  C15 UNL     1      -3.206  51.936 -24.915  1.00  0.00     0.016 C 
HETATM   11  C16 UNL     1      -0.924  51.852 -23.896  1.00  0.00     0.011 C 
HETATM   12  C17 UNL     1      -1.088  52.437 -22.470  1.00  0.00     0.011 C 
HETATM   13  C18 UNL     1      -1.437  51.356 -21.424  1.00  0.00    -0.032 C 
HETATM   14  C19 UNL     1      -0.197  50.409 -21.318  1.00  0.00     0.016 C 
HETATM   15  C20 UNL     1      -1.836  51.778 -19.965  1.00  0.00    -0.002 C 
HETATM   16  C29 UNL     1      -2.616  50.507 -19.476  1.00  0.00     0.006 C 
HETATM   17  C30 UNL     1      -3.021  49.691 -20.720  1.00  0.00     0.011 C 
HETATM   18  C31 UNL     1      -2.780  50.653 -21.893  1.00  0.00    -0.032 C 
HETATM   19  C32 UNL     1      -4.027  51.596 -21.915  1.00  0.00     0.016 C 
ENDROOT
BRANCH  15  20
HETATM   20  C21 UNL     1      -0.749  52.210 -18.923  1.00  0.00    -0.014 C 
HETATM   21  C22 UNL     1       0.317  53.084 -19.613  1.00  0.00     0.010 C 
BRANCH  20  22
HETATM   22  C23 UNL     1      -0.070  50.999 -18.240  1.00  0.00     0.008 C 
BRANCH  22  23
HETATM   23  C24 UNL     1       0.510  51.264 -16.839  1.00  0.00     0.028 C 
BRANCH  23  24
HETATM   24  C25 UNL     1       1.804  52.028 -16.826  1.00  0.00    -0.025 C 
HETATM   25  C26 UNL     1       2.746  52.054 -15.861  1.00  0.00    -0.091 C 
HETATM   26  C27 UNL     1       3.994  52.881 -16.033  1.00  0.00     0.042 C 
HETATM   27  C28 UNL     1       2.678  51.315 -14.553  1.00  0.00     0.042 C 
ENDBRANCH  23  24
ENDBRANCH  22  23
ENDBRANCH  20  22
ENDBRANCH  15  20
BRANCH   1  28
HETATM   28  C5  UNL     1      -0.775  50.746 -26.711  1.00  0.00     0.012 C 
BRANCH  28  29
HETATM   29  C4  UNL     1       0.679  50.936 -26.257  1.00  0.00     0.028 C 
BRANCH  29  30
HETATM   30  C3  UNL     1       1.289  52.204 -26.847  1.00  0.00     0.178 C 
BRANCH  30  31
HETATM   31  O2  UNL     1       1.040  53.315 -25.972  1.00  0.00    -0.322 OA
BRANCH  31  32
HETATM   32  C2  UNL     1       0.303  54.329 -26.501  1.00  0.00     0.254 C 
HETATM   33  C1  UNL     1      -0.291  53.899 -27.810  1.00  0.00     0.126 C 
HETATM   34  O1  UNL     1       0.139  55.432 -26.000  1.00  0.00    -0.266 OA
ENDBRANCH  31  32
ENDBRANCH  30  31
ENDBRANCH  29  30
ENDBRANCH  28  29
ENDBRANCH   1  28
TORSDOF 9
ENDMDL
MODEL 2
REMARK minimizedAffinity -9.86142635
REMARK  9 active torsions:
REMARK  status: ('A' for Active; 'I' for Inactive)
REMARK    1  A    between atoms: C2_2  and  O2_4 
REMARK    2  A    between atoms: O2_4  and  C3_5 
REMARK    3  A    between atoms: C3_5  and  C4_6 
REMARK    4  A    between atoms: C4_6  and  C5_7 
REMARK    5  A    between atoms: C5_7  and  C6_8 
REMARK    6  A    between atoms: C20_22  and  C21_23 
REMARK    7  A    between atoms: C21_23  and  C23_25 
REMARK    8  A    between atoms: C23_25  and  C24_26 
REMARK    9  A    between atoms: C24_26  and  C25_27 
ROOT
HETATM    1  C6  UNL     1      -1.644  50.033 -25.337  1.00  0.00     0.023 C 
HETATM    2  C7  UNL     1      -2.883  49.238 -25.828  1.00  0.00    -0.073 C 
HETATM    3  C8  UNL     1      -3.554  49.330 -27.008  1.00  0.00    -0.085 C 
HETATM    4  C9  UNL     1      -4.657  48.370 -27.402  1.00  0.00     0.043 C 
HETATM    5  C10 UNL     1      -3.357  50.391 -28.061  1.00  0.00     0.043 C 
HETATM    6  C11 UNL     1      -3.368  48.310 -24.716  1.00  0.00     0.035 C 
HETATM    7  C12 UNL     1      -3.772  49.123 -23.478  1.00  0.00     0.010 C 
HETATM    8  C13 UNL     1      -2.614  50.019 -22.997  1.00  0.00     0.003 C 
HETATM    9  C14 UNL     1      -2.074  50.982 -24.134  1.00  0.00    -0.032 C 
HETATM   10  C15 UNL     1      -3.115  52.000 -24.664  1.00  0.00     0.016 C 
HETATM   11  C16 UNL     1      -0.870  51.805 -23.580  1.00  0.00     0.011 C 
HETATM   12  C17 UNL     1      -1.044  52.407 -22.162  1.00  0.00     0.011 C 
HETATM   13  C18 UNL     1      -1.478  51.352 -21.121  1.00  0.00    -0.032 C 
HETATM   14  C19 UNL     1      -0.292  50.342 -20.975  1.00  0.00     0.016 C 
HETATM   15  C20 UNL     1      -1.895  51.803 -19.677  1.00  0.00    -0.002 C 
HETATM   16  C29 UNL     1      -2.754  50.577 -19.204  1.00  0.00     0.006 C 
HETATM   17  C30 UNL     1      -3.165  49.775 -20.455  1.00  0.00     0.011 C 
HETATM   18  C31 UNL     1      -2.842  50.716 -21.626  1.00  0.00    -0.032 C 
HETATM   19  C32 UNL     1      -4.036  51.722 -21.687  1.00  0.00     0.016 C 
ENDROOT
BRANCH  15  20
HETATM   20  C21 UNL     1      -0.817  52.185 -18.606  1.00  0.00    -0.014 C 
HETATM   21  C22 UNL     1       0.188  53.185 -19.211  1.00  0.00     0.010 C 
BRANCH  20  22
HETATM   22  C23 UNL     1      -0.061  50.949 -18.061  1.00  0.00     0.008 C 
BRANCH  22  23
HETATM   23  C24 UNL     1       0.623  51.138 -16.694  1.00  0.00     0.028 C 
BRANCH  23  24
HETATM   24  C25 UNL     1       1.866  51.982 -16.723  1.00  0.00    -0.025 C 
HETATM   25  C26 UNL     1       2.867  52.020 -15.820  1.00  0.00    -0.091 C 
HETATM   26  C27 UNL     1       4.047  52.934 -16.025  1.00  0.00     0.042 C 
HETATM   27  C28 UNL     1       2.932  51.211 -14.553  1.00  0.00     0.042 C 
ENDBRANCH  23  24
ENDBRANCH  22  23
ENDBRANCH  20  22
ENDBRANCH  15  20
BRANCH   1  28
HETATM   28  C5  UNL     1      -0.699  50.675 -26.384  1.00  0.00     0.012 C 
BRANCH  28  29
HETATM   29  C4  UNL     1      -0.967  52.171 -26.594  1.00  0.00     0.028 C 
BRANCH  29  30
HETATM   30  C3  UNL     1       0.323  52.938 -26.870  1.00  0.00     0.178 C 
BRANCH  30  31
HETATM   31  O2  UNL     1       1.379  52.425 -26.043  1.00  0.00    -0.322 OA
BRANCH  31  32
HETATM   32  C2  UNL     1       2.296  51.642 -26.674  1.00  0.00     0.254 C 
HETATM   33  C1  UNL     1       2.283  51.927 -28.146  1.00  0.00     0.126 C 
HETATM   34  O1  UNL     1       3.028  50.822 -26.138  1.00  0.00    -0.266 OA
ENDBRANCH  31  32
ENDBRANCH  30  31
ENDBRANCH  29  30
ENDBRANCH  28  29
ENDBRANCH   1  28
TORSDOF 9
ENDMDL
MODEL 3
REMARK minimizedAffinity -9.25817394
REMARK  9 active torsions:
REMARK  status: ('A' for Active; 'I' for Inactive)
REMARK    1  A    between atoms: C2_2  and  O2_4 
REMARK    2  A    between atoms: O2_4  and  C3_5 
REMARK    3  A    between atoms: C3_5  and  C4_6 
REMARK    4  A    between atoms: C4_6  and  C5_7 
REMARK    5  A    between atoms: C5_7  and  C6_8 
REMARK    6  A    between atoms: C20_22  and  C21_23 
REMARK    7  A    between atoms: C21_23  and  C23_25 
REMARK    8  A    between atoms: C23_25  and  C24_26 
REMARK    9  A    between atoms: C24_26  and  C25_27 
ROOT
HETATM    1  C6  UNL     1      -1.590  50.048 -25.700  1.00  0.00     0.023 C 
HETATM    2  C7  UNL     1      -2.835  49.210 -26.096  1.00  0.00    -0.073 C 
HETATM    3  C8  UNL     1      -3.552  49.225 -27.252  1.00  0.00    -0.085 C 
HETATM    4  C9  UNL     1      -4.655  48.231 -27.547  1.00  0.00     0.043 C 
HETATM    5  C10 UNL     1      -3.411  50.227 -28.371  1.00  0.00     0.043 C 
HETATM    6  C11 UNL     1      -3.263  48.341 -24.915  1.00  0.00     0.035 C 
HETATM    7  C12 UNL     1      -3.631  49.220 -23.710  1.00  0.00     0.010 C 
HETATM    8  C13 UNL     1      -2.469  50.156 -23.327  1.00  0.00     0.003 C 
HETATM    9  C14 UNL     1      -1.987  51.059 -24.537  1.00  0.00    -0.032 C 
HETATM   10  C15 UNL     1      -3.062  52.031 -25.084  1.00  0.00     0.016 C 
HETATM   11  C16 UNL     1      -0.774  51.927 -24.079  1.00  0.00     0.011 C 
HETATM   12  C17 UNL     1      -0.902  52.607 -22.692  1.00  0.00     0.011 C 
HETATM   13  C18 UNL     1      -1.281  51.608 -21.576  1.00  0.00    -0.032 C 
HETATM   14  C19 UNL     1      -0.075  50.623 -21.420  1.00  0.00     0.016 C 
HETATM   15  C20 UNL     1      -1.648  52.136 -20.144  1.00  0.00    -0.002 C 
HETATM   16  C29 UNL     1      -2.470  50.930 -19.569  1.00  0.00     0.006 C 
HETATM   17  C30 UNL     1      -2.917  50.052 -20.755  1.00  0.00     0.011 C 
HETATM   18  C31 UNL     1      -2.653  50.928 -21.989  1.00  0.00    -0.032 C 
HETATM   19  C32 UNL     1      -3.864  51.914 -22.061  1.00  0.00     0.016 C 
ENDROOT
BRANCH  15  20
HETATM   20  C21 UNL     1      -0.535  52.593 -19.141  1.00  0.00    -0.014 C 
HETATM   21  C22 UNL     1       0.540  53.406 -19.888  1.00  0.00     0.010 C 
BRANCH  20  22
HETATM   22  C23 UNL     1       0.126  51.400 -18.409  1.00  0.00     0.008 C 
BRANCH  22  23
HETATM   23  C24 UNL     1       0.674  51.704 -17.002  1.00  0.00     0.028 C 
BRANCH  23  24
HETATM   24  C25 UNL     1       0.930  50.493 -16.150  1.00  0.00    -0.025 C 
HETATM   25  C26 UNL     1       0.305  49.299 -16.192  1.00  0.00    -0.091 C 
HETATM   26  C27 UNL     1       0.710  48.191 -15.254  1.00  0.00     0.042 C 
HETATM   27  C28 UNL     1      -0.822  48.935 -17.119  1.00  0.00     0.042 C 
ENDBRANCH  23  24
ENDBRANCH  22  23
ENDBRANCH  20  22
ENDBRANCH  15  20
BRANCH   1  28
HETATM   28  C5  UNL     1      -0.695  50.639 -26.819  1.00  0.00     0.012 C 
BRANCH  28  29
HETATM   29  C4  UNL     1       0.717  50.992 -26.330  1.00  0.00     0.028 C 
BRANCH  29  30
HETATM   30  C3  UNL     1       1.210  52.300 -26.943  1.00  0.00     0.178 C 
BRANCH  30  31
HETATM   31  O2  UNL     1       0.286  52.745 -27.947  1.00  0.00    -0.322 OA
BRANCH  31  32
HETATM   32  C2  UNL     1      -0.547  53.756 -27.576  1.00  0.00     0.254 C 
HETATM   33  C1  UNL     1       0.121  54.613 -26.543  1.00  0.00     0.126 C 
HETATM   34  O1  UNL     1      -1.673  53.951 -28.009  1.00  0.00    -0.266 OA
ENDBRANCH  31  32
ENDBRANCH  30  31
ENDBRANCH  29  30
ENDBRANCH  28  29
ENDBRANCH   1  28
TORSDOF 9
ENDMDL
MODEL 4
REMARK minimizedAffinity -9.21229076
REMARK  9 active torsions:
REMARK  status: ('A' for Active; 'I' for Inactive)
REMARK    1  A    between atoms: C2_2  and  O2_4 
REMARK    2  A    between atoms: O2_4  and  C3_5 
REMARK    3  A    between atoms: C3_5  and  C4_6 
REMARK    4  A    between atoms: C4_6  and  C5_7 
REMARK    5  A    between atoms: C5_7  and  C6_8 
REMARK    6  A    between atoms: C20_22  and  C21_23 
REMARK    7  A    between atoms: C21_23  and  C23_25 
REMARK    8  A    between atoms: C23_25  and  C24_26 
REMARK    9  A    between atoms: C24_26  and  C25_27 
ROOT
HETATM    1  C6  UNL     1      -1.351  50.223 -24.842  1.00  0.00     0.023 C 
HETATM    2  C7  UNL     1      -2.490  49.587 -25.684  1.00  0.00    -0.073 C 
HETATM    3  C8  UNL     1      -3.049  50.022 -26.845  1.00  0.00    -0.085 C 
HETATM    4  C9  UNL     1      -4.052  49.203 -27.631  1.00  0.00     0.043 C 
HETATM    5  C10 UNL     1      -2.815  51.363 -27.496  1.00  0.00     0.043 C 
HETATM    6  C11 UNL     1      -3.022  48.348 -24.969  1.00  0.00     0.035 C 
HETATM    7  C12 UNL     1      -3.589  48.727 -23.593  1.00  0.00     0.010 C 
HETATM    8  C13 UNL     1      -2.537  49.459 -22.738  1.00  0.00     0.003 C 
HETATM    9  C14 UNL     1      -1.948  50.741 -23.461  1.00  0.00    -0.032 C 
HETATM   10  C15 UNL     1      -2.991  51.845 -23.765  1.00  0.00     0.016 C 
HETATM   11  C16 UNL     1      -0.852  51.383 -22.556  1.00  0.00     0.011 C 
HETATM   12  C17 UNL     1      -1.195  51.511 -21.049  1.00  0.00     0.011 C 
HETATM   13  C18 UNL     1      -1.664  50.175 -20.434  1.00  0.00    -0.032 C 
HETATM   14  C19 UNL     1      -0.440  49.201 -20.475  1.00  0.00     0.016 C 
HETATM   15  C20 UNL     1      -2.242  50.144 -18.975  1.00  0.00    -0.002 C 
HETATM   16  C29 UNL     1      -3.068  48.811 -18.995  1.00  0.00     0.006 C 
HETATM   17  C30 UNL     1      -3.312  48.425 -20.467  1.00  0.00     0.011 C 
HETATM   18  C31 UNL     1      -2.934  49.691 -21.253  1.00  0.00    -0.032 C 
HETATM   19  C32 UNL     1      -4.174  50.635 -21.133  1.00  0.00     0.016 C 
ENDROOT
BRANCH  15  20
HETATM   20  C21 UNL     1      -1.294  50.204 -17.728  1.00  0.00    -0.014 C 
HETATM   21  C22 UNL     1      -2.131  50.352 -16.443  1.00  0.00     0.010 C 
BRANCH  20  22
HETATM   22  C23 UNL     1      -0.267  51.358 -17.820  1.00  0.00     0.008 C 
BRANCH  22  23
HETATM   23  C24 UNL     1       0.505  51.667 -16.525  1.00  0.00     0.028 C 
BRANCH  23  24
HETATM   24  C25 UNL     1       1.901  52.184 -16.731  1.00  0.00    -0.025 C 
HETATM   25  C26 UNL     1       2.927  52.180 -15.856  1.00  0.00    -0.091 C 
HETATM   26  C27 UNL     1       4.269  52.740 -16.249  1.00  0.00     0.042 C 
HETATM   27  C28 UNL     1       2.872  51.658 -14.446  1.00  0.00     0.042 C 
ENDBRANCH  23  24
ENDBRANCH  22  23
ENDBRANCH  20  22
ENDBRANCH  15  20
BRANCH   1  28
HETATM   28  C5  UNL     1      -0.349  51.182 -25.535  1.00  0.00     0.012 C 
BRANCH  28  29
HETATM   29  C4  UNL     1       0.428  52.055 -24.540  1.00  0.00     0.028 C 
BRANCH  29  30
HETATM   30  C3  UNL     1       0.372  53.530 -24.927  1.00  0.00     0.178 C 
BRANCH  30  31
HETATM   31  O2  UNL     1       0.778  53.689 -26.295  1.00  0.00    -0.322 OA
BRANCH  31  32
HETATM   32  C2  UNL     1       0.114  54.644 -27.001  1.00  0.00     0.254 C 
HETATM   33  C1  UNL     1      -0.642  54.011 -28.131  1.00  0.00     0.126 C 
HETATM   34  O1  UNL     1       0.121  55.844 -26.764  1.00  0.00    -0.266 OA
ENDBRANCH  31  32
ENDBRANCH  30  31
ENDBRANCH  29  30
ENDBRANCH  28  29
ENDBRANCH   1  28
TORSDOF 9
ENDMDL
MODEL 5
REMARK minimizedAffinity -8.77196693
REMARK  9 active torsions:
REMARK  status: ('A' for Active; 'I' for Inactive)
REMARK    1  A    between atoms: C2_2  and  O2_4 
REMARK    2  A    between atoms: O2_4  and  C3_5 
REMARK    3  A    between atoms: C3_5  and  C4_6 
REMARK    4  A    between atoms: C4_6  and  C5_7 
REMARK    5  A    between atoms: C5_7  and  C6_8 
REMARK    6  A    between atoms: C20_22  and  C21_23 
REMARK    7  A    between atoms: C21_23  and  C23_25 
REMARK    8  A    between atoms: C23_25  and  C24_26 
REMARK    9  A    between atoms: C24_26  and  C25_27 
ROOT
HETATM    1  C6  UNL     1      -1.203  50.308 -24.911  1.00  0.00     0.023 C 
HETATM    2  C7  UNL     1      -2.200  50.035 -26.069  1.00  0.00    -0.073 C 
HETATM    3  C8  UNL     1      -2.566  50.844 -27.099  1.00  0.00    -0.085 C 
HETATM    4  C9  UNL     1      -3.440  50.372 -28.243  1.00  0.00     0.043 C 
HETATM    5  C10 UNL     1      -2.222  52.305 -27.247  1.00  0.00     0.043 C 
HETATM    6  C11 UNL     1      -2.848  48.666 -25.873  1.00  0.00     0.035 C 
HETATM    7  C12 UNL     1      -3.621  48.626 -24.546  1.00  0.00     0.010 C 
HETATM    8  C13 UNL     1      -2.710  48.992 -23.358  1.00  0.00     0.003 C 
HETATM    9  C14 UNL     1      -2.005  50.400 -23.540  1.00  0.00    -0.032 C 
HETATM   10  C15 UNL     1      -2.979  51.602 -23.625  1.00  0.00     0.016 C 
HETATM   11  C16 UNL     1      -1.060  50.661 -22.327  1.00  0.00     0.011 C 
HETATM   12  C17 UNL     1      -1.634  50.329 -20.926  1.00  0.00     0.011 C 
HETATM   13  C18 UNL     1      -2.204  48.896 -20.844  1.00  0.00    -0.032 C 
HETATM   14  C19 UNL     1      -0.997  47.916 -21.015  1.00  0.00     0.016 C 
HETATM   15  C20 UNL     1      -3.005  48.443 -19.572  1.00  0.00    -0.002 C 
HETATM   16  C29 UNL     1      -3.828  47.233 -20.138  1.00  0.00     0.006 C 
HETATM   17  C30 UNL     1      -3.840  47.344 -21.675  1.00  0.00     0.011 C 
HETATM   18  C31 UNL     1      -3.334  48.768 -21.951  1.00  0.00    -0.032 C 
HETATM   19  C32 UNL     1      -4.570  49.697 -21.720  1.00  0.00     0.016 C 
ENDROOT
BRANCH  15  20
HETATM   20  C21 UNL     1      -2.264  48.054 -18.248  1.00  0.00    -0.014 C 
HETATM   21  C22 UNL     1      -3.139  47.088 -17.425  1.00  0.00     0.010 C 
BRANCH  20  22
HETATM   22  C23 UNL     1      -1.899  49.289 -17.389  1.00  0.00     0.008 C 
BRANCH  22  23
HETATM   23  C24 UNL     1      -0.522  49.237 -16.703  1.00  0.00     0.028 C 
BRANCH  23  24
HETATM   24  C25 UNL     1       0.387  50.390 -17.024  1.00  0.00    -0.025 C 
HETATM   25  C26 UNL     1       0.878  51.323 -16.183  1.00  0.00    -0.091 C 
HETATM   26  C27 UNL     1       1.790  52.408 -16.693  1.00  0.00     0.042 C 
HETATM   27  C28 UNL     1       0.588  51.410 -14.710  1.00  0.00     0.042 C 
ENDBRANCH  23  24
ENDBRANCH  22  23
ENDBRANCH  20  22
ENDBRANCH  15  20
BRANCH   1  28
HETATM   28  C5  UNL     1      -0.097  51.377 -25.107  1.00  0.00     0.012 C 
BRANCH  28  29
HETATM   29  C4  UNL     1      -0.493  52.754 -24.557  1.00  0.00     0.028 C 
BRANCH  29  30
HETATM   30  C3  UNL     1       0.649  53.391 -23.770  1.00  0.00     0.178 C 
BRANCH  30  31
HETATM   31  O2  UNL     1       0.422  53.222 -22.362  1.00  0.00    -0.322 OA
BRANCH  31  32
HETATM   32  C2  UNL     1       1.287  53.880 -21.543  1.00  0.00     0.254 C 
HETATM   33  C1  UNL     1       1.361  53.185 -20.216  1.00  0.00     0.126 C 
HETATM   34  O1  UNL     1       1.916  54.889 -21.827  1.00  0.00    -0.266 OA
ENDBRANCH  31  32
ENDBRANCH  30  31
ENDBRANCH  29  30
ENDBRANCH  28  29
ENDBRANCH   1  28
TORSDOF 9
ENDMDL
MODEL 6
REMARK minimizedAffinity -8.75187778
REMARK  9 active torsions:
REMARK  status: ('A' for Active; 'I' for Inactive)
REMARK    1  A    between atoms: C2_2  and  O2_4 
REMARK    2  A    between atoms: O2_4  and  C3_5 
REMARK    3  A    between atoms: C3_5  and  C4_6 
REMARK    4  A    between atoms: C4_6  and  C5_7 
REMARK    5  A    between atoms: C5_7  and  C6_8 
REMARK    6  A    between atoms: C20_22  and  C21_23 
REMARK    7  A    between atoms: C21_23  and  C23_25 
REMARK    8  A    between atoms: C23_25  and  C24_26 
REMARK    9  A    between atoms: C24_26  and  C25_27 
ROOT
HETATM    1  C6  UNL     1      -1.300  51.742 -19.511  1.00  0.00     0.023 C 
HETATM    2  C7  UNL     1      -1.658  51.083 -18.152  1.00  0.00    -0.073 C 
HETATM    3  C8  UNL     1      -0.887  50.922 -17.043  1.00  0.00    -0.085 C 
HETATM    4  C9  UNL     1      -1.433  50.394 -15.733  1.00  0.00     0.043 C 
HETATM    5  C10 UNL     1       0.596  51.182 -16.947  1.00  0.00     0.043 C 
HETATM    6  C11 UNL     1      -3.072  50.510 -18.218  1.00  0.00     0.035 C 
HETATM    7  C12 UNL     1      -3.164  49.440 -19.316  1.00  0.00     0.010 C 
HETATM    8  C13 UNL     1      -2.721  50.001 -20.681  1.00  0.00     0.003 C 
HETATM    9  C14 UNL     1      -1.263  50.623 -20.641  1.00  0.00    -0.032 C 
HETATM   10  C15 UNL     1      -0.142  49.614 -20.291  1.00  0.00     0.016 C 
HETATM   11  C16 UNL     1      -0.922  51.219 -22.042  1.00  0.00     0.011 C 
HETATM   12  C17 UNL     1      -1.289  50.345 -23.268  1.00  0.00     0.011 C 
HETATM   13  C18 UNL     1      -2.761  49.880 -23.244  1.00  0.00    -0.032 C 
HETATM   14  C19 UNL     1      -3.645  51.162 -23.399  1.00  0.00     0.016 C 
HETATM   15  C20 UNL     1      -3.268  48.827 -24.293  1.00  0.00    -0.002 C 
HETATM   16  C29 UNL     1      -4.542  48.260 -23.574  1.00  0.00     0.006 C 
HETATM   17  C30 UNL     1      -4.442  48.618 -22.078  1.00  0.00     0.011 C 
HETATM   18  C31 UNL     1      -2.984  49.070 -21.898  1.00  0.00    -0.032 C 
HETATM   19  C32 UNL     1      -2.154  47.749 -21.797  1.00  0.00     0.016 C 
ENDROOT
BRANCH  15  20
HETATM   20  C21 UNL     1      -3.589  49.247 -25.767  1.00  0.00    -0.014 C 
HETATM   21  C22 UNL     1      -4.675  48.320 -26.349  1.00  0.00     0.010 C 
BRANCH  20  22
HETATM   22  C23 UNL     1      -2.337  49.221 -26.677  1.00  0.00     0.008 C 
BRANCH  22  23
HETATM   23  C24 UNL     1      -1.672  50.585 -26.932  1.00  0.00     0.028 C 
BRANCH  23  24
HETATM   24  C25 UNL     1      -0.215  50.654 -26.572  1.00  0.00    -0.025 C 
HETATM   25  C26 UNL     1       0.745  51.420 -27.129  1.00  0.00    -0.091 C 
HETATM   26  C27 UNL     1       2.163  51.357 -26.622  1.00  0.00     0.042 C 
HETATM   27  C28 UNL     1       0.546  52.376 -28.272  1.00  0.00     0.042 C 
ENDBRANCH  23  24
ENDBRANCH  22  23
ENDBRANCH  20  22
ENDBRANCH  15  20
BRANCH   1  28
HETATM   28  C5  UNL     1      -0.150  52.780 -19.564  1.00  0.00     0.012 C 
BRANCH  28  29
HETATM   29  C4  UNL     1       0.461  52.923 -20.965  1.00  0.00     0.028 C 
BRANCH  29  30
HETATM   30  C3  UNL     1       1.074  54.305 -21.169  1.00  0.00     0.178 C 
BRANCH  30  31
HETATM   31  O2  UNL     1       1.857  54.317 -22.373  1.00  0.00    -0.322 OA
BRANCH  31  32
HETATM   32  C2  UNL     1       1.150  54.341 -23.536  1.00  0.00     0.254 C 
HETATM   33  C1  UNL     1       0.923  55.760 -23.965  1.00  0.00     0.126 C 
HETATM   34  O1  UNL     1       0.752  53.364 -24.152  1.00  0.00    -0.266 OA
ENDBRANCH  31  32
ENDBRANCH  30  31
ENDBRANCH  29  30
ENDBRANCH  28  29
ENDBRANCH   1  28
TORSDOF 9
ENDMDL
MODEL 7
REMARK minimizedAffinity -8.61920738
REMARK  9 active torsions:
REMARK  status: ('A' for Active; 'I' for Inactive)
REMARK    1  A    between atoms: C2_2  and  O2_4 
REMARK    2  A    between atoms: O2_4  and  C3_5 
REMARK    3  A    between atoms: C3_5  and  C4_6 
REMARK    4  A    between atoms: C4_6  and  C5_7 
REMARK    5  A    between atoms: C5_7  and  C6_8 
REMARK    6  A    between atoms: C20_22  and  C21_23 
REMARK    7  A    between atoms: C21_23  and  C23_25 
REMARK    8  A    between atoms: C23_25  and  C24_26 
REMARK    9  A    between atoms: C24_26  and  C25_27 
ROOT
HETATM    1  C6  UNL     1      -0.510  50.641 -21.977  1.00  0.00     0.023 C 
HETATM    2  C7  UNL     1       0.199  52.022 -21.973  1.00  0.00    -0.073 C 
HETATM    3  C8  UNL     1       0.375  52.897 -20.946  1.00  0.00    -0.085 C 
HETATM    4  C9  UNL     1       1.229  54.142 -21.066  1.00  0.00     0.043 C 
HETATM    5  C10 UNL     1      -0.267  52.808 -19.584  1.00  0.00     0.043 C 
HETATM    6  C11 UNL     1       0.654  52.367 -23.389  1.00  0.00     0.035 C 
HETATM    7  C12 UNL     1      -0.554  52.443 -24.335  1.00  0.00     0.010 C 
HETATM    8  C13 UNL     1      -1.367  51.135 -24.309  1.00  0.00     0.003 C 
HETATM    9  C14 UNL     1      -1.838  50.737 -22.848  1.00  0.00    -0.032 C 
HETATM   10  C15 UNL     1      -2.788  51.759 -22.177  1.00  0.00     0.016 C 
HETATM   11  C16 UNL     1      -2.597  49.375 -22.907  1.00  0.00     0.011 C 
HETATM   12  C17 UNL     1      -3.626  49.212 -24.055  1.00  0.00     0.011 C 
HETATM   13  C18 UNL     1      -3.023  49.534 -25.440  1.00  0.00    -0.032 C 
HETATM   14  C19 UNL     1      -1.939  48.443 -25.729  1.00  0.00     0.016 C 
HETATM   15  C20 UNL     1      -3.956  49.618 -26.700  1.00  0.00    -0.002 C 
HETATM   16  C29 UNL     1      -3.082  50.480 -27.677  1.00  0.00     0.006 C 
HETATM   17  C30 UNL     1      -2.006  51.201 -26.841  1.00  0.00     0.011 C 
HETATM   18  C31 UNL     1      -2.479  51.024 -25.390  1.00  0.00    -0.032 C 
HETATM   19  C32 UNL     1      -3.587  52.107 -25.182  1.00  0.00     0.016 C 
ENDROOT
BRANCH  15  20
HETATM   20  C21 UNL     1      -4.480  48.321 -27.405  1.00  0.00    -0.014 C 
HETATM   21  C22 UNL     1      -4.712  48.598 -28.903  1.00  0.00     0.010 C 
BRANCH  20  22
HETATM   22  C23 UNL     1      -5.783  47.784 -26.765  1.00  0.00     0.008 C 
BRANCH  22  23
HETATM   23  C24 UNL     1      -6.930  47.479 -27.745  1.00  0.00     0.028 C 
BRANCH  23  24
HETATM   24  C25 UNL     1      -7.805  46.323 -27.351  1.00  0.00    -0.025 C 
HETATM   25  C26 UNL     1      -7.898  45.112 -27.937  1.00  0.00    -0.091 C 
HETATM   26  C27 UNL     1      -8.835  44.067 -27.389  1.00  0.00     0.042 C 
HETATM   27  C28 UNL     1      -7.133  44.669 -29.154  1.00  0.00     0.042 C 
ENDBRANCH  23  24
ENDBRANCH  22  23
ENDBRANCH  20  22
ENDBRANCH  15  20
BRANCH   1  28
HETATM   28  C5  UNL     1      -0.644  49.861 -20.644  1.00  0.00     0.012 C 
BRANCH  28  29
HETATM   29  C4  UNL     1      -0.376  50.734 -19.411  1.00  0.00     0.028 C 
BRANCH  29  30
HETATM   30  C3  UNL     1      -0.490  49.928 -18.120  1.00  0.00     0.178 C 
BRANCH  30  31
HETATM   31  O2  UNL     1      -0.425  50.811 -16.989  1.00  0.00    -0.322 OA
BRANCH  31  32
HETATM   32  C2  UNL     1       0.793  50.916 -16.391  1.00  0.00     0.254 C 
HETATM   33  C1  UNL     1       0.893  49.934 -15.262  1.00  0.00     0.126 C 
HETATM   34  O1  UNL     1       1.683  51.689 -16.711  1.00  0.00    -0.266 OA
ENDBRANCH  31  32
ENDBRANCH  30  31
ENDBRANCH  29  30
ENDBRANCH  28  29
ENDBRANCH   1  28
TORSDOF 9
ENDMDL
MODEL 8
REMARK minimizedAffinity -8.45874977
REMARK  9 active torsions:
REMARK  status: ('A' for Active; 'I' for Inactive)
REMARK    1  A    between atoms: C2_2  and  O2_4 
REMARK    2  A    between atoms: O2_4  and  C3_5 
REMARK    3  A    between atoms: C3_5  and  C4_6 
REMARK    4  A    between atoms: C4_6  and  C5_7 
REMARK    5  A    between atoms: C5_7  and  C6_8 
REMARK    6  A    between atoms: C20_22  and  C21_23 
REMARK    7  A    between atoms: C21_23  and  C23_25 
REMARK    8  A    between atoms: C23_25  and  C24_26 
REMARK    9  A    between atoms: C24_26  and  C25_27 
ROOT
HETATM    1  C6  UNL     1      -1.425  50.232 -24.865  1.00  0.00     0.023 C 
HETATM    2  C7  UNL     1      -2.407  49.869 -26.011  1.00  0.00    -0.073 C 
HETATM    3  C8  UNL     1      -2.830  50.629 -27.056  1.00  0.00    -0.085 C 
HETATM    4  C9  UNL     1      -3.676  50.076 -28.184  1.00  0.00     0.043 C 
HETATM    5  C10 UNL     1      -2.583  52.106 -27.237  1.00  0.00     0.043 C 
HETATM    6  C11 UNL     1      -2.963  48.465 -25.781  1.00  0.00     0.035 C 
HETATM    7  C12 UNL     1      -3.726  48.403 -24.450  1.00  0.00     0.010 C 
HETATM    8  C13 UNL     1      -2.836  48.854 -23.275  1.00  0.00     0.003 C 
HETATM    9  C14 UNL     1      -2.225  50.301 -23.492  1.00  0.00    -0.032 C 
HETATM   10  C15 UNL     1      -3.276  51.434 -23.597  1.00  0.00     0.016 C 
HETATM   11  C16 UNL     1      -1.294  50.649 -22.290  1.00  0.00     0.011 C 
HETATM   12  C17 UNL     1      -1.839  50.311 -20.878  1.00  0.00     0.011 C 
HETATM   13  C18 UNL     1      -2.314  48.846 -20.763  1.00  0.00    -0.032 C 
HETATM   14  C19 UNL     1      -1.046  47.943 -20.919  1.00  0.00     0.016 C 
HETATM   15  C20 UNL     1      -3.078  48.369 -19.477  1.00  0.00    -0.002 C 
HETATM   16  C29 UNL     1      -3.823  47.096 -20.011  1.00  0.00     0.006 C 
HETATM   17  C30 UNL     1      -3.848  47.172 -21.551  1.00  0.00     0.011 C 
HETATM   18  C31 UNL     1      -3.438  48.620 -21.860  1.00  0.00    -0.032 C 
HETATM   19  C32 UNL     1      -4.731  49.471 -21.642  1.00  0.00     0.016 C 
ENDROOT
BRANCH  15  20
HETATM   20  C21 UNL     1      -2.308  48.058 -18.148  1.00  0.00    -0.014 C 
HETATM   21  C22 UNL     1      -3.242  47.334 -17.160  1.00  0.00     0.010 C 
BRANCH  20  22
HETATM   22  C23 UNL     1      -1.732  49.333 -17.486  1.00  0.00     0.008 C 
BRANCH  22  23
HETATM   23  C24 UNL     1      -0.226  49.571 -17.697  1.00  0.00     0.028 C 
BRANCH  23  24
HETATM   24  C25 UNL     1       0.320  50.797 -17.020  1.00  0.00    -0.025 C 
HETATM   25  C26 UNL     1       0.904  50.888 -15.808  1.00  0.00    -0.091 C 
HETATM   26  C27 UNL     1       1.401  52.216 -15.297  1.00  0.00     0.042 C 
HETATM   27  C28 UNL     1       1.115  49.747 -14.852  1.00  0.00     0.042 C 
ENDBRANCH  23  24
ENDBRANCH  22  23
ENDBRANCH  20  22
ENDBRANCH  15  20
BRANCH   1  28
HETATM   28  C5  UNL     1      -0.392  51.366 -25.090  1.00  0.00     0.012 C 
BRANCH  28  29
HETATM   29  C4  UNL     1      -0.775  52.671 -24.379  1.00  0.00     0.028 C 
BRANCH  29  30
HETATM   30  C3  UNL     1       0.019  53.856 -24.922  1.00  0.00     0.178 C 
BRANCH  30  31
HETATM   31  O2  UNL     1       0.671  53.485 -26.146  1.00  0.00    -0.322 OA
BRANCH  31  32
HETATM   32  C2  UNL     1       0.192  54.079 -27.273  1.00  0.00     0.254 C 
HETATM   33  C1  UNL     1       0.336  53.149 -28.440  1.00  0.00     0.126 C 
HETATM   34  O1  UNL     1      -0.287  55.201 -27.342  1.00  0.00    -0.266 OA
ENDBRANCH  31  32
ENDBRANCH  30  31
ENDBRANCH  29  30
ENDBRANCH  28  29
ENDBRANCH   1  28
TORSDOF 9
ENDMDL
MODEL 9
REMARK minimizedAffinity -8.44740105
REMARK  9 active torsions:
REMARK  status: ('A' for Active; 'I' for Inactive)
REMARK    1  A    between atoms: C2_2  and  O2_4 
REMARK    2  A    between atoms: O2_4  and  C3_5 
REMARK    3  A    between atoms: C3_5  and  C4_6 
REMARK    4  A    between atoms: C4_6  and  C5_7 
REMARK    5  A    between atoms: C5_7  and  C6_8 
REMARK    6  A    between atoms: C20_22  and  C21_23 
REMARK    7  A    between atoms: C21_23  and  C23_25 
REMARK    8  A    between atoms: C23_25  and  C24_26 
REMARK    9  A    between atoms: C24_26  and  C25_27 
ROOT
HETATM    1  C6  UNL     1      -3.945  48.384 -22.909  1.00  0.00     0.023 C 
HETATM    2  C7  UNL     1      -4.857  47.296 -22.281  1.00  0.00    -0.073 C 
HETATM    3  C8  UNL     1      -6.139  46.962 -22.590  1.00  0.00    -0.085 C 
HETATM    4  C9  UNL     1      -6.843  45.765 -21.987  1.00  0.00     0.043 C 
HETATM    5  C10 UNL     1      -7.058  47.727 -23.509  1.00  0.00     0.043 C 
HETATM    6  C11 UNL     1      -4.126  46.626 -21.119  1.00  0.00     0.035 C 
HETATM    7  C12 UNL     1      -3.786  47.660 -20.035  1.00  0.00     0.010 C 
HETATM    8  C13 UNL     1      -2.965  48.828 -20.616  1.00  0.00     0.003 C 
HETATM    9  C14 UNL     1      -3.687  49.533 -21.839  1.00  0.00    -0.032 C 
HETATM   10  C15 UNL     1      -5.046  50.190 -21.492  1.00  0.00     0.016 C 
HETATM   11  C16 UNL     1      -2.764  50.657 -22.400  1.00  0.00     0.011 C 
HETATM   12  C17 UNL     1      -2.083  51.574 -21.351  1.00  0.00     0.011 C 
HETATM   13  C18 UNL     1      -1.330  50.774 -20.266  1.00  0.00    -0.032 C 
HETATM   14  C19 UNL     1      -0.143  50.047 -20.980  1.00  0.00     0.016 C 
HETATM   15  C20 UNL     1      -0.746  51.515 -19.012  1.00  0.00    -0.002 C 
HETATM   16  C29 UNL     1      -0.611  50.334 -17.988  1.00  0.00     0.006 C 
HETATM   17  C30 UNL     1      -1.500  49.175 -18.481  1.00  0.00     0.011 C 
HETATM   18  C31 UNL     1      -2.381  49.814 -19.565  1.00  0.00    -0.032 C 
HETATM   19  C32 UNL     1      -3.515  50.559 -18.789  1.00  0.00     0.016 C 
ENDROOT
BRANCH  15  20
HETATM   20  C21 UNL     1       0.585  52.336 -19.106  1.00  0.00    -0.014 C 
HETATM   21  C22 UNL     1       1.166  52.553 -17.695  1.00  0.00     0.010 C 
BRANCH  20  22
HETATM   22  C23 UNL     1       0.389  53.702 -19.806  1.00  0.00     0.008 C 
BRANCH  22  23
HETATM   23  C24 UNL     1       1.243  53.932 -21.067  1.00  0.00     0.028 C 
BRANCH  23  24
HETATM   24  C25 UNL     1       0.968  52.980 -22.197  1.00  0.00    -0.025 C 
HETATM   25  C26 UNL     1       0.757  53.270 -23.497  1.00  0.00    -0.091 C 
HETATM   26  C27 UNL     1       0.504  52.169 -24.494  1.00  0.00     0.042 C 
HETATM   27  C28 UNL     1       0.735  54.651 -24.092  1.00  0.00     0.042 C 
ENDBRANCH  23  24
ENDBRANCH  22  23
ENDBRANCH  20  22
ENDBRANCH  15  20
BRANCH   1  28
HETATM   28  C5  UNL     1      -4.241  48.873 -24.350  1.00  0.00     0.012 C 
BRANCH  28  29
HETATM   29  C4  UNL     1      -3.189  48.409 -25.367  1.00  0.00     0.028 C 
BRANCH  29  30
HETATM   30  C3  UNL     1      -3.372  49.098 -26.716  1.00  0.00     0.178 C 
BRANCH  30  31
HETATM   31  O2  UNL     1      -3.577  48.114 -27.740  1.00  0.00    -0.322 OA
BRANCH  31  32
HETATM   32  C2  UNL     1      -4.608  48.358 -28.595  1.00  0.00     0.254 C 
HETATM   33  C1  UNL     1      -5.865  47.732 -28.071  1.00  0.00     0.126 C 
HETATM   34  O1  UNL     1      -4.537  48.991 -29.639  1.00  0.00    -0.266 OA
ENDBRANCH  31  32
ENDBRANCH  30  31
ENDBRANCH  29  30
ENDBRANCH  28  29
ENDBRANCH   1  28
TORSDOF 9
ENDMDL
