MODEL 1
REMARK minimizedAffinity -7.2815361
REMARK CNNscore 0.66681993
REMARK CNNaffinity 6.54806662
REMARK  5 active torsions:
REMARK  status: ('A' for Active; 'I' for Inactive)
REMARK    1  A    between atoms: C2_2  and  C4_4 
REMARK    2  A    between atoms: C10_11  and  O2_12 
REMARK    3  A    between atoms: C13_15  and  O3_16 
REMARK    4  A    between atoms: C32_37  and  O5_38 
REMARK    5  A    between atoms: C37_44  and  O7_45 
ROOT
HETATM    1  C4  UNL     1      -3.289  17.784   8.062  1.00  0.00     0.181 C 
HETATM    2  O1  UNL     1      -3.272  16.924   6.914  1.00  0.00    -0.370 OA
HETATM    3  C5  UNL     1      -2.024  16.228   6.694  1.00  0.00     0.163 C 
HETATM    4  C6  UNL     1      -2.150  15.683   5.263  1.00  0.00     0.036 C 
HETATM    5  C7  UNL     1      -0.839  15.271   4.593  1.00  0.00     0.016 C 
HETATM    6  C8  UNL     1       0.293  16.336   4.731  1.00  0.00     0.006 C 
HETATM    7  C9  UNL     1      -0.216  17.649   4.059  1.00  0.00     0.020 C 
HETATM    8  C10 UNL     1       0.515  16.577   6.286  1.00  0.00     0.102 C 
HETATM    9  C11 UNL     1       1.786  17.416   6.620  1.00  0.00     0.045 C 
HETATM   10  C12 UNL     1       3.088  16.927   5.924  1.00  0.00     0.045 C 
HETATM   11  C13 UNL     1       2.846  16.857   4.427  1.00  0.00     0.102 C 
HETATM   12  C14 UNL     1       4.026  16.459   3.411  1.00  0.00     0.194 C 
HETATM   13  O4  UNL     1       4.784  17.659   3.193  1.00  0.00    -0.367 OA
HETATM   14  C15 UNL     1       6.131  17.566   2.700  1.00  0.00     0.061 C 
HETATM   15  C16 UNL     1       6.669  19.006   2.873  1.00  0.00     0.046 C 
HETATM   16  C17 UNL     1       7.011  16.654   3.558  1.00  0.00     0.046 C 
HETATM   17  C18 UNL     1       6.147  17.268   1.188  1.00  0.00     0.060 C 
HETATM   18  C19 UNL     1       7.499  17.207   0.434  1.00  0.00     0.023 C 
HETATM   19  C20 UNL     1       6.934  16.115  -0.501  1.00  0.00     0.054 C 
HETATM   20  C21 UNL     1       6.415  16.471  -1.867  1.00  0.00    -0.078 C 
HETATM   21  C22 UNL     1       7.026  17.408  -2.610  1.00  0.00     0.015 C 
HETATM   22  C23 UNL     1       5.231  15.663  -2.377  1.00  0.00     0.073 C 
HETATM   23  C24 UNL     1       4.072  15.618  -1.405  1.00  0.00    -0.044 A 
HETATM   24  C25 UNL     1       2.763  15.397  -1.845  1.00  0.00     0.010 A 
HETATM   25  C26 UNL     1       1.694  15.334  -0.943  1.00  0.00     0.031 A 
HETATM   26  C27 UNL     1       1.970  15.545   0.413  1.00  0.00     0.044 A 
HETATM   27  N1  UNL     1       1.120  15.530   1.513  1.00  0.00    -0.358 N 
HETATM   28  C28 UNL     1       1.857  15.811   2.613  1.00  0.00     0.032 A 
HETATM   29  C29 UNL     1       3.162  16.059   2.246  1.00  0.00     0.010 A 
HETATM   30  C30 UNL     1       3.272  15.803   0.874  1.00  0.00     0.011 A 
HETATM   31  C31 UNL     1       4.347  15.757  -0.030  1.00  0.00    -0.003 A 
HETATM   32  C32 UNL     1       5.796  15.863   0.575  1.00  0.00     0.100 C 
HETATM   33  C33 UNL     1       1.650  15.829   4.101  1.00  0.00     0.043 C 
HETATM   34  C34 UNL     1       2.034  14.370   4.544  1.00  0.00     0.026 C 
HETATM   35  C35 UNL     1      -0.785  17.097   6.916  1.00  0.00     0.147 A 
HETATM   36  O6  UNL     1      -0.560  17.384   8.333  1.00  0.00    -0.360 OA
HETATM   37  C36 UNL     1      -0.956  18.478   7.511  1.00  0.00     0.194 A 
HETATM   38  C37 UNL     1      -2.339  18.980   7.770  1.00  0.00     0.183 C 
HETATM   39  H38 UNL     1       0.131  15.323   1.480  1.00  0.00     0.166 HD
ENDROOT
BRANCH   1  40
HETATM   40  C2  UNL     1      -4.723  18.219   8.354  1.00  0.00    -0.062 C 
HETATM   41  C1  UNL     1      -5.718  18.204   7.447  1.00  0.00     0.016 C 
HETATM   42  C3  UNL     1      -4.998  18.654   9.768  1.00  0.00     0.045 C 
ENDBRANCH   1  40
BRANCH  38  43
HETATM   43  O7  UNL     1      -2.736  19.720   6.613  1.00  0.00    -0.390 OA
HETATM   44  H45 UNL     1      -3.639  19.429   6.382  1.00  0.00     0.210 HD
ENDBRANCH  38  43
BRANCH   8  45
HETATM   45  O2  UNL     1       0.742  15.315   6.946  1.00  0.00    -0.386 OA
HETATM   46  H15 UNL     1       0.718  15.500   7.905  1.00  0.00     0.210 HD
ENDBRANCH   8  45
BRANCH  11  47
HETATM   47  O3  UNL     1       2.487  18.228   4.072  1.00  0.00    -0.386 OA
HETATM   48  H20 UNL     1       3.261  18.577   3.580  1.00  0.00     0.210 HD
ENDBRANCH  11  47
BRANCH  32  49
HETATM   49  O5  UNL     1       6.100  14.717   1.416  1.00  0.00    -0.384 OA
HETATM   50  H39 UNL     1       5.746  13.956   0.920  1.00  0.00     0.211 HD
ENDBRANCH  32  49
TORSDOF 5
ENDMDL
MODEL 2
REMARK minimizedAffinity -8.01927376
REMARK CNNscore 0.602442265
REMARK CNNaffinity 5.76841736
REMARK  5 active torsions:
REMARK  status: ('A' for Active; 'I' for Inactive)
REMARK    1  A    between atoms: C2_2  and  C4_4 
REMARK    2  A    between atoms: C10_11  and  O2_12 
REMARK    3  A    between atoms: C13_15  and  O3_16 
REMARK    4  A    between atoms: C32_37  and  O5_38 
REMARK    5  A    between atoms: C37_44  and  O7_45 
ROOT
HETATM    1  C4  UNL     1     -14.703   5.904  25.336  1.00  0.00     0.181 C 
HETATM    2  O1  UNL     1     -13.862   6.946  25.847  1.00  0.00    -0.370 OA
HETATM    3  C5  UNL     1     -13.953   8.203  25.137  1.00  0.00     0.163 C 
HETATM    4  C6  UNL     1     -12.738   9.000  25.637  1.00  0.00     0.036 C 
HETATM    5  C7  UNL     1     -12.322  10.188  24.768  1.00  0.00     0.016 C 
HETATM    6  C8  UNL     1     -12.231   9.847  23.248  1.00  0.00     0.006 C 
HETATM    7  C9  UNL     1     -11.167   8.717  23.086  1.00  0.00     0.020 C 
HETATM    8  C10 UNL     1     -13.661   9.310  22.808  1.00  0.00     0.102 C 
HETATM    9  C11 UNL     1     -13.833   9.167  21.265  1.00  0.00     0.045 C 
HETATM   10  C12 UNL     1     -13.414  10.420  20.446  1.00  0.00     0.045 C 
HETATM   11  C13 UNL     1     -11.989  10.791  20.813  1.00  0.00     0.102 C 
HETATM   12  C14 UNL     1     -11.229  12.002  20.079  1.00  0.00     0.194 C 
HETATM   13  O4  UNL     1     -10.730  11.467  18.844  1.00  0.00    -0.367 OA
HETATM   14  C15 UNL     1     -10.392  12.362  17.770  1.00  0.00     0.061 C 
HETATM   15  C16 UNL     1     -10.179  11.408  16.572  1.00  0.00     0.046 C 
HETATM   16  C17 UNL     1     -11.545  13.296  17.397  1.00  0.00     0.046 C 
HETATM   17  C18 UNL     1      -9.039  13.053  18.031  1.00  0.00     0.060 C 
HETATM   18  C19 UNL     1      -8.445  13.999  16.958  1.00  0.00     0.023 C 
HETATM   19  C20 UNL     1      -7.828  14.878  18.069  1.00  0.00     0.054 C 
HETATM   20  C21 UNL     1      -6.381  14.725  18.451  1.00  0.00    -0.078 C 
HETATM   21  C22 UNL     1      -5.448  14.484  17.517  1.00  0.00     0.015 C 
HETATM   22  C23 UNL     1      -6.039  14.938  19.918  1.00  0.00     0.073 C 
HETATM   23  C24 UNL     1      -6.888  14.112  20.859  1.00  0.00    -0.044 A 
HETATM   24  C25 UNL     1      -6.430  13.764  22.134  1.00  0.00     0.010 A 
HETATM   25  C26 UNL     1      -7.225  13.017  23.012  1.00  0.00     0.031 A 
HETATM   26  C27 UNL     1      -8.478  12.588  22.556  1.00  0.00     0.044 A 
HETATM   27  N1  UNL     1      -9.464  11.855  23.206  1.00  0.00    -0.358 N 
HETATM   28  C28 UNL     1     -10.488  11.675  22.339  1.00  0.00     0.032 A 
HETATM   29  C29 UNL     1     -10.168  12.234  21.121  1.00  0.00     0.010 A 
HETATM   30  C30 UNL     1      -8.943  12.897  21.267  1.00  0.00     0.011 A 
HETATM   31  C31 UNL     1      -8.180  13.736  20.438  1.00  0.00    -0.003 A 
HETATM   32  C32 UNL     1      -8.839  14.200  19.086  1.00  0.00     0.100 C 
HETATM   33  C33 UNL     1     -11.885  11.124  22.385  1.00  0.00     0.043 C 
HETATM   34  C34 UNL     1     -12.763  12.376  22.747  1.00  0.00     0.026 C 
HETATM   35  C35 UNL     1     -14.007   8.051  23.616  1.00  0.00     0.147 A 
HETATM   36  O6  UNL     1     -15.292   7.519  23.161  1.00  0.00    -0.360 OA
HETATM   37  C36 UNL     1     -14.158   6.667  23.023  1.00  0.00     0.194 A 
HETATM   38  C37 UNL     1     -14.150   5.489  23.943  1.00  0.00     0.183 C 
HETATM   39  H38 UNL     1      -9.416  11.538  24.164  1.00  0.00     0.166 HD
ENDROOT
BRANCH   1  40
HETATM   40  C2  UNL     1     -14.742   4.745  26.330  1.00  0.00    -0.062 C 
HETATM   41  C1  UNL     1     -15.208   3.515  26.042  1.00  0.00     0.016 C 
HETATM   42  C3  UNL     1     -14.185   5.039  27.697  1.00  0.00     0.045 C 
ENDBRANCH   1  40
BRANCH  38  43
HETATM   43  O7  UNL     1     -12.799   5.024  24.010  1.00  0.00    -0.390 OA
HETATM   44  H45 UNL     1     -12.594   4.876  24.953  1.00  0.00     0.210 HD
ENDBRANCH  38  43
BRANCH   8  45
HETATM   45  O2  UNL     1     -14.676  10.260  23.189  1.00  0.00    -0.386 OA
HETATM   46  H15 UNL     1     -15.534   9.818  23.038  1.00  0.00     0.210 HD
ENDBRANCH   8  45
BRANCH  11  47
HETATM   47  O3  UNL     1     -11.222   9.596  20.466  1.00  0.00    -0.386 OA
HETATM   48  H20 UNL     1     -10.711   9.843  19.665  1.00  0.00     0.210 HD
ENDBRANCH  11  47
BRANCH  32  49
HETATM   49  O5  UNL     1      -9.998  15.042  19.329  1.00  0.00    -0.384 OA
HETATM   50  H39 UNL     1      -9.721  15.629  20.055  1.00  0.00     0.211 HD
ENDBRANCH  32  49
TORSDOF 5
ENDMDL
MODEL 3
REMARK minimizedAffinity -8.29474831
REMARK CNNscore 0.601912498
REMARK CNNaffinity 6.24136972
REMARK  5 active torsions:
REMARK  status: ('A' for Active; 'I' for Inactive)
REMARK    1  A    between atoms: C2_2  and  C4_4 
REMARK    2  A    between atoms: C10_11  and  O2_12 
REMARK    3  A    between atoms: C13_15  and  O3_16 
REMARK    4  A    between atoms: C32_37  and  O5_38 
REMARK    5  A    between atoms: C37_44  and  O7_45 
ROOT
HETATM    1  C4  UNL     1      -5.663 -10.294   8.351  1.00  0.00     0.181 C 
HETATM    2  O1  UNL     1      -6.837  -9.783   7.706  1.00  0.00    -0.370 OA
HETATM    3  C5  UNL     1      -7.325 -10.588   6.608  1.00  0.00     0.163 C 
HETATM    4  C6  UNL     1      -8.329  -9.670   5.893  1.00  0.00     0.036 C 
HETATM    5  C7  UNL     1      -8.693 -10.072   4.463  1.00  0.00     0.016 C 
HETATM    6  C8  UNL     1      -7.454 -10.412   3.577  1.00  0.00     0.006 C 
HETATM    7  C9  UNL     1      -6.557  -9.136   3.520  1.00  0.00     0.020 C 
HETATM    8  C10 UNL     1      -6.673 -11.589   4.305  1.00  0.00     0.102 C 
HETATM    9  C11 UNL     1      -5.553 -12.236   3.433  1.00  0.00     0.045 C 
HETATM   10  C12 UNL     1      -5.999 -12.642   2.000  1.00  0.00     0.045 C 
HETATM   11  C13 UNL     1      -6.606 -11.432   1.314  1.00  0.00     0.102 C 
HETATM   12  C14 UNL     1      -7.096 -11.501  -0.215  1.00  0.00     0.194 C 
HETATM   13  O4  UNL     1      -5.920 -11.317  -1.017  1.00  0.00    -0.367 OA
HETATM   14  C15 UNL     1      -5.923 -11.749  -2.388  1.00  0.00     0.061 C 
HETATM   15  C16 UNL     1      -4.436 -11.637  -2.796  1.00  0.00     0.046 C 
HETATM   16  C17 UNL     1      -6.320 -13.219  -2.541  1.00  0.00     0.046 C 
HETATM   17  C18 UNL     1      -6.700 -10.759  -3.279  1.00  0.00     0.060 C 
HETATM   18  C19 UNL     1      -6.759 -10.991  -4.809  1.00  0.00     0.023 C 
HETATM   19  C20 UNL     1      -8.184 -10.396  -4.849  1.00  0.00     0.054 C 
HETATM   20  C21 UNL     1      -8.405  -8.965  -5.257  1.00  0.00    -0.078 C 
HETATM   21  C22 UNL     1      -7.674  -8.412  -6.237  1.00  0.00     0.015 C 
HETATM   22  C23 UNL     1      -9.539  -8.227  -4.561  1.00  0.00     0.073 C 
HETATM   23  C24 UNL     1      -9.469  -8.304  -3.052  1.00  0.00    -0.044 A 
HETATM   24  C25 UNL     1     -10.061  -7.325  -2.246  1.00  0.00     0.010 A 
HETATM   25  C26 UNL     1     -10.014  -7.409  -0.849  1.00  0.00     0.031 A 
HETATM   26  C27 UNL     1      -9.316  -8.482  -0.282  1.00  0.00     0.044 A 
HETATM   27  N1  UNL     1      -9.120  -8.817   1.053  1.00  0.00    -0.358 N 
HETATM   28  C28 UNL     1      -8.359  -9.935   1.095  1.00  0.00     0.032 A 
HETATM   29  C29 UNL     1      -8.013 -10.308  -0.185  1.00  0.00     0.010 A 
HETATM   30  C30 UNL     1      -8.686  -9.458  -1.071  1.00  0.00     0.011 A 
HETATM   31  C31 UNL     1      -8.832  -9.418  -2.469  1.00  0.00    -0.003 A 
HETATM   32  C32 UNL     1      -8.267 -10.640  -3.283  1.00  0.00     0.100 C 
HETATM   33  C33 UNL     1      -7.885 -10.905   2.139  1.00  0.00     0.043 C 
HETATM   34  C34 UNL     1      -9.016 -11.996   2.169  1.00  0.00     0.026 C 
HETATM   35  C35 UNL     1      -6.220 -11.123   5.695  1.00  0.00     0.147 A 
HETATM   36  O6  UNL     1      -5.442 -12.184   6.336  1.00  0.00    -0.360 OA
HETATM   37  C36 UNL     1      -4.776 -10.944   6.111  1.00  0.00     0.194 A 
HETATM   38  C37 UNL     1      -4.479 -10.165   7.351  1.00  0.00     0.183 C 
HETATM   39  H38 UNL     1      -9.504  -8.313   1.841  1.00  0.00     0.166 HD
ENDROOT
BRANCH   1  40
HETATM   40  C2  UNL     1      -5.426  -9.536   9.656  1.00  0.00    -0.062 C 
HETATM   41  C1  UNL     1      -6.354  -8.778  10.270  1.00  0.00     0.016 C 
HETATM   42  C3  UNL     1      -4.062  -9.704  10.270  1.00  0.00     0.045 C 
ENDBRANCH   1  40
BRANCH  38  43
HETATM   43  O7  UNL     1      -4.253  -8.812   6.947  1.00  0.00    -0.390 OA
HETATM   44  H45 UNL     1      -4.764  -8.242   7.554  1.00  0.00     0.210 HD
ENDBRANCH  38  43
BRANCH   8  45
HETATM   45  O2  UNL     1      -7.579 -12.677   4.578  1.00  0.00    -0.386 OA
HETATM   46  H15 UNL     1      -7.092 -13.299   5.155  1.00  0.00     0.210 HD
ENDBRANCH   8  45
BRANCH  11  47
HETATM   47  O3  UNL     1      -5.522 -10.452   1.321  1.00  0.00    -0.386 OA
HETATM   48  H20 UNL     1      -5.221 -10.396   0.388  1.00  0.00     0.210 HD
ENDBRANCH  11  47
BRANCH  32  49
HETATM   49  O5  UNL     1      -8.992 -11.860  -2.971  1.00  0.00    -0.384 OA
HETATM   50  H39 UNL     1      -9.925 -11.583  -2.938  1.00  0.00     0.211 HD
ENDBRANCH  32  49
TORSDOF 5
ENDMDL
MODEL 4
REMARK minimizedAffinity -8.41791058
REMARK CNNscore 0.590351403
REMARK CNNaffinity 6.38324738
REMARK  5 active torsions:
REMARK  status: ('A' for Active; 'I' for Inactive)
REMARK    1  A    between atoms: C2_2  and  C4_4 
REMARK    2  A    between atoms: C10_11  and  O2_12 
REMARK    3  A    between atoms: C13_15  and  O3_16 
REMARK    4  A    between atoms: C32_37  and  O5_38 
REMARK    5  A    between atoms: C37_44  and  O7_45 
ROOT
HETATM    1  C4  UNL     1     -13.719  -7.287  10.296  1.00  0.00     0.181 C 
HETATM    2  O1  UNL     1     -13.357  -6.441  11.396  1.00  0.00    -0.370 OA
HETATM    3  C5  UNL     1     -14.473  -5.849  12.099  1.00  0.00     0.163 C 
HETATM    4  C6  UNL     1     -13.829  -4.751  12.960  1.00  0.00     0.036 C 
HETATM    5  C7  UNL     1     -14.782  -3.679  13.489  1.00  0.00     0.016 C 
HETATM    6  C8  UNL     1     -15.737  -3.102  12.399  1.00  0.00     0.006 C 
HETATM    7  C9  UNL     1     -14.846  -2.467  11.286  1.00  0.00     0.020 C 
HETATM    8  C10 UNL     1     -16.555  -4.328  11.803  1.00  0.00     0.102 C 
HETATM    9  C11 UNL     1     -17.743  -3.907  10.886  1.00  0.00     0.045 C 
HETATM   10  C12 UNL     1     -18.685  -2.831  11.496  1.00  0.00     0.045 C 
HETATM   11  C13 UNL     1     -17.854  -1.631  11.912  1.00  0.00     0.102 C 
HETATM   12  C14 UNL     1     -18.544  -0.308  12.509  1.00  0.00     0.194 C 
HETATM   13  O4  UNL     1     -18.997   0.449  11.377  1.00  0.00    -0.367 OA
HETATM   14  C15 UNL     1     -20.019   1.444  11.554  1.00  0.00     0.061 C 
HETATM   15  C16 UNL     1     -20.409   1.810  10.103  1.00  0.00     0.046 C 
HETATM   16  C17 UNL     1     -21.275   0.886  12.227  1.00  0.00     0.046 C 
HETATM   17  C18 UNL     1     -19.441   2.723  12.191  1.00  0.00     0.060 C 
HETATM   18  C19 UNL     1     -20.356   3.956  12.397  1.00  0.00     0.023 C 
HETATM   19  C20 UNL     1     -19.585   4.319  13.685  1.00  0.00     0.054 C 
HETATM   20  C21 UNL     1     -18.508   5.369  13.663  1.00  0.00    -0.078 C 
HETATM   21  C22 UNL     1     -18.643   6.473  12.910  1.00  0.00     0.015 C 
HETATM   22  C23 UNL     1     -17.322   5.147  14.590  1.00  0.00     0.073 C 
HETATM   23  C24 UNL     1     -16.685   3.784  14.433  1.00  0.00    -0.044 A 
HETATM   24  C25 UNL     1     -15.346   3.564  14.775  1.00  0.00     0.010 A 
HETATM   25  C26 UNL     1     -14.763   2.297  14.650  1.00  0.00     0.031 A 
HETATM   26  C27 UNL     1     -15.551   1.264  14.127  1.00  0.00     0.044 A 
HETATM   27  N1  UNL     1     -15.242  -0.073  13.907  1.00  0.00    -0.358 N 
HETATM   28  C28 UNL     1     -16.330  -0.669  13.366  1.00  0.00     0.032 A 
HETATM   29  C29 UNL     1     -17.327   0.265  13.184  1.00  0.00     0.010 A 
HETATM   30  C30 UNL     1     -16.886   1.470  13.745  1.00  0.00     0.011 A 
HETATM   31  C31 UNL     1     -17.488   2.720  13.976  1.00  0.00    -0.003 A 
HETATM   32  C32 UNL     1     -19.034   2.832  13.706  1.00  0.00     0.100 C 
HETATM   33  C33 UNL     1     -16.759  -2.064  13.011  1.00  0.00     0.043 C 
HETATM   34  C34 UNL     1     -17.459  -2.579  14.321  1.00  0.00     0.026 C 
HETATM   35  C35 UNL     1     -15.583  -5.337  11.178  1.00  0.00     0.147 A 
HETATM   36  O6  UNL     1     -16.340  -6.431  10.569  1.00  0.00    -0.360 OA
HETATM   37  C36 UNL     1     -15.514  -5.660   9.701  1.00  0.00     0.194 A 
HETATM   38  C37 UNL     1     -14.315  -6.384   9.180  1.00  0.00     0.183 C 
HETATM   39  H38 UNL     1     -14.360  -0.511  14.135  1.00  0.00     0.166 HD
ENDROOT
BRANCH   1  40
HETATM   40  C2  UNL     1     -12.494  -8.075   9.834  1.00  0.00    -0.062 C 
HETATM   41  C1  UNL     1     -12.193  -8.319   8.544  1.00  0.00     0.016 C 
HETATM   42  C3  UNL     1     -11.582  -8.563  10.927  1.00  0.00     0.045 C 
ENDBRANCH   1  40
BRANCH  38  43
HETATM   43  O7  UNL     1     -13.391  -5.388   8.733  1.00  0.00    -0.390 OA
HETATM   44  H45 UNL     1     -12.514  -5.632   9.088  1.00  0.00     0.210 HD
ENDBRANCH  38  43
BRANCH   8  45
HETATM   45  O2  UNL     1     -17.180  -5.062  12.875  1.00  0.00    -0.386 OA
HETATM   46  H15 UNL     1     -17.535  -5.880  12.475  1.00  0.00     0.210 HD
ENDBRANCH   8  45
BRANCH  11  47
HETATM   47  O3  UNL     1     -17.223  -1.200  10.666  1.00  0.00    -0.386 OA
HETATM   48  H20 UNL     1     -17.677  -0.364  10.425  1.00  0.00     0.210 HD
ENDBRANCH  11  47
BRANCH  32  49
HETATM   49  O5  UNL     1     -19.790   1.994  14.622  1.00  0.00    -0.384 OA
HETATM   50  H39 UNL     1     -19.353   2.127  15.483  1.00  0.00     0.211 HD
ENDBRANCH  32  49
TORSDOF 5
ENDMDL
MODEL 5
REMARK minimizedAffinity -7.54798651
REMARK CNNscore 0.530716181
REMARK CNNaffinity 6.28379965
REMARK  5 active torsions:
REMARK  status: ('A' for Active; 'I' for Inactive)
REMARK    1  A    between atoms: C2_2  and  C4_4 
REMARK    2  A    between atoms: C10_11  and  O2_12 
REMARK    3  A    between atoms: C13_15  and  O3_16 
REMARK    4  A    between atoms: C32_37  and  O5_38 
REMARK    5  A    between atoms: C37_44  and  O7_45 
ROOT
HETATM    1  C4  UNL     1       4.356  14.519   0.842  1.00  0.00     0.181 C 
HETATM    2  O1  UNL     1       3.756  14.247   2.116  1.00  0.00    -0.370 OA
HETATM    3  C5  UNL     1       2.335  13.983   2.073  1.00  0.00     0.163 C 
HETATM    4  C6  UNL     1       1.895  14.080   3.542  1.00  0.00     0.036 C 
HETATM    5  C7  UNL     1       0.396  14.270   3.775  1.00  0.00     0.016 C 
HETATM    6  C8  UNL     1      -0.236  15.385   2.886  1.00  0.00     0.006 C 
HETATM    7  C9  UNL     1       0.492  16.723   3.228  1.00  0.00     0.020 C 
HETATM    8  C10 UNL     1       0.047  14.988   1.373  1.00  0.00     0.102 C 
HETATM    9  C11 UNL     1      -0.737  15.851   0.338  1.00  0.00     0.045 C 
HETATM   10  C12 UNL     1      -2.260  15.982   0.622  1.00  0.00     0.045 C 
HETATM   11  C13 UNL     1      -2.452  16.501   2.035  1.00  0.00     0.102 C 
HETATM   12  C14 UNL     1      -3.917  16.822   2.612  1.00  0.00     0.194 C 
HETATM   13  O4  UNL     1      -4.257  18.130   2.127  1.00  0.00    -0.367 OA
HETATM   14  C15 UNL     1      -5.636  18.534   2.088  1.00  0.00     0.061 C 
HETATM   15  C16 UNL     1      -5.595  19.844   1.266  1.00  0.00     0.046 C 
HETATM   16  C17 UNL     1      -6.517  17.550   1.316  1.00  0.00     0.046 C 
HETATM   17  C18 UNL     1      -6.142  18.912   3.494  1.00  0.00     0.060 C 
HETATM   18  C19 UNL     1      -7.582  19.455   3.669  1.00  0.00     0.023 C 
HETATM   19  C20 UNL     1      -7.679  18.769   5.049  1.00  0.00     0.054 C 
HETATM   20  C21 UNL     1      -7.444  19.551   6.311  1.00  0.00    -0.078 C 
HETATM   21  C22 UNL     1      -7.875  20.818   6.423  1.00  0.00     0.015 C 
HETATM   22  C23 UNL     1      -6.774  18.808   7.458  1.00  0.00     0.073 C 
HETATM   23  C24 UNL     1      -5.488  18.119   7.056  1.00  0.00    -0.044 A 
HETATM   24  C25 UNL     1      -4.490  17.838   7.996  1.00  0.00     0.010 A 
HETATM   25  C26 UNL     1      -3.310  17.182   7.628  1.00  0.00     0.031 A 
HETATM   26  C27 UNL     1      -3.138  16.854   6.278  1.00  0.00     0.044 A 
HETATM   27  N1  UNL     1      -2.089  16.201   5.642  1.00  0.00    -0.358 N 
HETATM   28  C28 UNL     1      -2.376  16.138   4.321  1.00  0.00     0.032 A 
HETATM   29  C29 UNL     1      -3.570  16.781   4.076  1.00  0.00     0.010 A 
HETATM   30  C30 UNL     1      -4.111  17.156   5.312  1.00  0.00     0.011 A 
HETATM   31  C31 UNL     1      -5.335  17.719   5.714  1.00  0.00    -0.003 A 
HETATM   32  C32 UNL     1      -6.455  17.857   4.617  1.00  0.00     0.100 C 
HETATM   33  C33 UNL     1      -1.798  15.484   3.098  1.00  0.00     0.043 C 
HETATM   34  C34 UNL     1      -2.521  14.089   3.050  1.00  0.00     0.026 C 
HETATM   35  C35 UNL     1       1.561  14.914   1.136  1.00  0.00     0.147 A 
HETATM   36  O6  UNL     1       1.821  14.616  -0.272  1.00  0.00    -0.360 OA
HETATM   37  C36 UNL     1       2.334  15.847   0.230  1.00  0.00     0.194 A 
HETATM   38  C37 UNL     1       3.823  15.895   0.351  1.00  0.00     0.183 C 
HETATM   39  H38 UNL     1      -1.271  15.828   6.104  1.00  0.00     0.166 HD
ENDROOT
BRANCH   1  40
HETATM   40  C2  UNL     1       5.878  14.484   0.976  1.00  0.00    -0.062 C 
HETATM   41  C1  UNL     1       6.726  15.108   0.138  1.00  0.00     0.016 C 
HETATM   42  C3  UNL     1       6.411  13.714   2.154  1.00  0.00     0.045 C 
ENDBRANCH   1  40
BRANCH  38  43
HETATM   43  O7  UNL     1       4.131  16.954   1.261  1.00  0.00    -0.390 OA
HETATM   44  H45 UNL     1       4.791  16.608   1.892  1.00  0.00     0.210 HD
ENDBRANCH  38  43
BRANCH   8  45
HETATM   45  O2  UNL     1      -0.412  13.643   1.130  1.00  0.00    -0.386 OA
HETATM   46  H15 UNL     1      -0.079  13.397   0.245  1.00  0.00     0.210 HD
ENDBRANCH   8  45
BRANCH  11  47
HETATM   47  O3  UNL     1      -1.758  17.787   2.026  1.00  0.00    -0.386 OA
HETATM   48  H20 UNL     1      -2.470  18.463   2.053  1.00  0.00     0.210 HD
ENDBRANCH  11  47
BRANCH  32  49
HETATM   49  O5  UNL     1      -6.897  16.554   4.150  1.00  0.00    -0.384 OA
HETATM   50  H39 UNL     1      -6.960  16.018   4.962  1.00  0.00     0.211 HD
ENDBRANCH  32  49
TORSDOF 5
ENDMDL
MODEL 6
REMARK minimizedAffinity -8.71644592
REMARK CNNscore 0.515024364
REMARK CNNaffinity 5.71550608
REMARK  5 active torsions:
REMARK  status: ('A' for Active; 'I' for Inactive)
REMARK    1  A    between atoms: C2_2  and  C4_4 
REMARK    2  A    between atoms: C10_11  and  O2_12 
REMARK    3  A    between atoms: C13_15  and  O3_16 
REMARK    4  A    between atoms: C32_37  and  O5_38 
REMARK    5  A    between atoms: C37_44  and  O7_45 
ROOT
HETATM    1  C4  UNL     1       2.487  15.752   3.881  1.00  0.00     0.181 C 
HETATM    2  O1  UNL     1       1.194  16.035   3.328  1.00  0.00    -0.370 OA
HETATM    3  C5  UNL     1       0.499  17.142   3.947  1.00  0.00     0.163 C 
HETATM    4  C6  UNL     1      -0.944  17.006   3.436  1.00  0.00     0.036 C 
HETATM    5  C7  UNL     1      -2.005  17.764   4.235  1.00  0.00     0.016 C 
HETATM    6  C8  UNL     1      -1.892  17.553   5.776  1.00  0.00     0.006 C 
HETATM    7  C9  UNL     1      -2.062  16.026   6.052  1.00  0.00     0.020 C 
HETATM    8  C10 UNL     1      -0.435  18.021   6.203  1.00  0.00     0.102 C 
HETATM    9  C11 UNL     1      -0.233  18.127   7.745  1.00  0.00     0.045 C 
HETATM   10  C12 UNL     1      -1.334  18.932   8.490  1.00  0.00     0.045 C 
HETATM   11  C13 UNL     1      -2.690  18.340   8.148  1.00  0.00     0.102 C 
HETATM   12  C14 UNL     1      -4.036  18.900   8.823  1.00  0.00     0.194 C 
HETATM   13  O4  UNL     1      -4.129  18.267  10.108  1.00  0.00    -0.367 OA
HETATM   14  C15 UNL     1      -4.953  18.855  11.129  1.00  0.00     0.061 C 
HETATM   15  C16 UNL     1      -4.564  18.058  12.397  1.00  0.00     0.046 C 
HETATM   16  C17 UNL     1      -4.603  20.320  11.398  1.00  0.00     0.046 C 
HETATM   17  C18 UNL     1      -6.445  18.569  10.869  1.00  0.00     0.060 C 
HETATM   18  C19 UNL     1      -7.505  19.044  11.893  1.00  0.00     0.023 C 
HETATM   19  C20 UNL     1      -8.511  19.286  10.747  1.00  0.00     0.054 C 
HETATM   20  C21 UNL     1      -9.567  18.265  10.426  1.00  0.00    -0.078 C 
HETATM   21  C22 UNL     1     -10.180  17.581  11.406  1.00  0.00     0.015 C 
HETATM   22  C23 UNL     1      -9.948  18.117   8.961  1.00  0.00     0.073 C 
HETATM   23  C24 UNL     1      -8.759  17.901   8.050  1.00  0.00    -0.044 A 
HETATM   24  C25 UNL     1      -8.896  17.253   6.818  1.00  0.00     0.010 A 
HETATM   25  C26 UNL     1      -7.800  17.072   5.966  1.00  0.00     0.031 A 
HETATM   26  C27 UNL     1      -6.549  17.521   6.407  1.00  0.00     0.044 A 
HETATM   27  N1  UNL     1      -5.311  17.484   5.776  1.00  0.00    -0.358 N 
HETATM   28  C28 UNL     1      -4.398  18.023   6.618  1.00  0.00     0.032 A 
HETATM   29  C29 UNL     1      -5.007  18.366   7.805  1.00  0.00     0.010 A 
HETATM   30  C30 UNL     1      -6.382  18.144   7.655  1.00  0.00     0.011 A 
HETATM   31  C31 UNL     1      -7.509  18.413   8.451  1.00  0.00    -0.003 A 
HETATM   32  C32 UNL     1      -7.282  19.280   9.744  1.00  0.00     0.100 C 
HETATM   33  C33 UNL     1      -2.951  18.424   6.561  1.00  0.00     0.043 C 
HETATM   34  C34 UNL     1      -3.001  19.921   6.085  1.00  0.00     0.026 C 
HETATM   35  C35 UNL     1       0.612  17.169   5.472  1.00  0.00     0.147 A 
HETATM   36  O6  UNL     1       1.952  17.554   5.918  1.00  0.00    -0.360 OA
HETATM   37  C36 UNL     1       1.559  16.204   6.153  1.00  0.00     0.194 A 
HETATM   38  C37 UNL     1       2.277  15.194   5.317  1.00  0.00     0.183 C 
HETATM   39  H38 UNL     1      -5.144  17.131   4.844  1.00  0.00     0.166 HD
ENDROOT
BRANCH   1  40
HETATM   40  C2  UNL     1       3.231  14.780   2.967  1.00  0.00    -0.062 C 
HETATM   41  C1  UNL     1       2.657  13.729   2.352  1.00  0.00     0.016 C 
HETATM   42  C3  UNL     1       4.690  15.078   2.748  1.00  0.00     0.045 C 
ENDBRANCH   1  40
BRANCH  38  43
HETATM   43  O7  UNL     1       1.481  14.006   5.328  1.00  0.00    -0.390 OA
HETATM   44  H45 UNL     1       1.420  13.693   4.405  1.00  0.00     0.210 HD
ENDBRANCH  38  43
BRANCH   8  45
HETATM   45  O2  UNL     1      -0.193  19.359   5.723  1.00  0.00    -0.386 OA
HETATM   46  H15 UNL     1       0.756  19.536   5.875  1.00  0.00     0.210 HD
ENDBRANCH   8  45
BRANCH  11  47
HETATM   47  O3  UNL     1      -2.585  16.955   8.602  1.00  0.00    -0.386 OA
HETATM   48  H20 UNL     1      -3.152  16.904   9.402  1.00  0.00     0.210 HD
ENDBRANCH  11  47
BRANCH  32  49
HETATM   49  O5  UNL     1      -6.862  20.630   9.406  1.00  0.00    -0.384 OA
HETATM   50  H39 UNL     1      -7.428  20.874   8.650  1.00  0.00     0.211 HD
ENDBRANCH  32  49
TORSDOF 5
ENDMDL
MODEL 7
REMARK minimizedAffinity -8.53221703
REMARK CNNscore 0.499522567
REMARK CNNaffinity 5.92163467
REMARK  5 active torsions:
REMARK  status: ('A' for Active; 'I' for Inactive)
REMARK    1  A    between atoms: C2_2  and  C4_4 
REMARK    2  A    between atoms: C10_11  and  O2_12 
REMARK    3  A    between atoms: C13_15  and  O3_16 
REMARK    4  A    between atoms: C32_37  and  O5_38 
REMARK    5  A    between atoms: C37_44  and  O7_45 
ROOT
HETATM    1  C4  UNL     1     -16.762   1.625  15.330  1.00  0.00     0.181 C 
HETATM    2  O1  UNL     1     -17.004   1.418  13.932  1.00  0.00    -0.370 OA
HETATM    3  C5  UNL     1     -17.330   0.057  13.567  1.00  0.00     0.163 C 
HETATM    4  C6  UNL     1     -17.189   0.040  12.036  1.00  0.00     0.036 C 
HETATM    5  C7  UNL     1     -17.053  -1.344  11.399  1.00  0.00     0.016 C 
HETATM    6  C8  UNL     1     -16.005  -2.256  12.107  1.00  0.00     0.006 C 
HETATM    7  C9  UNL     1     -14.624  -1.533  12.022  1.00  0.00     0.020 C 
HETATM    8  C10 UNL     1     -16.454  -2.385  13.627  1.00  0.00     0.102 C 
HETATM    9  C11 UNL     1     -15.670  -3.470  14.426  1.00  0.00     0.045 C 
HETATM   10  C12 UNL     1     -15.592  -4.859  13.730  1.00  0.00     0.045 C 
HETATM   11  C13 UNL     1     -15.021  -4.677  12.336  1.00  0.00     0.102 C 
HETATM   12  C14 UNL     1     -14.739  -5.939  11.382  1.00  0.00     0.194 C 
HETATM   13  O4  UNL     1     -13.469  -6.468  11.790  1.00  0.00    -0.367 OA
HETATM   14  C15 UNL     1     -13.125  -7.823  11.453  1.00  0.00     0.061 C 
HETATM   15  C16 UNL     1     -11.851  -8.082  12.291  1.00  0.00     0.046 C 
HETATM   16  C17 UNL     1     -14.179  -8.831  11.918  1.00  0.00     0.046 C 
HETATM   17  C18 UNL     1     -12.710  -7.937   9.973  1.00  0.00     0.060 C 
HETATM   18  C19 UNL     1     -12.221  -9.298   9.418  1.00  0.00     0.023 C 
HETATM   19  C20 UNL     1     -12.851  -8.971   8.047  1.00  0.00     0.054 C 
HETATM   20  C21 UNL     1     -12.006  -8.435   6.924  1.00  0.00    -0.078 C 
HETATM   21  C22 UNL     1     -10.755  -8.884   6.733  1.00  0.00     0.015 C 
HETATM   22  C23 UNL     1     -12.670  -7.434   5.990  1.00  0.00     0.073 C 
HETATM   23  C24 UNL     1     -13.321  -6.276   6.715  1.00  0.00    -0.044 A 
HETATM   24  C25 UNL     1     -13.518  -5.043   6.084  1.00  0.00     0.010 A 
HETATM   25  C26 UNL     1     -14.139  -3.979   6.749  1.00  0.00     0.031 A 
HETATM   26  C27 UNL     1     -14.517  -4.172   8.083  1.00  0.00     0.044 A 
HETATM   27  N1  UNL     1     -15.151  -3.309   8.968  1.00  0.00    -0.358 N 
HETATM   28  C28 UNL     1     -15.283  -3.949  10.153  1.00  0.00     0.032 A 
HETATM   29  C29 UNL     1     -14.702  -5.196  10.073  1.00  0.00     0.010 A 
HETATM   30  C30 UNL     1     -14.297  -5.391   8.747  1.00  0.00     0.011 A 
HETATM   31  C31 UNL     1     -13.771  -6.482   8.035  1.00  0.00    -0.003 A 
HETATM   32  C32 UNL     1     -13.727  -7.869   8.777  1.00  0.00     0.100 C 
HETATM   33  C33 UNL     1     -15.964  -3.700  11.469  1.00  0.00     0.043 C 
HETATM   34  C34 UNL     1     -17.389  -4.333  11.272  1.00  0.00     0.026 C 
HETATM   35  C35 UNL     1     -16.474  -0.994  14.276  1.00  0.00     0.147 A 
HETATM   36  O6  UNL     1     -16.821  -1.122  15.692  1.00  0.00    -0.360 OA
HETATM   37  C36 UNL     1     -15.549  -0.555  15.390  1.00  0.00     0.194 A 
HETATM   38  C37 UNL     1     -15.432   0.904  15.692  1.00  0.00     0.183 C 
HETATM   39  H38 UNL     1     -15.469  -2.376   8.743  1.00  0.00     0.166 HD
ENDROOT
BRANCH   1  40
HETATM   40  C2  UNL     1     -16.727   3.123  15.626  1.00  0.00    -0.062 C 
HETATM   41  C1  UNL     1     -16.259   4.053  14.772  1.00  0.00     0.016 C 
HETATM   42  C3  UNL     1     -17.292   3.538  16.958  1.00  0.00     0.045 C 
ENDBRANCH   1  40
BRANCH  38  43
HETATM   43  O7  UNL     1     -14.323   1.397  14.936  1.00  0.00    -0.390 OA
HETATM   44  H45 UNL     1     -14.614   2.224  14.506  1.00  0.00     0.210 HD
ENDBRANCH  38  43
BRANCH   8  45
HETATM   45  O2  UNL     1     -17.826  -2.821  13.692  1.00  0.00    -0.386 OA
HETATM   46  H15 UNL     1     -18.096  -2.736  14.627  1.00  0.00     0.210 HD
ENDBRANCH   8  45
BRANCH  11  47
HETATM   47  O3  UNL     1     -13.709  -4.082  12.576  1.00  0.00    -0.386 OA
HETATM   48  H20 UNL     1     -13.063  -4.792  12.371  1.00  0.00     0.210 HD
ENDBRANCH  11  47
BRANCH  32  49
HETATM   49  O5  UNL     1     -15.067  -8.354   9.063  1.00  0.00    -0.384 OA
HETATM   50  H39 UNL     1     -15.570  -8.160   8.251  1.00  0.00     0.211 HD
ENDBRANCH  32  49
TORSDOF 5
ENDMDL
MODEL 8
REMARK minimizedAffinity -7.09957075
REMARK CNNscore 0.49812603
REMARK CNNaffinity 6.0760169
REMARK  5 active torsions:
REMARK  status: ('A' for Active; 'I' for Inactive)
REMARK    1  A    between atoms: C2_2  and  C4_4 
REMARK    2  A    between atoms: C10_11  and  O2_12 
REMARK    3  A    between atoms: C13_15  and  O3_16 
REMARK    4  A    between atoms: C32_37  and  O5_38 
REMARK    5  A    between atoms: C37_44  and  O7_45 
ROOT
HETATM    1  C4  UNL     1     -10.511  16.183   3.898  1.00  0.00     0.181 C 
HETATM    2  O1  UNL     1     -10.011  15.788   2.613  1.00  0.00    -0.370 OA
HETATM    3  C5  UNL     1     -10.925  16.006   1.513  1.00  0.00     0.163 C 
HETATM    4  C6  UNL     1     -10.314  15.198   0.358  1.00  0.00     0.036 C 
HETATM    5  C7  UNL     1     -11.258  14.883  -0.803  1.00  0.00     0.016 C 
HETATM    6  C8  UNL     1     -12.642  14.325  -0.348  1.00  0.00     0.006 C 
HETATM    7  C9  UNL     1     -12.375  13.007   0.445  1.00  0.00     0.020 C 
HETATM    8  C10 UNL     1     -13.286  15.413   0.615  1.00  0.00     0.102 C 
HETATM    9  C11 UNL     1     -14.783  15.144   0.959  1.00  0.00     0.045 C 
HETATM   10  C12 UNL     1     -15.690  14.856  -0.271  1.00  0.00     0.045 C 
HETATM   11  C13 UNL     1     -15.089  13.711  -1.066  1.00  0.00     0.102 C 
HETATM   12  C14 UNL     1     -15.833  13.117  -2.360  1.00  0.00     0.194 C 
HETATM   13  O4  UNL     1     -16.821  12.201  -1.865  1.00  0.00    -0.367 OA
HETATM   14  C15 UNL     1     -17.930  11.834  -2.703  1.00  0.00     0.061 C 
HETATM   15  C16 UNL     1     -18.875  11.090  -1.730  1.00  0.00     0.046 C 
HETATM   16  C17 UNL     1     -18.698  13.049  -3.229  1.00  0.00     0.046 C 
HETATM   17  C18 UNL     1     -17.501  10.810  -3.771  1.00  0.00     0.060 C 
HETATM   18  C19 UNL     1     -18.561  10.216  -4.732  1.00  0.00     0.023 C 
HETATM   19  C20 UNL     1     -17.507  10.143  -5.858  1.00  0.00     0.054 C 
HETATM   20  C21 UNL     1     -16.799   8.852  -6.162  1.00  0.00    -0.078 C 
HETATM   21  C22 UNL     1     -17.452   7.681  -6.100  1.00  0.00     0.015 C 
HETATM   22  C23 UNL     1     -15.350   8.961  -6.613  1.00  0.00     0.073 C 
HETATM   23  C24 UNL     1     -14.491   9.788  -5.681  1.00  0.00    -0.044 A 
HETATM   24  C25 UNL     1     -13.107   9.600  -5.610  1.00  0.00     0.010 A 
HETATM   25  C26 UNL     1     -12.310  10.380  -4.763  1.00  0.00     0.031 A 
HETATM   26  C27 UNL     1     -12.950  11.327  -3.953  1.00  0.00     0.044 A 
HETATM   27  N1  UNL     1     -12.418  12.231  -3.041  1.00  0.00    -0.358 N 
HETATM   28  C28 UNL     1     -13.444  12.921  -2.490  1.00  0.00     0.032 A 
HETATM   29  C29 UNL     1     -14.639  12.450  -2.989  1.00  0.00     0.010 A 
HETATM   30  C30 UNL     1     -14.342  11.509  -3.983  1.00  0.00     0.011 A 
HETATM   31  C31 UNL     1     -15.114  10.793  -4.914  1.00  0.00    -0.003 A 
HETATM   32  C32 UNL     1     -16.636  11.178  -5.030  1.00  0.00     0.100 C 
HETATM   33  C33 UNL     1     -13.611  14.100  -1.575  1.00  0.00     0.043 C 
HETATM   34  C34 UNL     1     -13.666  15.325  -2.557  1.00  0.00     0.026 C 
HETATM   35  C35 UNL     1     -12.374  15.629   1.830  1.00  0.00     0.147 A 
HETATM   36  O6  UNL     1     -13.001  16.580   2.748  1.00  0.00    -0.360 OA
HETATM   37  C36 UNL     1     -12.743  15.272   3.253  1.00  0.00     0.194 A 
HETATM   38  C37 UNL     1     -11.659  15.206   4.280  1.00  0.00     0.183 C 
HETATM   39  H38 UNL     1     -11.432  12.352  -2.851  1.00  0.00     0.166 HD
ENDROOT
BRANCH   1  40
HETATM   40  C2  UNL     1      -9.368  16.184   4.911  1.00  0.00    -0.062 C 
HETATM   41  C1  UNL     1      -8.774  17.298   5.380  1.00  0.00     0.016 C 
HETATM   42  C3  UNL     1      -8.936  14.832   5.410  1.00  0.00     0.045 C 
ENDBRANCH   1  40
BRANCH  38  43
HETATM   43  O7  UNL     1     -11.222  13.846   4.334  1.00  0.00    -0.390 OA
HETATM   44  H45 UNL     1     -10.245  13.858   4.320  1.00  0.00     0.210 HD
ENDBRANCH  38  43
BRANCH   8  45
HETATM   45  O2  UNL     1     -13.302  16.696  -0.043  1.00  0.00    -0.386 OA
HETATM   46  H15 UNL     1     -13.560  17.349   0.637  1.00  0.00     0.210 HD
ENDBRANCH   8  45
BRANCH  11  47
HETATM   47  O3  UNL     1     -15.054  12.608  -0.108  1.00  0.00    -0.386 OA
HETATM   48  H20 UNL     1     -15.754  11.988  -0.406  1.00  0.00     0.210 HD
ENDBRANCH  11  47
BRANCH  32  49
HETATM   49  O5  UNL     1     -16.798  12.534  -5.530  1.00  0.00    -0.384 OA
HETATM   50  H39 UNL     1     -16.137  12.607  -6.243  1.00  0.00     0.211 HD
ENDBRANCH  32  49
TORSDOF 5
ENDMDL
MODEL 9
REMARK minimizedAffinity -8.36351681
REMARK CNNscore 0.486649245
REMARK CNNaffinity 5.5712657
REMARK  5 active torsions:
REMARK  status: ('A' for Active; 'I' for Inactive)
REMARK    1  A    between atoms: C2_2  and  C4_4 
REMARK    2  A    between atoms: C10_11  and  O2_12 
REMARK    3  A    between atoms: C13_15  and  O3_16 
REMARK    4  A    between atoms: C32_37  and  O5_38 
REMARK    5  A    between atoms: C37_44  and  O7_45 
ROOT
HETATM    1  C4  UNL     1     -17.367  -4.355  17.134  1.00  0.00     0.181 C 
HETATM    2  O1  UNL     1     -18.137  -3.830  16.044  1.00  0.00    -0.370 OA
HETATM    3  C5  UNL     1     -17.434  -2.885  15.203  1.00  0.00     0.163 C 
HETATM    4  C6  UNL     1     -18.547  -2.232  14.370  1.00  0.00     0.036 C 
HETATM    5  C7  UNL     1     -18.182  -0.907  13.700  1.00  0.00     0.016 C 
HETATM    6  C8  UNL     1     -17.479   0.104  14.658  1.00  0.00     0.006 C 
HETATM    7  C9  UNL     1     -18.466   0.397  15.832  1.00  0.00     0.020 C 
HETATM    8  C10 UNL     1     -16.176  -0.616  15.216  1.00  0.00     0.102 C 
HETATM    9  C11 UNL     1     -15.210   0.336  15.985  1.00  0.00     0.045 C 
HETATM   10  C12 UNL     1     -14.862   1.652  15.235  1.00  0.00     0.045 C 
HETATM   11  C13 UNL     1     -16.153   2.358  14.859  1.00  0.00     0.102 C 
HETATM   12  C14 UNL     1     -16.136   3.794  14.138  1.00  0.00     0.194 C 
HETATM   13  O4  UNL     1     -15.959   4.761  15.184  1.00  0.00    -0.367 OA
HETATM   14  C15 UNL     1     -15.472   6.074  14.860  1.00  0.00     0.061 C 
HETATM   15  C16 UNL     1     -15.161   6.687  16.245  1.00  0.00     0.046 C 
HETATM   16  C17 UNL     1     -14.154   6.038  14.082  1.00  0.00     0.046 C 
HETATM   17  C18 UNL     1     -16.584   6.938  14.234  1.00  0.00     0.060 C 
HETATM   18  C19 UNL     1     -16.296   8.419  13.882  1.00  0.00     0.023 C 
HETATM   19  C20 UNL     1     -17.246   8.320  12.669  1.00  0.00     0.054 C 
HETATM   20  C21 UNL     1     -18.660   8.823  12.760  1.00  0.00    -0.078 C 
HETATM   21  C22 UNL     1     -18.947   9.940  13.448  1.00  0.00     0.015 C 
HETATM   22  C23 UNL     1     -19.710   8.052  11.974  1.00  0.00     0.073 C 
HETATM   23  C24 UNL     1     -19.695   6.565  12.253  1.00  0.00    -0.044 A 
HETATM   24  C25 UNL     1     -20.838   5.779  12.063  1.00  0.00     0.010 A 
HETATM   25  C26 UNL     1     -20.818   4.399  12.301  1.00  0.00     0.031 A 
HETATM   26  C27 UNL     1     -19.629   3.836  12.780  1.00  0.00     0.044 A 
HETATM   27  N1  UNL     1     -19.325   2.515  13.087  1.00  0.00    -0.358 N 
HETATM   28  C28 UNL     1     -18.048   2.474  13.535  1.00  0.00     0.032 A 
HETATM   29  C29 UNL     1     -17.530   3.750  13.572  1.00  0.00     0.010 A 
HETATM   30  C30 UNL     1     -18.481   4.611  13.011  1.00  0.00     0.011 A 
HETATM   31  C31 UNL     1     -18.485   5.974  12.666  1.00  0.00    -0.003 A 
HETATM   32  C32 UNL     1     -17.115   6.742  12.768  1.00  0.00     0.100 C 
HETATM   33  C33 UNL     1     -17.043   1.419  13.900  1.00  0.00     0.043 C 
HETATM   34  C34 UNL     1     -16.296   1.138  12.547  1.00  0.00     0.026 C 
HETATM   35  C35 UNL     1     -16.578  -1.884  15.981  1.00  0.00     0.147 A 
HETATM   36  O6  UNL     1     -15.383  -2.509  16.551  1.00  0.00    -0.360 OA
HETATM   37  C36 UNL     1     -16.388  -2.084  17.469  1.00  0.00     0.194 A 
HETATM   38  C37 UNL     1     -17.123  -3.197  18.143  1.00  0.00     0.183 C 
HETATM   39  H38 UNL     1     -19.954   1.732  12.971  1.00  0.00     0.166 HD
ENDROOT
BRANCH   1  40
HETATM   40  C2  UNL     1     -18.102  -5.541  17.754  1.00  0.00    -0.062 C 
HETATM   41  C1  UNL     1     -19.431  -5.737  17.667  1.00  0.00     0.016 C 
HETATM   42  C3  UNL     1     -17.238  -6.542  18.472  1.00  0.00     0.045 C 
ENDBRANCH   1  40
BRANCH  38  43
HETATM   43  O7  UNL     1     -18.344  -2.644  18.642  1.00  0.00    -0.390 OA
HETATM   44  H45 UNL     1     -19.061  -3.260  18.392  1.00  0.00     0.210 HD
ENDBRANCH  38  43
BRANCH   8  45
HETATM   45  O2  UNL     1     -15.384  -1.107  14.115  1.00  0.00    -0.386 OA
HETATM   46  H15 UNL     1     -14.687  -1.667  14.509  1.00  0.00     0.210 HD
ENDBRANCH   8  45
BRANCH  11  47
HETATM   47  O3  UNL     1     -16.807   2.586  16.145  1.00  0.00    -0.386 OA
HETATM   48  H20 UNL     1     -16.733   3.552  16.303  1.00  0.00     0.210 HD
ENDBRANCH  11  47
BRANCH  32  49
HETATM   49  O5  UNL     1     -16.150   6.225  11.813  1.00  0.00    -0.384 OA
HETATM   50  H39 UNL     1     -16.667   6.092  10.997  1.00  0.00     0.211 HD
ENDBRANCH  32  49
TORSDOF 5
ENDMDL
