MODEL 1
REMARK minimizedAffinity -7.91364956
REMARK CNNscore 0.852429748
REMARK CNNaffinity 6.7534256
REMARK  8 active torsions:
REMARK  status: ('A' for Active; 'I' for Inactive)
REMARK    1  A    between atoms: C2_2  and  C4_4 
REMARK    2  A    between atoms: C4_4  and  O1_6 
REMARK    3  A    between atoms: C4_4  and  C6_7 
REMARK    4  A    between atoms: C7_9  and  C8_10 
REMARK    5  A    between atoms: C8_10  and  O3_12 
REMARK    6  A    between atoms: C8_10  and  C10_13 
REMARK    7  A    between atoms: C22_25  and  O4_26 
REMARK    8  A    between atoms: C27_31  and  O5_32 
ROOT
HETATM    1  C10 UNL     1       0.474  52.475 -10.861  1.00  0.00     0.034 C 
HETATM    2  C11 UNL     1       1.765  52.992 -11.618  1.00  0.00     0.016 C 
HETATM    3  C12 UNL     1       2.157  54.293 -10.897  1.00  0.00     0.026 C 
HETATM    4  C13 UNL     1       3.611  54.715 -10.784  1.00  0.00     0.013 C 
HETATM    5  C14 UNL     1       3.679  56.019  -9.946  1.00  0.00     0.043 C 
HETATM    6  C15 UNL     1       2.707  56.101  -8.772  1.00  0.00    -0.006 C 
HETATM    7  C16 UNL     1       1.710  55.218  -8.563  1.00  0.00    -0.030 C 
HETATM    8  C17 UNL     1       0.830  55.151  -7.328  1.00  0.00     0.027 C 
HETATM    9  C18 UNL     1      -0.545  54.435  -7.540  1.00  0.00     0.011 C 
HETATM   10  C19 UNL     1      -0.536  53.237  -8.518  1.00  0.00     0.014 C 
HETATM   11  C20 UNL     1       0.124  53.633  -9.854  1.00  0.00    -0.002 C 
HETATM   12  C21 UNL     1      -0.724  54.751 -10.511  1.00  0.00     0.019 C 
HETATM   13  C22 UNL     1       1.562  54.081  -9.510  1.00  0.00     0.094 C 
HETATM   14  C23 UNL     1       0.707  56.544  -6.613  1.00  0.00    -0.026 C 
HETATM   15  C24 UNL     1      -0.212  57.516  -7.400  1.00  0.00     0.016 C 
HETATM   16  C25 UNL     1       0.097  56.324  -5.191  1.00  0.00     0.013 C 
HETATM   17  C26 UNL     1       0.680  57.266  -4.144  1.00  0.00     0.032 C 
HETATM   18  C27 UNL     1       2.189  57.048  -3.982  1.00  0.00     0.119 C 
HETATM   19  C28 UNL     1       2.904  56.716  -5.297  1.00  0.00     0.045 C 
HETATM   20  C29 UNL     1       2.105  57.231  -6.500  1.00  0.00     0.071 C 
HETATM   21  C30 UNL     1       2.956  57.164  -7.762  1.00  0.00     0.161 C 
HETATM   22  O6  UNL     1       3.875  57.964  -7.938  1.00  0.00    -0.292 OA
ENDROOT
BRANCH   1  23
HETATM   23  C8  UNL     1      -0.612  51.815 -11.764  1.00  0.00     0.087 C 
HETATM   24  C9  UNL     1      -1.698  51.019 -11.029  1.00  0.00     0.049 C 
BRANCH  23  25
HETATM   25  C7  UNL     1       0.048  51.039 -12.886  1.00  0.00     0.188 A 
HETATM   26  C6  UNL     1      -0.026  51.468 -14.336  1.00  0.00     0.188 A 
HETATM   27  O2  UNL     1      -0.824  50.384 -13.821  1.00  0.00    -0.369 OA
BRANCH  26  28
HETATM   28  C4  UNL     1       1.033  51.063 -15.341  1.00  0.00     0.086 C 
HETATM   29  C5  UNL     1       0.458  49.998 -16.286  1.00  0.00     0.049 C 
BRANCH  28  30
HETATM   30  C2  UNL     1       1.601  52.315 -16.076  1.00  0.00     0.014 C 
HETATM   31  C1  UNL     1       1.130  52.447 -17.530  1.00  0.00     0.012 C 
HETATM   32  C3  UNL     1       3.135  52.387 -16.038  1.00  0.00     0.012 C 
ENDBRANCH  28  30
BRANCH  28  33
HETATM   33  O1  UNL     1       2.124  50.448 -14.638  1.00  0.00    -0.387 OA
HETATM   34  H11 UNL     1       1.731  49.773 -14.053  1.00  0.00     0.210 HD
ENDBRANCH  28  33
ENDBRANCH  26  28
ENDBRANCH  23  25
BRANCH  23  35
HETATM   35  O3  UNL     1      -1.332  52.895 -12.395  1.00  0.00    -0.387 OA
HETATM   36  H17 UNL     1      -0.686  53.469 -12.841  1.00  0.00     0.210 HD
ENDBRANCH  23  35
ENDBRANCH   1  23
BRANCH  13  37
HETATM   37  O4  UNL     1       2.252  52.988  -8.865  1.00  0.00    -0.384 OA
HETATM   38  H34 UNL     1       3.091  53.326  -8.504  1.00  0.00     0.211 HD
ENDBRANCH  13  37
BRANCH  18  39
HETATM   39  O5  UNL     1       2.757  58.217  -3.395  1.00  0.00    -0.396 OA
HETATM   40  H43 UNL     1       2.728  58.934  -4.052  1.00  0.00     0.210 HD
ENDBRANCH  18  39
TORSDOF 8
ENDMDL
MODEL 2
REMARK minimizedAffinity -9.7332592
REMARK CNNscore 0.780664444
REMARK CNNaffinity 7.66152906
REMARK  8 active torsions:
REMARK  status: ('A' for Active; 'I' for Inactive)
REMARK    1  A    between atoms: C2_2  and  C4_4 
REMARK    2  A    between atoms: C4_4  and  O1_6 
REMARK    3  A    between atoms: C4_4  and  C6_7 
REMARK    4  A    between atoms: C7_9  and  C8_10 
REMARK    5  A    between atoms: C8_10  and  O3_12 
REMARK    6  A    between atoms: C8_10  and  C10_13 
REMARK    7  A    between atoms: C22_25  and  O4_26 
REMARK    8  A    between atoms: C27_31  and  O5_32 
ROOT
HETATM    1  C10 UNL     1      -3.320  50.557 -24.369  1.00  0.00     0.034 C 
HETATM    2  C11 UNL     1      -4.897  50.512 -24.238  1.00  0.00     0.016 C 
HETATM    3  C12 UNL     1      -5.167  49.882 -22.861  1.00  0.00     0.026 C 
HETATM    4  C13 UNL     1      -6.384  50.278 -22.046  1.00  0.00     0.013 C 
HETATM    5  C14 UNL     1      -6.332  49.526 -20.689  1.00  0.00     0.043 C 
HETATM    6  C15 UNL     1      -4.944  49.374 -20.072  1.00  0.00    -0.006 C 
HETATM    7  C16 UNL     1      -3.801  49.678 -20.718  1.00  0.00    -0.030 C 
HETATM    8  C17 UNL     1      -2.415  49.712 -20.098  1.00  0.00     0.027 C 
HETATM    9  C18 UNL     1      -1.237  49.561 -21.116  1.00  0.00     0.011 C 
HETATM   10  C19 UNL     1      -1.455  50.217 -22.499  1.00  0.00     0.014 C 
HETATM   11  C20 UNL     1      -2.803  49.777 -23.102  1.00  0.00    -0.002 C 
HETATM   12  C21 UNL     1      -2.766  48.245 -23.327  1.00  0.00     0.019 C 
HETATM   13  C22 UNL     1      -3.891  50.221 -22.099  1.00  0.00     0.094 C 
HETATM   14  C23 UNL     1      -2.298  48.756 -18.857  1.00  0.00    -0.026 C 
HETATM   15  C24 UNL     1      -2.236  47.265 -19.284  1.00  0.00     0.016 C 
HETATM   16  C25 UNL     1      -0.989  49.106 -18.078  1.00  0.00     0.013 C 
HETATM   17  C26 UNL     1      -1.144  48.965 -16.568  1.00  0.00     0.032 C 
HETATM   18  C27 UNL     1      -2.212  49.923 -16.029  1.00  0.00     0.119 C 
HETATM   19  C28 UNL     1      -3.403  50.107 -16.976  1.00  0.00     0.045 C 
HETATM   20  C29 UNL     1      -3.540  48.909 -17.923  1.00  0.00     0.071 C 
HETATM   21  C30 UNL     1      -4.882  48.962 -18.644  1.00  0.00     0.161 C 
HETATM   22  O6  UNL     1      -5.924  48.698 -18.042  1.00  0.00    -0.292 OA
ENDROOT
BRANCH   1  23
HETATM   23  C8  UNL     1      -2.759  50.273 -25.795  1.00  0.00     0.087 C 
HETATM   24  C9  UNL     1      -2.988  48.854 -26.332  1.00  0.00     0.049 C 
BRANCH  23  25
HETATM   25  C7  UNL     1      -1.315  50.723 -25.883  1.00  0.00     0.188 A 
HETATM   26  C6  UNL     1      -0.898  52.014 -26.556  1.00  0.00     0.188 A 
HETATM   27  O2  UNL     1      -0.718  50.733 -27.190  1.00  0.00    -0.369 OA
BRANCH  26  28
HETATM   28  C4  UNL     1       0.385  52.729 -26.180  1.00  0.00     0.086 C 
HETATM   29  C5  UNL     1       0.635  52.568 -24.674  1.00  0.00     0.049 C 
BRANCH  28  30
HETATM   30  C2  UNL     1       1.568  52.241 -27.070  1.00  0.00     0.014 C 
HETATM   31  C1  UNL     1       1.152  51.846 -28.492  1.00  0.00     0.012 C 
HETATM   32  C3  UNL     1       2.353  51.082 -26.438  1.00  0.00     0.012 C 
ENDBRANCH  28  30
BRANCH  28  33
HETATM   33  O1  UNL     1       0.218  54.134 -26.425  1.00  0.00    -0.387 OA
HETATM   34  H11 UNL     1      -0.622  54.392 -25.998  1.00  0.00     0.210 HD
ENDBRANCH  28  33
ENDBRANCH  26  28
ENDBRANCH  23  25
BRANCH  23  35
HETATM   35  O3  UNL     1      -3.498  51.118 -26.702  1.00  0.00    -0.387 OA
HETATM   36  H17 UNL     1      -3.432  52.034 -26.383  1.00  0.00     0.210 HD
ENDBRANCH  23  35
ENDBRANCH   1  23
BRANCH  13  37
HETATM   37  O4  UNL     1      -3.814  51.652 -21.926  1.00  0.00    -0.384 OA
HETATM   38  H34 UNL     1      -4.382  51.901 -21.176  1.00  0.00     0.211 HD
ENDBRANCH  13  37
BRANCH  18  39
HETATM   39  O5  UNL     1      -2.660  49.441 -14.764  1.00  0.00    -0.396 OA
HETATM   40  H43 UNL     1      -3.176  48.629 -14.912  1.00  0.00     0.210 HD
ENDBRANCH  18  39
TORSDOF 8
ENDMDL
MODEL 3
REMARK minimizedAffinity -8.00788116
REMARK CNNscore 0.606925666
REMARK CNNaffinity 6.59938765
REMARK  8 active torsions:
REMARK  status: ('A' for Active; 'I' for Inactive)
REMARK    1  A    between atoms: C2_2  and  C4_4 
REMARK    2  A    between atoms: C4_4  and  O1_6 
REMARK    3  A    between atoms: C4_4  and  C6_7 
REMARK    4  A    between atoms: C7_9  and  C8_10 
REMARK    5  A    between atoms: C8_10  and  O3_12 
REMARK    6  A    between atoms: C8_10  and  C10_13 
REMARK    7  A    between atoms: C22_25  and  O4_26 
REMARK    8  A    between atoms: C27_31  and  O5_32 
ROOT
HETATM    1  C10 UNL     1      -6.937  48.271 -22.262  1.00  0.00     0.034 C 
HETATM    2  C11 UNL     1      -5.439  48.585 -22.668  1.00  0.00     0.016 C 
HETATM    3  C12 UNL     1      -5.325  48.157 -24.141  1.00  0.00     0.026 C 
HETATM    4  C13 UNL     1      -4.394  48.883 -25.094  1.00  0.00     0.013 C 
HETATM    5  C14 UNL     1      -4.562  48.265 -26.508  1.00  0.00     0.043 C 
HETATM    6  C15 UNL     1      -5.985  47.870 -26.891  1.00  0.00    -0.006 C 
HETATM    7  C16 UNL     1      -7.017  47.856 -26.024  1.00  0.00    -0.030 C 
HETATM    8  C17 UNL     1      -8.476  47.642 -26.386  1.00  0.00     0.027 C 
HETATM    9  C18 UNL     1      -9.378  47.145 -25.209  1.00  0.00     0.011 C 
HETATM   10  C19 UNL     1      -9.028  47.704 -23.810  1.00  0.00     0.014 C 
HETATM   11  C20 UNL     1      -7.528  47.517 -23.511  1.00  0.00    -0.002 C 
HETATM   12  C21 UNL     1      -7.216  45.999 -23.485  1.00  0.00     0.019 C 
HETATM   13  C22 UNL     1      -6.767  48.277 -24.620  1.00  0.00     0.094 C 
HETATM   14  C23 UNL     1      -8.642  46.801 -27.702  1.00  0.00    -0.026 C 
HETATM   15  C24 UNL     1      -8.323  45.300 -27.469  1.00  0.00     0.016 C 
HETATM   16  C25 UNL     1     -10.121  46.926 -28.192  1.00  0.00     0.013 C 
HETATM   17  C26 UNL     1     -10.241  46.961 -29.711  1.00  0.00     0.032 C 
HETATM   18  C27 UNL     1      -9.510  48.174 -30.296  1.00  0.00     0.119 C 
HETATM   19  C28 UNL     1      -8.217  48.528 -29.553  1.00  0.00     0.045 C 
HETATM   20  C29 UNL     1      -7.663  47.307 -28.808  1.00  0.00     0.071 C 
HETATM   21  C30 UNL     1      -6.244  47.587 -28.329  1.00  0.00     0.161 C 
HETATM   22  O6  UNL     1      -5.309  47.613 -29.130  1.00  0.00    -0.292 OA
ENDROOT
BRANCH   1  23
HETATM   23  C8  UNL     1      -7.141  47.742 -20.810  1.00  0.00     0.087 C 
HETATM   24  C9  UNL     1      -8.551  47.908 -20.231  1.00  0.00     0.049 C 
BRANCH  23  25
HETATM   25  C7  UNL     1      -6.051  48.280 -19.905  1.00  0.00     0.188 A 
HETATM   26  C6  UNL     1      -4.814  47.484 -19.548  1.00  0.00     0.188 A 
HETATM   27  O2  UNL     1      -5.904  47.650 -18.622  1.00  0.00    -0.369 OA
BRANCH  26  28
HETATM   28  C4  UNL     1      -3.520  48.163 -19.143  1.00  0.00     0.086 C 
HETATM   29  C5  UNL     1      -3.404  48.164 -17.611  1.00  0.00     0.049 C 
BRANCH  28  30
HETATM   30  C2  UNL     1      -2.304  47.506 -19.864  1.00  0.00     0.014 C 
HETATM   31  C1  UNL     1      -1.088  48.432 -19.996  1.00  0.00     0.012 C 
HETATM   32  C3  UNL     1      -2.661  46.948 -21.250  1.00  0.00     0.012 C 
ENDBRANCH  28  30
BRANCH  28  33
HETATM   33  O1  UNL     1      -3.572  49.537 -19.556  1.00  0.00    -0.387 OA
HETATM   34  H11 UNL     1      -4.424  49.891 -19.236  1.00  0.00     0.210 HD
ENDBRANCH  28  33
ENDBRANCH  26  28
ENDBRANCH  23  25
BRANCH  23  35
HETATM   35  O3  UNL     1      -6.947  46.313 -20.864  1.00  0.00    -0.387 OA
HETATM   36  H17 UNL     1      -6.082  46.140 -21.272  1.00  0.00     0.210 HD
ENDBRANCH  23  35
ENDBRANCH   1  23
BRANCH  13  37
HETATM   37  O4  UNL     1      -7.159  49.667 -24.589  1.00  0.00    -0.384 OA
HETATM   38  H34 UNL     1      -6.809  50.101 -25.387  1.00  0.00     0.211 HD
ENDBRANCH  13  37
BRANCH  18  39
HETATM   39  O5  UNL     1      -9.232  47.919 -31.672  1.00  0.00    -0.396 OA
HETATM   40  H43 UNL     1      -8.547  47.230 -31.722  1.00  0.00     0.210 HD
ENDBRANCH  18  39
TORSDOF 8
ENDMDL
MODEL 4
REMARK minimizedAffinity -9.43459225
REMARK CNNscore 0.586455524
REMARK CNNaffinity 7.05854797
REMARK  8 active torsions:
REMARK  status: ('A' for Active; 'I' for Inactive)
REMARK    1  A    between atoms: C2_2  and  C4_4 
REMARK    2  A    between atoms: C4_4  and  O1_6 
REMARK    3  A    between atoms: C4_4  and  C6_7 
REMARK    4  A    between atoms: C7_9  and  C8_10 
REMARK    5  A    between atoms: C8_10  and  O3_12 
REMARK    6  A    between atoms: C8_10  and  C10_13 
REMARK    7  A    between atoms: C22_25  and  O4_26 
REMARK    8  A    between atoms: C27_31  and  O5_32 
ROOT
HETATM    1  C10 UNL     1      -0.389  52.649 -21.081  1.00  0.00     0.034 C 
HETATM    2  C11 UNL     1      -0.094  52.820 -22.628  1.00  0.00     0.016 C 
HETATM    3  C12 UNL     1      -0.773  51.615 -23.300  1.00  0.00     0.026 C 
HETATM    4  C13 UNL     1      -1.354  51.726 -24.698  1.00  0.00     0.013 C 
HETATM    5  C14 UNL     1      -2.026  50.374 -25.059  1.00  0.00     0.043 C 
HETATM    6  C15 UNL     1      -2.760  49.677 -23.917  1.00  0.00    -0.006 C 
HETATM    7  C16 UNL     1      -2.688  50.070 -22.629  1.00  0.00    -0.030 C 
HETATM    8  C17 UNL     1      -3.528  49.525 -21.488  1.00  0.00     0.027 C 
HETATM    9  C18 UNL     1      -2.912  49.732 -20.064  1.00  0.00     0.011 C 
HETATM   10  C19 UNL     1      -2.128  51.048 -19.855  1.00  0.00     0.014 C 
HETATM   11  C20 UNL     1      -1.083  51.240 -20.972  1.00  0.00    -0.002 C 
HETATM   12  C21 UNL     1      -0.057  50.081 -20.893  1.00  0.00     0.019 C 
HETATM   13  C22 UNL     1      -1.871  51.268 -22.300  1.00  0.00     0.094 C 
HETATM   14  C23 UNL     1      -4.008  48.054 -21.756  1.00  0.00    -0.026 C 
HETATM   15  C24 UNL     1      -2.851  47.032 -21.592  1.00  0.00     0.016 C 
HETATM   16  C25 UNL     1      -5.133  47.701 -20.730  1.00  0.00     0.013 C 
HETATM   17  C26 UNL     1      -6.218  46.811 -21.325  1.00  0.00     0.032 C 
HETATM   18  C27 UNL     1      -6.929  47.509 -22.490  1.00  0.00     0.119 C 
HETATM   19  C28 UNL     1      -5.996  48.373 -23.346  1.00  0.00     0.045 C 
HETATM   20  C29 UNL     1      -4.542  47.906 -23.215  1.00  0.00     0.071 C 
HETATM   21  C30 UNL     1      -3.681  48.568 -24.284  1.00  0.00     0.161 C 
HETATM   22  O6  UNL     1      -3.765  48.213 -25.461  1.00  0.00    -0.292 OA
ENDROOT
BRANCH   1  23
HETATM   23  C8  UNL     1       0.771  53.070 -20.129  1.00  0.00     0.087 C 
HETATM   24  C9  UNL     1       2.189  52.764 -20.628  1.00  0.00     0.049 C 
BRANCH  23  25
HETATM   25  C7  UNL     1       0.503  52.559 -18.728  1.00  0.00     0.188 A 
HETATM   26  C6  UNL     1       1.605  52.092 -17.800  1.00  0.00     0.188 A 
HETATM   27  O2  UNL     1       0.746  51.163 -18.489  1.00  0.00    -0.369 OA
BRANCH  26  28
HETATM   28  C4  UNL     1       1.441  52.119 -16.293  1.00  0.00     0.086 C 
HETATM   29  C5  UNL     1       0.206  51.295 -15.901  1.00  0.00     0.049 C 
BRANCH  28  30
HETATM   30  C2  UNL     1       2.753  51.658 -15.589  1.00  0.00     0.014 C 
HETATM   31  C1  UNL     1       2.695  51.735 -14.058  1.00  0.00     0.012 C 
HETATM   32  C3  UNL     1       3.995  52.416 -16.082  1.00  0.00     0.012 C 
ENDBRANCH  28  30
BRANCH  28  33
HETATM   33  O1  UNL     1       1.187  53.471 -15.881  1.00  0.00    -0.387 OA
HETATM   34  H11 UNL     1       0.467  53.803 -16.451  1.00  0.00     0.210 HD
ENDBRANCH  28  33
ENDBRANCH  26  28
ENDBRANCH  23  25
BRANCH  23  35
HETATM   35  O3  UNL     1       0.729  54.510 -20.044  1.00  0.00    -0.387 OA
HETATM   36  H17 UNL     1      -0.168  54.771 -19.778  1.00  0.00     0.210 HD
ENDBRANCH  23  35
ENDBRANCH   1  23
BRANCH  13  37
HETATM   37  O4  UNL     1      -2.826  52.350 -22.257  1.00  0.00    -0.384 OA
HETATM   38  H34 UNL     1      -3.426  52.259 -23.018  1.00  0.00     0.211 HD
ENDBRANCH  13  37
BRANCH  18  39
HETATM   39  O5  UNL     1      -7.560  46.517 -23.298  1.00  0.00    -0.396 OA
HETATM   40  H43 UNL     1      -6.867  46.013 -23.760  1.00  0.00     0.210 HD
ENDBRANCH  18  39
TORSDOF 8
ENDMDL
MODEL 5
REMARK minimizedAffinity -7.57234383
REMARK CNNscore 0.57893759
REMARK CNNaffinity 5.91823435
REMARK  8 active torsions:
REMARK  status: ('A' for Active; 'I' for Inactive)
REMARK    1  A    between atoms: C2_2  and  C4_4 
REMARK    2  A    between atoms: C4_4  and  O1_6 
REMARK    3  A    between atoms: C4_4  and  C6_7 
REMARK    4  A    between atoms: C7_9  and  C8_10 
REMARK    5  A    between atoms: C8_10  and  O3_12 
REMARK    6  A    between atoms: C8_10  and  C10_13 
REMARK    7  A    between atoms: C22_25  and  O4_26 
REMARK    8  A    between atoms: C27_31  and  O5_32 
ROOT
HETATM    1  C10 UNL     1      -9.391  47.272 -28.464  1.00  0.00     0.034 C 
HETATM    2  C11 UNL     1     -10.505  47.085 -29.574  1.00  0.00     0.016 C 
HETATM    3  C12 UNL     1     -11.727  46.530 -28.823  1.00  0.00     0.026 C 
HETATM    4  C13 UNL     1     -13.138  46.863 -29.275  1.00  0.00     0.013 C 
HETATM    5  C14 UNL     1     -14.137  46.219 -28.277  1.00  0.00     0.043 C 
HETATM    6  C15 UNL     1     -13.716  46.246 -26.811  1.00  0.00    -0.006 C 
HETATM    7  C16 UNL     1     -12.489  46.613 -26.391  1.00  0.00    -0.030 C 
HETATM    8  C17 UNL     1     -12.073  46.825 -24.946  1.00  0.00     0.027 C 
HETATM    9  C18 UNL     1     -10.534  46.716 -24.684  1.00  0.00     0.011 C 
HETATM   10  C19 UNL     1      -9.620  47.249 -25.812  1.00  0.00     0.014 C 
HETATM   11  C20 UNL     1     -10.022  46.639 -27.169  1.00  0.00    -0.002 C 
HETATM   12  C21 UNL     1      -9.814  45.105 -27.101  1.00  0.00     0.019 C 
HETATM   13  C22 UNL     1     -11.493  47.045 -27.407  1.00  0.00     0.094 C 
HETATM   14  C23 UNL     1     -12.940  45.975 -23.950  1.00  0.00    -0.026 C 
HETATM   15  C24 UNL     1     -12.561  44.470 -23.997  1.00  0.00     0.016 C 
HETATM   16  C25 UNL     1     -12.698  46.504 -22.499  1.00  0.00     0.013 C 
HETATM   17  C26 UNL     1     -13.953  46.457 -21.635  1.00  0.00     0.032 C 
HETATM   18  C27 UNL     1     -15.060  47.343 -22.217  1.00  0.00     0.119 C 
HETATM   19  C28 UNL     1     -15.102  47.343 -23.749  1.00  0.00     0.045 C 
HETATM   20  C29 UNL     1     -14.455  46.073 -24.315  1.00  0.00     0.071 C 
HETATM   21  C30 UNL     1     -14.766  45.945 -25.801  1.00  0.00     0.161 C 
HETATM   22  O6  UNL     1     -15.895  45.625 -26.177  1.00  0.00    -0.292 OA
ENDROOT
BRANCH   1  23
HETATM   23  C8  UNL     1      -7.935  46.943 -28.915  1.00  0.00     0.087 C 
HETATM   24  C9  UNL     1      -6.826  47.350 -27.938  1.00  0.00     0.049 C 
BRANCH  23  25
HETATM   25  C7  UNL     1      -7.705  47.441 -30.328  1.00  0.00     0.188 A 
HETATM   26  C6  UNL     1      -6.490  47.055 -31.146  1.00  0.00     0.188 A 
HETATM   27  O2  UNL     1      -6.610  48.349 -30.525  1.00  0.00    -0.369 OA
BRANCH  26  28
HETATM   28  C4  UNL     1      -6.515  47.067 -32.661  1.00  0.00     0.086 C 
HETATM   29  C5  UNL     1      -7.819  47.719 -33.144  1.00  0.00     0.049 C 
BRANCH  28  30
HETATM   30  C2  UNL     1      -5.228  47.740 -33.227  1.00  0.00     0.014 C 
HETATM   31  C1  UNL     1      -5.318  48.093 -34.718  1.00  0.00     0.012 C 
HETATM   32  C3  UNL     1      -3.961  46.907 -32.986  1.00  0.00     0.012 C 
ENDBRANCH  28  30
BRANCH  28  33
HETATM   33  O1  UNL     1      -6.530  45.710 -33.132  1.00  0.00    -0.387 OA
HETATM   34  H11 UNL     1      -7.241  45.255 -32.641  1.00  0.00     0.210 HD
ENDBRANCH  28  33
ENDBRANCH  26  28
ENDBRANCH  23  25
BRANCH  23  35
HETATM   35  O3  UNL     1      -7.841  45.504 -28.977  1.00  0.00    -0.387 OA
HETATM   36  H17 UNL     1      -8.557  45.179 -29.549  1.00  0.00     0.210 HD
ENDBRANCH  23  35
ENDBRANCH   1  23
BRANCH  13  37
HETATM   37  O4  UNL     1     -11.587  48.486 -27.410  1.00  0.00    -0.384 OA
HETATM   38  H34 UNL     1     -12.529  48.731 -27.392  1.00  0.00     0.211 HD
ENDBRANCH  13  37
BRANCH  18  39
HETATM   39  O5  UNL     1     -16.313  46.911 -21.691  1.00  0.00    -0.396 OA
HETATM   40  H43 UNL     1     -16.525  46.044 -22.080  1.00  0.00     0.210 HD
ENDBRANCH  18  39
TORSDOF 8
ENDMDL
MODEL 6
REMARK minimizedAffinity -8.1450634
REMARK CNNscore 0.552671194
REMARK CNNaffinity 5.93386841
REMARK  8 active torsions:
REMARK  status: ('A' for Active; 'I' for Inactive)
REMARK    1  A    between atoms: C2_2  and  C4_4 
REMARK    2  A    between atoms: C4_4  and  O1_6 
REMARK    3  A    between atoms: C4_4  and  C6_7 
REMARK    4  A    between atoms: C7_9  and  C8_10 
REMARK    5  A    between atoms: C8_10  and  O3_12 
REMARK    6  A    between atoms: C8_10  and  C10_13 
REMARK    7  A    between atoms: C22_25  and  O4_26 
REMARK    8  A    between atoms: C27_31  and  O5_32 
ROOT
HETATM    1  C10 UNL     1     -14.700  45.983 -26.731  1.00  0.00     0.034 C 
HETATM    2  C11 UNL     1     -14.011  46.036 -25.305  1.00  0.00     0.016 C 
HETATM    3  C12 UNL     1     -12.500  46.043 -25.592  1.00  0.00     0.026 C 
HETATM    4  C13 UNL     1     -11.535  46.772 -24.675  1.00  0.00     0.013 C 
HETATM    5  C14 UNL     1     -10.107  46.653 -25.270  1.00  0.00     0.043 C 
HETATM    6  C15 UNL     1     -10.017  46.738 -26.791  1.00  0.00    -0.006 C 
HETATM    7  C16 UNL     1     -11.091  46.717 -27.607  1.00  0.00    -0.030 C 
HETATM    8  C17 UNL     1     -11.071  46.971 -29.104  1.00  0.00     0.027 C 
HETATM    9  C18 UNL     1     -12.291  46.381 -29.885  1.00  0.00     0.011 C 
HETATM   10  C19 UNL     1     -13.645  46.407 -29.139  1.00  0.00     0.014 C 
HETATM   11  C20 UNL     1     -13.502  45.789 -27.734  1.00  0.00    -0.002 C 
HETATM   12  C21 UNL     1     -13.096  44.302 -27.888  1.00  0.00     0.019 C 
HETATM   13  C22 UNL     1     -12.443  46.637 -26.995  1.00  0.00     0.094 C 
HETATM   14  C23 UNL     1      -9.683  46.616 -29.747  1.00  0.00    -0.026 C 
HETATM   15  C24 UNL     1      -9.474  45.081 -29.852  1.00  0.00     0.016 C 
HETATM   16  C25 UNL     1      -9.627  47.226 -31.185  1.00  0.00     0.013 C 
HETATM   17  C26 UNL     1      -8.239  47.731 -31.560  1.00  0.00     0.032 C 
HETATM   18  C27 UNL     1      -7.785  48.853 -30.620  1.00  0.00     0.119 C 
HETATM   19  C28 UNL     1      -8.236  48.655 -29.168  1.00  0.00     0.045 C 
HETATM   20  C29 UNL     1      -8.513  47.175 -28.877  1.00  0.00     0.071 C 
HETATM   21  C30 UNL     1      -8.667  46.956 -27.377  1.00  0.00     0.161 C 
HETATM   22  O6  UNL     1      -7.684  46.993 -26.637  1.00  0.00    -0.292 OA
ENDROOT
BRANCH   1  23
HETATM   23  C8  UNL     1     -15.993  45.117 -26.817  1.00  0.00     0.087 C 
HETATM   24  C9  UNL     1     -16.322  44.545 -28.202  1.00  0.00     0.049 C 
BRANCH  23  25
HETATM   25  C7  UNL     1     -17.153  45.852 -26.178  1.00  0.00     0.188 A 
HETATM   26  C6  UNL     1     -18.133  45.181 -25.238  1.00  0.00     0.188 A 
HETATM   27  O2  UNL     1     -18.473  45.478 -26.606  1.00  0.00    -0.369 OA
BRANCH  26  28
HETATM   28  C4  UNL     1     -18.907  45.970 -24.201  1.00  0.00     0.086 C 
HETATM   29  C5  UNL     1     -20.188  45.206 -23.833  1.00  0.00     0.049 C 
BRANCH  28  30
HETATM   30  C2  UNL     1     -18.002  46.304 -22.976  1.00  0.00     0.014 C 
HETATM   31  C1  UNL     1     -16.797  45.367 -22.821  1.00  0.00     0.012 C 
HETATM   32  C3  UNL     1     -18.778  46.345 -21.652  1.00  0.00     0.012 C 
ENDBRANCH  28  30
BRANCH  28  33
HETATM   33  O1  UNL     1     -19.319  47.216 -24.782  1.00  0.00    -0.387 OA
HETATM   34  H11 UNL     1     -19.740  46.998 -25.636  1.00  0.00     0.210 HD
ENDBRANCH  28  33
ENDBRANCH  26  28
ENDBRANCH  23  25
BRANCH  23  35
HETATM   35  O3  UNL     1     -15.760  43.950 -26.000  1.00  0.00    -0.387 OA
HETATM   36  H17 UNL     1     -15.496  44.250 -25.113  1.00  0.00     0.210 HD
ENDBRANCH  23  35
ENDBRANCH   1  23
BRANCH  13  37
HETATM   37  O4  UNL     1     -12.893  48.008 -26.942  1.00  0.00    -0.384 OA
HETATM   38  H34 UNL     1     -12.155  48.561 -26.629  1.00  0.00     0.211 HD
ENDBRANCH  13  37
BRANCH  18  39
HETATM   39  O5  UNL     1      -6.363  48.952 -30.683  1.00  0.00    -0.396 OA
HETATM   40  H43 UNL     1      -5.982  48.165 -30.254  1.00  0.00     0.210 HD
ENDBRANCH  18  39
TORSDOF 8
ENDMDL
MODEL 7
REMARK minimizedAffinity -9.14776993
REMARK CNNscore 0.512912631
REMARK CNNaffinity 6.5002141
REMARK  8 active torsions:
REMARK  status: ('A' for Active; 'I' for Inactive)
REMARK    1  A    between atoms: C2_2  and  C4_4 
REMARK    2  A    between atoms: C4_4  and  O1_6 
REMARK    3  A    between atoms: C4_4  and  C6_7 
REMARK    4  A    between atoms: C7_9  and  C8_10 
REMARK    5  A    between atoms: C8_10  and  O3_12 
REMARK    6  A    between atoms: C8_10  and  C10_13 
REMARK    7  A    between atoms: C22_25  and  O4_26 
REMARK    8  A    between atoms: C27_31  and  O5_32 
ROOT
HETATM    1  C10 UNL     1      -2.851  50.465 -23.613  1.00  0.00     0.034 C 
HETATM    2  C11 UNL     1      -1.569  50.593 -22.693  1.00  0.00     0.016 C 
HETATM    3  C12 UNL     1      -1.893  49.764 -21.438  1.00  0.00     0.026 C 
HETATM    4  C13 UNL     1      -0.799  49.038 -20.679  1.00  0.00     0.013 C 
HETATM    5  C14 UNL     1      -1.453  48.242 -19.518  1.00  0.00     0.043 C 
HETATM    6  C15 UNL     1      -2.799  47.597 -19.836  1.00  0.00    -0.006 C 
HETATM    7  C16 UNL     1      -3.498  47.841 -20.963  1.00  0.00    -0.030 C 
HETATM    8  C17 UNL     1      -4.747  47.101 -21.408  1.00  0.00     0.027 C 
HETATM    9  C18 UNL     1      -5.649  47.886 -22.417  1.00  0.00     0.011 C 
HETATM   10  C19 UNL     1      -4.901  48.775 -23.438  1.00  0.00     0.014 C 
HETATM   11  C20 UNL     1      -3.896  49.696 -22.721  1.00  0.00    -0.002 C 
HETATM   12  C21 UNL     1      -4.680  50.646 -21.781  1.00  0.00     0.019 C 
HETATM   13  C22 UNL     1      -2.916  48.767 -21.970  1.00  0.00     0.094 C 
HETATM   14  C23 UNL     1      -5.542  46.498 -20.195  1.00  0.00    -0.026 C 
HETATM   15  C24 UNL     1      -6.293  47.596 -19.396  1.00  0.00     0.016 C 
HETATM   16  C25 UNL     1      -6.589  45.475 -20.743  1.00  0.00     0.013 C 
HETATM   17  C26 UNL     1      -6.779  44.273 -19.825  1.00  0.00     0.032 C 
HETATM   18  C27 UNL     1      -5.475  43.483 -19.671  1.00  0.00     0.119 C 
HETATM   19  C28 UNL     1      -4.223  44.367 -19.640  1.00  0.00     0.045 C 
HETATM   20  C29 UNL     1      -4.571  45.793 -19.196  1.00  0.00     0.071 C 
HETATM   21  C30 UNL     1      -3.298  46.570 -18.883  1.00  0.00     0.161 C 
HETATM   22  O6  UNL     1      -2.656  46.329 -17.859  1.00  0.00    -0.292 OA
ENDROOT
BRANCH   1  23
HETATM   23  C8  UNL     1      -3.236  51.751 -24.407  1.00  0.00     0.087 C 
HETATM   24  C9  UNL     1      -4.731  52.097 -24.432  1.00  0.00     0.049 C 
BRANCH  23  25
HETATM   25  C7  UNL     1      -2.603  51.721 -25.782  1.00  0.00     0.188 A 
HETATM   26  C6  UNL     1      -1.477  52.649 -26.188  1.00  0.00     0.188 A 
HETATM   27  O2  UNL     1      -2.833  52.859 -26.627  1.00  0.00    -0.369 OA
BRANCH  26  28
HETATM   28  C4  UNL     1      -0.498  52.281 -27.285  1.00  0.00     0.086 C 
HETATM   29  C5  UNL     1      -0.170  53.531 -28.115  1.00  0.00     0.049 C 
BRANCH  28  30
HETATM   30  C2  UNL     1       0.758  51.576 -26.687  1.00  0.00     0.014 C 
HETATM   31  C1  UNL     1       1.042  51.949 -25.226  1.00  0.00     0.012 C 
HETATM   32  C3  UNL     1       2.028  51.810 -27.519  1.00  0.00     0.012 C 
ENDBRANCH  28  30
BRANCH  28  33
HETATM   33  O1  UNL     1      -1.130  51.346 -28.173  1.00  0.00    -0.387 OA
HETATM   34  H11 UNL     1      -1.997  51.731 -28.408  1.00  0.00     0.210 HD
ENDBRANCH  28  33
ENDBRANCH  26  28
ENDBRANCH  23  25
BRANCH  23  35
HETATM   35  O3  UNL     1      -2.629  52.859 -23.710  1.00  0.00    -0.387 OA
HETATM   36  H17 UNL     1      -1.679  52.674 -23.617  1.00  0.00     0.210 HD
ENDBRANCH  23  35
ENDBRANCH   1  23
BRANCH  13  37
HETATM   37  O4  UNL     1      -2.271  47.896 -22.924  1.00  0.00    -0.384 OA
HETATM   38  H34 UNL     1      -1.787  47.209 -22.434  1.00  0.00     0.211 HD
ENDBRANCH  13  37
BRANCH  18  39
HETATM   39  O5  UNL     1      -5.554  42.701 -18.481  1.00  0.00    -0.396 OA
HETATM   40  H43 UNL     1      -5.515  43.302 -17.716  1.00  0.00     0.210 HD
ENDBRANCH  18  39
TORSDOF 8
ENDMDL
MODEL 8
REMARK minimizedAffinity -9.98927879
REMARK CNNscore 0.493226767
REMARK CNNaffinity 6.90877533
REMARK  8 active torsions:
REMARK  status: ('A' for Active; 'I' for Inactive)
REMARK    1  A    between atoms: C2_2  and  C4_4 
REMARK    2  A    between atoms: C4_4  and  O1_6 
REMARK    3  A    between atoms: C4_4  and  C6_7 
REMARK    4  A    between atoms: C7_9  and  C8_10 
REMARK    5  A    between atoms: C8_10  and  O3_12 
REMARK    6  A    between atoms: C8_10  and  C10_13 
REMARK    7  A    between atoms: C22_25  and  O4_26 
REMARK    8  A    between atoms: C27_31  and  O5_32 
ROOT
HETATM    1  C10 UNL     1      -2.296  50.144 -24.453  1.00  0.00     0.034 C 
HETATM    2  C11 UNL     1      -1.477  51.362 -23.858  1.00  0.00     0.016 C 
HETATM    3  C12 UNL     1      -1.947  51.484 -22.398  1.00  0.00     0.026 C 
HETATM    4  C13 UNL     1      -1.004  51.970 -21.313  1.00  0.00     0.013 C 
HETATM    5  C14 UNL     1      -1.749  51.911 -19.953  1.00  0.00     0.043 C 
HETATM    6  C15 UNL     1      -2.677  50.715 -19.760  1.00  0.00    -0.006 C 
HETATM    7  C16 UNL     1      -3.007  49.857 -20.746  1.00  0.00    -0.030 C 
HETATM    8  C17 UNL     1      -3.780  48.561 -20.572  1.00  0.00     0.027 C 
HETATM    9  C18 UNL     1      -4.483  48.038 -21.867  1.00  0.00     0.011 C 
HETATM   10  C19 UNL     1      -3.725  48.285 -23.192  1.00  0.00     0.014 C 
HETATM   11  C20 UNL     1      -3.313  49.765 -23.313  1.00  0.00    -0.002 C 
HETATM   12  C21 UNL     1      -4.596  50.632 -23.355  1.00  0.00     0.019 C 
HETATM   13  C22 UNL     1      -2.414  50.065 -22.093  1.00  0.00     0.094 C 
HETATM   14  C23 UNL     1      -4.723  48.599 -19.317  1.00  0.00    -0.026 C 
HETATM   15  C24 UNL     1      -5.972  49.487 -19.563  1.00  0.00     0.016 C 
HETATM   16  C25 UNL     1      -5.200  47.143 -19.006  1.00  0.00     0.013 C 
HETATM   17  C26 UNL     1      -5.333  46.870 -17.512  1.00  0.00     0.032 C 
HETATM   18  C27 UNL     1      -3.985  47.021 -16.799  1.00  0.00     0.119 C 
HETATM   19  C28 UNL     1      -3.116  48.150 -17.368  1.00  0.00     0.045 C 
HETATM   20  C29 UNL     1      -3.977  49.197 -18.083  1.00  0.00     0.071 C 
HETATM   21  C30 UNL     1      -3.150  50.443 -18.376  1.00  0.00     0.161 C 
HETATM   22  O6  UNL     1      -2.839  51.214 -17.466  1.00  0.00    -0.292 OA
ENDROOT
BRANCH   1  23
HETATM   23  C8  UNL     1      -2.745  50.302 -25.937  1.00  0.00     0.087 C 
HETATM   24  C9  UNL     1      -2.811  49.006 -26.756  1.00  0.00     0.049 C 
BRANCH  23  25
HETATM   25  C7  UNL     1      -1.944  51.398 -26.608  1.00  0.00     0.188 A 
HETATM   26  C6  UNL     1      -1.406  52.598 -25.858  1.00  0.00     0.188 A 
HETATM   27  O2  UNL     1      -2.566  52.689 -26.707  1.00  0.00    -0.369 OA
BRANCH  26  28
HETATM   28  C4  UNL     1      -0.193  53.365 -26.347  1.00  0.00     0.086 C 
HETATM   29  C5  UNL     1       0.316  54.281 -25.224  1.00  0.00     0.049 C 
BRANCH  28  30
HETATM   30  C2  UNL     1       0.888  52.388 -26.901  1.00  0.00     0.014 C 
HETATM   31  C1  UNL     1       0.567  51.834 -28.294  1.00  0.00     0.012 C 
HETATM   32  C3  UNL     1       1.180  51.217 -25.951  1.00  0.00     0.012 C 
ENDBRANCH  28  30
BRANCH  28  33
HETATM   33  O1  UNL     1      -0.593  54.219 -27.430  1.00  0.00    -0.387 OA
HETATM   34  H11 UNL     1      -1.381  54.707 -27.121  1.00  0.00     0.210 HD
ENDBRANCH  28  33
ENDBRANCH  26  28
ENDBRANCH  23  25
BRANCH  23  35
HETATM   35  O3  UNL     1      -4.111  50.767 -25.904  1.00  0.00    -0.387 OA
HETATM   36  H17 UNL     1      -4.145  51.567 -25.353  1.00  0.00     0.210 HD
ENDBRANCH  23  35
ENDBRANCH   1  23
BRANCH  13  37
HETATM   37  O4  UNL     1      -1.274  49.179 -22.122  1.00  0.00    -0.384 OA
HETATM   38  H34 UNL     1      -0.804  49.257 -21.272  1.00  0.00     0.211 HD
ENDBRANCH  13  37
BRANCH  18  39
HETATM   39  O5  UNL     1      -4.225  47.238 -15.410  1.00  0.00    -0.396 OA
HETATM   40  H43 UNL     1      -4.610  48.126 -15.302  1.00  0.00     0.210 HD
ENDBRANCH  18  39
TORSDOF 8
ENDMDL
MODEL 9
REMARK minimizedAffinity -7.15404224
REMARK CNNscore 0.48228848
REMARK CNNaffinity 5.86104345
REMARK  8 active torsions:
REMARK  status: ('A' for Active; 'I' for Inactive)
REMARK    1  A    between atoms: C2_2  and  C4_4 
REMARK    2  A    between atoms: C4_4  and  O1_6 
REMARK    3  A    between atoms: C4_4  and  C6_7 
REMARK    4  A    between atoms: C7_9  and  C8_10 
REMARK    5  A    between atoms: C8_10  and  O3_12 
REMARK    6  A    between atoms: C8_10  and  C10_13 
REMARK    7  A    between atoms: C22_25  and  O4_26 
REMARK    8  A    between atoms: C27_31  and  O5_32 
ROOT
HETATM    1  C10 UNL     1      -8.077  44.311 -31.127  1.00  0.00     0.034 C 
HETATM    2  C11 UNL     1      -6.925  45.136 -30.420  1.00  0.00     0.016 C 
HETATM    3  C12 UNL     1      -7.652  46.144 -29.515  1.00  0.00     0.026 C 
HETATM    4  C13 UNL     1      -7.038  46.600 -28.203  1.00  0.00     0.013 C 
HETATM    5  C14 UNL     1      -8.041  47.551 -27.497  1.00  0.00     0.043 C 
HETATM    6  C15 UNL     1      -9.513  47.172 -27.627  1.00  0.00    -0.006 C 
HETATM    7  C16 UNL     1      -9.968  46.206 -28.450  1.00  0.00    -0.030 C 
HETATM    8  C17 UNL     1     -11.389  45.673 -28.491  1.00  0.00     0.027 C 
HETATM    9  C18 UNL     1     -11.791  44.979 -29.835  1.00  0.00     0.011 C 
HETATM   10  C19 UNL     1     -10.671  44.180 -30.540  1.00  0.00     0.014 C 
HETATM   11  C20 UNL     1      -9.402  45.041 -30.689  1.00  0.00    -0.002 C 
HETATM   12  C21 UNL     1      -9.733  46.255 -31.593  1.00  0.00     0.019 C 
HETATM   13  C22 UNL     1      -8.981  45.443 -29.258  1.00  0.00     0.094 C 
HETATM   14  C23 UNL     1     -12.435  46.736 -27.998  1.00  0.00    -0.026 C 
HETATM   15  C24 UNL     1     -12.662  47.852 -29.052  1.00  0.00     0.016 C 
HETATM   16  C25 UNL     1     -13.796  46.015 -27.735  1.00  0.00     0.013 C 
HETATM   17  C26 UNL     1     -14.550  46.590 -26.542  1.00  0.00     0.032 C 
HETATM   18  C27 UNL     1     -13.745  46.431 -25.248  1.00  0.00     0.119 C 
HETATM   19  C28 UNL     1     -12.234  46.605 -25.443  1.00  0.00     0.045 C 
HETATM   20  C29 UNL     1     -11.935  47.437 -26.695  1.00  0.00     0.071 C 
HETATM   21  C30 UNL     1     -10.469  47.851 -26.711  1.00  0.00     0.161 C 
HETATM   22  O6  UNL     1     -10.058  48.724 -25.945  1.00  0.00    -0.292 OA
ENDROOT
BRANCH   1  23
HETATM   23  C8  UNL     1      -7.806  43.920 -32.612  1.00  0.00     0.087 C 
HETATM   24  C9  UNL     1      -8.984  44.104 -33.576  1.00  0.00     0.049 C 
BRANCH  23  25
HETATM   25  C7  UNL     1      -7.183  42.541 -32.679  1.00  0.00     0.188 A 
HETATM   26  C6  UNL     1      -6.554  41.985 -33.939  1.00  0.00     0.188 A 
HETATM   27  O2  UNL     1      -7.856  41.564 -33.490  1.00  0.00    -0.369 OA
BRANCH  26  28
HETATM   28  C4  UNL     1      -5.481  40.915 -33.889  1.00  0.00     0.086 C 
HETATM   29  C5  UNL     1      -5.800  39.826 -34.924  1.00  0.00     0.049 C 
BRANCH  28  30
HETATM   30  C2  UNL     1      -4.066  41.546 -34.055  1.00  0.00     0.014 C 
HETATM   31  C1  UNL     1      -2.954  40.518 -34.299  1.00  0.00     0.012 C 
HETATM   32  C3  UNL     1      -3.668  42.444 -32.874  1.00  0.00     0.012 C 
ENDBRANCH  28  30
BRANCH  28  33
HETATM   33  O1  UNL     1      -5.519  40.285 -32.599  1.00  0.00    -0.387 OA
HETATM   34  H11 UNL     1      -6.452  40.043 -32.436  1.00  0.00     0.210 HD
ENDBRANCH  28  33
ENDBRANCH  26  28
ENDBRANCH  23  25
BRANCH  23  35
HETATM   35  O3  UNL     1      -6.804  44.837 -33.100  1.00  0.00    -0.387 OA
HETATM   36  H17 UNL     1      -6.042  44.803 -32.496  1.00  0.00     0.210 HD
ENDBRANCH  23  35
ENDBRANCH   1  23
BRANCH  13  37
HETATM   37  O4  UNL     1      -8.738  44.246 -28.487  1.00  0.00    -0.384 OA
HETATM   38  H34 UNL     1      -8.639  44.498 -27.553  1.00  0.00     0.211 HD
ENDBRANCH  13  37
BRANCH  18  39
HETATM   39  O5  UNL     1     -14.229  47.372 -24.292  1.00  0.00    -0.396 OA
HETATM   40  H43 UNL     1     -13.968  48.264 -24.582  1.00  0.00     0.210 HD
ENDBRANCH  18  39
TORSDOF 8
ENDMDL
