MODEL 1
REMARK minimizedAffinity -8.65886211
REMARK CNNscore 0.397083163
REMARK CNNaffinity 6.87856674
REMARK  18 active torsions:
REMARK  status: ('A' for Active; 'I' for Inactive)
REMARK    1  A    between atoms: C2_2  and  C4_4 
REMARK    2  A    between atoms: C4_4  and  N1_5 
REMARK    3  A    between atoms: C4_4  and  C30_38 
REMARK       I    between atoms: N1_5  and  C5_6 
REMARK    4  A    between atoms: C5_6  and  C6_8 
REMARK    5  A    between atoms: C6_8  and  C7_9 
REMARK    6  A    between atoms: C7_9  and  C8_10 
REMARK    7  A    between atoms: C8_10  and  O3_12 
REMARK    8  A    between atoms: O3_12  and  C9_13 
REMARK    9  A    between atoms: C9_13  and  C10_14 
REMARK   10  A    between atoms: C10_14  and  C11_16 
REMARK   11  A    between atoms: C11_16  and  O5_17 
REMARK   12  A    between atoms: C26_33  and  O7_34 
REMARK       I    between atoms: C30_38  and  N2_40 
REMARK   13  A    between atoms: N2_40  and  C31_41 
REMARK   14  A    between atoms: C31_41  and  C32_42 
REMARK   15  A    between atoms: C32_42  and  C33_43 
REMARK   16  A    between atoms: C32_42  and  C35_47 
REMARK   17  A    between atoms: C33_43  and  C34_44 
REMARK   18  A    between atoms: C34_44  and  O10_46 
ROOT
HETATM    1  C8  UNL     1      -1.893  49.264 -15.439  1.00  0.00     0.259 C 
HETATM    2  O2  UNL     1      -1.272  48.263 -15.101  1.00  0.00    -0.265 OA
ENDROOT
BRANCH   1   3
HETATM    3  C7  UNL     1      -2.150  49.642 -16.880  1.00  0.00     0.120 C 
BRANCH   3   4
HETATM    4  C6  UNL     1      -0.890  49.679 -17.739  1.00  0.00     0.112 C 
BRANCH   4   5
HETATM    5  C5  UNL     1      -1.192  49.702 -19.221  1.00  0.00     0.218 C 
HETATM    6  N1  UNL     1      -2.308  50.462 -19.512  1.00  0.00    -0.347 N 
HETATM    7  H9  UNL     1      -2.985  50.532 -18.761  1.00  0.00     0.163 HD
HETATM    8  O1  UNL     1      -0.526  49.116 -20.065  1.00  0.00    -0.274 OA
BRANCH   6   9
HETATM    9  C4  UNL     1      -2.886  50.446 -20.857  1.00  0.00     0.179 C 
BRANCH   9  10
HETATM   10  C2  UNL     1      -3.162  48.994 -21.309  1.00  0.00     0.009 C 
HETATM   11  C1  UNL     1      -4.656  48.703 -21.458  1.00  0.00     0.012 C 
HETATM   12  C3  UNL     1      -2.425  48.597 -22.594  1.00  0.00     0.012 C 
ENDBRANCH   9  10
BRANCH   9  13
HETATM   13  C30 UNL     1      -1.909  51.203 -21.788  1.00  0.00     0.240 C 
HETATM   14  O8  UNL     1      -1.053  51.973 -21.353  1.00  0.00    -0.271 OA
HETATM   15  N2  UNL     1      -2.048  50.915 -23.127  1.00  0.00    -0.359 N 
HETATM   16  H43 UNL     1      -2.825  50.338 -23.431  1.00  0.00     0.162 HD
BRANCH  15  17
HETATM   17  C31 UNL     1      -1.212  51.518 -24.150  1.00  0.00     0.132 C 
BRANCH  17  18
HETATM   18  C32 UNL     1      -1.148  50.677 -25.442  1.00  0.00     0.046 C 
BRANCH  18  19
HETATM   19  C33 UNL     1      -2.441  50.795 -26.264  1.00  0.00     0.120 C 
BRANCH  19  20
HETATM   20  C34 UNL     1      -3.156  52.084 -25.965  1.00  0.00     0.140 C 
HETATM   21  O9  UNL     1      -4.002  52.267 -25.105  1.00  0.00    -0.650 OA
BRANCH  20  22
HETATM   22  O10 UNL     1      -2.738  53.101 -26.739  1.00  0.00    -0.776 OA
HETATM   23  H49 UNL     1      -3.269  53.867 -26.435  1.00  0.00     0.167 HD
ENDBRANCH  20  22
ENDBRANCH  19  20
ENDBRANCH  18  19
BRANCH  18  24
HETATM   24  C35 UNL     1       0.074  51.065 -26.269  1.00  0.00    -0.052 A 
HETATM   25  C36 UNL     1      -0.079  51.385 -27.627  1.00  0.00     0.007 A 
HETATM   26  C37 UNL     1       1.025  51.746 -28.400  1.00  0.00     0.001 A 
HETATM   27  C38 UNL     1       2.294  51.795 -27.829  1.00  0.00     0.000 A 
HETATM   28  C39 UNL     1       2.460  51.487 -26.481  1.00  0.00     0.001 A 
HETATM   29  C40 UNL     1       1.359  51.127 -25.704  1.00  0.00     0.007 A 
ENDBRANCH  18  24
ENDBRANCH  17  18
ENDBRANCH  15  17
ENDBRANCH   9  13
ENDBRANCH   6   9
ENDBRANCH   4   5
ENDBRANCH   3   4
ENDBRANCH   1   3
BRANCH   1  30
HETATM   30  O3  UNL     1      -2.432  50.156 -14.569  1.00  0.00    -0.314 OA
BRANCH  30  31
HETATM   31  C9  UNL     1      -2.535  49.701 -13.219  1.00  0.00     0.260 C 
BRANCH  31  32
HETATM   32  C10 UNL     1      -3.352  50.634 -12.332  1.00  0.00     0.185 C 
HETATM   33  O4  UNL     1      -4.445  50.297 -11.860  1.00  0.00    -0.292 OA
BRANCH  32  34
HETATM   34  C11 UNL     1      -2.764  52.009 -11.962  1.00  0.00     0.128 C 
HETATM   35  C12 UNL     1      -3.772  53.153 -11.681  1.00  0.00     0.047 C 
HETATM   36  C13 UNL     1      -3.139  54.035 -10.586  1.00  0.00     0.009 C 
HETATM   37  C14 UNL     1      -1.707  53.526 -10.477  1.00  0.00     0.002 C 
HETATM   38  C15 UNL     1      -0.886  53.897  -9.234  1.00  0.00    -0.002 C 
HETATM   39  C28 UNL     1      -1.843  52.002 -10.702  1.00  0.00     0.001 C 
HETATM   40  C16 UNL     1      -0.879  55.426  -9.024  1.00  0.00     0.010 C 
HETATM   41  C25 UNL     1       0.565  53.322  -9.422  1.00  0.00     0.031 C 
HETATM   42  C17 UNL     1       0.102  55.881  -7.944  1.00  0.00     0.035 C 
HETATM   43  C18 UNL     1       1.459  55.299  -8.242  1.00  0.00    -0.068 C 
HETATM   44  C19 UNL     1       2.474  56.101  -8.608  1.00  0.00     0.053 C 
HETATM   45  C23 UNL     1       1.522  53.765  -8.251  1.00  0.00    -0.014 C 
HETATM   46  C20 UNL     1       3.726  55.546  -9.171  1.00  0.00     0.149 C 
HETATM   47  O6  UNL     1       4.660  56.298  -9.430  1.00  0.00    -0.293 OA
HETATM   48  C21 UNL     1       3.749  54.076  -9.508  1.00  0.00     0.084 C 
HETATM   49  C22 UNL     1       2.992  53.296  -8.448  1.00  0.00     0.022 C 
HETATM   50  C24 UNL     1       1.096  53.215  -6.864  1.00  0.00     0.020 C 
HETATM   51  C26 UNL     1       0.555  51.803  -9.755  1.00  0.00     0.124 C 
HETATM   52  C27 UNL     1      -0.417  51.433 -10.896  1.00  0.00     0.045 C 
HETATM   53  C29 UNL     1      -2.566  51.267  -9.542  1.00  0.00     0.019 C 
BRANCH  34  54
HETATM   54  O5  UNL     1      -2.011  52.410 -13.123  1.00  0.00    -0.381 OA
HETATM   55  H16 UNL     1      -1.519  51.617 -13.423  1.00  0.00     0.211 HD
ENDBRANCH  34  54
BRANCH  51  56
HETATM   56  O7  UNL     1       0.244  51.035  -8.603  1.00  0.00    -0.395 OA
HETATM   57  H37 UNL     1       0.498  50.110  -8.779  1.00  0.00     0.210 HD
ENDBRANCH  51  56
ENDBRANCH  32  34
ENDBRANCH  31  32
ENDBRANCH  30  31
ENDBRANCH   1  30
TORSDOF 18
ENDMDL
MODEL 2
REMARK minimizedAffinity -9.00820541
REMARK CNNscore 0.384745717
REMARK CNNaffinity 6.3433814
REMARK  18 active torsions:
REMARK  status: ('A' for Active; 'I' for Inactive)
REMARK    1  A    between atoms: C2_2  and  C4_4 
REMARK    2  A    between atoms: C4_4  and  N1_5 
REMARK    3  A    between atoms: C4_4  and  C30_38 
REMARK       I    between atoms: N1_5  and  C5_6 
REMARK    4  A    between atoms: C5_6  and  C6_8 
REMARK    5  A    between atoms: C6_8  and  C7_9 
REMARK    6  A    between atoms: C7_9  and  C8_10 
REMARK    7  A    between atoms: C8_10  and  O3_12 
REMARK    8  A    between atoms: O3_12  and  C9_13 
REMARK    9  A    between atoms: C9_13  and  C10_14 
REMARK   10  A    between atoms: C10_14  and  C11_16 
REMARK   11  A    between atoms: C11_16  and  O5_17 
REMARK   12  A    between atoms: C26_33  and  O7_34 
REMARK       I    between atoms: C30_38  and  N2_40 
REMARK   13  A    between atoms: N2_40  and  C31_41 
REMARK   14  A    between atoms: C31_41  and  C32_42 
REMARK   15  A    between atoms: C32_42  and  C33_43 
REMARK   16  A    between atoms: C32_42  and  C35_47 
REMARK   17  A    between atoms: C33_43  and  C34_44 
REMARK   18  A    between atoms: C34_44  and  O10_46 
ROOT
HETATM    1  C8  UNL     1      -8.202  46.962 -20.812  1.00  0.00     0.259 C 
HETATM    2  O2  UNL     1      -7.607  46.649 -19.787  1.00  0.00    -0.265 OA
ENDROOT
BRANCH   1   3
HETATM    3  C7  UNL     1      -9.691  47.216 -20.871  1.00  0.00     0.120 C 
BRANCH   3   4
HETATM    4  C6  UNL     1     -10.364  47.239 -19.502  1.00  0.00     0.112 C 
BRANCH   4   5
HETATM    5  C5  UNL     1     -11.737  47.872 -19.537  1.00  0.00     0.218 C 
HETATM    6  N1  UNL     1     -12.742  46.928 -19.627  1.00  0.00    -0.347 N 
HETATM    7  H9  UNL     1     -12.471  46.058 -20.070  1.00  0.00     0.163 HD
HETATM    8  O1  UNL     1     -11.937  49.079 -19.488  1.00  0.00    -0.274 OA
BRANCH   6   9
HETATM    9  C4  UNL     1     -14.125  47.338 -19.877  1.00  0.00     0.179 C 
BRANCH   9  10
HETATM   10  C2  UNL     1     -14.925  47.372 -18.554  1.00  0.00     0.009 C 
HETATM   11  C1  UNL     1     -14.233  46.594 -17.434  1.00  0.00     0.012 C 
HETATM   12  C3  UNL     1     -15.259  48.789 -18.071  1.00  0.00     0.012 C 
ENDBRANCH   9  10
BRANCH   9  13
HETATM   13  C30 UNL     1     -14.714  46.362 -20.923  1.00  0.00     0.240 C 
HETATM   14  O8  UNL     1     -14.296  45.212 -21.055  1.00  0.00    -0.271 OA
HETATM   15  N2  UNL     1     -15.762  46.868 -21.659  1.00  0.00    -0.359 N 
HETATM   16  H43 UNL     1     -16.006  47.849 -21.563  1.00  0.00     0.162 HD
BRANCH  15  17
HETATM   17  C31 UNL     1     -16.449  46.096 -22.678  1.00  0.00     0.132 C 
BRANCH  17  18
HETATM   18  C32 UNL     1     -17.976  46.319 -22.669  1.00  0.00     0.046 C 
BRANCH  18  19
HETATM   19  C33 UNL     1     -18.674  45.542 -23.796  1.00  0.00     0.120 C 
BRANCH  19  20
HETATM   20  C34 UNL     1     -19.551  46.449 -24.614  1.00  0.00     0.140 C 
HETATM   21  O9  UNL     1     -20.716  46.254 -24.923  1.00  0.00    -0.650 OA
BRANCH  20  22
HETATM   22  O10 UNL     1     -18.932  47.587 -24.971  1.00  0.00    -0.776 OA
HETATM   23  H49 UNL     1     -19.610  48.080 -25.479  1.00  0.00     0.167 HD
ENDBRANCH  20  22
ENDBRANCH  19  20
ENDBRANCH  18  19
BRANCH  18  24
HETATM   24  C35 UNL     1     -18.558  45.962 -21.305  1.00  0.00    -0.052 A 
HETATM   25  C36 UNL     1     -18.695  46.958 -20.326  1.00  0.00     0.007 A 
HETATM   26  C37 UNL     1     -19.229  46.655 -19.073  1.00  0.00     0.001 A 
HETATM   27  C38 UNL     1     -19.634  45.354 -18.781  1.00  0.00     0.000 A 
HETATM   28  C39 UNL     1     -19.511  44.357 -19.745  1.00  0.00     0.001 A 
HETATM   29  C40 UNL     1     -18.979  44.657 -21.000  1.00  0.00     0.007 A 
ENDBRANCH  18  24
ENDBRANCH  17  18
ENDBRANCH  15  17
ENDBRANCH   9  13
ENDBRANCH   6   9
ENDBRANCH   4   5
ENDBRANCH   3   4
ENDBRANCH   1   3
BRANCH   1  30
HETATM   30  O3  UNL     1      -7.603  47.126 -22.020  1.00  0.00    -0.314 OA
BRANCH  30  31
HETATM   31  C9  UNL     1      -6.388  47.876 -21.998  1.00  0.00     0.260 C 
BRANCH  31  32
HETATM   32  C10 UNL     1      -6.397  49.060 -22.960  1.00  0.00     0.185 C 
HETATM   33  O4  UNL     1      -7.276  49.197 -23.820  1.00  0.00    -0.292 OA
BRANCH  32  34
HETATM   34  C11 UNL     1      -5.318  50.149 -22.806  1.00  0.00     0.128 C 
HETATM   35  C12 UNL     1      -4.682  50.316 -21.402  1.00  0.00     0.047 C 
HETATM   36  C13 UNL     1      -3.212  50.720 -21.632  1.00  0.00     0.009 C 
HETATM   37  C14 UNL     1      -3.138  51.024 -23.123  1.00  0.00     0.002 C 
HETATM   38  C15 UNL     1      -1.758  51.086 -23.794  1.00  0.00    -0.002 C 
HETATM   39  C28 UNL     1      -4.091  49.985 -23.757  1.00  0.00     0.001 C 
HETATM   40  C16 UNL     1      -0.835  52.071 -23.046  1.00  0.00     0.010 C 
HETATM   41  C25 UNL     1      -1.967  51.501 -25.296  1.00  0.00     0.031 C 
HETATM   42  C17 UNL     1       0.471  52.355 -23.789  1.00  0.00     0.035 C 
HETATM   43  C18 UNL     1       0.148  52.771 -25.200  1.00  0.00    -0.068 C 
HETATM   44  C19 UNL     1       0.384  54.031 -25.606  1.00  0.00     0.053 C 
HETATM   45  C23 UNL     1      -0.593  51.718 -26.036  1.00  0.00    -0.014 C 
HETATM   46  C20 UNL     1      -0.169  54.544 -26.879  1.00  0.00     0.149 C 
HETATM   47  O6  UNL     1       0.121  55.675 -27.254  1.00  0.00    -0.293 OA
HETATM   48  C21 UNL     1      -1.168  53.679 -27.605  1.00  0.00     0.084 C 
HETATM   49  C22 UNL     1      -0.756  52.220 -27.499  1.00  0.00     0.022 C 
HETATM   50  C24 UNL     1       0.265  50.429 -26.136  1.00  0.00     0.020 C 
HETATM   51  C26 UNL     1      -2.992  50.581 -26.019  1.00  0.00     0.124 C 
HETATM   52  C27 UNL     1      -4.307  50.394 -25.233  1.00  0.00     0.045 C 
HETATM   53  C29 UNL     1      -3.565  48.528 -23.669  1.00  0.00     0.019 C 
BRANCH  34  54
HETATM   54  O5  UNL     1      -6.002  51.385 -23.089  1.00  0.00    -0.381 OA
HETATM   55  H16 UNL     1      -6.567  51.217 -23.873  1.00  0.00     0.211 HD
ENDBRANCH  34  54
BRANCH  51  56
HETATM   56  O7  UNL     1      -2.424  49.311 -26.298  1.00  0.00    -0.395 OA
HETATM   57  H37 UNL     1      -2.983  48.869 -26.963  1.00  0.00     0.210 HD
ENDBRANCH  51  56
ENDBRANCH  32  34
ENDBRANCH  31  32
ENDBRANCH  30  31
ENDBRANCH   1  30
TORSDOF 18
ENDMDL
MODEL 3
REMARK minimizedAffinity -9.86159611
REMARK CNNscore 0.359778255
REMARK CNNaffinity 7.24893713
REMARK  18 active torsions:
REMARK  status: ('A' for Active; 'I' for Inactive)
REMARK    1  A    between atoms: C2_2  and  C4_4 
REMARK    2  A    between atoms: C4_4  and  N1_5 
REMARK    3  A    between atoms: C4_4  and  C30_38 
REMARK       I    between atoms: N1_5  and  C5_6 
REMARK    4  A    between atoms: C5_6  and  C6_8 
REMARK    5  A    between atoms: C6_8  and  C7_9 
REMARK    6  A    between atoms: C7_9  and  C8_10 
REMARK    7  A    between atoms: C8_10  and  O3_12 
REMARK    8  A    between atoms: O3_12  and  C9_13 
REMARK    9  A    between atoms: C9_13  and  C10_14 
REMARK   10  A    between atoms: C10_14  and  C11_16 
REMARK   11  A    between atoms: C11_16  and  O5_17 
REMARK   12  A    between atoms: C26_33  and  O7_34 
REMARK       I    between atoms: C30_38  and  N2_40 
REMARK   13  A    between atoms: N2_40  and  C31_41 
REMARK   14  A    between atoms: C31_41  and  C32_42 
REMARK   15  A    between atoms: C32_42  and  C33_43 
REMARK   16  A    between atoms: C32_42  and  C35_47 
REMARK   17  A    between atoms: C33_43  and  C34_44 
REMARK   18  A    between atoms: C34_44  and  O10_46 
ROOT
HETATM    1  C8  UNL     1      -4.297  48.373 -27.278  1.00  0.00     0.259 C 
HETATM    2  O2  UNL     1      -3.536  48.120 -28.204  1.00  0.00    -0.265 OA
ENDROOT
BRANCH   1   3
HETATM    3  C7  UNL     1      -3.838  48.921 -25.945  1.00  0.00     0.120 C 
BRANCH   3   4
HETATM    4  C6  UNL     1      -2.384  49.383 -25.939  1.00  0.00     0.112 C 
BRANCH   4   5
HETATM    5  C5  UNL     1      -2.242  50.871 -26.169  1.00  0.00     0.218 C 
HETATM    6  N1  UNL     1      -0.938  51.298 -26.017  1.00  0.00    -0.347 N 
HETATM    7  H9  UNL     1      -0.373  50.731 -25.396  1.00  0.00     0.163 HD
HETATM    8  O1  UNL     1      -3.174  51.611 -26.459  1.00  0.00    -0.274 OA
BRANCH   6   9
HETATM    9  C4  UNL     1      -0.623  52.728 -25.997  1.00  0.00     0.179 C 
BRANCH   9  10
HETATM   10  C2  UNL     1       0.049  53.151 -27.324  1.00  0.00     0.009 C 
HETATM   11  C1  UNL     1       0.573  51.954 -28.120  1.00  0.00     0.012 C 
HETATM   12  C3  UNL     1      -0.843  54.019 -28.219  1.00  0.00     0.012 C 
ENDBRANCH   9  10
BRANCH   9  13
HETATM   13  C30 UNL     1       0.259  52.988 -24.753  1.00  0.00     0.240 C 
HETATM   14  O8  UNL     1       0.997  53.970 -24.667  1.00  0.00    -0.271 OA
HETATM   15  N2  UNL     1       0.120  52.064 -23.742  1.00  0.00    -0.359 N 
HETATM   16  H43 UNL     1      -0.439  51.233 -23.905  1.00  0.00     0.162 HD
BRANCH  15  17
HETATM   17  C31 UNL     1       0.856  52.150 -22.494  1.00  0.00     0.132 C 
BRANCH  17  18
HETATM   18  C32 UNL     1       0.035  51.663 -21.281  1.00  0.00     0.046 C 
BRANCH  18  19
HETATM   19  C33 UNL     1      -0.276  52.808 -20.305  1.00  0.00     0.120 C 
BRANCH  19  20
HETATM   20  C34 UNL     1       0.956  53.619 -20.013  1.00  0.00     0.140 C 
HETATM   21  O9  UNL     1       1.443  54.488 -20.719  1.00  0.00    -0.650 OA
BRANCH  20  22
HETATM   22  O10 UNL     1       1.498  53.329 -18.817  1.00  0.00    -0.776 OA
HETATM   23  H49 UNL     1       2.271  53.928 -18.752  1.00  0.00     0.167 HD
ENDBRANCH  20  22
ENDBRANCH  19  20
ENDBRANCH  18  19
BRANCH  18  24
HETATM   24  C35 UNL     1      -1.239  50.966 -21.746  1.00  0.00    -0.052 A 
HETATM   25  C36 UNL     1      -1.287  49.564 -21.794  1.00  0.00     0.007 A 
HETATM   26  C37 UNL     1      -2.444  48.906 -22.211  1.00  0.00     0.001 A 
HETATM   27  C38 UNL     1      -3.569  49.638 -22.586  1.00  0.00     0.000 A 
HETATM   28  C39 UNL     1      -3.539  51.029 -22.537  1.00  0.00     0.001 A 
HETATM   29  C40 UNL     1      -2.384  51.691 -22.118  1.00  0.00     0.007 A 
ENDBRANCH  18  24
ENDBRANCH  17  18
ENDBRANCH  15  17
ENDBRANCH   9  13
ENDBRANCH   6   9
ENDBRANCH   4   5
ENDBRANCH   3   4
ENDBRANCH   1   3
BRANCH   1  30
HETATM   30  O3  UNL     1      -5.643  48.201 -27.328  1.00  0.00    -0.314 OA
BRANCH  30  31
HETATM   31  C9  UNL     1      -6.098  47.256 -28.297  1.00  0.00     0.260 C 
BRANCH  31  32
HETATM   32  C10 UNL     1      -6.857  47.900 -29.452  1.00  0.00     0.185 C 
HETATM   33  O4  UNL     1      -6.300  48.202 -30.514  1.00  0.00    -0.292 OA
BRANCH  32  34
HETATM   34  C11 UNL     1      -8.377  48.116 -29.311  1.00  0.00     0.128 C 
HETATM   35  C12 UNL     1      -9.173  48.381 -30.614  1.00  0.00     0.047 C 
HETATM   36  C13 UNL     1     -10.558  47.731 -30.421  1.00  0.00     0.009 C 
HETATM   37  C14 UNL     1     -10.594  47.361 -28.944  1.00  0.00     0.002 C 
HETATM   38  C15 UNL     1     -11.649  46.355 -28.462  1.00  0.00    -0.002 C 
HETATM   39  C28 UNL     1      -9.140  46.932 -28.638  1.00  0.00     0.001 C 
HETATM   40  C16 UNL     1     -13.062  46.804 -28.889  1.00  0.00     0.010 C 
HETATM   41  C25 UNL     1     -11.519  46.226 -26.901  1.00  0.00     0.031 C 
HETATM   42  C17 UNL     1     -14.176  45.975 -28.250  1.00  0.00     0.035 C 
HETATM   43  C18 UNL     1     -13.969  45.947 -26.759  1.00  0.00    -0.068 C 
HETATM   44  C19 UNL     1     -14.834  46.573 -25.942  1.00  0.00     0.053 C 
HETATM   45  C23 UNL     1     -12.650  45.310 -26.297  1.00  0.00    -0.014 C 
HETATM   46  C20 UNL     1     -14.515  46.800 -24.515  1.00  0.00     0.149 C 
HETATM   47  O6  UNL     1     -15.353  47.313 -23.780  1.00  0.00    -0.293 OA
HETATM   48  C21 UNL     1     -13.113  46.490 -24.054  1.00  0.00     0.084 C 
HETATM   49  C22 UNL     1     -12.614  45.232 -24.744  1.00  0.00     0.022 C 
HETATM   50  C24 UNL     1     -12.579  43.839 -26.785  1.00  0.00     0.020 C 
HETATM   51  C26 UNL     1     -10.065  45.892 -26.460  1.00  0.00     0.124 C 
HETATM   52  C27 UNL     1      -9.005  46.812 -27.102  1.00  0.00     0.045 C 
HETATM   53  C29 UNL     1      -8.730  45.602 -29.324  1.00  0.00     0.019 C 
BRANCH  34  54
HETATM   54  O5  UNL     1      -8.505  49.307 -28.510  1.00  0.00    -0.381 OA
HETATM   55  H16 UNL     1      -7.848  49.227 -27.786  1.00  0.00     0.211 HD
ENDBRANCH  34  54
BRANCH  51  56
HETATM   56  O7  UNL     1      -9.749  44.538 -26.743  1.00  0.00    -0.395 OA
HETATM   57  H37 UNL     1      -8.954  44.300 -26.232  1.00  0.00     0.210 HD
ENDBRANCH  51  56
ENDBRANCH  32  34
ENDBRANCH  31  32
ENDBRANCH  30  31
ENDBRANCH   1  30
TORSDOF 18
ENDMDL
MODEL 4
REMARK minimizedAffinity -9.29086971
REMARK CNNscore 0.331186056
REMARK CNNaffinity 6.54351807
REMARK  18 active torsions:
REMARK  status: ('A' for Active; 'I' for Inactive)
REMARK    1  A    between atoms: C2_2  and  C4_4 
REMARK    2  A    between atoms: C4_4  and  N1_5 
REMARK    3  A    between atoms: C4_4  and  C30_38 
REMARK       I    between atoms: N1_5  and  C5_6 
REMARK    4  A    between atoms: C5_6  and  C6_8 
REMARK    5  A    between atoms: C6_8  and  C7_9 
REMARK    6  A    between atoms: C7_9  and  C8_10 
REMARK    7  A    between atoms: C8_10  and  O3_12 
REMARK    8  A    between atoms: O3_12  and  C9_13 
REMARK    9  A    between atoms: C9_13  and  C10_14 
REMARK   10  A    between atoms: C10_14  and  C11_16 
REMARK   11  A    between atoms: C11_16  and  O5_17 
REMARK   12  A    between atoms: C26_33  and  O7_34 
REMARK       I    between atoms: C30_38  and  N2_40 
REMARK   13  A    between atoms: N2_40  and  C31_41 
REMARK   14  A    between atoms: C31_41  and  C32_42 
REMARK   15  A    between atoms: C32_42  and  C33_43 
REMARK   16  A    between atoms: C32_42  and  C35_47 
REMARK   17  A    between atoms: C33_43  and  C34_44 
REMARK   18  A    between atoms: C34_44  and  O10_46 
ROOT
HETATM    1  C8  UNL     1      -7.984  47.677 -25.113  1.00  0.00     0.259 C 
HETATM    2  O2  UNL     1      -8.508  46.706 -24.580  1.00  0.00    -0.265 OA
ENDROOT
BRANCH   1   3
HETATM    3  C7  UNL     1      -6.491  47.913 -25.137  1.00  0.00     0.120 C 
BRANCH   3   4
HETATM    4  C6  UNL     1      -5.897  48.226 -23.768  1.00  0.00     0.112 C 
BRANCH   4   5
HETATM    5  C5  UNL     1      -4.408  48.488 -23.822  1.00  0.00     0.218 C 
HETATM    6  N1  UNL     1      -3.870  48.692 -22.566  1.00  0.00    -0.347 N 
HETATM    7  H9  UNL     1      -4.518  49.056 -21.878  1.00  0.00     0.163 HD
HETATM    8  O1  UNL     1      -3.754  48.515 -24.857  1.00  0.00    -0.274 OA
BRANCH   6   9
HETATM    9  C4  UNL     1      -2.491  49.160 -22.416  1.00  0.00     0.179 C 
BRANCH   9  10
HETATM   10  C2  UNL     1      -1.960  48.830 -21.002  1.00  0.00     0.009 C 
HETATM   11  C1  UNL     1      -2.181  47.365 -20.624  1.00  0.00     0.012 C 
HETATM   12  C3  UNL     1      -0.487  49.202 -20.793  1.00  0.00     0.012 C 
ENDBRANCH   9  10
BRANCH   9  13
HETATM   13  C30 UNL     1      -2.481  50.674 -22.737  1.00  0.00     0.240 C 
HETATM   14  O8  UNL     1      -3.067  51.497 -22.033  1.00  0.00    -0.271 OA
HETATM   15  N2  UNL     1      -1.734  51.026 -23.838  1.00  0.00    -0.359 N 
HETATM   16  H43 UNL     1      -1.343  50.296 -24.425  1.00  0.00     0.162 HD
BRANCH  15  17
HETATM   17  C31 UNL     1      -1.595  52.400 -24.285  1.00  0.00     0.132 C 
BRANCH  17  18
HETATM   18  C32 UNL     1      -0.124  52.862 -24.351  1.00  0.00     0.046 C 
BRANCH  18  19
HETATM   19  C33 UNL     1       0.708  52.285 -23.196  1.00  0.00     0.120 C 
BRANCH  19  20
HETATM   20  C34 UNL     1       0.751  53.236 -22.032  1.00  0.00     0.140 C 
HETATM   21  O9  UNL     1       1.425  54.250 -21.943  1.00  0.00    -0.650 OA
BRANCH  20  22
HETATM   22  O10 UNL     1      -0.095  52.890 -21.046  1.00  0.00    -0.776 OA
HETATM   23  H49 UNL     1       0.025  53.589 -20.371  1.00  0.00     0.167 HD
ENDBRANCH  20  22
ENDBRANCH  19  20
ENDBRANCH  18  19
BRANCH  18  24
HETATM   24  C35 UNL     1       0.484  52.512 -25.706  1.00  0.00    -0.052 A 
HETATM   25  C36 UNL     1       1.700  51.814 -25.761  1.00  0.00     0.007 A 
HETATM   26  C37 UNL     1       2.271  51.478 -26.989  1.00  0.00     0.001 A 
HETATM   27  C38 UNL     1       1.636  51.834 -28.177  1.00  0.00     0.000 A 
HETATM   28  C39 UNL     1       0.425  52.520 -28.137  1.00  0.00     0.001 A 
HETATM   29  C40 UNL     1      -0.150  52.855 -26.911  1.00  0.00     0.007 A 
ENDBRANCH  18  24
ENDBRANCH  17  18
ENDBRANCH  15  17
ENDBRANCH   9  13
ENDBRANCH   6   9
ENDBRANCH   4   5
ENDBRANCH   3   4
ENDBRANCH   1   3
BRANCH   1  30
HETATM   30  O3  UNL     1      -8.670  48.659 -25.753  1.00  0.00    -0.314 OA
BRANCH  30  31
HETATM   31  C9  UNL     1     -10.048  48.374 -25.998  1.00  0.00     0.260 C 
BRANCH  31  32
HETATM   32  C10 UNL     1     -10.301  47.789 -27.384  1.00  0.00     0.185 C 
HETATM   33  O4  UNL     1      -9.374  47.465 -28.137  1.00  0.00    -0.292 OA
BRANCH  32  34
HETATM   34  C11 UNL     1     -11.754  47.532 -27.827  1.00  0.00     0.128 C 
HETATM   35  C12 UNL     1     -11.969  47.017 -29.273  1.00  0.00     0.047 C 
HETATM   36  C13 UNL     1     -13.186  46.072 -29.225  1.00  0.00     0.009 C 
HETATM   37  C14 UNL     1     -13.773  46.289 -27.836  1.00  0.00     0.002 C 
HETATM   38  C15 UNL     1     -14.758  45.250 -27.282  1.00  0.00    -0.002 C 
HETATM   39  C28 UNL     1     -12.529  46.506 -26.943  1.00  0.00     0.001 C 
HETATM   40  C16 UNL     1     -15.919  45.019 -28.273  1.00  0.00     0.010 C 
HETATM   41  C25 UNL     1     -15.270  45.762 -25.887  1.00  0.00     0.031 C 
HETATM   42  C17 UNL     1     -17.050  44.174 -27.690  1.00  0.00     0.035 C 
HETATM   43  C18 UNL     1     -17.479  44.773 -26.376  1.00  0.00    -0.068 C 
HETATM   44  C19 UNL     1     -18.693  45.339 -26.253  1.00  0.00     0.053 C 
HETATM   45  C23 UNL     1     -16.388  44.822 -25.297  1.00  0.00    -0.014 C 
HETATM   46  C20 UNL     1     -19.035  46.172 -25.080  1.00  0.00     0.149 C 
HETATM   47  O6  UNL     1     -20.173  46.617 -24.963  1.00  0.00    -0.293 OA
HETATM   48  C21 UNL     1     -17.922  46.533 -24.129  1.00  0.00     0.084 C 
HETATM   49  C22 UNL     1     -16.989  45.346 -23.960  1.00  0.00     0.022 C 
HETATM   50  C24 UNL     1     -15.889  43.386 -24.990  1.00  0.00     0.020 C 
HETATM   51  C26 UNL     1     -14.098  46.112 -24.926  1.00  0.00     0.124 C 
HETATM   52  C27 UNL     1     -13.027  47.018 -25.571  1.00  0.00     0.045 C 
HETATM   53  C29 UNL     1     -11.667  45.228 -26.764  1.00  0.00     0.019 C 
BRANCH  34  54
HETATM   54  O5  UNL     1     -12.391  48.823 -27.760  1.00  0.00    -0.381 OA
HETATM   55  H16 UNL     1     -12.091  49.238 -26.923  1.00  0.00     0.211 HD
ENDBRANCH  34  54
BRANCH  51  56
HETATM   56  O7  UNL     1     -13.482  44.934 -24.430  1.00  0.00    -0.395 OA
HETATM   57  H37 UNL     1     -12.945  45.177 -23.654  1.00  0.00     0.210 HD
ENDBRANCH  51  56
ENDBRANCH  32  34
ENDBRANCH  31  32
ENDBRANCH  30  31
ENDBRANCH   1  30
TORSDOF 18
ENDMDL
MODEL 5
REMARK minimizedAffinity -9.62364483
REMARK CNNscore 0.32446456
REMARK CNNaffinity 7.20098257
REMARK  18 active torsions:
REMARK  status: ('A' for Active; 'I' for Inactive)
REMARK    1  A    between atoms: C2_2  and  C4_4 
REMARK    2  A    between atoms: C4_4  and  N1_5 
REMARK    3  A    between atoms: C4_4  and  C30_38 
REMARK       I    between atoms: N1_5  and  C5_6 
REMARK    4  A    between atoms: C5_6  and  C6_8 
REMARK    5  A    between atoms: C6_8  and  C7_9 
REMARK    6  A    between atoms: C7_9  and  C8_10 
REMARK    7  A    between atoms: C8_10  and  O3_12 
REMARK    8  A    between atoms: O3_12  and  C9_13 
REMARK    9  A    between atoms: C9_13  and  C10_14 
REMARK   10  A    between atoms: C10_14  and  C11_16 
REMARK   11  A    between atoms: C11_16  and  O5_17 
REMARK   12  A    between atoms: C26_33  and  O7_34 
REMARK       I    between atoms: C30_38  and  N2_40 
REMARK   13  A    between atoms: N2_40  and  C31_41 
REMARK   14  A    between atoms: C31_41  and  C32_42 
REMARK   15  A    between atoms: C32_42  and  C33_43 
REMARK   16  A    between atoms: C32_42  and  C35_47 
REMARK   17  A    between atoms: C33_43  and  C34_44 
REMARK   18  A    between atoms: C34_44  and  O10_46 
ROOT
HETATM    1  C8  UNL     1      -4.614  48.348 -27.142  1.00  0.00     0.259 C 
HETATM    2  O2  UNL     1      -5.303  48.112 -26.156  1.00  0.00    -0.265 OA
ENDROOT
BRANCH   1   3
HETATM    3  C7  UNL     1      -3.111  48.505 -27.092  1.00  0.00     0.120 C 
BRANCH   3   4
HETATM    4  C6  UNL     1      -2.629  49.462 -26.006  1.00  0.00     0.112 C 
BRANCH   4   5
HETATM    5  C5  UNL     1      -2.123  50.773 -26.565  1.00  0.00     0.218 C 
HETATM    6  N1  UNL     1      -0.843  51.062 -26.133  1.00  0.00    -0.347 N 
HETATM    7  H9  UNL     1      -0.591  50.654 -25.241  1.00  0.00     0.163 HD
HETATM    8  O1  UNL     1      -2.770  51.495 -27.314  1.00  0.00    -0.274 OA
BRANCH   6   9
HETATM    9  C4  UNL     1      -0.251  52.376 -26.394  1.00  0.00     0.179 C 
BRANCH   9  10
HETATM   10  C2  UNL     1       1.108  52.221 -27.115  1.00  0.00     0.009 C 
HETATM   11  C1  UNL     1       2.100  51.375 -26.314  1.00  0.00     0.012 C 
HETATM   12  C3  UNL     1       0.992  51.672 -28.542  1.00  0.00     0.012 C 
ENDBRANCH   9  10
BRANCH   9  13
HETATM   13  C30 UNL     1      -0.145  53.112 -25.037  1.00  0.00     0.240 C 
HETATM   14  O8  UNL     1      -0.122  54.340 -24.958  1.00  0.00    -0.271 OA
HETATM   15  N2  UNL     1      -0.121  52.288 -23.934  1.00  0.00    -0.359 N 
HETATM   16  H43 UNL     1      -0.058  51.284 -24.067  1.00  0.00     0.162 HD
BRANCH  15  17
HETATM   17  C31 UNL     1      -0.038  52.798 -22.577  1.00  0.00     0.132 C 
BRANCH  17  18
HETATM   18  C32 UNL     1       0.277  51.697 -21.543  1.00  0.00     0.046 C 
BRANCH  18  19
HETATM   19  C33 UNL     1       0.826  52.283 -20.233  1.00  0.00     0.120 C 
BRANCH  19  20
HETATM   20  C34 UNL     1       1.009  53.772 -20.343  1.00  0.00     0.140 C 
HETATM   21  O9  UNL     1       1.809  54.359 -21.052  1.00  0.00    -0.650 OA
BRANCH  20  22
HETATM   22  O10 UNL     1       0.139  54.460 -19.582  1.00  0.00    -0.776 OA
HETATM   23  H49 UNL     1       0.358  55.399 -19.756  1.00  0.00     0.167 HD
ENDBRANCH  20  22
ENDBRANCH  19  20
ENDBRANCH  18  19
BRANCH  18  24
HETATM   24  C35 UNL     1      -0.955  50.833 -21.293  1.00  0.00    -0.052 A 
HETATM   25  C36 UNL     1      -0.843  49.435 -21.337  1.00  0.00     0.007 A 
HETATM   26  C37 UNL     1      -1.956  48.625 -21.107  1.00  0.00     0.001 A 
HETATM   27  C38 UNL     1      -3.194  49.200 -20.828  1.00  0.00     0.000 A 
HETATM   28  C39 UNL     1      -3.318  50.587 -20.773  1.00  0.00     0.001 A 
HETATM   29  C40 UNL     1      -2.207  51.399 -21.002  1.00  0.00     0.007 A 
ENDBRANCH  18  24
ENDBRANCH  17  18
ENDBRANCH  15  17
ENDBRANCH   9  13
ENDBRANCH   6   9
ENDBRANCH   4   5
ENDBRANCH   3   4
ENDBRANCH   1   3
BRANCH   1  30
HETATM   30  O3  UNL     1      -5.106  48.491 -28.399  1.00  0.00    -0.314 OA
BRANCH  30  31
HETATM   31  C9  UNL     1      -5.927  47.416 -28.855  1.00  0.00     0.260 C 
BRANCH  31  32
HETATM   32  C10 UNL     1      -7.310  47.870 -29.310  1.00  0.00     0.185 C 
HETATM   33  O4  UNL     1      -8.234  48.058 -28.508  1.00  0.00    -0.292 OA
BRANCH  32  34
HETATM   34  C11 UNL     1      -7.539  48.167 -30.804  1.00  0.00     0.128 C 
HETATM   35  C12 UNL     1      -6.282  48.454 -31.665  1.00  0.00     0.047 C 
HETATM   36  C13 UNL     1      -6.571  47.881 -33.067  1.00  0.00     0.009 C 
HETATM   37  C14 UNL     1      -8.054  47.535 -33.030  1.00  0.00     0.002 C 
HETATM   38  C15 UNL     1      -8.617  46.593 -34.104  1.00  0.00    -0.002 C 
HETATM   39  C28 UNL     1      -8.279  47.035 -31.584  1.00  0.00     0.001 C 
HETATM   40  C16 UNL     1      -8.269  47.109 -35.516  1.00  0.00     0.010 C 
HETATM   41  C25 UNL     1     -10.170  46.481 -33.885  1.00  0.00     0.031 C 
HETATM   42  C17 UNL     1      -8.990  46.350 -36.630  1.00  0.00     0.035 C 
HETATM   43  C18 UNL     1     -10.466  46.333 -36.332  1.00  0.00    -0.068 C 
HETATM   44  C19 UNL     1     -11.322  47.016 -37.112  1.00  0.00     0.053 C 
HETATM   45  C23 UNL     1     -10.858  45.635 -35.023  1.00  0.00    -0.014 C 
HETATM   46  C20 UNL     1     -12.723  47.248 -36.695  1.00  0.00     0.149 C 
HETATM   47  O6  UNL     1     -13.498  47.814 -37.459  1.00  0.00    -0.293 OA
HETATM   48  C21 UNL     1     -13.103  46.872 -35.285  1.00  0.00     0.084 C 
HETATM   49  C22 UNL     1     -12.407  45.579 -34.895  1.00  0.00     0.022 C 
HETATM   50  C24 UNL     1     -10.393  44.155 -35.058  1.00  0.00     0.020 C 
HETATM   51  C26 UNL     1     -10.528  46.078 -32.426  1.00  0.00     0.124 C 
HETATM   52  C27 UNL     1      -9.806  46.932 -31.361  1.00  0.00     0.045 C 
HETATM   53  C29 UNL     1      -7.594  45.675 -31.287  1.00  0.00     0.019 C 
BRANCH  34  54
HETATM   54  O5  UNL     1      -8.325  49.375 -30.822  1.00  0.00    -0.381 OA
HETATM   55  H16 UNL     1      -9.009  49.272 -30.127  1.00  0.00     0.211 HD
ENDBRANCH  34  54
BRANCH  51  56
HETATM   56  O7  UNL     1     -10.251  44.706 -32.198  1.00  0.00    -0.395 OA
HETATM   57  H37 UNL     1     -10.717  44.434 -31.386  1.00  0.00     0.210 HD
ENDBRANCH  51  56
ENDBRANCH  32  34
ENDBRANCH  31  32
ENDBRANCH  30  31
ENDBRANCH   1  30
TORSDOF 18
ENDMDL
MODEL 6
REMARK minimizedAffinity -9.37573147
REMARK CNNscore 0.291765153
REMARK CNNaffinity 6.74460173
REMARK  18 active torsions:
REMARK  status: ('A' for Active; 'I' for Inactive)
REMARK    1  A    between atoms: C2_2  and  C4_4 
REMARK    2  A    between atoms: C4_4  and  N1_5 
REMARK    3  A    between atoms: C4_4  and  C30_38 
REMARK       I    between atoms: N1_5  and  C5_6 
REMARK    4  A    between atoms: C5_6  and  C6_8 
REMARK    5  A    between atoms: C6_8  and  C7_9 
REMARK    6  A    between atoms: C7_9  and  C8_10 
REMARK    7  A    between atoms: C8_10  and  O3_12 
REMARK    8  A    between atoms: O3_12  and  C9_13 
REMARK    9  A    between atoms: C9_13  and  C10_14 
REMARK   10  A    between atoms: C10_14  and  C11_16 
REMARK   11  A    between atoms: C11_16  and  O5_17 
REMARK   12  A    between atoms: C26_33  and  O7_34 
REMARK       I    between atoms: C30_38  and  N2_40 
REMARK   13  A    between atoms: N2_40  and  C31_41 
REMARK   14  A    between atoms: C31_41  and  C32_42 
REMARK   15  A    between atoms: C32_42  and  C33_43 
REMARK   16  A    between atoms: C32_42  and  C35_47 
REMARK   17  A    between atoms: C33_43  and  C34_44 
REMARK   18  A    between atoms: C34_44  and  O10_46 
ROOT
HETATM    1  C8  UNL     1      -0.826  50.633 -16.653  1.00  0.00     0.259 C 
HETATM    2  O2  UNL     1       0.189  51.230 -16.991  1.00  0.00    -0.265 OA
ENDROOT
BRANCH   1   3
HETATM    3  C7  UNL     1      -1.299  50.533 -15.221  1.00  0.00     0.120 C 
BRANCH   3   4
HETATM    4  C6  UNL     1      -0.623  51.526 -14.281  1.00  0.00     0.112 C 
BRANCH   4   5
HETATM    5  C5  UNL     1      -1.079  51.377 -12.846  1.00  0.00     0.218 C 
HETATM    6  N1  UNL     1      -1.473  52.582 -12.298  1.00  0.00    -0.347 N 
HETATM    7  H9  UNL     1      -1.036  53.400 -12.707  1.00  0.00     0.163 HD
HETATM    8  O1  UNL     1      -1.098  50.313 -12.240  1.00  0.00    -0.274 OA
BRANCH   6   9
HETATM    9  C4  UNL     1      -1.755  52.689 -10.866  1.00  0.00     0.179 C 
BRANCH   9  10
HETATM   10  C2  UNL     1      -3.280  52.739 -10.618  1.00  0.00     0.009 C 
HETATM   11  C1  UNL     1      -4.045  53.326 -11.806  1.00  0.00     0.012 C 
HETATM   12  C3  UNL     1      -3.887  51.386 -10.227  1.00  0.00     0.012 C 
ENDBRANCH   9  10
BRANCH   9  13
HETATM   13  C30 UNL     1      -1.008  53.938 -10.341  1.00  0.00     0.240 C 
HETATM   14  O8  UNL     1      -1.418  54.592  -9.382  1.00  0.00    -0.271 OA
HETATM   15  N2  UNL     1       0.165  54.230 -11.001  1.00  0.00    -0.359 N 
HETATM   16  H43 UNL     1       0.407  53.705 -11.835  1.00  0.00     0.162 HD
BRANCH  15  17
HETATM   17  C31 UNL     1       1.008  55.355 -10.641  1.00  0.00     0.132 C 
BRANCH  17  18
HETATM   18  C32 UNL     1       2.209  54.947  -9.763  1.00  0.00     0.046 C 
BRANCH  18  19
HETATM   19  C33 UNL     1       3.442  54.592 -10.609  1.00  0.00     0.120 C 
BRANCH  19  20
HETATM   20  C34 UNL     1       3.461  53.127 -10.949  1.00  0.00     0.140 C 
HETATM   21  O9  UNL     1       3.919  52.225 -10.266  1.00  0.00    -0.650 OA
BRANCH  20  22
HETATM   22  O10 UNL     1       2.859  52.858 -12.120  1.00  0.00    -0.776 OA
HETATM   23  H49 UNL     1       2.932  51.885 -12.209  1.00  0.00     0.167 HD
ENDBRANCH  20  22
ENDBRANCH  19  20
ENDBRANCH  18  19
BRANCH  18  24
HETATM   24  C35 UNL     1       2.525  56.043  -8.750  1.00  0.00    -0.052 A 
HETATM   25  C36 UNL     1       1.559  56.413  -7.803  1.00  0.00     0.007 A 
HETATM   26  C37 UNL     1       1.828  57.410  -6.864  1.00  0.00     0.001 A 
HETATM   27  C38 UNL     1       3.066  58.049  -6.858  1.00  0.00     0.000 A 
HETATM   28  C39 UNL     1       4.038  57.686  -7.788  1.00  0.00     0.001 A 
HETATM   29  C40 UNL     1       3.772  56.689  -8.727  1.00  0.00     0.007 A 
ENDBRANCH  18  24
ENDBRANCH  17  18
ENDBRANCH  15  17
ENDBRANCH   9  13
ENDBRANCH   6   9
ENDBRANCH   4   5
ENDBRANCH   3   4
ENDBRANCH   1   3
BRANCH   1  30
HETATM   30  O3  UNL     1      -1.656  49.991 -17.515  1.00  0.00    -0.314 OA
BRANCH  30  31
HETATM   31  C9  UNL     1      -1.028  49.016 -18.349  1.00  0.00     0.260 C 
BRANCH  31  32
HETATM   32  C10 UNL     1      -2.025  48.125 -19.083  1.00  0.00     0.185 C 
HETATM   33  O4  UNL     1      -2.935  47.534 -18.489  1.00  0.00    -0.292 OA
BRANCH  32  34
HETATM   34  C11 UNL     1      -1.931  48.014 -20.617  1.00  0.00     0.128 C 
HETATM   35  C12 UNL     1      -2.991  47.132 -21.325  1.00  0.00     0.047 C 
HETATM   36  C13 UNL     1      -3.273  47.796 -22.687  1.00  0.00     0.009 C 
HETATM   37  C14 UNL     1      -2.190  48.859 -22.817  1.00  0.00     0.002 C 
HETATM   38  C15 UNL     1      -2.373  49.974 -23.856  1.00  0.00    -0.002 C 
HETATM   39  C28 UNL     1      -2.012  49.378 -21.371  1.00  0.00     0.001 C 
HETATM   40  C16 UNL     1      -2.642  49.376 -25.253  1.00  0.00     0.010 C 
HETATM   41  C25 UNL     1      -1.082  50.870 -23.838  1.00  0.00     0.031 C 
HETATM   42  C17 UNL     1      -2.606  50.417 -26.371  1.00  0.00     0.035 C 
HETATM   43  C18 UNL     1      -1.317  51.191 -26.275  1.00  0.00    -0.068 C 
HETATM   44  C19 UNL     1      -0.378  51.063 -27.229  1.00  0.00     0.053 C 
HETATM   45  C23 UNL     1      -1.121  51.969 -24.967  1.00  0.00    -0.014 C 
HETATM   46  C20 UNL     1       0.994  51.583 -27.029  1.00  0.00     0.149 C 
HETATM   47  O6  UNL     1       1.808  51.513 -27.944  1.00  0.00    -0.293 OA
HETATM   48  C21 UNL     1       1.360  52.079 -25.653  1.00  0.00     0.084 C 
HETATM   49  C22 UNL     1       0.181  52.817 -25.044  1.00  0.00     0.022 C 
HETATM   50  C24 UNL     1      -2.272  52.995 -24.789  1.00  0.00     0.020 C 
HETATM   51  C26 UNL     1      -0.739  51.375 -22.408  1.00  0.00     0.124 C 
HETATM   52  C27 UNL     1      -0.737  50.253 -21.347  1.00  0.00     0.045 C 
HETATM   53  C29 UNL     1      -3.232  50.182 -20.848  1.00  0.00     0.019 C 
BRANCH  34  54
HETATM   54  O5  UNL     1      -0.656  47.388 -20.862  1.00  0.00    -0.381 OA
HETATM   55  H16 UNL     1      -0.014  47.819 -20.259  1.00  0.00     0.211 HD
ENDBRANCH  34  54
BRANCH  51  56
HETATM   56  O7  UNL     1      -1.633  52.402 -22.007  1.00  0.00    -0.395 OA
HETATM   57  H37 UNL     1      -1.241  52.862 -21.242  1.00  0.00     0.210 HD
ENDBRANCH  51  56
ENDBRANCH  32  34
ENDBRANCH  31  32
ENDBRANCH  30  31
ENDBRANCH   1  30
TORSDOF 18
ENDMDL
MODEL 7
REMARK minimizedAffinity -8.79845047
REMARK CNNscore 0.276397794
REMARK CNNaffinity 6.2793045
REMARK  18 active torsions:
REMARK  status: ('A' for Active; 'I' for Inactive)
REMARK    1  A    between atoms: C2_2  and  C4_4 
REMARK    2  A    between atoms: C4_4  and  N1_5 
REMARK    3  A    between atoms: C4_4  and  C30_38 
REMARK       I    between atoms: N1_5  and  C5_6 
REMARK    4  A    between atoms: C5_6  and  C6_8 
REMARK    5  A    between atoms: C6_8  and  C7_9 
REMARK    6  A    between atoms: C7_9  and  C8_10 
REMARK    7  A    between atoms: C8_10  and  O3_12 
REMARK    8  A    between atoms: O3_12  and  C9_13 
REMARK    9  A    between atoms: C9_13  and  C10_14 
REMARK   10  A    between atoms: C10_14  and  C11_16 
REMARK   11  A    between atoms: C11_16  and  O5_17 
REMARK   12  A    between atoms: C26_33  and  O7_34 
REMARK       I    between atoms: C30_38  and  N2_40 
REMARK   13  A    between atoms: N2_40  and  C31_41 
REMARK   14  A    between atoms: C31_41  and  C32_42 
REMARK   15  A    between atoms: C32_42  and  C33_43 
REMARK   16  A    between atoms: C32_42  and  C35_47 
REMARK   17  A    between atoms: C33_43  and  C34_44 
REMARK   18  A    between atoms: C34_44  and  O10_46 
ROOT
HETATM    1  C8  UNL     1      -8.256  47.928 -20.395  1.00  0.00     0.259 C 
HETATM    2  O2  UNL     1      -8.014  47.452 -21.498  1.00  0.00    -0.265 OA
ENDROOT
BRANCH   1   3
HETATM    3  C7  UNL     1      -7.266  48.758 -19.608  1.00  0.00     0.120 C 
BRANCH   3   4
HETATM    4  C6  UNL     1      -6.871  50.059 -20.298  1.00  0.00     0.112 C 
BRANCH   4   5
HETATM    5  C5  UNL     1      -5.460  50.028 -20.842  1.00  0.00     0.218 C 
HETATM    6  N1  UNL     1      -5.307  49.082 -21.836  1.00  0.00    -0.347 N 
HETATM    7  H9  UNL     1      -5.946  48.297 -21.780  1.00  0.00     0.163 HD
HETATM    8  O1  UNL     1      -4.558  50.757 -20.449  1.00  0.00    -0.274 OA
BRANCH   6   9
HETATM    9  C4  UNL     1      -3.976  48.752 -22.349  1.00  0.00     0.179 C 
BRANCH   9  10
HETATM   10  C2  UNL     1      -3.022  48.397 -21.185  1.00  0.00     0.009 C 
HETATM   11  C1  UNL     1      -2.172  47.161 -21.484  1.00  0.00     0.012 C 
HETATM   12  C3  UNL     1      -2.117  49.556 -20.752  1.00  0.00     0.012 C 
ENDBRANCH   9  10
BRANCH   9  13
HETATM   13  C30 UNL     1      -3.494  49.959 -23.190  1.00  0.00     0.240 C 
HETATM   14  O8  UNL     1      -4.187  50.962 -23.354  1.00  0.00    -0.271 OA
HETATM   15  N2  UNL     1      -2.220  49.836 -23.698  1.00  0.00    -0.359 N 
HETATM   16  H43 UNL     1      -1.731  48.952 -23.599  1.00  0.00     0.162 HD
BRANCH  15  17
HETATM   17  C31 UNL     1      -1.592  50.871 -24.500  1.00  0.00     0.132 C 
BRANCH  17  18
HETATM   18  C32 UNL     1      -1.503  50.498 -25.994  1.00  0.00     0.046 C 
BRANCH  18  19
HETATM   19  C33 UNL     1      -2.707  51.027 -26.788  1.00  0.00     0.120 C 
BRANCH  19  20
HETATM   20  C34 UNL     1      -3.406  49.911 -27.516  1.00  0.00     0.140 C 
HETATM   21  O9  UNL     1      -3.821  48.870 -27.032  1.00  0.00    -0.650 OA
BRANCH  20  22
HETATM   22  O10 UNL     1      -3.591  50.178 -28.821  1.00  0.00    -0.776 OA
HETATM   23  H49 UNL     1      -4.059  49.388 -29.163  1.00  0.00     0.167 HD
ENDBRANCH  20  22
ENDBRANCH  19  20
ENDBRANCH  18  19
BRANCH  18  24
HETATM   24  C35 UNL     1      -0.186  50.990 -26.587  1.00  0.00    -0.052 A 
HETATM   25  C36 UNL     1      -0.143  51.415 -27.924  1.00  0.00     0.007 A 
HETATM   26  C37 UNL     1       1.050  51.873 -28.486  1.00  0.00     0.001 A 
HETATM   27  C38 UNL     1       2.213  51.915 -27.720  1.00  0.00     0.000 A 
HETATM   28  C39 UNL     1       2.183  51.503 -26.390  1.00  0.00     0.001 A 
HETATM   29  C40 UNL     1       0.992  51.046 -25.825  1.00  0.00     0.007 A 
ENDBRANCH  18  24
ENDBRANCH  17  18
ENDBRANCH  15  17
ENDBRANCH   9  13
ENDBRANCH   6   9
ENDBRANCH   4   5
ENDBRANCH   3   4
ENDBRANCH   1   3
BRANCH   1  30
HETATM   30  O3  UNL     1      -9.437  47.779 -19.742  1.00  0.00    -0.314 OA
BRANCH  30  31
HETATM   31  C9  UNL     1     -10.146  46.575 -20.039  1.00  0.00     0.260 C 
BRANCH  31  32
HETATM   32  C10 UNL     1     -11.477  46.822 -20.741  1.00  0.00     0.185 C 
HETATM   33  O4  UNL     1     -11.562  46.908 -21.972  1.00  0.00    -0.292 OA
BRANCH  32  34
HETATM   34  C11 UNL     1     -12.760  46.899 -19.891  1.00  0.00     0.128 C 
HETATM   35  C12 UNL     1     -13.038  48.235 -19.155  1.00  0.00     0.047 C 
HETATM   36  C13 UNL     1     -14.570  48.416 -19.140  1.00  0.00     0.009 C 
HETATM   37  C14 UNL     1     -15.109  47.074 -19.620  1.00  0.00     0.002 C 
HETATM   38  C15 UNL     1     -16.565  46.995 -20.100  1.00  0.00    -0.002 C 
HETATM   39  C28 UNL     1     -14.078  46.622 -20.680  1.00  0.00     0.001 C 
HETATM   40  C16 UNL     1     -17.523  47.553 -19.026  1.00  0.00     0.010 C 
HETATM   41  C25 UNL     1     -16.880  45.495 -20.447  1.00  0.00     0.031 C 
HETATM   42  C17 UNL     1     -18.996  47.295 -19.340  1.00  0.00     0.035 C 
HETATM   43  C18 UNL     1     -19.185  45.829 -19.625  1.00  0.00    -0.068 C 
HETATM   44  C19 UNL     1     -19.888  45.059 -18.776  1.00  0.00     0.053 C 
HETATM   45  C23 UNL     1     -18.396  45.293 -20.828  1.00  0.00    -0.014 C 
HETATM   46  C20 UNL     1     -19.858  43.582 -18.875  1.00  0.00     0.149 C 
HETATM   47  O6  UNL     1     -20.564  42.910 -18.130  1.00  0.00    -0.293 OA
HETATM   48  C21 UNL     1     -18.863  42.965 -19.825  1.00  0.00     0.084 C 
HETATM   49  C22 UNL     1     -18.771  43.805 -21.087  1.00  0.00     0.022 C 
HETATM   50  C24 UNL     1     -18.817  46.054 -22.113  1.00  0.00     0.020 C 
HETATM   51  C26 UNL     1     -15.844  44.893 -21.439  1.00  0.00     0.124 C 
HETATM   52  C27 UNL     1     -14.379  45.144 -21.019  1.00  0.00     0.045 C 
HETATM   53  C29 UNL     1     -14.096  47.488 -21.968  1.00  0.00     0.019 C 
BRANCH  34  54
HETATM   54  O5  UNL     1     -12.580  45.903 -18.865  1.00  0.00    -0.381 OA
HETATM   55  H16 UNL     1     -12.210  45.111 -19.308  1.00  0.00     0.211 HD
ENDBRANCH  34  54
BRANCH  51  56
HETATM   56  O7  UNL     1     -16.050  45.391 -22.751  1.00  0.00    -0.395 OA
HETATM   57  H37 UNL     1     -15.571  44.813 -23.372  1.00  0.00     0.210 HD
ENDBRANCH  51  56
ENDBRANCH  32  34
ENDBRANCH  31  32
ENDBRANCH  30  31
ENDBRANCH   1  30
TORSDOF 18
ENDMDL
MODEL 8
REMARK minimizedAffinity -9.78852558
REMARK CNNscore 0.274468929
REMARK CNNaffinity 7.82402563
REMARK  18 active torsions:
REMARK  status: ('A' for Active; 'I' for Inactive)
REMARK    1  A    between atoms: C2_2  and  C4_4 
REMARK    2  A    between atoms: C4_4  and  N1_5 
REMARK    3  A    between atoms: C4_4  and  C30_38 
REMARK       I    between atoms: N1_5  and  C5_6 
REMARK    4  A    between atoms: C5_6  and  C6_8 
REMARK    5  A    between atoms: C6_8  and  C7_9 
REMARK    6  A    between atoms: C7_9  and  C8_10 
REMARK    7  A    between atoms: C8_10  and  O3_12 
REMARK    8  A    between atoms: O3_12  and  C9_13 
REMARK    9  A    between atoms: C9_13  and  C10_14 
REMARK   10  A    between atoms: C10_14  and  C11_16 
REMARK   11  A    between atoms: C11_16  and  O5_17 
REMARK   12  A    between atoms: C26_33  and  O7_34 
REMARK       I    between atoms: C30_38  and  N2_40 
REMARK   13  A    between atoms: N2_40  and  C31_41 
REMARK   14  A    between atoms: C31_41  and  C32_42 
REMARK   15  A    between atoms: C32_42  and  C33_43 
REMARK   16  A    between atoms: C32_42  and  C35_47 
REMARK   17  A    between atoms: C33_43  and  C34_44 
REMARK   18  A    between atoms: C34_44  and  O10_46 
ROOT
HETATM    1  C8  UNL     1      -6.442  48.109 -21.098  1.00  0.00     0.259 C 
HETATM    2  O2  UNL     1      -7.032  47.340 -21.847  1.00  0.00    -0.265 OA
ENDROOT
BRANCH   1   3
HETATM    3  C7  UNL     1      -6.656  49.605 -21.098  1.00  0.00     0.120 C 
BRANCH   3   4
HETATM    4  C6  UNL     1      -6.704  50.219 -22.493  1.00  0.00     0.112 C 
BRANCH   4   5
HETATM    5  C5  UNL     1      -5.328  50.455 -23.076  1.00  0.00     0.218 C 
HETATM    6  N1  UNL     1      -5.384  50.837 -24.402  1.00  0.00    -0.347 N 
HETATM    7  H9  UNL     1      -6.201  50.511 -24.906  1.00  0.00     0.163 HD
HETATM    8  O1  UNL     1      -4.286  50.325 -22.446  1.00  0.00    -0.274 OA
BRANCH   6   9
HETATM    9  C4  UNL     1      -4.162  50.916 -25.204  1.00  0.00     0.179 C 
BRANCH   9  10
HETATM   10  C2  UNL     1      -3.731  49.506 -25.671  1.00  0.00     0.009 C 
HETATM   11  C1  UNL     1      -4.844  48.470 -25.502  1.00  0.00     0.012 C 
HETATM   12  C3  UNL     1      -3.201  49.467 -27.109  1.00  0.00     0.012 C 
ENDBRANCH   9  10
BRANCH   9  13
HETATM   13  C30 UNL     1      -3.091  51.629 -24.344  1.00  0.00     0.240 C 
HETATM   14  O8  UNL     1      -3.301  52.717 -23.807  1.00  0.00    -0.271 OA
HETATM   15  N2  UNL     1      -1.912  50.935 -24.197  1.00  0.00    -0.359 N 
HETATM   16  H43 UNL     1      -1.768  50.084 -24.731  1.00  0.00     0.162 HD
BRANCH  15  17
HETATM   17  C31 UNL     1      -0.797  51.439 -23.415  1.00  0.00     0.132 C 
BRANCH  17  18
HETATM   18  C32 UNL     1      -0.084  52.630 -24.089  1.00  0.00     0.046 C 
BRANCH  18  19
HETATM   19  C33 UNL     1       1.104  53.132 -23.254  1.00  0.00     0.120 C 
BRANCH  19  20
HETATM   20  C34 UNL     1       1.286  54.617 -23.412  1.00  0.00     0.140 C 
HETATM   21  O9  UNL     1       0.995  55.288 -24.389  1.00  0.00    -0.650 OA
BRANCH  20  22
HETATM   22  O10 UNL     1       1.788  55.199 -22.309  1.00  0.00    -0.776 OA
HETATM   23  H49 UNL     1       1.842  56.149 -22.543  1.00  0.00     0.167 HD
ENDBRANCH  20  22
ENDBRANCH  19  20
ENDBRANCH  18  19
BRANCH  18  24
HETATM   24  C35 UNL     1       0.348  52.259 -25.504  1.00  0.00    -0.052 A 
HETATM   25  C36 UNL     1       1.667  51.842 -25.741  1.00  0.00     0.007 A 
HETATM   26  C37 UNL     1       2.083  51.493 -27.026  1.00  0.00     0.001 A 
HETATM   27  C38 UNL     1       1.188  51.555 -28.092  1.00  0.00     0.000 A 
HETATM   28  C39 UNL     1      -0.126  51.960 -27.871  1.00  0.00     0.001 A 
HETATM   29  C40 UNL     1      -0.546  52.308 -26.586  1.00  0.00     0.007 A 
ENDBRANCH  18  24
ENDBRANCH  17  18
ENDBRANCH  15  17
ENDBRANCH   9  13
ENDBRANCH   6   9
ENDBRANCH   4   5
ENDBRANCH   3   4
ENDBRANCH   1   3
BRANCH   1  30
HETATM   30  O3  UNL     1      -5.529  47.719 -20.171  1.00  0.00    -0.314 OA
BRANCH  30  31
HETATM   31  C9  UNL     1      -4.321  48.481 -20.152  1.00  0.00     0.260 C 
BRANCH  31  32
HETATM   32  C10 UNL     1      -3.558  48.361 -18.836  1.00  0.00     0.185 C 
HETATM   33  O4  UNL     1      -4.035  47.780 -17.854  1.00  0.00    -0.292 OA
BRANCH  32  34
HETATM   34  C11 UNL     1      -2.125  48.921 -18.756  1.00  0.00     0.128 C 
HETATM   35  C12 UNL     1      -1.706  49.940 -19.847  1.00  0.00     0.047 C 
HETATM   36  C13 UNL     1      -0.745  50.937 -19.169  1.00  0.00     0.009 C 
HETATM   37  C14 UNL     1      -0.447  50.306 -17.815  1.00  0.00     0.002 C 
HETATM   38  C15 UNL     1       0.163  51.183 -16.712  1.00  0.00    -0.002 C 
HETATM   39  C28 UNL     1      -1.786  49.645 -17.415  1.00  0.00     0.001 C 
HETATM   40  C16 UNL     1       1.442  51.882 -17.219  1.00  0.00     0.010 C 
HETATM   41  C25 UNL     1       0.448  50.268 -15.466  1.00  0.00     0.031 C 
HETATM   42  C17 UNL     1       2.224  52.586 -16.110  1.00  0.00     0.035 C 
HETATM   43  C18 UNL     1       2.465  51.610 -14.989  1.00  0.00    -0.068 C 
HETATM   44  C19 UNL     1       3.710  51.179 -14.721  1.00  0.00     0.053 C 
HETATM   45  C23 UNL     1       1.196  51.055 -14.325  1.00  0.00    -0.014 C 
HETATM   46  C20 UNL     1       3.947  50.026 -13.825  1.00  0.00     0.149 C 
HETATM   47  O6  UNL     1       5.097  49.701 -13.546  1.00  0.00    -0.293 OA
HETATM   48  C21 UNL     1       2.747  49.226 -13.382  1.00  0.00     0.084 C 
HETATM   49  C22 UNL     1       1.581  50.161 -13.112  1.00  0.00     0.022 C 
HETATM   50  C24 UNL     1       0.363  52.221 -13.730  1.00  0.00     0.020 C 
HETATM   51  C26 UNL     1      -0.812  49.468 -15.028  1.00  0.00     0.124 C 
HETATM   52  C27 UNL     1      -1.509  48.737 -16.195  1.00  0.00     0.045 C 
HETATM   53  C29 UNL     1      -2.906  50.668 -17.087  1.00  0.00     0.019 C 
BRANCH  34  54
HETATM   54  O5  UNL     1      -1.272  47.772 -18.928  1.00  0.00    -0.381 OA
HETATM   55  H16 UNL     1      -1.659  47.055 -18.382  1.00  0.00     0.211 HD
ENDBRANCH  34  54
BRANCH  51  56
HETATM   56  O7  UNL     1      -1.746  50.313 -14.375  1.00  0.00    -0.395 OA
HETATM   57  H37 UNL     1      -2.380  49.749 -13.896  1.00  0.00     0.210 HD
ENDBRANCH  51  56
ENDBRANCH  32  34
ENDBRANCH  31  32
ENDBRANCH  30  31
ENDBRANCH   1  30
TORSDOF 18
ENDMDL
MODEL 9
REMARK minimizedAffinity -9.31636047
REMARK CNNscore 0.243636861
REMARK CNNaffinity 6.53154373
REMARK  18 active torsions:
REMARK  status: ('A' for Active; 'I' for Inactive)
REMARK    1  A    between atoms: C2_2  and  C4_4 
REMARK    2  A    between atoms: C4_4  and  N1_5 
REMARK    3  A    between atoms: C4_4  and  C30_38 
REMARK       I    between atoms: N1_5  and  C5_6 
REMARK    4  A    between atoms: C5_6  and  C6_8 
REMARK    5  A    between atoms: C6_8  and  C7_9 
REMARK    6  A    between atoms: C7_9  and  C8_10 
REMARK    7  A    between atoms: C8_10  and  O3_12 
REMARK    8  A    between atoms: O3_12  and  C9_13 
REMARK    9  A    between atoms: C9_13  and  C10_14 
REMARK   10  A    between atoms: C10_14  and  C11_16 
REMARK   11  A    between atoms: C11_16  and  O5_17 
REMARK   12  A    between atoms: C26_33  and  O7_34 
REMARK       I    between atoms: C30_38  and  N2_40 
REMARK   13  A    between atoms: N2_40  and  C31_41 
REMARK   14  A    between atoms: C31_41  and  C32_42 
REMARK   15  A    between atoms: C32_42  and  C33_43 
REMARK   16  A    between atoms: C32_42  and  C35_47 
REMARK   17  A    between atoms: C33_43  and  C34_44 
REMARK   18  A    between atoms: C34_44  and  O10_46 
ROOT
HETATM    1  C8  UNL     1      -2.214  50.371 -16.958  1.00  0.00     0.259 C 
HETATM    2  O2  UNL     1      -2.877  51.140 -16.272  1.00  0.00    -0.265 OA
ENDROOT
BRANCH   1   3
HETATM    3  C7  UNL     1      -2.688  49.811 -18.280  1.00  0.00     0.120 C 
BRANCH   3   4
HETATM    4  C6  UNL     1      -1.766  48.743 -18.860  1.00  0.00     0.112 C 
BRANCH   4   5
HETATM    5  C5  UNL     1      -0.859  49.281 -19.944  1.00  0.00     0.218 C 
HETATM    6  N1  UNL     1      -0.586  50.624 -19.775  1.00  0.00    -0.347 N 
HETATM    7  H9  UNL     1      -1.298  51.145 -19.277  1.00  0.00     0.163 HD
HETATM    8  O1  UNL     1      -0.415  48.605 -20.864  1.00  0.00    -0.274 OA
BRANCH   6   9
HETATM    9  C4  UNL     1       0.103  51.379 -20.823  1.00  0.00     0.179 C 
BRANCH   9  10
HETATM   10  C2  UNL     1       0.738  52.661 -20.236  1.00  0.00     0.009 C 
HETATM   11  C1  UNL     1       1.169  53.649 -21.321  1.00  0.00     0.012 C 
HETATM   12  C3  UNL     1      -0.149  53.374 -19.208  1.00  0.00     0.012 C 
ENDBRANCH   9  10
BRANCH   9  13
HETATM   13  C30 UNL     1      -0.927  51.663 -21.942  1.00  0.00     0.240 C 
HETATM   14  O8  UNL     1      -2.090  51.983 -21.695  1.00  0.00    -0.271 OA
HETATM   15  N2  UNL     1      -0.430  51.571 -23.222  1.00  0.00    -0.359 N 
HETATM   16  H43 UNL     1       0.513  51.222 -23.363  1.00  0.00     0.162 HD
BRANCH  15  17
HETATM   17  C31 UNL     1      -1.244  51.815 -24.399  1.00  0.00     0.132 C 
BRANCH  17  18
HETATM   18  C32 UNL     1      -1.025  50.763 -25.507  1.00  0.00     0.046 C 
BRANCH  18  19
HETATM   19  C33 UNL     1      -2.284  50.569 -26.367  1.00  0.00     0.120 C 
BRANCH  19  20
HETATM   20  C34 UNL     1      -2.909  51.892 -26.715  1.00  0.00     0.140 C 
HETATM   21  O9  UNL     1      -3.364  52.712 -25.934  1.00  0.00    -0.650 OA
BRANCH  20  22
HETATM   22  O10 UNL     1      -2.894  52.143 -28.035  1.00  0.00    -0.776 OA
HETATM   23  H49 UNL     1      -3.313  53.024 -28.117  1.00  0.00     0.167 HD
ENDBRANCH  20  22
ENDBRANCH  19  20
ENDBRANCH  18  19
BRANCH  18  24
HETATM   24  C35 UNL     1       0.182  51.134 -26.362  1.00  0.00    -0.052 A 
HETATM   25  C36 UNL     1       1.467  51.107 -25.799  1.00  0.00     0.007 A 
HETATM   26  C37 UNL     1       2.586  51.438 -26.565  1.00  0.00     0.001 A 
HETATM   27  C38 UNL     1       2.436  51.799 -27.902  1.00  0.00     0.000 A 
HETATM   28  C39 UNL     1       1.168  51.823 -28.476  1.00  0.00     0.001 A 
HETATM   29  C40 UNL     1       0.047  51.491 -27.714  1.00  0.00     0.007 A 
ENDBRANCH  18  24
ENDBRANCH  17  18
ENDBRANCH  15  17
ENDBRANCH   9  13
ENDBRANCH   6   9
ENDBRANCH   4   5
ENDBRANCH   3   4
ENDBRANCH   1   3
BRANCH   1  30
HETATM   30  O3  UNL     1      -0.974  49.930 -16.626  1.00  0.00    -0.314 OA
BRANCH  30  31
HETATM   31  C9  UNL     1      -0.740  49.775 -15.225  1.00  0.00     0.260 C 
BRANCH  31  32
HETATM   32  C10 UNL     1       0.446  50.592 -14.723  1.00  0.00     0.185 C 
HETATM   33  O4  UNL     1       1.606  50.349 -15.080  1.00  0.00    -0.292 OA
BRANCH  32  34
HETATM   34  C11 UNL     1       0.180  51.795 -13.798  1.00  0.00     0.128 C 
HETATM   35  C12 UNL     1      -1.294  52.064 -13.400  1.00  0.00     0.047 C 
HETATM   36  C13 UNL     1      -1.264  52.620 -11.962  1.00  0.00     0.009 C 
HETATM   37  C14 UNL     1       0.211  52.894 -11.698  1.00  0.00     0.002 C 
HETATM   38  C15 UNL     1       0.675  53.091 -10.248  1.00  0.00    -0.002 C 
HETATM   39  C28 UNL     1       0.935  51.743 -12.433  1.00  0.00     0.001 C 
HETATM   40  C16 UNL     1      -0.159  54.188  -9.554  1.00  0.00     0.010 C 
HETATM   41  C25 UNL     1       2.207  53.444 -10.273  1.00  0.00     0.031 C 
HETATM   42  C17 UNL     1       0.396  54.594  -8.189  1.00  0.00     0.035 C 
HETATM   43  C18 UNL     1       1.854  54.939  -8.339  1.00  0.00    -0.068 C 
HETATM   44  C19 UNL     1       2.271  56.207  -8.178  1.00  0.00     0.053 C 
HETATM   45  C23 UNL     1       2.747  53.792  -8.834  1.00  0.00    -0.014 C 
HETATM   46  C20 UNL     1       3.630  56.626  -8.586  1.00  0.00     0.149 C 
HETATM   47  O6  UNL     1       4.004  57.773  -8.362  1.00  0.00    -0.293 OA
HETATM   48  C21 UNL     1       4.460  55.641  -9.370  1.00  0.00     0.084 C 
HETATM   49  C22 UNL     1       4.237  54.239  -8.828  1.00  0.00     0.022 C 
HETATM   50  C24 UNL     1       2.670  52.602  -7.841  1.00  0.00     0.020 C 
HETATM   51  C26 UNL     1       3.035  52.402 -11.077  1.00  0.00     0.124 C 
HETATM   52  C27 UNL     1       2.442  52.091 -12.468  1.00  0.00     0.045 C 
HETATM   53  C29 UNL     1       0.714  50.354 -11.777  1.00  0.00     0.019 C 
BRANCH  34  54
HETATM   54  O5  UNL     1       0.609  52.942 -14.557  1.00  0.00    -0.381 OA
HETATM   55  H16 UNL     1       1.459  52.695 -14.978  1.00  0.00     0.211 HD
ENDBRANCH  34  54
BRANCH  51  56
HETATM   56  O7  UNL     1       3.178  51.195 -10.344  1.00  0.00    -0.395 OA
HETATM   57  H37 UNL     1       3.899  50.679 -10.749  1.00  0.00     0.210 HD
ENDBRANCH  51  56
ENDBRANCH  32  34
ENDBRANCH  31  32
ENDBRANCH  30  31
ENDBRANCH   1  30
TORSDOF 18
ENDMDL
