MODEL 1
REMARK minimizedAffinity -9.51461792
REMARK CNNscore 0.489913553
REMARK CNNaffinity 7.40072107
REMARK  13 active torsions:
REMARK  status: ('A' for Active; 'I' for Inactive)
REMARK    1  A    between atoms: O1_2  and  C2_3 
REMARK    2  A    between atoms: C4_5  and  O2_6 
REMARK    3  A    between atoms: O2_6  and  C5_7 
REMARK    4  A    between atoms: C10_12  and  C11_13 
REMARK    5  A    between atoms: C11_13  and  C12_14 
REMARK    6  A    between atoms: C12_14  and  O3_15 
REMARK    7  A    between atoms: C12_14  and  C22_26 
REMARK    8  A    between atoms: O3_15  and  C13_16 
REMARK    9  A    between atoms: C13_16  and  C14_18 
REMARK   10  A    between atoms: C15_19  and  C16_20 
REMARK   11  A    between atoms: C27_32  and  C28_33 
REMARK   12  A    between atoms: C33_40  and  O8_41 
REMARK   13  A    between atoms: C37_46  and  O10_47 
ROOT
HETATM    1  C5  UNL     1      -0.249  50.073 -17.615  1.00  0.00     0.128 C 
HETATM    2  C6  UNL     1      -0.876  48.752 -18.054  1.00  0.00     0.033 C 
HETATM    3  C7  UNL     1      -1.381  48.810 -19.495  1.00  0.00     0.016 C 
HETATM    4  C8  UNL     1      -2.369  49.992 -19.783  1.00  0.00     0.002 C 
HETATM    5  C9  UNL     1      -3.697  49.671 -19.045  1.00  0.00     0.019 C 
HETATM    6  C10 UNL     1      -2.633  50.049 -21.343  1.00  0.00     0.073 C 
HETATM    7  C30 UNL     1      -1.364  50.468 -22.070  1.00  0.00     0.154 C 
HETATM    8  O7  UNL     1      -1.075  50.037 -23.184  1.00  0.00    -0.293 OA
HETATM    9  C31 UNL     1      -0.470  51.463 -21.440  1.00  0.00     0.049 C 
HETATM   10  C32 UNL     1      -0.669  51.866 -20.180  1.00  0.00     0.015 C 
HETATM   11  C33 UNL     1      -1.752  51.341 -19.270  1.00  0.00     0.086 C 
HETATM   12  C34 UNL     1      -1.230  51.225 -17.827  1.00  0.00     0.075 C 
ENDROOT
BRANCH   6  13
HETATM   13  C11 UNL     1      -3.814  50.952 -21.785  1.00  0.00     0.047 C 
BRANCH  13  14
HETATM   14  C12 UNL     1      -4.308  50.781 -23.249  1.00  0.00     0.149 C 
BRANCH  14  15
HETATM   15  O3  UNL     1      -3.125  50.771 -24.078  1.00  0.00    -0.311 OA
BRANCH  15  16
HETATM   16  C13 UNL     1      -2.955  51.847 -24.897  1.00  0.00     0.283 C 
HETATM   17  O4  UNL     1      -2.617  52.962 -24.544  1.00  0.00    -0.260 OA
BRANCH  16  18
HETATM   18  C14 UNL     1      -3.300  51.424 -26.271  1.00  0.00     0.083 C 
HETATM   19  C15 UNL     1      -2.430  51.236 -27.278  1.00  0.00     0.017 C 
BRANCH  19  20
HETATM   20  C16 UNL     1      -0.968  51.360 -27.230  1.00  0.00    -0.036 A 
HETATM   21  C17 UNL     1      -0.251  51.985 -28.260  1.00  0.00     0.011 A 
HETATM   22  C18 UNL     1       1.141  52.109 -28.182  1.00  0.00     0.001 A 
HETATM   23  C19 UNL     1       1.822  51.615 -27.070  1.00  0.00     0.000 A 
HETATM   24  C20 UNL     1       1.115  51.010 -26.030  1.00  0.00     0.001 A 
HETATM   25  C21 UNL     1      -0.278  50.886 -26.108  1.00  0.00     0.011 A 
ENDBRANCH  19  20
ENDBRANCH  16  18
ENDBRANCH  15  16
ENDBRANCH  14  15
BRANCH  14  26
HETATM   26  C22 UNL     1      -5.161  49.476 -23.480  1.00  0.00     0.054 C 
HETATM   27  C23 UNL     1      -4.606  48.597 -24.611  1.00  0.00     0.027 C 
HETATM   28  C24 UNL     1      -5.178  48.711 -22.160  1.00  0.00     0.138 C 
HETATM   29  O5  UNL     1      -4.274  47.988 -21.766  1.00  0.00    -0.297 OA
HETATM   30  C25 UNL     1      -6.443  48.918 -21.366  1.00  0.00     0.080 C 
HETATM   31  C26 UNL     1      -7.232  49.901 -22.211  1.00  0.00     0.021 C 
HETATM   32  C27 UNL     1      -6.687  49.767 -23.636  1.00  0.00     0.073 C 
BRANCH  32  33
HETATM   33  C28 UNL     1      -7.466  48.778 -24.514  1.00  0.00     0.128 C 
HETATM   34  C29 UNL     1      -6.727  47.694 -25.255  1.00  0.00     0.091 C 
HETATM   35  O6  UNL     1      -8.686  48.906 -24.655  1.00  0.00    -0.298 OA
ENDBRANCH  32  33
ENDBRANCH  14  26
ENDBRANCH  13  14
ENDBRANCH   6  13
BRANCH  11  36
HETATM   36  O8  UNL     1      -2.762  52.351 -19.268  1.00  0.00    -0.385 OA
HETATM   37  H40 UNL     1      -2.396  53.165 -18.882  1.00  0.00     0.211 HD
ENDBRANCH  11  36
BRANCH   1  38
HETATM   38  O2  UNL     1       0.044  49.975 -16.219  1.00  0.00    -0.356 OA
BRANCH  38  39
HETATM   39  C4  UNL     1       0.573  51.176 -15.653  1.00  0.00     0.263 C 
HETATM   40  C3  UNL     1       0.478  51.037 -14.133  1.00  0.00     0.095 C 
HETATM   41  C2  UNL     1       1.782  50.451 -13.596  1.00  0.00     0.156 C 
HETATM   42  C37 UNL     1       2.934  51.430 -13.914  1.00  0.00     0.175 C 
HETATM   43  C35 UNL     1       2.731  52.119 -15.279  1.00  0.00     0.151 C 
HETATM   44  O9  UNL     1       1.912  51.318 -16.134  1.00  0.00    -0.354 OA
HETATM   45  C36 UNL     1       4.063  52.360 -15.980  1.00  0.00     0.042 C 
BRANCH  41  46
HETATM   46  O1  UNL     1       1.757  50.269 -12.169  1.00  0.00    -0.388 OA
HETATM   47  C1  UNL     1       0.544  49.682 -11.703  1.00  0.00     0.202 C 
ENDBRANCH  41  46
BRANCH  42  48
HETATM   48  O10 UNL     1       3.001  52.446 -12.901  1.00  0.00    -0.390 OA
HETATM   49  H48 UNL     1       2.709  51.997 -12.075  1.00  0.00     0.210 HD
ENDBRANCH  42  48
ENDBRANCH  38  39
ENDBRANCH   1  38
TORSDOF 13
ENDMDL
MODEL 2
REMARK minimizedAffinity -8.68229771
REMARK CNNscore 0.477757752
REMARK CNNaffinity 7.38469076
REMARK  13 active torsions:
REMARK  status: ('A' for Active; 'I' for Inactive)
REMARK    1  A    between atoms: O1_2  and  C2_3 
REMARK    2  A    between atoms: C4_5  and  O2_6 
REMARK    3  A    between atoms: O2_6  and  C5_7 
REMARK    4  A    between atoms: C10_12  and  C11_13 
REMARK    5  A    between atoms: C11_13  and  C12_14 
REMARK    6  A    between atoms: C12_14  and  O3_15 
REMARK    7  A    between atoms: C12_14  and  C22_26 
REMARK    8  A    between atoms: O3_15  and  C13_16 
REMARK    9  A    between atoms: C13_16  and  C14_18 
REMARK   10  A    between atoms: C15_19  and  C16_20 
REMARK   11  A    between atoms: C27_32  and  C28_33 
REMARK   12  A    between atoms: C33_40  and  O8_41 
REMARK   13  A    between atoms: C37_46  and  O10_47 
ROOT
HETATM    1  C5  UNL     1      -0.290  52.133 -22.968  1.00  0.00     0.128 C 
HETATM    2  C6  UNL     1       0.554  51.935 -21.713  1.00  0.00     0.033 C 
HETATM    3  C7  UNL     1       0.079  50.741 -20.887  1.00  0.00     0.016 C 
HETATM    4  C8  UNL     1      -1.441  50.786 -20.506  1.00  0.00     0.002 C 
HETATM    5  C9  UNL     1      -1.619  51.923 -19.463  1.00  0.00     0.019 C 
HETATM    6  C10 UNL     1      -1.828  49.400 -19.846  1.00  0.00     0.073 C 
HETATM    7  C30 UNL     1      -1.761  48.293 -20.887  1.00  0.00     0.154 C 
HETATM    8  O7  UNL     1      -1.412  47.149 -20.604  1.00  0.00    -0.293 OA
HETATM    9  C31 UNL     1      -2.173  48.586 -22.276  1.00  0.00     0.049 C 
HETATM   10  C32 UNL     1      -2.438  49.838 -22.666  1.00  0.00     0.015 C 
HETATM   11  C33 UNL     1      -2.305  51.058 -21.787  1.00  0.00     0.086 C 
HETATM   12  C34 UNL     1      -1.770  52.248 -22.602  1.00  0.00     0.075 C 
ENDROOT
BRANCH   6  13
HETATM   13  C11 UNL     1      -3.204  49.366 -19.131  1.00  0.00     0.047 C 
BRANCH  13  14
HETATM   14  C12 UNL     1      -3.509  48.105 -18.274  1.00  0.00     0.149 C 
BRANCH  14  15
HETATM   15  O3  UNL     1      -3.820  48.583 -16.946  1.00  0.00    -0.311 OA
BRANCH  15  16
HETATM   16  C13 UNL     1      -2.814  49.225 -16.287  1.00  0.00     0.283 C 
HETATM   17  O4  UNL     1      -2.803  50.404 -15.984  1.00  0.00    -0.260 OA
BRANCH  16  18
HETATM   18  C14 UNL     1      -1.732  48.245 -16.055  1.00  0.00     0.083 C 
HETATM   19  C15 UNL     1      -0.427  48.532 -15.916  1.00  0.00     0.017 C 
BRANCH  19  20
HETATM   20  C16 UNL     1       0.201  49.859 -15.918  1.00  0.00    -0.036 A 
HETATM   21  C17 UNL     1       0.510  50.522 -17.113  1.00  0.00     0.011 A 
HETATM   22  C18 UNL     1       1.091  51.796 -17.089  1.00  0.00     0.001 A 
HETATM   23  C19 UNL     1       1.358  52.415 -15.869  1.00  0.00     0.000 A 
HETATM   24  C20 UNL     1       1.034  51.772 -14.674  1.00  0.00     0.001 A 
HETATM   25  C21 UNL     1       0.454  50.498 -14.698  1.00  0.00     0.011 A 
ENDBRANCH  19  20
ENDBRANCH  16  18
ENDBRANCH  15  16
ENDBRANCH  14  15
BRANCH  14  26
HETATM   26  C22 UNL     1      -4.688  47.226 -18.840  1.00  0.00     0.054 C 
HETATM   27  C23 UNL     1      -4.219  45.845 -19.322  1.00  0.00     0.027 C 
HETATM   28  C24 UNL     1      -5.721  47.088 -17.727  1.00  0.00     0.138 C 
HETATM   29  O5  UNL     1      -5.640  46.291 -16.801  1.00  0.00    -0.297 OA
HETATM   30  C25 UNL     1      -6.886  48.032 -17.872  1.00  0.00     0.080 C 
HETATM   31  C26 UNL     1      -6.536  48.835 -19.112  1.00  0.00     0.021 C 
HETATM   32  C27 UNL     1      -5.547  47.977 -19.906  1.00  0.00     0.073 C 
BRANCH  32  33
HETATM   33  C28 UNL     1      -6.204  47.090 -20.974  1.00  0.00     0.128 C 
HETATM   34  C29 UNL     1      -5.658  47.084 -22.379  1.00  0.00     0.091 C 
HETATM   35  O6  UNL     1      -7.209  46.430 -20.696  1.00  0.00    -0.298 OA
ENDBRANCH  32  33
ENDBRANCH  14  26
ENDBRANCH  13  14
ENDBRANCH   6  13
BRANCH  11  36
HETATM   36  O8  UNL     1      -3.639  51.386 -21.397  1.00  0.00    -0.385 OA
HETATM   37  H40 UNL     1      -4.151  51.623 -22.187  1.00  0.00     0.211 HD
ENDBRANCH  11  36
BRANCH   1  38
HETATM   38  O2  UNL     1       0.123  53.356 -23.585  1.00  0.00    -0.356 OA
BRANCH  38  39
HETATM   39  C4  UNL     1      -0.305  53.493 -24.941  1.00  0.00     0.263 C 
HETATM   40  C3  UNL     1       0.806  52.922 -25.824  1.00  0.00     0.095 C 
HETATM   41  C2  UNL     1       0.526  51.447 -26.099  1.00  0.00     0.156 C 
HETATM   42  C37 UNL     1      -0.805  51.331 -26.875  1.00  0.00     0.175 C 
HETATM   43  C35 UNL     1      -1.826  52.387 -26.407  1.00  0.00     0.151 C 
HETATM   44  O9  UNL     1      -1.550  52.802 -25.067  1.00  0.00    -0.354 OA
HETATM   45  C36 UNL     1      -3.249  51.839 -26.454  1.00  0.00     0.042 C 
BRANCH  41  46
HETATM   46  O1  UNL     1       1.547  50.834 -26.908  1.00  0.00    -0.388 OA
HETATM   47  C1  UNL     1       2.722  51.634 -27.022  1.00  0.00     0.202 C 
ENDBRANCH  41  46
BRANCH  42  48
HETATM   48  O10 UNL     1      -0.567  51.523 -28.278  1.00  0.00    -0.390 OA
HETATM   49  H48 UNL     1       0.335  51.160 -28.433  1.00  0.00     0.210 HD
ENDBRANCH  42  48
ENDBRANCH  38  39
ENDBRANCH   1  38
TORSDOF 13
ENDMDL
MODEL 3
REMARK minimizedAffinity -9.25725174
REMARK CNNscore 0.456701159
REMARK CNNaffinity 6.79289818
REMARK  13 active torsions:
REMARK  status: ('A' for Active; 'I' for Inactive)
REMARK    1  A    between atoms: O1_2  and  C2_3 
REMARK    2  A    between atoms: C4_5  and  O2_6 
REMARK    3  A    between atoms: O2_6  and  C5_7 
REMARK    4  A    between atoms: C10_12  and  C11_13 
REMARK    5  A    between atoms: C11_13  and  C12_14 
REMARK    6  A    between atoms: C12_14  and  O3_15 
REMARK    7  A    between atoms: C12_14  and  C22_26 
REMARK    8  A    between atoms: O3_15  and  C13_16 
REMARK    9  A    between atoms: C13_16  and  C14_18 
REMARK   10  A    between atoms: C15_19  and  C16_20 
REMARK   11  A    between atoms: C27_32  and  C28_33 
REMARK   12  A    between atoms: C33_40  and  O8_41 
REMARK   13  A    between atoms: C37_46  and  O10_47 
ROOT
HETATM    1  C5  UNL     1      -5.516  49.028 -20.753  1.00  0.00     0.128 C 
HETATM    2  C6  UNL     1      -5.617  50.539 -20.944  1.00  0.00     0.033 C 
HETATM    3  C7  UNL     1      -4.858  51.010 -22.184  1.00  0.00     0.016 C 
HETATM    4  C8  UNL     1      -3.356  50.566 -22.226  1.00  0.00     0.002 C 
HETATM    5  C9  UNL     1      -2.607  51.371 -21.130  1.00  0.00     0.019 C 
HETATM    6  C10 UNL     1      -2.769  50.938 -23.649  1.00  0.00     0.073 C 
HETATM    7  C30 UNL     1      -3.419  50.077 -24.721  1.00  0.00     0.154 C 
HETATM    8  O7  UNL     1      -3.642  50.499 -25.853  1.00  0.00    -0.293 OA
HETATM    9  C31 UNL     1      -3.752  48.670 -24.409  1.00  0.00     0.049 C 
HETATM   10  C32 UNL     1      -3.650  48.199 -23.161  1.00  0.00     0.015 C 
HETATM   11  C33 UNL     1      -3.248  49.022 -21.962  1.00  0.00     0.086 C 
HETATM   12  C34 UNL     1      -4.052  48.591 -20.723  1.00  0.00     0.075 C 
ENDROOT
BRANCH   6  13
HETATM   13  C11 UNL     1      -1.225  50.855 -23.773  1.00  0.00     0.047 C 
BRANCH  13  14
HETATM   14  C12 UNL     1      -0.453  52.204 -23.744  1.00  0.00     0.149 C 
BRANCH  14  15
HETATM   15  O3  UNL     1       0.726  51.980 -22.941  1.00  0.00    -0.311 OA
BRANCH  15  16
HETATM   16  C13 UNL     1       0.526  51.862 -21.598  1.00  0.00     0.283 C 
HETATM   17  O4  UNL     1       0.462  50.816 -20.978  1.00  0.00    -0.260 OA
BRANCH  16  18
HETATM   18  C14 UNL     1       0.355  53.223 -21.048  1.00  0.00     0.083 C 
HETATM   19  C15 UNL     1       0.307  53.546 -19.745  1.00  0.00     0.017 C 
BRANCH  19  20
HETATM   20  C16 UNL     1       0.455  52.644 -18.596  1.00  0.00    -0.036 A 
HETATM   21  C17 UNL     1       1.607  52.657 -17.797  1.00  0.00     0.011 A 
HETATM   22  C18 UNL     1       1.716  51.800 -16.695  1.00  0.00     0.001 A 
HETATM   23  C19 UNL     1       0.671  50.933 -16.382  1.00  0.00     0.000 A 
HETATM   24  C20 UNL     1      -0.488  50.927 -17.159  1.00  0.00     0.001 A 
HETATM   25  C21 UNL     1      -0.598  51.784 -18.261  1.00  0.00     0.011 A 
ENDBRANCH  19  20
ENDBRANCH  16  18
ENDBRANCH  15  16
ENDBRANCH  14  15
BRANCH  14  26
HETATM   26  C22 UNL     1      -0.061  52.738 -25.174  1.00  0.00     0.054 C 
HETATM   27  C23 UNL     1       0.016  54.271 -25.234  1.00  0.00     0.027 C 
HETATM   28  C24 UNL     1       1.284  52.115 -25.533  1.00  0.00     0.138 C 
HETATM   29  O5  UNL     1       2.366  52.528 -25.139  1.00  0.00    -0.297 OA
HETATM   30  C25 UNL     1       1.166  50.923 -26.448  1.00  0.00     0.080 C 
HETATM   31  C26 UNL     1      -0.333  50.765 -26.628  1.00  0.00     0.021 C 
HETATM   32  C27 UNL     1      -0.944  52.133 -26.311  1.00  0.00     0.073 C 
BRANCH  32  33
HETATM   33  C28 UNL     1      -1.147  53.029 -27.542  1.00  0.00     0.128 C 
HETATM   34  C29 UNL     1      -0.023  53.206 -28.531  1.00  0.00     0.091 C 
HETATM   35  O6  UNL     1      -2.207  53.644 -27.690  1.00  0.00    -0.298 OA
ENDBRANCH  32  33
ENDBRANCH  14  26
ENDBRANCH  13  14
ENDBRANCH   6  13
BRANCH  11  36
HETATM   36  O8  UNL     1      -1.884  48.680 -21.713  1.00  0.00    -0.385 OA
HETATM   37  H40 UNL     1      -1.830  47.739 -21.480  1.00  0.00     0.211 HD
ENDBRANCH  11  36
BRANCH   1  38
HETATM   38  O2  UNL     1      -6.113  48.706 -19.494  1.00  0.00    -0.356 OA
BRANCH  38  39
HETATM   39  C4  UNL     1      -6.699  47.404 -19.447  1.00  0.00     0.263 C 
HETATM   40  C3  UNL     1      -8.148  47.577 -18.988  1.00  0.00     0.095 C 
HETATM   41  C2  UNL     1      -9.052  47.718 -20.210  1.00  0.00     0.156 C 
HETATM   42  C37 UNL     1      -8.969  46.418 -21.041  1.00  0.00     0.175 C 
HETATM   43  C35 UNL     1      -7.548  45.821 -21.015  1.00  0.00     0.151 C 
HETATM   44  O9  UNL     1      -6.575  46.835 -20.753  1.00  0.00    -0.354 OA
HETATM   45  C36 UNL     1      -7.202  45.159 -22.345  1.00  0.00     0.042 C 
BRANCH  41  46
HETATM   46  O1  UNL     1     -10.433  47.910 -19.854  1.00  0.00    -0.388 OA
HETATM   47  C1  UNL     1     -10.640  47.986 -18.445  1.00  0.00     0.202 C 
ENDBRANCH  41  46
BRANCH  42  48
HETATM   48  O10 UNL     1      -9.879  45.443 -20.509  1.00  0.00    -0.390 OA
HETATM   49  H48 UNL     1     -10.633  45.968 -20.157  1.00  0.00     0.210 HD
ENDBRANCH  42  48
ENDBRANCH  38  39
ENDBRANCH   1  38
TORSDOF 13
ENDMDL
MODEL 4
REMARK minimizedAffinity -8.58940601
REMARK CNNscore 0.433037072
REMARK CNNaffinity 7.03239775
REMARK  13 active torsions:
REMARK  status: ('A' for Active; 'I' for Inactive)
REMARK    1  A    between atoms: O1_2  and  C2_3 
REMARK    2  A    between atoms: C4_5  and  O2_6 
REMARK    3  A    between atoms: O2_6  and  C5_7 
REMARK    4  A    between atoms: C10_12  and  C11_13 
REMARK    5  A    between atoms: C11_13  and  C12_14 
REMARK    6  A    between atoms: C12_14  and  O3_15 
REMARK    7  A    between atoms: C12_14  and  C22_26 
REMARK    8  A    between atoms: O3_15  and  C13_16 
REMARK    9  A    between atoms: C13_16  and  C14_18 
REMARK   10  A    between atoms: C15_19  and  C16_20 
REMARK   11  A    between atoms: C27_32  and  C28_33 
REMARK   12  A    between atoms: C33_40  and  O8_41 
REMARK   13  A    between atoms: C37_46  and  O10_47 
ROOT
HETATM    1  C5  UNL     1      -0.057  50.371 -17.273  1.00  0.00     0.128 C 
HETATM    2  C6  UNL     1      -0.302  49.111 -18.097  1.00  0.00     0.033 C 
HETATM    3  C7  UNL     1      -0.618  49.435 -19.557  1.00  0.00     0.016 C 
HETATM    4  C8  UNL     1      -1.806  50.438 -19.750  1.00  0.00     0.002 C 
HETATM    5  C9  UNL     1      -3.108  49.691 -19.352  1.00  0.00     0.019 C 
HETATM    6  C10 UNL     1      -1.873  50.838 -21.281  1.00  0.00     0.073 C 
HETATM    7  C30 UNL     1      -0.653  51.663 -21.657  1.00  0.00     0.154 C 
HETATM    8  O7  UNL     1      -0.132  51.594 -22.767  1.00  0.00    -0.293 OA
HETATM    9  C31 UNL     1      -0.100  52.618 -20.672  1.00  0.00     0.049 C 
HETATM   10  C32 UNL     1      -0.546  52.642 -19.411  1.00  0.00     0.015 C 
HETATM   11  C33 UNL     1      -1.587  51.705 -18.850  1.00  0.00     0.086 C 
HETATM   12  C34 UNL     1      -1.242  51.329 -17.399  1.00  0.00     0.075 C 
ENDROOT
BRANCH   6  13
HETATM   13  C11 UNL     1      -3.164  51.579 -21.718  1.00  0.00     0.047 C 
BRANCH  13  14
HETATM   14  C12 UNL     1      -3.884  51.031 -22.983  1.00  0.00     0.149 C 
BRANCH  14  15
HETATM   15  O3  UNL     1      -2.850  50.784 -23.962  1.00  0.00    -0.311 OA
BRANCH  15  16
HETATM   16  C13 UNL     1      -2.736  51.703 -24.961  1.00  0.00     0.283 C 
HETATM   17  O4  UNL     1      -2.506  52.889 -24.812  1.00  0.00    -0.260 OA
BRANCH  16  18
HETATM   18  C14 UNL     1      -2.988  51.008 -26.242  1.00  0.00     0.083 C 
HETATM   19  C15 UNL     1      -2.078  50.776 -27.203  1.00  0.00     0.017 C 
BRANCH  19  20
HETATM   20  C16 UNL     1      -0.650  51.112 -27.181  1.00  0.00    -0.036 A 
HETATM   21  C17 UNL     1      -0.030  51.757 -28.261  1.00  0.00     0.011 A 
HETATM   22  C18 UNL     1       1.330  52.085 -28.207  1.00  0.00     0.001 A 
HETATM   23  C19 UNL     1       2.075  51.776 -27.070  1.00  0.00     0.000 A 
HETATM   24  C20 UNL     1       1.463  51.154 -25.982  1.00  0.00     0.001 A 
HETATM   25  C21 UNL     1       0.103  50.826 -26.035  1.00  0.00     0.011 A 
ENDBRANCH  19  20
ENDBRANCH  16  18
ENDBRANCH  15  16
ENDBRANCH  14  15
BRANCH  14  26
HETATM   26  C22 UNL     1      -4.724  49.724 -22.716  1.00  0.00     0.054 C 
HETATM   27  C23 UNL     1      -5.573  49.816 -21.440  1.00  0.00     0.027 C 
HETATM   28  C24 UNL     1      -5.608  49.501 -23.939  1.00  0.00     0.138 C 
HETATM   29  O5  UNL     1      -6.667  50.079 -24.143  1.00  0.00    -0.297 OA
HETATM   30  C25 UNL     1      -5.059  48.474 -24.895  1.00  0.00     0.080 C 
HETATM   31  C26 UNL     1      -3.739  48.073 -24.259  1.00  0.00     0.021 C 
HETATM   32  C27 UNL     1      -3.860  48.425 -22.774  1.00  0.00     0.073 C 
BRANCH  32  33
HETATM   33  C28 UNL     1      -4.346  47.265 -21.893  1.00  0.00     0.128 C 
HETATM   34  C29 UNL     1      -3.379  46.576 -20.964  1.00  0.00     0.091 C 
HETATM   35  O6  UNL     1      -5.509  46.862 -21.988  1.00  0.00    -0.298 OA
ENDBRANCH  32  33
ENDBRANCH  14  26
ENDBRANCH  13  14
ENDBRANCH   6  13
BRANCH  11  36
HETATM   36  O8  UNL     1      -2.794  52.468 -18.807  1.00  0.00    -0.385 OA
HETATM   37  H40 UNL     1      -2.678  53.211 -18.193  1.00  0.00     0.211 HD
ENDBRANCH  11  36
BRANCH   1  38
HETATM   38  O2  UNL     1       0.068  49.980 -15.903  1.00  0.00    -0.356 OA
BRANCH  38  39
HETATM   39  C4  UNL     1      -0.826  50.663 -15.022  1.00  0.00     0.263 C 
HETATM   40  C3  UNL     1      -1.549  49.596 -14.198  1.00  0.00     0.095 C 
HETATM   41  C2  UNL     1      -0.782  49.351 -12.902  1.00  0.00     0.156 C 
HETATM   42  C37 UNL     1      -0.768  50.659 -12.079  1.00  0.00     0.175 C 
HETATM   43  C35 UNL     1      -0.660  51.899 -12.989  1.00  0.00     0.151 C 
HETATM   44  O9  UNL     1      -0.042  51.562 -14.234  1.00  0.00    -0.354 OA
HETATM   45  C36 UNL     1       0.163  52.999 -12.329  1.00  0.00     0.042 C 
BRANCH  41  46
HETATM   46  O1  UNL     1      -1.393  48.337 -12.083  1.00  0.00    -0.388 OA
HETATM   47  C1  UNL     1      -2.814  48.312 -12.195  1.00  0.00     0.202 C 
ENDBRANCH  41  46
BRANCH  42  48
HETATM   48  O10 UNL     1      -1.980  50.764 -11.315  1.00  0.00    -0.390 OA
HETATM   49  H48 UNL     1      -2.221  49.835 -11.096  1.00  0.00     0.210 HD
ENDBRANCH  42  48
ENDBRANCH  38  39
ENDBRANCH   1  38
TORSDOF 13
ENDMDL
MODEL 5
REMARK minimizedAffinity -8.99777603
REMARK CNNscore 0.431777179
REMARK CNNaffinity 7.1144805
REMARK  13 active torsions:
REMARK  status: ('A' for Active; 'I' for Inactive)
REMARK    1  A    between atoms: O1_2  and  C2_3 
REMARK    2  A    between atoms: C4_5  and  O2_6 
REMARK    3  A    between atoms: O2_6  and  C5_7 
REMARK    4  A    between atoms: C10_12  and  C11_13 
REMARK    5  A    between atoms: C11_13  and  C12_14 
REMARK    6  A    between atoms: C12_14  and  O3_15 
REMARK    7  A    between atoms: C12_14  and  C22_26 
REMARK    8  A    between atoms: O3_15  and  C13_16 
REMARK    9  A    between atoms: C13_16  and  C14_18 
REMARK   10  A    between atoms: C15_19  and  C16_20 
REMARK   11  A    between atoms: C27_32  and  C28_33 
REMARK   12  A    between atoms: C33_40  and  O8_41 
REMARK   13  A    between atoms: C37_46  and  O10_47 
ROOT
HETATM    1  C5  UNL     1      -5.383  48.122 -24.677  1.00  0.00     0.128 C 
HETATM    2  C6  UNL     1      -4.158  48.677 -25.398  1.00  0.00     0.033 C 
HETATM    3  C7  UNL     1      -2.990  48.912 -24.442  1.00  0.00     0.016 C 
HETATM    4  C8  UNL     1      -3.339  49.816 -23.210  1.00  0.00     0.002 C 
HETATM    5  C9  UNL     1      -3.545  51.259 -23.743  1.00  0.00     0.019 C 
HETATM    6  C10 UNL     1      -2.108  49.791 -22.214  1.00  0.00     0.073 C 
HETATM    7  C30 UNL     1      -1.962  48.406 -21.602  1.00  0.00     0.154 C 
HETATM    8  O7  UNL     1      -0.866  47.926 -21.324  1.00  0.00    -0.293 OA
HETATM    9  C31 UNL     1      -3.179  47.628 -21.286  1.00  0.00     0.049 C 
HETATM   10  C32 UNL     1      -4.386  48.046 -21.682  1.00  0.00     0.015 C 
HETATM   11  C33 UNL     1      -4.638  49.284 -22.509  1.00  0.00     0.086 C 
HETATM   12  C34 UNL     1      -5.775  49.033 -23.515  1.00  0.00     0.075 C 
ENDROOT
BRANCH   6  13
HETATM   13  C11 UNL     1      -2.142  50.861 -21.090  1.00  0.00     0.047 C 
BRANCH  13  14
HETATM   14  C12 UNL     1      -0.766  51.380 -20.586  1.00  0.00     0.149 C 
BRANCH  14  15
HETATM   15  O3  UNL     1      -0.445  52.532 -21.398  1.00  0.00    -0.311 OA
BRANCH  15  16
HETATM   16  C13 UNL     1       0.770  52.514 -22.015  1.00  0.00     0.283 C 
HETATM   17  O4  UNL     1       1.600  51.628 -21.923  1.00  0.00    -0.260 OA
BRANCH  16  18
HETATM   18  C14 UNL     1       0.908  53.777 -22.771  1.00  0.00     0.083 C 
HETATM   19  C15 UNL     1       0.793  53.914 -24.102  1.00  0.00     0.017 C 
BRANCH  19  20
HETATM   20  C16 UNL     1       0.467  52.871 -25.083  1.00  0.00    -0.036 A 
HETATM   21  C17 UNL     1       1.434  51.965 -25.539  1.00  0.00     0.011 A 
HETATM   22  C18 UNL     1       1.093  50.967 -26.460  1.00  0.00     0.001 A 
HETATM   23  C19 UNL     1      -0.218  50.866 -26.922  1.00  0.00     0.000 A 
HETATM   24  C20 UNL     1      -1.193  51.750 -26.457  1.00  0.00     0.001 A 
HETATM   25  C21 UNL     1      -0.852  52.748 -25.537  1.00  0.00     0.011 A 
ENDBRANCH  19  20
ENDBRANCH  16  18
ENDBRANCH  15  16
ENDBRANCH  14  15
BRANCH  14  26
HETATM   26  C22 UNL     1      -0.755  51.756 -19.056  1.00  0.00     0.054 C 
HETATM   27  C23 UNL     1      -0.518  53.254 -18.815  1.00  0.00     0.027 C 
HETATM   28  C24 UNL     1      -2.097  51.320 -18.477  1.00  0.00     0.138 C 
HETATM   29  O5  UNL     1      -3.134  51.962 -18.573  1.00  0.00    -0.297 OA
HETATM   30  C25 UNL     1      -2.034  50.004 -17.746  1.00  0.00     0.080 C 
HETATM   31  C26 UNL     1      -0.589  49.572 -17.922  1.00  0.00     0.021 C 
HETATM   32  C27 UNL     1       0.201  50.851 -18.216  1.00  0.00     0.073 C 
BRANCH  32  33
HETATM   33  C28 UNL     1       0.815  51.507 -16.972  1.00  0.00     0.128 C 
HETATM   34  C29 UNL     1       2.117  52.258 -17.088  1.00  0.00     0.091 C 
HETATM   35  O6  UNL     1       0.272  51.372 -15.871  1.00  0.00    -0.298 OA
ENDBRANCH  32  33
ENDBRANCH  14  26
ENDBRANCH  13  14
ENDBRANCH   6  13
BRANCH  11  36
HETATM   36  O8  UNL     1      -5.109  50.263 -21.582  1.00  0.00    -0.385 OA
HETATM   37  H40 UNL     1      -5.952  49.962 -21.203  1.00  0.00     0.211 HD
ENDBRANCH  11  36
BRANCH   1  38
HETATM   38  O2  UNL     1      -6.464  48.089 -25.614  1.00  0.00    -0.356 OA
BRANCH  38  39
HETATM   39  C4  UNL     1      -7.721  47.731 -25.034  1.00  0.00     0.263 C 
HETATM   40  C3  UNL     1      -8.812  48.239 -25.978  1.00  0.00     0.095 C 
HETATM   41  C2  UNL     1      -9.183  47.134 -26.964  1.00  0.00     0.156 C 
HETATM   42  C37 UNL     1      -9.756  45.936 -26.174  1.00  0.00     0.175 C 
HETATM   43  C35 UNL     1      -9.039  45.756 -24.821  1.00  0.00     0.151 C 
HETATM   44  O9  UNL     1      -7.722  46.311 -24.865  1.00  0.00    -0.354 OA
HETATM   45  C36 UNL     1      -8.923  44.282 -24.447  1.00  0.00     0.042 C 
BRANCH  41  46
HETATM   46  O1  UNL     1     -10.191  47.548 -27.903  1.00  0.00    -0.388 OA
HETATM   47  C1  UNL     1     -10.191  46.773 -29.100  1.00  0.00     0.202 C 
ENDBRANCH  41  46
BRANCH  42  48
HETATM   48  O10 UNL     1     -11.154  46.146 -25.920  1.00  0.00    -0.390 OA
HETATM   49  H48 UNL     1     -11.477  46.654 -26.699  1.00  0.00     0.210 HD
ENDBRANCH  42  48
ENDBRANCH  38  39
ENDBRANCH   1  38
TORSDOF 13
ENDMDL
MODEL 6
REMARK minimizedAffinity -8.72149754
REMARK CNNscore 0.392778069
REMARK CNNaffinity 6.94441366
REMARK  13 active torsions:
REMARK  status: ('A' for Active; 'I' for Inactive)
REMARK    1  A    between atoms: O1_2  and  C2_3 
REMARK    2  A    between atoms: C4_5  and  O2_6 
REMARK    3  A    between atoms: O2_6  and  C5_7 
REMARK    4  A    between atoms: C10_12  and  C11_13 
REMARK    5  A    between atoms: C11_13  and  C12_14 
REMARK    6  A    between atoms: C12_14  and  O3_15 
REMARK    7  A    between atoms: C12_14  and  C22_26 
REMARK    8  A    between atoms: O3_15  and  C13_16 
REMARK    9  A    between atoms: C13_16  and  C14_18 
REMARK   10  A    between atoms: C15_19  and  C16_20 
REMARK   11  A    between atoms: C27_32  and  C28_33 
REMARK   12  A    between atoms: C33_40  and  O8_41 
REMARK   13  A    between atoms: C37_46  and  O10_47 
ROOT
HETATM    1  C5  UNL     1      -7.676  47.631 -22.893  1.00  0.00     0.128 C 
HETATM    2  C6  UNL     1      -6.369  46.856 -23.029  1.00  0.00     0.033 C 
HETATM    3  C7  UNL     1      -5.170  47.664 -22.535  1.00  0.00     0.016 C 
HETATM    4  C8  UNL     1      -5.026  49.075 -23.204  1.00  0.00     0.002 C 
HETATM    5  C9  UNL     1      -4.604  48.842 -24.680  1.00  0.00     0.019 C 
HETATM    6  C10 UNL     1      -3.884  49.867 -22.447  1.00  0.00     0.073 C 
HETATM    7  C30 UNL     1      -4.330  50.195 -21.030  1.00  0.00     0.154 C 
HETATM    8  O7  UNL     1      -3.543  50.226 -20.087  1.00  0.00    -0.293 OA
HETATM    9  C31 UNL     1      -5.747  50.536 -20.783  1.00  0.00     0.049 C 
HETATM   10  C32 UNL     1      -6.666  50.394 -21.745  1.00  0.00     0.015 C 
HETATM   11  C33 UNL     1      -6.390  49.846 -23.123  1.00  0.00     0.086 C 
HETATM   12  C34 UNL     1      -7.571  48.981 -23.602  1.00  0.00     0.075 C 
ENDROOT
BRANCH   6  13
HETATM   13  C11 UNL     1      -3.389  51.157 -23.154  1.00  0.00     0.047 C 
BRANCH  13  14
HETATM   14  C12 UNL     1      -1.849  51.341 -23.262  1.00  0.00     0.149 C 
BRANCH  14  15
HETATM   15  O3  UNL     1      -1.257  50.233 -22.549  1.00  0.00    -0.311 OA
BRANCH  15  16
HETATM   16  C13 UNL     1      -0.578  50.544 -21.409  1.00  0.00     0.283 C 
HETATM   17  O4  UNL     1      -0.033  49.749 -20.667  1.00  0.00    -0.260 OA
BRANCH  16  18
HETATM   18  C14 UNL     1      -0.667  52.008 -21.221  1.00  0.00     0.083 C 
HETATM   19  C15 UNL     1      -0.466  52.666 -20.067  1.00  0.00     0.017 C 
BRANCH  19  20
HETATM   20  C16 UNL     1      -0.076  52.098 -18.771  1.00  0.00    -0.036 A 
HETATM   21  C17 UNL     1       1.160  52.395 -18.181  1.00  0.00     0.011 A 
HETATM   22  C18 UNL     1       1.500  51.855 -16.934  1.00  0.00     0.001 A 
HETATM   23  C19 UNL     1       0.602  51.023 -16.268  1.00  0.00     0.000 A 
HETATM   24  C20 UNL     1      -0.640  50.739 -16.837  1.00  0.00     0.001 A 
HETATM   25  C21 UNL     1      -0.980  51.278 -18.084  1.00  0.00     0.011 A 
ENDBRANCH  19  20
ENDBRANCH  16  18
ENDBRANCH  15  16
ENDBRANCH  14  15
BRANCH  14  26
HETATM   26  C22 UNL     1      -1.322  51.395 -24.746  1.00  0.00     0.054 C 
HETATM   27  C23 UNL     1      -1.768  50.184 -25.579  1.00  0.00     0.027 C 
HETATM   28  C24 UNL     1      -1.840  52.692 -25.359  1.00  0.00     0.138 C 
HETATM   29  O5  UNL     1      -2.968  52.845 -25.809  1.00  0.00    -0.297 OA
HETATM   30  C25 UNL     1      -0.815  53.797 -25.377  1.00  0.00     0.080 C 
HETATM   31  C26 UNL     1       0.388  53.170 -24.693  1.00  0.00     0.021 C 
HETATM   32  C27 UNL     1       0.214  51.656 -24.836  1.00  0.00     0.073 C 
BRANCH  32  33
HETATM   33  C28 UNL     1       0.920  51.058 -26.062  1.00  0.00     0.128 C 
HETATM   34  C29 UNL     1       2.393  51.297 -26.267  1.00  0.00     0.091 C 
HETATM   35  O6  UNL     1       0.269  50.432 -26.904  1.00  0.00    -0.298 OA
ENDBRANCH  32  33
ENDBRANCH  14  26
ENDBRANCH  13  14
ENDBRANCH   6  13
BRANCH  11  36
HETATM   36  O8  UNL     1      -6.338  50.989 -23.978  1.00  0.00    -0.385 OA
HETATM   37  H40 UNL     1      -7.207  51.423 -23.981  1.00  0.00     0.211 HD
ENDBRANCH  11  36
BRANCH   1  38
HETATM   38  O2  UNL     1      -8.707  46.866 -23.523  1.00  0.00    -0.356 OA
BRANCH  38  39
HETATM   39  C4  UNL     1      -8.218  45.859 -24.413  1.00  0.00     0.263 C 
HETATM   40  C3  UNL     1      -9.241  44.722 -24.410  1.00  0.00     0.095 C 
HETATM   41  C2  UNL     1     -10.246  44.942 -25.537  1.00  0.00     0.156 C 
HETATM   42  C37 UNL     1      -9.494  44.903 -26.887  1.00  0.00     0.175 C 
HETATM   43  C35 UNL     1      -8.091  45.534 -26.771  1.00  0.00     0.151 C 
HETATM   44  O9  UNL     1      -8.043  46.471 -25.693  1.00  0.00    -0.354 OA
HETATM   45  C36 UNL     1      -7.705  46.261 -28.054  1.00  0.00     0.042 C 
BRANCH  41  46
HETATM   46  O1  UNL     1     -11.257  43.919 -25.582  1.00  0.00    -0.388 OA
HETATM   47  C1  UNL     1     -11.332  43.157 -24.379  1.00  0.00     0.202 C 
ENDBRANCH  41  46
BRANCH  42  48
HETATM   48  O10 UNL     1      -9.343  43.542 -27.319  1.00  0.00    -0.390 OA
HETATM   49  H48 UNL     1     -10.145  43.081 -26.983  1.00  0.00     0.210 HD
ENDBRANCH  42  48
ENDBRANCH  38  39
ENDBRANCH   1  38
TORSDOF 13
ENDMDL
MODEL 7
REMARK minimizedAffinity -7.94942093
REMARK CNNscore 0.371945441
REMARK CNNaffinity 7.18286324
REMARK  13 active torsions:
REMARK  status: ('A' for Active; 'I' for Inactive)
REMARK    1  A    between atoms: O1_2  and  C2_3 
REMARK    2  A    between atoms: C4_5  and  O2_6 
REMARK    3  A    between atoms: O2_6  and  C5_7 
REMARK    4  A    between atoms: C10_12  and  C11_13 
REMARK    5  A    between atoms: C11_13  and  C12_14 
REMARK    6  A    between atoms: C12_14  and  O3_15 
REMARK    7  A    between atoms: C12_14  and  C22_26 
REMARK    8  A    between atoms: O3_15  and  C13_16 
REMARK    9  A    between atoms: C13_16  and  C14_18 
REMARK   10  A    between atoms: C15_19  and  C16_20 
REMARK   11  A    between atoms: C27_32  and  C28_33 
REMARK   12  A    between atoms: C33_40  and  O8_41 
REMARK   13  A    between atoms: C37_46  and  O10_47 
ROOT
HETATM    1  C5  UNL     1      -3.927  50.933 -24.929  1.00  0.00     0.128 C 
HETATM    2  C6  UNL     1      -3.493  49.471 -24.972  1.00  0.00     0.033 C 
HETATM    3  C7  UNL     1      -4.405  48.578 -24.132  1.00  0.00     0.016 C 
HETATM    4  C8  UNL     1      -4.566  49.042 -22.644  1.00  0.00     0.002 C 
HETATM    5  C9  UNL     1      -3.209  48.787 -21.933  1.00  0.00     0.019 C 
HETATM    6  C10 UNL     1      -5.691  48.158 -21.967  1.00  0.00     0.073 C 
HETATM    7  C30 UNL     1      -7.044  48.478 -22.583  1.00  0.00     0.154 C 
HETATM    8  O7  UNL     1      -7.916  47.625 -22.729  1.00  0.00    -0.293 OA
HETATM    9  C31 UNL     1      -7.343  49.872 -22.976  1.00  0.00     0.049 C 
HETATM   10  C32 UNL     1      -6.391  50.812 -22.957  1.00  0.00     0.015 C 
HETATM   11  C33 UNL     1      -4.947  50.564 -22.598  1.00  0.00     0.086 C 
HETATM   12  C34 UNL     1      -4.021  51.418 -23.482  1.00  0.00     0.075 C 
ENDROOT
BRANCH   6  13
HETATM   13  C11 UNL     1      -5.779  48.261 -20.422  1.00  0.00     0.047 C 
BRANCH  13  14
HETATM   14  C12 UNL     1      -4.793  47.374 -19.611  1.00  0.00     0.149 C 
BRANCH  14  15
HETATM   15  O3  UNL     1      -4.414  48.146 -18.450  1.00  0.00    -0.311 OA
BRANCH  15  16
HETATM   16  C13 UNL     1      -3.369  49.004 -18.613  1.00  0.00     0.283 C 
HETATM   17  O4  UNL     1      -3.445  50.218 -18.652  1.00  0.00    -0.260 OA
BRANCH  16  18
HETATM   18  C14 UNL     1      -2.144  48.193 -18.781  1.00  0.00     0.083 C 
HETATM   19  C15 UNL     1      -0.894  48.670 -18.900  1.00  0.00     0.017 C 
BRANCH  19  20
HETATM   20  C16 UNL     1      -0.465  50.073 -18.846  1.00  0.00    -0.036 A 
HETATM   21  C17 UNL     1      -0.059  50.671 -17.645  1.00  0.00     0.011 A 
HETATM   22  C18 UNL     1       0.365  52.005 -17.623  1.00  0.00     0.001 A 
HETATM   23  C19 UNL     1       0.392  52.745 -18.805  1.00  0.00     0.000 A 
HETATM   24  C20 UNL     1       0.010  52.153 -20.009  1.00  0.00     0.001 A 
HETATM   25  C21 UNL     1      -0.413  50.818 -20.031  1.00  0.00     0.011 A 
ENDBRANCH  19  20
ENDBRANCH  16  18
ENDBRANCH  15  16
ENDBRANCH  14  15
BRANCH  14  26
HETATM   26  C22 UNL     1      -5.401  45.984 -19.183  1.00  0.00     0.054 C 
HETATM   27  C23 UNL     1      -5.507  45.827 -17.658  1.00  0.00     0.027 C 
HETATM   28  C24 UNL     1      -6.776  45.875 -19.834  1.00  0.00     0.138 C 
HETATM   29  O5  UNL     1      -7.793  46.396 -19.397  1.00  0.00    -0.297 OA
HETATM   30  C25 UNL     1      -6.779  45.040 -21.088  1.00  0.00     0.080 C 
HETATM   31  C26 UNL     1      -5.321  44.650 -21.255  1.00  0.00     0.021 C 
HETATM   32  C27 UNL     1      -4.689  44.774 -19.866  1.00  0.00     0.073 C 
BRANCH  32  33
HETATM   33  C28 UNL     1      -4.683  43.466 -19.062  1.00  0.00     0.128 C 
HETATM   34  C29 UNL     1      -3.441  43.055 -18.313  1.00  0.00     0.091 C 
HETATM   35  O6  UNL     1      -5.673  42.728 -19.076  1.00  0.00    -0.298 OA
ENDBRANCH  32  33
ENDBRANCH  14  26
ENDBRANCH  13  14
ENDBRANCH   6  13
BRANCH  11  36
HETATM   36  O8  UNL     1      -4.806  51.046 -21.260  1.00  0.00    -0.385 OA
HETATM   37  H40 UNL     1      -4.972  52.003 -21.249  1.00  0.00     0.211 HD
ENDBRANCH  11  36
BRANCH   1  38
HETATM   38  O2  UNL     1      -2.931  51.705 -25.604  1.00  0.00    -0.356 OA
BRANCH  38  39
HETATM   39  C4  UNL     1      -1.590  51.342 -25.268  1.00  0.00     0.263 C 
HETATM   40  C3  UNL     1      -0.784  51.343 -26.568  1.00  0.00     0.095 C 
HETATM   41  C2  UNL     1      -0.147  52.715 -26.767  1.00  0.00     0.156 C 
HETATM   42  C37 UNL     1       0.831  52.982 -25.601  1.00  0.00     0.175 C 
HETATM   43  C35 UNL     1       0.301  52.400 -24.275  1.00  0.00     0.151 C 
HETATM   44  O9  UNL     1      -1.123  52.287 -24.302  1.00  0.00    -0.354 OA
HETATM   45  C36 UNL     1       0.689  53.279 -23.091  1.00  0.00     0.042 C 
BRANCH  41  46
HETATM   46  O1  UNL     1       0.611  52.798 -27.988  1.00  0.00    -0.388 OA
HETATM   47  C1  UNL     1       0.636  51.571 -28.713  1.00  0.00     0.202 C 
ENDBRANCH  41  46
BRANCH  42  48
HETATM   48  O10 UNL     1       2.102  52.376 -25.885  1.00  0.00    -0.390 OA
HETATM   49  H48 UNL     1       2.193  52.429 -26.864  1.00  0.00     0.210 HD
ENDBRANCH  42  48
ENDBRANCH  38  39
ENDBRANCH   1  38
TORSDOF 13
ENDMDL
MODEL 8
REMARK minimizedAffinity -9.2956934
REMARK CNNscore 0.369891226
REMARK CNNaffinity 7.0455842
REMARK  13 active torsions:
REMARK  status: ('A' for Active; 'I' for Inactive)
REMARK    1  A    between atoms: O1_2  and  C2_3 
REMARK    2  A    between atoms: C4_5  and  O2_6 
REMARK    3  A    between atoms: O2_6  and  C5_7 
REMARK    4  A    between atoms: C10_12  and  C11_13 
REMARK    5  A    between atoms: C11_13  and  C12_14 
REMARK    6  A    between atoms: C12_14  and  O3_15 
REMARK    7  A    between atoms: C12_14  and  C22_26 
REMARK    8  A    between atoms: O3_15  and  C13_16 
REMARK    9  A    between atoms: C13_16  and  C14_18 
REMARK   10  A    between atoms: C15_19  and  C16_20 
REMARK   11  A    between atoms: C27_32  and  C28_33 
REMARK   12  A    between atoms: C33_40  and  O8_41 
REMARK   13  A    between atoms: C37_46  and  O10_47 
ROOT
HETATM    1  C5  UNL     1      -5.872  48.044 -25.121  1.00  0.00     0.128 C 
HETATM    2  C6  UNL     1      -4.598  48.506 -25.822  1.00  0.00     0.033 C 
HETATM    3  C7  UNL     1      -3.435  48.669 -24.844  1.00  0.00     0.016 C 
HETATM    4  C8  UNL     1      -3.744  49.607 -23.627  1.00  0.00     0.002 C 
HETATM    5  C9  UNL     1      -3.840  51.056 -24.175  1.00  0.00     0.019 C 
HETATM    6  C10 UNL     1      -2.538  49.507 -22.605  1.00  0.00     0.073 C 
HETATM    7  C30 UNL     1      -2.500  48.122 -21.980  1.00  0.00     0.154 C 
HETATM    8  O7  UNL     1      -1.446  47.570 -21.676  1.00  0.00    -0.293 OA
HETATM    9  C31 UNL     1      -3.774  47.432 -21.681  1.00  0.00     0.049 C 
HETATM   10  C32 UNL     1      -4.941  47.929 -22.106  1.00  0.00     0.015 C 
HETATM   11  C33 UNL     1      -5.091  49.172 -22.947  1.00  0.00     0.086 C 
HETATM   12  C34 UNL     1      -6.223  48.991 -23.974  1.00  0.00     0.075 C 
ENDROOT
BRANCH   6  13
HETATM   13  C11 UNL     1      -2.520  50.587 -21.492  1.00  0.00     0.047 C 
BRANCH  13  14
HETATM   14  C12 UNL     1      -1.127  50.958 -20.909  1.00  0.00     0.149 C 
BRANCH  14  15
HETATM   15  O3  UNL     1      -0.733  52.190 -21.553  1.00  0.00    -0.311 OA
BRANCH  15  16
HETATM   16  C13 UNL     1       0.568  52.271 -21.951  1.00  0.00     0.283 C 
HETATM   17  O4  UNL     1       1.438  51.456 -21.706  1.00  0.00    -0.260 OA
BRANCH  16  18
HETATM   18  C14 UNL     1       0.733  53.543 -22.687  1.00  0.00     0.083 C 
HETATM   19  C15 UNL     1       0.751  53.682 -24.023  1.00  0.00     0.017 C 
BRANCH  19  20
HETATM   20  C16 UNL     1       0.569  52.632 -25.033  1.00  0.00    -0.036 A 
HETATM   21  C17 UNL     1       1.589  52.296 -25.934  1.00  0.00     0.011 A 
HETATM   22  C18 UNL     1       1.398  51.277 -26.875  1.00  0.00     0.001 A 
HETATM   23  C19 UNL     1       0.188  50.585 -26.914  1.00  0.00     0.000 A 
HETATM   24  C20 UNL     1      -0.826  50.898 -26.008  1.00  0.00     0.001 A 
HETATM   25  C21 UNL     1      -0.634  51.917 -25.066  1.00  0.00     0.011 A 
ENDBRANCH  19  20
ENDBRANCH  16  18
ENDBRANCH  15  16
ENDBRANCH  14  15
BRANCH  14  26
HETATM   26  C22 UNL     1      -1.122  51.121 -19.341  1.00  0.00     0.054 C 
HETATM   27  C23 UNL     1      -0.577  52.484 -18.889  1.00  0.00     0.027 C 
HETATM   28  C24 UNL     1      -2.558  50.927 -18.865  1.00  0.00     0.138 C 
HETATM   29  O5  UNL     1      -3.422  51.792 -18.900  1.00  0.00    -0.297 OA
HETATM   30  C25 UNL     1      -2.826  49.547 -18.321  1.00  0.00     0.080 C 
HETATM   31  C26 UNL     1      -1.502  48.829 -18.516  1.00  0.00     0.021 C 
HETATM   32  C27 UNL     1      -0.436  49.924 -18.609  1.00  0.00     0.073 C 
BRANCH  32  33
HETATM   33  C28 UNL     1       0.234  50.261 -17.270  1.00  0.00     0.128 C 
HETATM   34  C29 UNL     1       0.808  51.636 -17.046  1.00  0.00     0.091 C 
HETATM   35  O6  UNL     1       0.352  49.390 -16.402  1.00  0.00    -0.298 OA
ENDBRANCH  32  33
ENDBRANCH  14  26
ENDBRANCH  13  14
ENDBRANCH   6  13
BRANCH  11  36
HETATM   36  O8  UNL     1      -5.511  50.191 -22.039  1.00  0.00    -0.385 OA
HETATM   37  H40 UNL     1      -6.379  49.953 -21.674  1.00  0.00     0.211 HD
ENDBRANCH  11  36
BRANCH   1  38
HETATM   38  O2  UNL     1      -6.934  48.076 -26.078  1.00  0.00    -0.356 OA
BRANCH  38  39
HETATM   39  C4  UNL     1      -6.737  47.202 -27.191  1.00  0.00     0.263 C 
HETATM   40  C3  UNL     1      -7.854  46.158 -27.147  1.00  0.00     0.095 C 
HETATM   41  C2  UNL     1      -9.029  46.639 -27.994  1.00  0.00     0.156 C 
HETATM   42  C37 UNL     1      -8.561  46.774 -29.461  1.00  0.00     0.175 C 
HETATM   43  C35 UNL     1      -7.104  47.271 -29.546  1.00  0.00     0.151 C 
HETATM   44  O9  UNL     1      -6.749  48.007 -28.373  1.00  0.00    -0.354 OA
HETATM   45  C36 UNL     1      -6.897  48.175 -30.757  1.00  0.00     0.042 C 
BRANCH  41  46
HETATM   46  O1  UNL     1     -10.132  45.716 -27.982  1.00  0.00    -0.388 OA
HETATM   47  C1  UNL     1     -10.798  45.661 -26.722  1.00  0.00     0.202 C 
ENDBRANCH  41  46
BRANCH  42  48
HETATM   48  O10 UNL     1      -8.642  45.498 -30.115  1.00  0.00    -0.390 OA
HETATM   49  H48 UNL     1      -9.408  45.047 -29.694  1.00  0.00     0.210 HD
ENDBRANCH  42  48
ENDBRANCH  38  39
ENDBRANCH   1  38
TORSDOF 13
ENDMDL
MODEL 9
REMARK minimizedAffinity -9.17873764
REMARK CNNscore 0.366626948
REMARK CNNaffinity 7.05527258
REMARK  13 active torsions:
REMARK  status: ('A' for Active; 'I' for Inactive)
REMARK    1  A    between atoms: O1_2  and  C2_3 
REMARK    2  A    between atoms: C4_5  and  O2_6 
REMARK    3  A    between atoms: O2_6  and  C5_7 
REMARK    4  A    between atoms: C10_12  and  C11_13 
REMARK    5  A    between atoms: C11_13  and  C12_14 
REMARK    6  A    between atoms: C12_14  and  O3_15 
REMARK    7  A    between atoms: C12_14  and  C22_26 
REMARK    8  A    between atoms: O3_15  and  C13_16 
REMARK    9  A    between atoms: C13_16  and  C14_18 
REMARK   10  A    between atoms: C15_19  and  C16_20 
REMARK   11  A    between atoms: C27_32  and  C28_33 
REMARK   12  A    between atoms: C33_40  and  O8_41 
REMARK   13  A    between atoms: C37_46  and  O10_47 
ROOT
HETATM    1  C5  UNL     1      -1.820  50.533 -16.543  1.00  0.00     0.128 C 
HETATM    2  C6  UNL     1      -1.010  49.285 -16.884  1.00  0.00     0.033 C 
HETATM    3  C7  UNL     1      -0.429  49.349 -18.296  1.00  0.00     0.016 C 
HETATM    4  C8  UNL     1      -1.491  49.619 -19.417  1.00  0.00     0.002 C 
HETATM    5  C9  UNL     1      -2.363  48.340 -19.542  1.00  0.00     0.019 C 
HETATM    6  C10 UNL     1      -0.722  49.869 -20.778  1.00  0.00     0.073 C 
HETATM    7  C30 UNL     1       0.051  51.176 -20.706  1.00  0.00     0.154 C 
HETATM    8  O7  UNL     1       1.132  51.329 -21.270  1.00  0.00    -0.293 OA
HETATM    9  C31 UNL     1      -0.536  52.319 -19.973  1.00  0.00     0.049 C 
HETATM   10  C32 UNL     1      -1.643  52.170 -19.238  1.00  0.00     0.015 C 
HETATM   11  C33 UNL     1      -2.368  50.862 -19.033  1.00  0.00     0.086 C 
HETATM   12  C34 UNL     1      -2.905  50.768 -17.594  1.00  0.00     0.075 C 
ENDROOT
BRANCH   6  13
HETATM   13  C11 UNL     1      -1.605  49.850 -22.053  1.00  0.00     0.047 C 
BRANCH  13  14
HETATM   14  C12 UNL     1      -2.833  50.804 -22.060  1.00  0.00     0.149 C 
BRANCH  14  15
HETATM   15  O3  UNL     1      -2.511  51.874 -22.975  1.00  0.00    -0.311 OA
BRANCH  15  16
HETATM   16  C13 UNL     1      -1.381  51.710 -23.719  1.00  0.00     0.283 C 
HETATM   17  O4  UNL     1      -1.088  50.715 -24.355  1.00  0.00    -0.260 OA
BRANCH  16  18
HETATM   18  C14 UNL     1      -0.565  52.934 -23.572  1.00  0.00     0.083 C 
HETATM   19  C15 UNL     1       0.325  53.399 -24.465  1.00  0.00     0.017 C 
BRANCH  19  20
HETATM   20  C16 UNL     1       0.649  52.833 -25.780  1.00  0.00    -0.036 A 
HETATM   21  C17 UNL     1      -0.090  53.164 -26.924  1.00  0.00     0.011 A 
HETATM   22  C18 UNL     1       0.251  52.626 -28.171  1.00  0.00     0.001 A 
HETATM   23  C19 UNL     1       1.339  51.760 -28.280  1.00  0.00     0.000 A 
HETATM   24  C20 UNL     1       2.094  51.441 -27.151  1.00  0.00     0.001 A 
HETATM   25  C21 UNL     1       1.752  51.979 -25.904  1.00  0.00     0.011 A 
ENDBRANCH  19  20
ENDBRANCH  16  18
ENDBRANCH  15  16
ENDBRANCH  14  15
BRANCH  14  26
HETATM   26  C22 UNL     1      -4.179  50.098 -22.478  1.00  0.00     0.054 C 
HETATM   27  C23 UNL     1      -5.308  50.323 -21.461  1.00  0.00     0.027 C 
HETATM   28  C24 UNL     1      -4.567  50.647 -23.847  1.00  0.00     0.138 C 
HETATM   29  O5  UNL     1      -5.132  51.717 -24.030  1.00  0.00    -0.297 OA
HETATM   30  C25 UNL     1      -4.199  49.732 -24.986  1.00  0.00     0.080 C 
HETATM   31  C26 UNL     1      -3.498  48.576 -24.294  1.00  0.00     0.021 C 
HETATM   32  C27 UNL     1      -3.987  48.592 -22.843  1.00  0.00     0.073 C 
BRANCH  32  33
HETATM   33  C28 UNL     1      -5.197  47.685 -22.580  1.00  0.00     0.128 C 
HETATM   34  C29 UNL     1      -6.337  47.654 -23.565  1.00  0.00     0.091 C 
HETATM   35  O6  UNL     1      -5.260  47.027 -21.537  1.00  0.00    -0.298 OA
ENDBRANCH  32  33
ENDBRANCH  14  26
ENDBRANCH  13  14
ENDBRANCH   6  13
BRANCH  11  36
HETATM   36  O8  UNL     1      -3.504  50.925 -19.898  1.00  0.00    -0.385 OA
HETATM   37  H40 UNL     1      -4.081  51.652 -19.612  1.00  0.00     0.211 HD
ENDBRANCH  11  36
BRANCH   1  38
HETATM   38  O2  UNL     1      -2.451  50.313 -15.279  1.00  0.00    -0.356 OA
BRANCH  38  39
HETATM   39  C4  UNL     1      -1.623  50.625 -14.157  1.00  0.00     0.263 C 
HETATM   40  C3  UNL     1      -2.366  51.674 -13.327  1.00  0.00     0.095 C 
HETATM   41  C2  UNL     1      -3.201  50.974 -12.258  1.00  0.00     0.156 C 
HETATM   42  C37 UNL     1      -2.251  50.203 -11.312  1.00  0.00     0.175 C 
HETATM   43  C35 UNL     1      -1.053  49.607 -12.078  1.00  0.00     0.151 C 
HETATM   44  O9  UNL     1      -1.380  49.404 -13.454  1.00  0.00    -0.354 OA
HETATM   45  C36 UNL     1      -0.630  48.267 -11.484  1.00  0.00     0.042 C 
BRANCH  41  46
HETATM   46  O1  UNL     1      -3.949  51.900 -11.450  1.00  0.00    -0.388 OA
HETATM   47  C1  UNL     1      -3.967  53.220 -11.987  1.00  0.00     0.202 C 
ENDBRANCH  41  46
BRANCH  42  48
HETATM   48  O10 UNL     1      -1.746  51.092 -10.303  1.00  0.00    -0.390 OA
HETATM   49  H48 UNL     1      -2.474  51.735 -10.146  1.00  0.00     0.210 HD
ENDBRANCH  42  48
ENDBRANCH  38  39
ENDBRANCH   1  38
TORSDOF 13
ENDMDL
