MODEL 1
REMARK minimizedAffinity -8.18511391
REMARK CNNscore 0.624970198
REMARK CNNaffinity 6.89309692
REMARK  7 active torsions:
REMARK  status: ('A' for Active; 'I' for Inactive)
REMARK    1  A    between atoms: C2_2  and  C30_32 
REMARK    2  A    between atoms: C3_3  and  C4_4 
REMARK    3  A    between atoms: C4_4  and  O1_5 
REMARK    4  A    between atoms: C4_4  and  C5_6 
REMARK    5  A    between atoms: C5_6  and  C6_7 
REMARK    6  A    between atoms: C6_7  and  C8_9 
REMARK    7  A    between atoms: C30_32  and  O4_34 
ROOT
HETATM    1  C8  UNL     1      -2.177   9.196  15.531  1.00  0.00    -0.002 C 
HETATM    2  C9  UNL     1      -1.215   8.522  16.563  1.00  0.00     0.007 C 
HETATM    3  C10 UNL     1      -0.066   7.866  15.769  1.00  0.00     0.015 C 
HETATM    4  C11 UNL     1      -0.198   8.457  14.356  1.00  0.00    -0.013 C 
HETATM    5  C12 UNL     1       0.482   9.872  14.414  1.00  0.00     0.021 C 
HETATM    6  C13 UNL     1       0.480   7.732  13.190  1.00  0.00    -0.070 C 
HETATM    7  C14 UNL     1       1.738   7.267  13.311  1.00  0.00    -0.022 C 
HETATM    8  C15 UNL     1       2.610   6.927  12.142  1.00  0.00     0.034 C 
HETATM    9  C16 UNL     1       2.135   7.666  10.871  1.00  0.00     0.013 C 
HETATM   10  C17 UNL     1       3.149   7.568   9.674  1.00  0.00     0.018 C 
HETATM   11  C18 UNL     1       4.407   8.411  10.013  1.00  0.00     0.023 C 
HETATM   12  C19 UNL     1       3.642   6.154   9.328  1.00  0.00     0.023 C 
HETATM   13  C20 UNL     1       2.506   8.168   8.414  1.00  0.00     0.135 C 
HETATM   14  O2  UNL     1       3.117   8.911   7.646  1.00  0.00    -0.297 OA
HETATM   15  C21 UNL     1       1.090   7.757   8.096  1.00  0.00     0.080 C 
HETATM   16  C22 UNL     1       0.192   8.047   9.287  1.00  0.00     0.017 C 
HETATM   17  C23 UNL     1       0.630   7.324  10.584  1.00  0.00    -0.031 C 
HETATM   18  C24 UNL     1       0.397   5.798  10.389  1.00  0.00     0.016 C 
HETATM   19  C25 UNL     1      -0.263   7.743  11.842  1.00  0.00     0.024 C 
HETATM   20  C26 UNL     1      -1.105   9.031  11.710  1.00  0.00     0.010 C 
HETATM   21  C27 UNL     1      -2.089   9.276  12.888  1.00  0.00     0.011 C 
HETATM   22  C28 UNL     1      -1.759   8.505  14.190  1.00  0.00    -0.029 C 
HETATM   23  C29 UNL     1      -2.434   7.095  14.160  1.00  0.00     0.016 C 
ENDROOT
BRANCH   1  24
HETATM   24  C6  UNL     1      -3.664   9.166  16.007  1.00  0.00    -0.011 C 
HETATM   25  C7  UNL     1      -4.609   8.652  14.917  1.00  0.00     0.010 C 
BRANCH  24  26
HETATM   26  C5  UNL     1      -4.095  10.593  16.463  1.00  0.00     0.040 C 
BRANCH  26  27
HETATM   27  C4  UNL     1      -3.095  11.322  17.379  1.00  0.00     0.142 C 
BRANCH  27  28
HETATM   28  C3  UNL     1      -3.734  11.720  18.686  1.00  0.00     0.018 C 
HETATM   29  C2  UNL     1      -4.424  12.849  18.951  1.00  0.00     0.010 C 
HETATM   30  C1  UNL     1      -5.087  13.114  20.267  1.00  0.00     0.055 C 
BRANCH  29  31
HETATM   31  C30 UNL     1      -4.602  13.922  17.951  1.00  0.00     0.171 C 
HETATM   32  O3  UNL     1      -3.892  14.902  17.834  1.00  0.00    -0.646 OA
BRANCH  31  33
HETATM   33  O4  UNL     1      -5.609  13.656  17.100  1.00  0.00    -0.773 OA
HETATM   34  H46 UNL     1      -5.646  14.450  16.530  1.00  0.00     0.167 HD
ENDBRANCH  31  33
ENDBRANCH  29  31
ENDBRANCH  27  28
BRANCH  27  35
HETATM   35  O1  UNL     1      -2.625  12.485  16.706  1.00  0.00    -0.392 OA
HETATM   36  H6  UNL     1      -3.372  13.101  16.630  1.00  0.00     0.210 HD
ENDBRANCH  27  35
ENDBRANCH  26  27
ENDBRANCH  24  26
ENDBRANCH   1  24
TORSDOF 7
ENDMDL
MODEL 2
REMARK minimizedAffinity -7.21663284
REMARK CNNscore 0.468123913
REMARK CNNaffinity 6.67731237
REMARK  7 active torsions:
REMARK  status: ('A' for Active; 'I' for Inactive)
REMARK    1  A    between atoms: C2_2  and  C30_32 
REMARK    2  A    between atoms: C3_3  and  C4_4 
REMARK    3  A    between atoms: C4_4  and  O1_5 
REMARK    4  A    between atoms: C4_4  and  C5_6 
REMARK    5  A    between atoms: C5_6  and  C6_7 
REMARK    6  A    between atoms: C6_7  and  C8_9 
REMARK    7  A    between atoms: C30_32  and  O4_34 
ROOT
HETATM    1  C8  UNL     1      -9.930  -7.353  -4.303  1.00  0.00    -0.002 C 
HETATM    2  C9  UNL     1     -11.285  -7.572  -3.556  1.00  0.00     0.007 C 
HETATM    3  C10 UNL     1     -10.990  -8.403  -2.290  1.00  0.00     0.015 C 
HETATM    4  C11 UNL     1      -9.459  -8.351  -2.152  1.00  0.00    -0.013 C 
HETATM    5  C12 UNL     1      -9.132  -6.972  -1.476  1.00  0.00     0.021 C 
HETATM    6  C13 UNL     1      -8.764  -9.402  -1.282  1.00  0.00    -0.070 C 
HETATM    7  C14 UNL     1      -9.260  -9.728  -0.074  1.00  0.00    -0.022 C 
HETATM    8  C15 UNL     1      -8.459 -10.409   0.993  1.00  0.00     0.034 C 
HETATM    9  C16 UNL     1      -6.947 -10.187   0.769  1.00  0.00     0.013 C 
HETATM   10  C17 UNL     1      -6.059 -10.643   1.983  1.00  0.00     0.018 C 
HETATM   11  C18 UNL     1      -6.294  -9.670   3.169  1.00  0.00     0.023 C 
HETATM   12  C19 UNL     1      -6.328 -12.061   2.512  1.00  0.00     0.023 C 
HETATM   13  C20 UNL     1      -4.577 -10.556   1.589  1.00  0.00     0.135 C 
HETATM   14  O2  UNL     1      -3.716 -10.097   2.341  1.00  0.00    -0.297 OA
HETATM   15  C21 UNL     1      -4.181 -11.127   0.251  1.00  0.00     0.080 C 
HETATM   16  C22 UNL     1      -5.015 -10.485  -0.846  1.00  0.00     0.017 C 
HETATM   17  C23 UNL     1      -6.539 -10.686  -0.662  1.00  0.00    -0.031 C 
HETATM   18  C24 UNL     1      -6.858 -12.194  -0.876  1.00  0.00     0.016 C 
HETATM   19  C25 UNL     1      -7.390  -9.901  -1.766  1.00  0.00     0.024 C 
HETATM   20  C26 UNL     1      -6.665  -8.787  -2.552  1.00  0.00     0.010 C 
HETATM   21  C27 UNL     1      -7.489  -8.198  -3.732  1.00  0.00     0.011 C 
HETATM   22  C28 UNL     1      -9.015  -8.447  -3.656  1.00  0.00    -0.029 C 
HETATM   23  C29 UNL     1      -9.367  -9.812  -4.332  1.00  0.00     0.016 C 
ENDROOT
BRANCH   1  24
HETATM   24  C6  UNL     1     -10.117  -7.293  -5.852  1.00  0.00    -0.011 C 
HETATM   25  C7  UNL     1      -9.517  -8.516  -6.554  1.00  0.00     0.010 C 
BRANCH  24  26
HETATM   26  C5  UNL     1      -9.472  -5.987  -6.406  1.00  0.00     0.040 C 
BRANCH  26  27
HETATM   27  C4  UNL     1      -9.801  -4.705  -5.618  1.00  0.00     0.142 C 
BRANCH  27  28
HETATM   28  C3  UNL     1      -9.982  -3.524  -6.539  1.00  0.00     0.018 C 
HETATM   29  C2  UNL     1     -10.814  -2.474  -6.372  1.00  0.00     0.010 C 
HETATM   30  C1  UNL     1     -10.863  -1.310  -7.312  1.00  0.00     0.055 C 
BRANCH  29  31
HETATM   31  C30 UNL     1     -11.742  -2.374  -5.227  1.00  0.00     0.171 C 
HETATM   32  O3  UNL     1     -12.954  -2.449  -5.293  1.00  0.00    -0.646 OA
BRANCH  31  33
HETATM   33  O4  UNL     1     -11.089  -2.272  -4.056  1.00  0.00    -0.773 OA
HETATM   34  H46 UNL     1     -11.806  -2.171  -3.399  1.00  0.00     0.167 HD
ENDBRANCH  31  33
ENDBRANCH  29  31
ENDBRANCH  27  28
BRANCH  27  35
HETATM   35  O1  UNL     1      -8.736  -4.441  -4.711  1.00  0.00    -0.392 OA
HETATM   36  H6  UNL     1      -7.955  -4.204  -5.238  1.00  0.00     0.210 HD
ENDBRANCH  27  35
ENDBRANCH  26  27
ENDBRANCH  24  26
ENDBRANCH   1  24
TORSDOF 7
ENDMDL
MODEL 3
REMARK minimizedAffinity -7.45816565
REMARK CNNscore 0.412559003
REMARK CNNaffinity 6.70393038
REMARK  7 active torsions:
REMARK  status: ('A' for Active; 'I' for Inactive)
REMARK    1  A    between atoms: C2_2  and  C30_32 
REMARK    2  A    between atoms: C3_3  and  C4_4 
REMARK    3  A    between atoms: C4_4  and  O1_5 
REMARK    4  A    between atoms: C4_4  and  C5_6 
REMARK    5  A    between atoms: C5_6  and  C6_7 
REMARK    6  A    between atoms: C6_7  and  C8_9 
REMARK    7  A    between atoms: C30_32  and  O4_34 
ROOT
HETATM    1  C8  UNL     1      -1.526   9.616  15.025  1.00  0.00    -0.002 C 
HETATM    2  C9  UNL     1      -0.695   8.520  14.282  1.00  0.00     0.007 C 
HETATM    3  C10 UNL     1      -1.666   7.388  13.885  1.00  0.00     0.015 C 
HETATM    4  C11 UNL     1      -3.062   7.998  14.093  1.00  0.00    -0.013 C 
HETATM    5  C12 UNL     1      -3.350   8.864  12.815  1.00  0.00     0.021 C 
HETATM    6  C13 UNL     1      -4.262   7.057  14.221  1.00  0.00    -0.070 C 
HETATM    7  C14 UNL     1      -4.407   6.012  13.384  1.00  0.00    -0.022 C 
HETATM    8  C15 UNL     1      -5.707   5.302  13.163  1.00  0.00     0.034 C 
HETATM    9  C16 UNL     1      -6.898   6.210  13.540  1.00  0.00     0.013 C 
HETATM   10  C17 UNL     1      -8.290   5.638  13.089  1.00  0.00     0.018 C 
HETATM   11  C18 UNL     1      -8.384   5.710  11.541  1.00  0.00     0.023 C 
HETATM   12  C19 UNL     1      -8.573   4.179  13.483  1.00  0.00     0.023 C 
HETATM   13  C20 UNL     1      -9.411   6.513  13.670  1.00  0.00     0.135 C 
HETATM   14  O2  UNL     1     -10.393   6.858  13.012  1.00  0.00    -0.297 OA
HETATM   15  C21 UNL     1      -9.311   6.891  15.126  1.00  0.00     0.080 C 
HETATM   16  C22 UNL     1      -7.976   7.570  15.388  1.00  0.00     0.017 C 
HETATM   17  C23 UNL     1      -6.753   6.693  15.026  1.00  0.00    -0.031 C 
HETATM   18  C24 UNL     1      -6.695   5.506  16.031  1.00  0.00     0.016 C 
HETATM   19  C25 UNL     1      -5.371   7.479  15.201  1.00  0.00     0.024 C 
HETATM   20  C26 UNL     1      -5.444   9.019  15.291  1.00  0.00     0.010 C 
HETATM   21  C27 UNL     1      -4.095   9.704  15.649  1.00  0.00     0.011 C 
HETATM   22  C28 UNL     1      -2.835   8.841  15.398  1.00  0.00    -0.029 C 
HETATM   23  C29 UNL     1      -2.521   7.975  16.662  1.00  0.00     0.016 C 
ENDROOT
BRANCH   1  24
HETATM   24  C6  UNL     1      -0.691  10.339  16.128  1.00  0.00    -0.011 C 
HETATM   25  C7  UNL     1      -1.378  10.288  17.497  1.00  0.00     0.010 C 
BRANCH  24  26
HETATM   26  C5  UNL     1      -0.439  11.818  15.709  1.00  0.00     0.040 C 
BRANCH  26  27
HETATM   27  C4  UNL     1      -1.595  12.493  14.947  1.00  0.00     0.142 C 
BRANCH  27  28
HETATM   28  C3  UNL     1      -1.085  13.527  13.975  1.00  0.00     0.018 C 
HETATM   29  C2  UNL     1      -1.621  14.736  13.707  1.00  0.00     0.010 C 
HETATM   30  C1  UNL     1      -0.991  15.724  12.776  1.00  0.00     0.055 C 
BRANCH  29  31
HETATM   31  C30 UNL     1      -2.877  15.200  14.332  1.00  0.00     0.171 C 
HETATM   32  O3  UNL     1      -2.955  15.915  15.313  1.00  0.00    -0.646 OA
BRANCH  31  33
HETATM   33  O4  UNL     1      -3.960  14.813  13.636  1.00  0.00    -0.773 OA
HETATM   34  H46 UNL     1      -4.710  15.142  14.170  1.00  0.00     0.167 HD
ENDBRANCH  31  33
ENDBRANCH  29  31
ENDBRANCH  27  28
BRANCH  27  35
HETATM   35  O1  UNL     1      -2.462  13.113  15.890  1.00  0.00    -0.392 OA
HETATM   36  H6  UNL     1      -1.976  13.853  16.291  1.00  0.00     0.210 HD
ENDBRANCH  27  35
ENDBRANCH  26  27
ENDBRANCH  24  26
ENDBRANCH   1  24
TORSDOF 7
ENDMDL
MODEL 4
REMARK minimizedAffinity -9.18960857
REMARK CNNscore 0.390300721
REMARK CNNaffinity 6.93426657
REMARK  7 active torsions:
REMARK  status: ('A' for Active; 'I' for Inactive)
REMARK    1  A    between atoms: C2_2  and  C30_32 
REMARK    2  A    between atoms: C3_3  and  C4_4 
REMARK    3  A    between atoms: C4_4  and  O1_5 
REMARK    4  A    between atoms: C4_4  and  C5_6 
REMARK    5  A    between atoms: C5_6  and  C6_7 
REMARK    6  A    between atoms: C6_7  and  C8_9 
REMARK    7  A    between atoms: C30_32  and  O4_34 
ROOT
HETATM    1  C8  UNL     1       0.735   7.748  13.073  1.00  0.00    -0.002 C 
HETATM    2  C9  UNL     1       0.398   8.671  11.857  1.00  0.00     0.007 C 
HETATM    3  C10 UNL     1      -1.138   8.748  11.742  1.00  0.00     0.015 C 
HETATM    4  C11 UNL     1      -1.646   8.165  13.071  1.00  0.00    -0.013 C 
HETATM    5  C12 UNL     1      -1.541   9.327  14.122  1.00  0.00     0.021 C 
HETATM    6  C13 UNL     1      -3.095   7.677  13.153  1.00  0.00    -0.070 C 
HETATM    7  C14 UNL     1      -4.096   8.413  12.635  1.00  0.00    -0.022 C 
HETATM    8  C15 UNL     1      -5.534   8.238  13.014  1.00  0.00     0.034 C 
HETATM    9  C16 UNL     1      -5.658   7.558  14.396  1.00  0.00     0.013 C 
HETATM   10  C17 UNL     1      -7.118   7.580  14.977  1.00  0.00     0.018 C 
HETATM   11  C18 UNL     1      -7.480   9.037  15.368  1.00  0.00     0.023 C 
HETATM   12  C19 UNL     1      -8.222   7.087  14.028  1.00  0.00     0.023 C 
HETATM   13  C20 UNL     1      -7.169   6.724  16.251  1.00  0.00     0.135 C 
HETATM   14  O2  UNL     1      -7.764   7.082  17.268  1.00  0.00    -0.297 OA
HETATM   15  C21 UNL     1      -6.516   5.366  16.201  1.00  0.00     0.080 C 
HETATM   16  C22 UNL     1      -5.065   5.512  15.770  1.00  0.00     0.017 C 
HETATM   17  C23 UNL     1      -4.894   6.187  14.387  1.00  0.00    -0.031 C 
HETATM   18  C24 UNL     1      -5.440   5.213  13.303  1.00  0.00     0.016 C 
HETATM   19  C25 UNL     1      -3.358   6.432  14.019  1.00  0.00     0.024 C 
HETATM   20  C26 UNL     1      -2.337   6.361  15.175  1.00  0.00     0.010 C 
HETATM   21  C27 UNL     1      -0.851   6.419  14.721  1.00  0.00     0.011 C 
HETATM   22  C28 UNL     1      -0.620   6.998  13.304  1.00  0.00    -0.029 C 
HETATM   23  C29 UNL     1      -0.711   5.857  12.240  1.00  0.00     0.016 C 
ENDROOT
BRANCH   1  24
HETATM   24  C6  UNL     1       2.056   6.946  12.853  1.00  0.00    -0.011 C 
HETATM   25  C7  UNL     1       3.294   7.848  12.893  1.00  0.00     0.010 C 
BRANCH  24  26
HETATM   26  C5  UNL     1       1.988   6.189  11.493  1.00  0.00     0.040 C 
BRANCH  26  27
HETATM   27  C4  UNL     1       3.030   6.623  10.445  1.00  0.00     0.142 C 
BRANCH  27  28
HETATM   28  C3  UNL     1       2.638   6.173   9.059  1.00  0.00     0.018 C 
HETATM   29  C2  UNL     1       2.387   6.949   7.985  1.00  0.00     0.010 C 
HETATM   30  C1  UNL     1       2.078   6.397   6.628  1.00  0.00     0.055 C 
BRANCH  29  31
HETATM   31  C30 UNL     1       2.413   8.426   8.052  1.00  0.00     0.171 C 
HETATM   32  O3  UNL     1       3.323   9.133   7.663  1.00  0.00    -0.646 OA
BRANCH  31  33
HETATM   33  O4  UNL     1       1.259   8.930   8.523  1.00  0.00    -0.773 OA
HETATM   34  H46 UNL     1       1.424   9.894   8.556  1.00  0.00     0.167 HD
ENDBRANCH  31  33
ENDBRANCH  29  31
ENDBRANCH  27  28
BRANCH  27  35
HETATM   35  O1  UNL     1       4.288   6.056  10.791  1.00  0.00    -0.392 OA
HETATM   36  H6  UNL     1       4.219   5.094  10.674  1.00  0.00     0.210 HD
ENDBRANCH  27  35
ENDBRANCH  26  27
ENDBRANCH  24  26
ENDBRANCH   1  24
TORSDOF 7
ENDMDL
MODEL 5
REMARK minimizedAffinity -8.16128159
REMARK CNNscore 0.377910942
REMARK CNNaffinity 7.14595366
REMARK  7 active torsions:
REMARK  status: ('A' for Active; 'I' for Inactive)
REMARK    1  A    between atoms: C2_2  and  C30_32 
REMARK    2  A    between atoms: C3_3  and  C4_4 
REMARK    3  A    between atoms: C4_4  and  O1_5 
REMARK    4  A    between atoms: C4_4  and  C5_6 
REMARK    5  A    between atoms: C5_6  and  C6_7 
REMARK    6  A    between atoms: C6_7  and  C8_9 
REMARK    7  A    between atoms: C30_32  and  O4_34 
ROOT
HETATM    1  C8  UNL     1      -5.370   6.485  14.930  1.00  0.00    -0.002 C 
HETATM    2  C9  UNL     1      -4.952   7.913  15.411  1.00  0.00     0.007 C 
HETATM    3  C10 UNL     1      -6.233   8.769  15.494  1.00  0.00     0.015 C 
HETATM    4  C11 UNL     1      -7.378   7.748  15.398  1.00  0.00    -0.013 C 
HETATM    5  C12 UNL     1      -7.538   7.141  16.838  1.00  0.00     0.021 C 
HETATM    6  C13 UNL     1      -8.773   8.243  15.011  1.00  0.00    -0.070 C 
HETATM    7  C14 UNL     1      -9.283   9.359  15.567  1.00  0.00    -0.022 C 
HETATM    8  C15 UNL     1     -10.744   9.688  15.572  1.00  0.00     0.034 C 
HETATM    9  C16 UNL     1     -11.594   8.410  15.390  1.00  0.00     0.013 C 
HETATM   10  C17 UNL     1     -13.127   8.636  15.648  1.00  0.00     0.018 C 
HETATM   11  C18 UNL     1     -13.349   8.885  17.164  1.00  0.00     0.023 C 
HETATM   12  C19 UNL     1     -13.763   9.822  14.905  1.00  0.00     0.023 C 
HETATM   13  C20 UNL     1     -13.899   7.365  15.262  1.00  0.00     0.135 C 
HETATM   14  O2  UNL     1     -14.807   6.903  15.954  1.00  0.00    -0.297 OA
HETATM   15  C21 UNL     1     -13.556   6.719  13.943  1.00  0.00     0.080 C 
HETATM   16  C22 UNL     1     -12.066   6.419  13.893  1.00  0.00     0.017 C 
HETATM   17  C23 UNL     1     -11.175   7.674  14.069  1.00  0.00    -0.031 C 
HETATM   18  C24 UNL     1     -11.350   8.572  12.810  1.00  0.00     0.016 C 
HETATM   19  C25 UNL     1      -9.620   7.307  14.129  1.00  0.00     0.024 C 
HETATM   20  C26 UNL     1      -9.254   5.834  14.412  1.00  0.00     0.010 C 
HETATM   21  C27 UNL     1      -7.740   5.512  14.269  1.00  0.00     0.011 C 
HETATM   22  C28 UNL     1      -6.799   6.740  14.342  1.00  0.00    -0.029 C 
HETATM   23  C29 UNL     1      -6.615   7.356  12.917  1.00  0.00     0.016 C 
ENDROOT
BRANCH   1  24
HETATM   24  C6  UNL     1      -4.263   5.811  14.059  1.00  0.00    -0.011 C 
HETATM   25  C7  UNL     1      -3.528   6.824  13.174  1.00  0.00     0.010 C 
BRANCH  24  26
HETATM   26  C5  UNL     1      -4.899   4.693  13.180  1.00  0.00     0.040 C 
BRANCH  26  27
HETATM   27  C4  UNL     1      -3.912   3.909  12.295  1.00  0.00     0.142 C 
BRANCH  27  28
HETATM   28  C3  UNL     1      -2.665   4.710  12.017  1.00  0.00     0.018 C 
HETATM   29  C2  UNL     1      -1.492   4.258  11.526  1.00  0.00     0.010 C 
HETATM   30  C1  UNL     1      -0.335   5.155  11.213  1.00  0.00     0.055 C 
BRANCH  29  31
HETATM   31  C30 UNL     1      -1.254   2.829  11.236  1.00  0.00     0.171 C 
HETATM   32  O3  UNL     1      -0.457   2.115  11.816  1.00  0.00    -0.646 OA
BRANCH  31  33
HETATM   33  O4  UNL     1      -2.090   2.359  10.295  1.00  0.00    -0.773 OA
HETATM   34  H46 UNL     1      -1.801   1.433  10.170  1.00  0.00     0.167 HD
ENDBRANCH  31  33
ENDBRANCH  29  31
ENDBRANCH  27  28
BRANCH  27  35
HETATM   35  O1  UNL     1      -4.555   3.587  11.068  1.00  0.00    -0.392 OA
HETATM   36  H6  UNL     1      -4.698   4.419  10.585  1.00  0.00     0.210 HD
ENDBRANCH  27  35
ENDBRANCH  26  27
ENDBRANCH  24  26
ENDBRANCH   1  24
TORSDOF 7
ENDMDL
MODEL 6
REMARK minimizedAffinity -8.03148937
REMARK CNNscore 0.374071568
REMARK CNNaffinity 5.83431387
REMARK  7 active torsions:
REMARK  status: ('A' for Active; 'I' for Inactive)
REMARK    1  A    between atoms: C2_2  and  C30_32 
REMARK    2  A    between atoms: C3_3  and  C4_4 
REMARK    3  A    between atoms: C4_4  and  O1_5 
REMARK    4  A    between atoms: C4_4  and  C5_6 
REMARK    5  A    between atoms: C5_6  and  C6_7 
REMARK    6  A    between atoms: C6_7  and  C8_9 
REMARK    7  A    between atoms: C30_32  and  O4_34 
ROOT
HETATM    1  C8  UNL     1       7.327  10.415  14.835  1.00  0.00    -0.002 C 
HETATM    2  C9  UNL     1       8.457   9.595  14.132  1.00  0.00     0.007 C 
HETATM    3  C10 UNL     1       7.795   8.730  13.039  1.00  0.00     0.015 C 
HETATM    4  C11 UNL     1       6.379   9.313  12.903  1.00  0.00    -0.013 C 
HETATM    5  C12 UNL     1       6.520  10.583  11.990  1.00  0.00     0.021 C 
HETATM    6  C13 UNL     1       5.294   8.459  12.242  1.00  0.00    -0.070 C 
HETATM    7  C14 UNL     1       5.553   7.778  11.110  1.00  0.00    -0.022 C 
HETATM    8  C15 UNL     1       4.488   7.267  10.189  1.00  0.00     0.034 C 
HETATM    9  C16 UNL     1       3.175   8.060  10.377  1.00  0.00     0.013 C 
HETATM   10  C17 UNL     1       2.099   7.763   9.271  1.00  0.00     0.018 C 
HETATM   11  C18 UNL     1       2.582   8.370   7.926  1.00  0.00     0.023 C 
HETATM   12  C19 UNL     1       1.804   6.277   9.006  1.00  0.00     0.023 C 
HETATM   13  C20 UNL     1       0.778   8.448   9.650  1.00  0.00     0.135 C 
HETATM   14  O2  UNL     1       0.088   9.057   8.832  1.00  0.00    -0.297 OA
HETATM   15  C21 UNL     1       0.300   8.294  11.072  1.00  0.00     0.080 C 
HETATM   16  C22 UNL     1       1.384   8.760  12.030  1.00  0.00     0.017 C 
HETATM   17  C23 UNL     1       2.719   7.990  11.877  1.00  0.00    -0.031 C 
HETATM   18  C24 UNL     1       2.492   6.528  12.359  1.00  0.00     0.016 C 
HETATM   19  C25 UNL     1       3.870   8.583  12.815  1.00  0.00     0.024 C 
HETATM   20  C26 UNL     1       3.650   9.999  13.391  1.00  0.00     0.010 C 
HETATM   21  C27 UNL     1       4.711  10.436  14.439  1.00  0.00     0.011 C 
HETATM   22  C28 UNL     1       6.038   9.638  14.401  1.00  0.00    -0.029 C 
HETATM   23  C29 UNL     1       5.925   8.372  15.312  1.00  0.00     0.016 C 
ENDROOT
BRANCH   1  24
HETATM   24  C6  UNL     1       7.633  10.661  16.346  1.00  0.00    -0.011 C 
HETATM   25  C7  UNL     1       7.879  12.142  16.652  1.00  0.00     0.010 C 
BRANCH  24  26
HETATM   26  C5  UNL     1       8.867   9.812  16.775  1.00  0.00     0.040 C 
BRANCH  26  27
HETATM   27  C4  UNL     1       9.904  10.549  17.643  1.00  0.00     0.142 C 
BRANCH  27  28
HETATM   28  C3  UNL     1       9.288  11.064  18.920  1.00  0.00     0.018 C 
HETATM   29  C2  UNL     1       9.928  11.586  19.986  1.00  0.00     0.010 C 
HETATM   30  C1  UNL     1       9.214  12.141  21.180  1.00  0.00     0.055 C 
BRANCH  29  31
HETATM   31  C30 UNL     1      11.401  11.674  20.061  1.00  0.00     0.171 C 
HETATM   32  O3  UNL     1      12.039  12.699  20.213  1.00  0.00    -0.646 OA
BRANCH  31  33
HETATM   33  O4  UNL     1      11.981  10.462  20.028  1.00  0.00    -0.773 OA
HETATM   34  H46 UNL     1      12.939  10.663  20.039  1.00  0.00     0.167 HD
ENDBRANCH  31  33
ENDBRANCH  29  31
ENDBRANCH  27  28
BRANCH  27  35
HETATM   35  O1  UNL     1      10.431  11.639  16.896  1.00  0.00    -0.392 OA
HETATM   36  H6  UNL     1       9.716  12.287  16.778  1.00  0.00     0.210 HD
ENDBRANCH  27  35
ENDBRANCH  26  27
ENDBRANCH  24  26
ENDBRANCH   1  24
TORSDOF 7
ENDMDL
MODEL 7
REMARK minimizedAffinity -7.83107185
REMARK CNNscore 0.342511177
REMARK CNNaffinity 6.87010622
REMARK  7 active torsions:
REMARK  status: ('A' for Active; 'I' for Inactive)
REMARK    1  A    between atoms: C2_2  and  C30_32 
REMARK    2  A    between atoms: C3_3  and  C4_4 
REMARK    3  A    between atoms: C4_4  and  O1_5 
REMARK    4  A    between atoms: C4_4  and  C5_6 
REMARK    5  A    between atoms: C5_6  and  C6_7 
REMARK    6  A    between atoms: C6_7  and  C8_9 
REMARK    7  A    between atoms: C30_32  and  O4_34 
ROOT
HETATM    1  C8  UNL     1      -5.554   5.697  13.719  1.00  0.00    -0.002 C 
HETATM    2  C9  UNL     1      -6.377   4.384  13.513  1.00  0.00     0.007 C 
HETATM    3  C10 UNL     1      -7.847   4.695  13.863  1.00  0.00     0.015 C 
HETATM    4  C11 UNL     1      -7.903   6.230  13.927  1.00  0.00    -0.013 C 
HETATM    5  C12 UNL     1      -8.022   6.721  12.440  1.00  0.00     0.021 C 
HETATM    6  C13 UNL     1      -9.070   6.892  14.664  1.00  0.00    -0.070 C 
HETATM    7  C14 UNL     1     -10.331   6.456  14.483  1.00  0.00    -0.022 C 
HETATM    8  C15 UNL     1     -11.544   7.268  14.819  1.00  0.00     0.034 C 
HETATM    9  C16 UNL     1     -11.203   8.774  14.852  1.00  0.00     0.013 C 
HETATM   10  C17 UNL     1     -12.469   9.702  14.935  1.00  0.00     0.018 C 
HETATM   11  C18 UNL     1     -13.229   9.634  13.584  1.00  0.00     0.023 C 
HETATM   12  C19 UNL     1     -13.484   9.350  16.034  1.00  0.00     0.023 C 
HETATM   13  C20 UNL     1     -12.020  11.155  15.151  1.00  0.00     0.135 C 
HETATM   14  O2  UNL     1     -12.524  12.102  14.547  1.00  0.00    -0.297 OA
HETATM   15  C21 UNL     1     -10.966  11.406  16.200  1.00  0.00     0.080 C 
HETATM   16  C22 UNL     1      -9.741  10.555  15.909  1.00  0.00     0.017 C 
HETATM   17  C23 UNL     1     -10.036   9.036  15.869  1.00  0.00    -0.031 C 
HETATM   18  C24 UNL     1     -10.395   8.575  17.312  1.00  0.00     0.016 C 
HETATM   19  C25 UNL     1      -8.754   8.181  15.445  1.00  0.00     0.024 C 
HETATM   20  C26 UNL     1      -7.593   8.941  14.769  1.00  0.00     0.010 C 
HETATM   21  C27 UNL     1      -6.309   8.091  14.556  1.00  0.00     0.011 C 
HETATM   22  C28 UNL     1      -6.522   6.558  14.599  1.00  0.00    -0.029 C 
HETATM   23  C29 UNL     1      -6.399   6.044  16.071  1.00  0.00     0.016 C 
ENDROOT
BRANCH   1  24
HETATM   24  C6  UNL     1      -4.096   5.409  14.196  1.00  0.00    -0.011 C 
HETATM   25  C7  UNL     1      -3.767   6.122  15.512  1.00  0.00     0.010 C 
BRANCH  24  26
HETATM   26  C5  UNL     1      -3.089   5.837  13.087  1.00  0.00     0.040 C 
BRANCH  26  27
HETATM   27  C4  UNL     1      -2.403   4.680  12.338  1.00  0.00     0.142 C 
BRANCH  27  28
HETATM   28  C3  UNL     1      -3.260   3.438  12.339  1.00  0.00     0.018 C 
HETATM   29  C2  UNL     1      -3.012   2.271  11.709  1.00  0.00     0.010 C 
HETATM   30  C1  UNL     1      -3.893   1.067  11.837  1.00  0.00     0.055 C 
BRANCH  29  31
HETATM   31  C30 UNL     1      -1.829   2.072  10.846  1.00  0.00     0.171 C 
HETATM   32  O3  UNL     1      -1.111   2.956  10.419  1.00  0.00    -0.646 OA
BRANCH  31  33
HETATM   33  O4  UNL     1      -1.567   0.769  10.642  1.00  0.00    -0.773 OA
HETATM   34  H46 UNL     1      -0.803   0.779  10.031  1.00  0.00     0.167 HD
ENDBRANCH  31  33
ENDBRANCH  29  31
ENDBRANCH  27  28
BRANCH  27  35
HETATM   35  O1  UNL     1      -1.159   4.400  12.970  1.00  0.00    -0.392 OA
HETATM   36  H6  UNL     1      -1.353   4.033  13.848  1.00  0.00     0.210 HD
ENDBRANCH  27  35
ENDBRANCH  26  27
ENDBRANCH  24  26
ENDBRANCH   1  24
TORSDOF 7
ENDMDL
MODEL 8
REMARK minimizedAffinity -8.75278187
REMARK CNNscore 0.339379549
REMARK CNNaffinity 6.72013235
REMARK  7 active torsions:
REMARK  status: ('A' for Active; 'I' for Inactive)
REMARK    1  A    between atoms: C2_2  and  C30_32 
REMARK    2  A    between atoms: C3_3  and  C4_4 
REMARK    3  A    between atoms: C4_4  and  O1_5 
REMARK    4  A    between atoms: C4_4  and  C5_6 
REMARK    5  A    between atoms: C5_6  and  C6_7 
REMARK    6  A    between atoms: C6_7  and  C8_9 
REMARK    7  A    between atoms: C30_32  and  O4_34 
ROOT
HETATM    1  C8  UNL     1      -4.425   7.438  15.094  1.00  0.00    -0.002 C 
HETATM    2  C9  UNL     1      -3.994   6.253  16.019  1.00  0.00     0.007 C 
HETATM    3  C10 UNL     1      -2.639   5.727  15.501  1.00  0.00     0.015 C 
HETATM    4  C11 UNL     1      -2.159   6.816  14.527  1.00  0.00    -0.013 C 
HETATM    5  C12 UNL     1      -1.524   7.943  15.418  1.00  0.00     0.021 C 
HETATM    6  C13 UNL     1      -1.081   6.459  13.500  1.00  0.00    -0.070 C 
HETATM    7  C14 UNL     1       0.002   5.745  13.863  1.00  0.00    -0.022 C 
HETATM    8  C15 UNL     1       1.269   5.700  13.066  1.00  0.00     0.034 C 
HETATM    9  C16 UNL     1       1.382   6.937  12.148  1.00  0.00     0.013 C 
HETATM   10  C17 UNL     1       2.796   7.095  11.481  1.00  0.00     0.018 C 
HETATM   11  C18 UNL     1       3.826   7.485  12.575  1.00  0.00     0.023 C 
HETATM   12  C19 UNL     1       3.348   5.844  10.778  1.00  0.00     0.023 C 
HETATM   13  C20 UNL     1       2.748   8.235  10.452  1.00  0.00     0.135 C 
HETATM   14  O2  UNL     1       3.642   9.075  10.349  1.00  0.00    -0.297 OA
HETATM   15  C21 UNL     1       1.580   8.259   9.499  1.00  0.00     0.080 C 
HETATM   16  C22 UNL     1       0.278   8.256  10.285  1.00  0.00     0.017 C 
HETATM   17  C23 UNL     1       0.121   7.030  11.218  1.00  0.00    -0.031 C 
HETATM   18  C24 UNL     1      -0.053   5.764  10.329  1.00  0.00     0.016 C 
HETATM   19  C25 UNL     1      -1.200   7.118  12.115  1.00  0.00     0.024 C 
HETATM   20  C26 UNL     1      -1.876   8.500  12.239  1.00  0.00     0.010 C 
HETATM   21  C27 UNL     1      -3.251   8.477  12.963  1.00  0.00     0.011 C 
HETATM   22  C28 UNL     1      -3.510   7.228  13.841  1.00  0.00    -0.029 C 
HETATM   23  C29 UNL     1      -4.151   6.093  12.977  1.00  0.00     0.016 C 
ENDROOT
BRANCH   1  24
HETATM   24  C6  UNL     1      -5.976   7.526  14.936  1.00  0.00    -0.011 C 
HETATM   25  C7  UNL     1      -6.498   8.950  15.153  1.00  0.00     0.010 C 
BRANCH  24  26
HETATM   26  C5  UNL     1      -6.660   6.546  15.936  1.00  0.00     0.040 C 
BRANCH  26  27
HETATM   27  C4  UNL     1      -7.670   5.566  15.311  1.00  0.00     0.142 C 
BRANCH  27  28
HETATM   28  C3  UNL     1      -8.162   6.061  13.973  1.00  0.00     0.018 C 
HETATM   29  C2  UNL     1      -8.244   5.364  12.821  1.00  0.00     0.010 C 
HETATM   30  C1  UNL     1      -8.821   5.929  11.560  1.00  0.00     0.055 C 
BRANCH  29  31
HETATM   31  C30 UNL     1      -7.783   3.964  12.708  1.00  0.00     0.171 C 
HETATM   32  O3  UNL     1      -6.637   3.613  12.501  1.00  0.00    -0.646 OA
BRANCH  31  33
HETATM   33  O4  UNL     1      -8.773   3.087  12.947  1.00  0.00    -0.773 OA
HETATM   34  H46 UNL     1      -8.352   2.216  12.800  1.00  0.00     0.167 HD
ENDBRANCH  31  33
ENDBRANCH  29  31
ENDBRANCH  27  28
BRANCH  27  35
HETATM   35  O1  UNL     1      -8.772   5.419  16.199  1.00  0.00    -0.392 OA
HETATM   36  H6  UNL     1      -9.246   6.268  16.221  1.00  0.00     0.210 HD
ENDBRANCH  27  35
ENDBRANCH  26  27
ENDBRANCH  24  26
ENDBRANCH   1  24
TORSDOF 7
ENDMDL
MODEL 9
REMARK minimizedAffinity -7.9944725
REMARK CNNscore 0.338333964
REMARK CNNaffinity 7.47628641
REMARK  7 active torsions:
REMARK  status: ('A' for Active; 'I' for Inactive)
REMARK    1  A    between atoms: C2_2  and  C30_32 
REMARK    2  A    between atoms: C3_3  and  C4_4 
REMARK    3  A    between atoms: C4_4  and  O1_5 
REMARK    4  A    between atoms: C4_4  and  C5_6 
REMARK    5  A    between atoms: C5_6  and  C6_7 
REMARK    6  A    between atoms: C6_7  and  C8_9 
REMARK    7  A    between atoms: C30_32  and  O4_34 
ROOT
HETATM    1  C8  UNL     1      -5.124   6.337  15.086  1.00  0.00    -0.002 C 
HETATM    2  C9  UNL     1      -4.683   7.795  15.437  1.00  0.00     0.007 C 
HETATM    3  C10 UNL     1      -5.945   8.683  15.410  1.00  0.00     0.015 C 
HETATM    4  C11 UNL     1      -7.111   7.681  15.387  1.00  0.00    -0.013 C 
HETATM    5  C12 UNL     1      -7.314   7.220  16.875  1.00  0.00     0.021 C 
HETATM    6  C13 UNL     1      -8.488   8.166  14.925  1.00  0.00    -0.070 C 
HETATM    7  C14 UNL     1      -8.982   9.341  15.360  1.00  0.00    -0.022 C 
HETATM    8  C15 UNL     1     -10.435   9.700  15.302  1.00  0.00     0.034 C 
HETATM    9  C16 UNL     1     -11.310   8.429  15.225  1.00  0.00     0.013 C 
HETATM   10  C17 UNL     1     -12.843   8.710  15.428  1.00  0.00     0.018 C 
HETATM   11  C18 UNL     1     -13.088   9.110  16.907  1.00  0.00     0.023 C 
HETATM   12  C19 UNL     1     -13.437   9.833  14.561  1.00  0.00     0.023 C 
HETATM   13  C20 UNL     1     -13.636   7.425  15.149  1.00  0.00     0.135 C 
HETATM   14  O2  UNL     1     -14.567   7.051  15.862  1.00  0.00    -0.297 OA
HETATM   15  C21 UNL     1     -13.282   6.648  13.906  1.00  0.00     0.080 C 
HETATM   16  C22 UNL     1     -11.799   6.313  13.917  1.00  0.00     0.017 C 
HETATM   17  C23 UNL     1     -10.883   7.559  13.990  1.00  0.00    -0.031 C 
HETATM   18  C24 UNL     1     -11.013   8.335  12.648  1.00  0.00     0.016 C 
HETATM   19  C25 UNL     1      -9.338   7.168  14.119  1.00  0.00     0.024 C 
HETATM   20  C26 UNL     1      -9.012   5.721  14.549  1.00  0.00     0.010 C 
HETATM   21  C27 UNL     1      -7.503   5.355  14.471  1.00  0.00     0.011 C 
HETATM   22  C28 UNL     1      -6.536   6.564  14.445  1.00  0.00    -0.029 C 
HETATM   23  C29 UNL     1      -6.310   7.036  12.972  1.00  0.00     0.016 C 
ENDROOT
BRANCH   1  24
HETATM   24  C6  UNL     1      -4.017   5.559  14.307  1.00  0.00    -0.011 C 
HETATM   25  C7  UNL     1      -2.934   6.493  13.757  1.00  0.00     0.010 C 
BRANCH  24  26
HETATM   26  C5  UNL     1      -4.667   4.748  13.146  1.00  0.00     0.040 C 
BRANCH  26  27
HETATM   27  C4  UNL     1      -3.677   4.056  12.191  1.00  0.00     0.142 C 
BRANCH  27  28
HETATM   28  C3  UNL     1      -4.247   3.935  10.800  1.00  0.00     0.018 C 
HETATM   29  C2  UNL     1      -5.226   3.105  10.384  1.00  0.00     0.010 C 
HETATM   30  C1  UNL     1      -5.774   3.117   8.991  1.00  0.00     0.055 C 
BRANCH  29  31
HETATM   31  C30 UNL     1      -5.861   2.118  11.282  1.00  0.00     0.171 C 
HETATM   32  O3  UNL     1      -6.842   2.321  11.972  1.00  0.00    -0.646 OA
BRANCH  31  33
HETATM   33  O4  UNL     1      -5.281   0.909  11.193  1.00  0.00    -0.773 OA
HETATM   34  H46 UNL     1      -5.759   0.373  11.857  1.00  0.00     0.167 HD
ENDBRANCH  31  33
ENDBRANCH  29  31
ENDBRANCH  27  28
BRANCH  27  35
HETATM   35  O1  UNL     1      -3.383   2.760  12.700  1.00  0.00    -0.392 OA
HETATM   36  H6  UNL     1      -4.193   2.227  12.630  1.00  0.00     0.210 HD
ENDBRANCH  27  35
ENDBRANCH  26  27
ENDBRANCH  24  26
ENDBRANCH   1  24
TORSDOF 7
ENDMDL
