MODEL 1
REMARK minimizedAffinity -11.93929
REMARK  5 active torsions:
REMARK  status: ('A' for Active; 'I' for Inactive)
REMARK    1  A    between atoms: N1_2  and  C2_3 
REMARK    2  A    between atoms: C4_5  and  N4_34 
REMARK    3  A    between atoms: C5_7  and  N2_12 
REMARK    4  A    between atoms: C7_9  and  O2_10 
REMARK    5  A    between atoms: C27_35  and  C28_36 
ROOT
HETATM    1  C2  UNL     1      -5.340  49.695 -21.796  1.00  0.00     0.257 C 
HETATM    2  C3  UNL     1      -3.814  49.822 -21.709  1.00  0.00     0.092 C 
HETATM    3  C4  UNL     1      -3.110  49.225 -22.933  1.00  0.00     0.234 C 
HETATM    4  O1  UNL     1      -3.963  48.509 -23.819  1.00  0.00    -0.333 OA
HETATM    5  C5  UNL     1      -5.183  49.158 -24.256  1.00  0.00     0.168 C 
HETATM    6  C6  UNL     1      -6.106  47.923 -24.385  1.00  0.00     0.074 C 
HETATM    7  C7  UNL     1      -5.784  50.151 -23.204  1.00  0.00     0.209 C 
ENDROOT
BRANCH   1   8
HETATM    8  N1  UNL     1      -6.036  50.502 -20.773  1.00  0.00     0.086 N 
HETATM    9  C1  UNL     1      -6.917  49.726 -19.914  1.00  0.00     0.307 C 
HETATM   10  H4  UNL     1      -5.335  50.986 -20.204  1.00  0.00     0.316 HD
ENDBRANCH   1   8
BRANCH   7  11
HETATM   11  O2  UNL     1      -5.282  51.498 -23.366  1.00  0.00    -0.384 OA
HETATM   12  C8  UNL     1      -3.872  51.546 -23.559  1.00  0.00     0.202 C 
ENDBRANCH   7  11
BRANCH   3  13
HETATM   13  N4  UNL     1      -2.245  50.137 -23.675  1.00  0.00    -0.316 N 
HETATM   14  C26 UNL     1      -2.273  50.299 -25.053  1.00  0.00     0.048 A 
HETATM   15  C21 UNL     1      -1.412  51.365 -25.366  1.00  0.00     0.004 A 
HETATM   16  C25 UNL     1      -2.991  49.609 -26.045  1.00  0.00     0.030 A 
HETATM   17  C20 UNL     1      -0.855  51.841 -24.140  1.00  0.00     0.022 A 
HETATM   18  C22 UNL     1      -1.276  51.734 -26.722  1.00  0.00     0.014 A 
HETATM   19  C19 UNL     1       0.026  52.833 -23.694  1.00  0.00     0.062 A 
HETATM   20  C27 UNL     1      -1.380  51.041 -23.138  1.00  0.00     0.077 A 
HETATM   21  C16 UNL     1       0.393  53.019 -22.339  1.00  0.00     0.062 A 
HETATM   22  C18 UNL     1       0.744  53.841 -24.474  1.00  0.00     0.260 A 
HETATM   23  C15 UNL     1      -0.071  52.226 -21.280  1.00  0.00     0.022 A 
HETATM   24  C17 UNL     1       1.337  54.138 -22.307  1.00  0.00     0.260 A 
HETATM   25  C14 UNL     1       0.126  52.082 -19.876  1.00  0.00     0.004 A 
HETATM   26  C28 UNL     1      -0.969  51.238 -21.642  1.00  0.00     0.078 A 
HETATM   27  C9  UNL     1      -0.633  50.976 -19.444  1.00  0.00     0.049 A 
HETATM   28  C13 UNL     1       0.927  52.766 -18.933  1.00  0.00     0.014 A 
HETATM   29  N2  UNL     1      -1.356  50.515 -20.542  1.00  0.00    -0.308 N 
HETATM   30  C10 UNL     1      -0.546  50.530 -18.110  1.00  0.00     0.030 A 
HETATM   31  C11 UNL     1       0.259  51.226 -17.204  1.00  0.00     0.002 A 
HETATM   32  C12 UNL     1       0.980  52.339 -17.606  1.00  0.00     0.001 A 
HETATM   33  O3  UNL     1       1.891  54.611 -21.336  1.00  0.00    -0.267 OA
HETATM   34  N3  UNL     1       1.484  54.560 -23.591  1.00  0.00    -0.289 N 
HETATM   35  H20 UNL     1       2.082  55.325 -23.859  1.00  0.00     0.172 HD
HETATM   36  O4  UNL     1       0.700  54.016 -25.675  1.00  0.00    -0.267 OA
HETATM   37  C23 UNL     1      -1.986  51.047 -27.713  1.00  0.00     0.001 A 
HETATM   38  C24 UNL     1      -2.831  49.999 -27.376  1.00  0.00     0.002 A 
ENDBRANCH   3  13
TORSDOF 5
ENDMDL
MODEL 2
REMARK minimizedAffinity -11.6799221
REMARK  5 active torsions:
REMARK  status: ('A' for Active; 'I' for Inactive)
REMARK    1  A    between atoms: N1_2  and  C2_3 
REMARK    2  A    between atoms: C4_5  and  N4_34 
REMARK    3  A    between atoms: C5_7  and  N2_12 
REMARK    4  A    between atoms: C7_9  and  O2_10 
REMARK    5  A    between atoms: C27_35  and  C28_36 
ROOT
HETATM    1  C2  UNL     1      -4.340  49.776 -21.008  1.00  0.00     0.257 C 
HETATM    2  C3  UNL     1      -3.025  49.578 -21.771  1.00  0.00     0.092 C 
HETATM    3  C4  UNL     1      -3.238  48.911 -23.135  1.00  0.00     0.234 C 
HETATM    4  O1  UNL     1      -4.559  48.434 -23.363  1.00  0.00    -0.333 OA
HETATM    5  C5  UNL     1      -5.660  49.344 -23.114  1.00  0.00     0.168 C 
HETATM    6  C6  UNL     1      -6.730  48.335 -22.634  1.00  0.00     0.074 C 
HETATM    7  C7  UNL     1      -5.376  50.385 -21.979  1.00  0.00     0.209 C 
ENDROOT
BRANCH   1   8
HETATM    8  N1  UNL     1      -4.187  50.656 -19.832  1.00  0.00     0.086 N 
HETATM    9  C1  UNL     1      -3.258  50.148 -18.836  1.00  0.00     0.307 C 
HETATM   10  H4  UNL     1      -3.883  51.580 -20.151  1.00  0.00     0.316 HD
ENDBRANCH   1   8
BRANCH   7  11
HETATM   11  O2  UNL     1      -4.784  51.605 -22.483  1.00  0.00    -0.384 OA
HETATM   12  C8  UNL     1      -5.304  51.992 -23.751  1.00  0.00     0.202 C 
ENDBRANCH   7  11
BRANCH   3  13
HETATM   13  N4  UNL     1      -2.754  49.660 -24.290  1.00  0.00    -0.316 N 
HETATM   14  C26 UNL     1      -3.161  49.439 -25.598  1.00  0.00     0.048 A 
HETATM   15  C21 UNL     1      -2.596  50.452 -26.390  1.00  0.00     0.004 A 
HETATM   16  C25 UNL     1      -3.990  48.442 -26.145  1.00  0.00     0.030 A 
HETATM   17  C20 UNL     1      -1.827  51.292 -25.529  1.00  0.00     0.022 A 
HETATM   18  C22 UNL     1      -2.875  50.448 -27.774  1.00  0.00     0.014 A 
HETATM   19  C19 UNL     1      -1.034  52.443 -25.606  1.00  0.00     0.062 A 
HETATM   20  C27 UNL     1      -1.938  50.751 -24.258  1.00  0.00     0.077 A 
HETATM   21  C16 UNL     1      -0.366  53.023 -24.500  1.00  0.00     0.062 A 
HETATM   22  C18 UNL     1      -0.715  53.260 -26.776  1.00  0.00     0.260 A 
HETATM   23  C15 UNL     1      -0.406  52.510 -23.196  1.00  0.00     0.022 A 
HETATM   24  C17 UNL     1       0.360  54.188 -25.010  1.00  0.00     0.260 A 
HETATM   25  C14 UNL     1       0.168  52.772 -21.919  1.00  0.00     0.004 A 
HETATM   26  C28 UNL     1      -1.193  51.384 -23.037  1.00  0.00     0.078 A 
HETATM   27  C9  UNL     1      -0.264  51.761 -21.035  1.00  0.00     0.049 A 
HETATM   28  C13 UNL     1       1.062  53.756 -21.438  1.00  0.00     0.014 A 
HETATM   29  N2  UNL     1      -1.161  50.956 -21.734  1.00  0.00    -0.308 N 
HETATM   30  C10 UNL     1       0.235  51.705 -19.719  1.00  0.00     0.030 A 
HETATM   31  C11 UNL     1       1.122  52.692 -19.278  1.00  0.00     0.002 A 
HETATM   32  C12 UNL     1       1.524  53.712 -20.123  1.00  0.00     0.001 A 
HETATM   33  O3  UNL     1       1.061  54.956 -24.382  1.00  0.00    -0.267 OA
HETATM   34  N3  UNL     1       0.101  54.256 -26.343  1.00  0.00    -0.289 N 
HETATM   35  H20 UNL     1       0.476  54.970 -26.946  1.00  0.00     0.172 HD
HETATM   36  O4  UNL     1      -1.095  53.097 -27.918  1.00  0.00    -0.267 OA
HETATM   37  C23 UNL     1      -3.695  49.457 -28.324  1.00  0.00     0.001 A 
HETATM   38  C24 UNL     1      -4.244  48.468 -27.518  1.00  0.00     0.002 A 
ENDBRANCH   3  13
TORSDOF 5
ENDMDL
MODEL 3
REMARK minimizedAffinity -11.3024168
REMARK  5 active torsions:
REMARK  status: ('A' for Active; 'I' for Inactive)
REMARK    1  A    between atoms: N1_2  and  C2_3 
REMARK    2  A    between atoms: C4_5  and  N4_34 
REMARK    3  A    between atoms: C5_7  and  N2_12 
REMARK    4  A    between atoms: C7_9  and  O2_10 
REMARK    5  A    between atoms: C27_35  and  C28_36 
ROOT
HETATM    1  C2  UNL     1      -2.557  47.942 -18.761  1.00  0.00     0.257 C 
HETATM    2  C3  UNL     1      -1.234  48.313 -19.442  1.00  0.00     0.092 C 
HETATM    3  C4  UNL     1      -1.448  49.109 -20.735  1.00  0.00     0.234 C 
HETATM    4  O1  UNL     1      -2.803  49.195 -21.162  1.00  0.00    -0.333 OA
HETATM    5  C5  UNL     1      -3.794  49.613 -20.190  1.00  0.00     0.168 C 
HETATM    6  C6  UNL     1      -5.008  48.791 -20.684  1.00  0.00     0.074 C 
HETATM    7  C7  UNL     1      -3.450  49.202 -18.718  1.00  0.00     0.209 C 
ENDROOT
BRANCH   1   8
HETATM    8  N1  UNL     1      -2.364  47.425 -17.390  1.00  0.00     0.086 N 
HETATM    9  C1  UNL     1      -3.540  46.767 -16.842  1.00  0.00     0.307 C 
HETATM   10  H4  UNL     1      -1.573  46.777 -17.393  1.00  0.00     0.316 HD
ENDBRANCH   1   8
BRANCH   7  11
HETATM   11  O2  UNL     1      -2.681  50.215 -18.027  1.00  0.00    -0.384 OA
HETATM   12  C8  UNL     1      -3.283  50.633 -16.807  1.00  0.00     0.202 C 
ENDBRANCH   7  11
BRANCH   3  13
HETATM   13  N4  UNL     1      -0.807  50.419 -20.787  1.00  0.00    -0.316 N 
HETATM   14  C26 UNL     1      -0.199  51.040 -19.706  1.00  0.00     0.048 A 
HETATM   15  C21 UNL     1       0.429  52.201 -20.188  1.00  0.00     0.004 A 
HETATM   16  C25 UNL     1      -0.137  50.671 -18.350  1.00  0.00     0.030 A 
HETATM   17  C20 UNL     1       0.179  52.272 -21.592  1.00  0.00     0.022 A 
HETATM   18  C22 UNL     1       1.133  53.008 -19.268  1.00  0.00     0.014 A 
HETATM   19  C19 UNL     1       0.483  53.099 -22.680  1.00  0.00     0.062 A 
HETATM   20  C27 UNL     1      -0.601  51.170 -21.905  1.00  0.00     0.077 A 
HETATM   21  C16 UNL     1       0.028  52.873 -24.002  1.00  0.00     0.062 A 
HETATM   22  C18 UNL     1       1.279  54.326 -22.706  1.00  0.00     0.260 A 
HETATM   23  C15 UNL     1      -0.791  51.801 -24.382  1.00  0.00     0.022 A 
HETATM   24  C17 UNL     1       0.549  53.969 -24.821  1.00  0.00     0.260 A 
HETATM   25  C14 UNL     1      -1.466  51.320 -25.541  1.00  0.00     0.004 A 
HETATM   26  C28 UNL     1      -1.112  50.923 -23.362  1.00  0.00     0.078 A 
HETATM   27  C9  UNL     1      -2.212  50.183 -25.166  1.00  0.00     0.049 A 
HETATM   28  C13 UNL     1      -1.552  51.778 -26.875  1.00  0.00     0.014 A 
HETATM   29  N2  UNL     1      -1.920  49.918 -23.830  1.00  0.00    -0.308 N 
HETATM   30  C10 UNL     1      -3.069  49.557 -26.093  1.00  0.00     0.030 A 
HETATM   31  C11 UNL     1      -3.134  50.040 -27.404  1.00  0.00     0.002 A 
HETATM   32  C12 UNL     1      -2.377  51.131 -27.796  1.00  0.00     0.001 A 
HETATM   33  O3  UNL     1       0.383  54.147 -26.010  1.00  0.00    -0.267 OA
HETATM   34  N3  UNL     1       1.269  54.769 -23.990  1.00  0.00    -0.289 N 
HETATM   35  H20 UNL     1       1.743  55.603 -24.294  1.00  0.00     0.172 HD
HETATM   36  O4  UNL     1       1.847  54.858 -21.773  1.00  0.00    -0.267 OA
HETATM   37  C23 UNL     1       1.194  52.647 -17.918  1.00  0.00     0.001 A 
HETATM   38  C24 UNL     1       0.566  51.493 -17.467  1.00  0.00     0.002 A 
ENDBRANCH   3  13
TORSDOF 5
ENDMDL
MODEL 4
REMARK minimizedAffinity -11.1622849
REMARK  5 active torsions:
REMARK  status: ('A' for Active; 'I' for Inactive)
REMARK    1  A    between atoms: N1_2  and  C2_3 
REMARK    2  A    between atoms: C4_5  and  N4_34 
REMARK    3  A    between atoms: C5_7  and  N2_12 
REMARK    4  A    between atoms: C7_9  and  O2_10 
REMARK    5  A    between atoms: C27_35  and  C28_36 
ROOT
HETATM    1  C2  UNL     1      -2.522  48.514 -18.935  1.00  0.00     0.257 C 
HETATM    2  C3  UNL     1      -1.278  48.761 -19.796  1.00  0.00     0.092 C 
HETATM    3  C4  UNL     1      -1.635  49.170 -21.230  1.00  0.00     0.234 C 
HETATM    4  O1  UNL     1      -3.017  49.066 -21.551  1.00  0.00    -0.333 OA
HETATM    5  C5  UNL     1      -3.971  49.674 -20.644  1.00  0.00     0.168 C 
HETATM    6  C6  UNL     1      -5.151  48.686 -20.804  1.00  0.00     0.074 C 
HETATM    7  C7  UNL     1      -3.501  49.689 -19.150  1.00  0.00     0.209 C 
ENDROOT
BRANCH   1   8
HETATM    8  N1  UNL     1      -2.203  48.393 -17.497  1.00  0.00     0.086 N 
HETATM    9  C1  UNL     1      -2.956  47.352 -16.815  1.00  0.00     0.307 C 
HETATM   10  H4  UNL     1      -1.200  48.217 -17.398  1.00  0.00     0.316 HD
ENDBRANCH   1   8
BRANCH   7  11
HETATM   11  O2  UNL     1      -2.766  50.890 -18.814  1.00  0.00    -0.384 OA
HETATM   12  C8  UNL     1      -2.962  51.302 -17.465  1.00  0.00     0.202 C 
ENDBRANCH   7  11
BRANCH   3  13
HETATM   13  N4  UNL     1      -1.097  50.452 -21.676  1.00  0.00    -0.316 N 
HETATM   14  C26 UNL     1      -0.367  51.320 -20.876  1.00  0.00     0.048 A 
HETATM   15  C21 UNL     1       0.099  52.357 -21.701  1.00  0.00     0.004 A 
HETATM   16  C25 UNL     1      -0.068  51.270 -19.503  1.00  0.00     0.030 A 
HETATM   17  C20 UNL     1      -0.374  52.100 -23.023  1.00  0.00     0.022 A 
HETATM   18  C22 UNL     1       0.885  53.372 -21.113  1.00  0.00     0.014 A 
HETATM   19  C19 UNL     1      -0.301  52.666 -24.301  1.00  0.00     0.062 A 
HETATM   20  C27 UNL     1      -1.120  50.935 -22.950  1.00  0.00     0.077 A 
HETATM   21  C16 UNL     1      -0.943  52.132 -25.445  1.00  0.00     0.062 A 
HETATM   22  C18 UNL     1       0.400  53.876 -24.730  1.00  0.00     0.260 A 
HETATM   23  C15 UNL     1      -1.740  50.979 -25.436  1.00  0.00     0.022 A 
HETATM   24  C17 UNL     1      -0.631  53.028 -26.561  1.00  0.00     0.260 A 
HETATM   25  C14 UNL     1      -2.556  50.228 -26.330  1.00  0.00     0.004 A 
HETATM   26  C28 UNL     1      -1.838  50.348 -24.209  1.00  0.00     0.078 A 
HETATM   27  C9  UNL     1      -3.158  49.186 -25.595  1.00  0.00     0.049 A 
HETATM   28  C13 UNL     1      -2.883  50.369 -27.699  1.00  0.00     0.014 A 
HETATM   29  N2  UNL     1      -2.642  49.240 -24.302  1.00  0.00    -0.308 N 
HETATM   30  C10 UNL     1      -4.108  48.342 -26.203  1.00  0.00     0.030 A 
HETATM   31  C11 UNL     1      -4.411  48.511 -27.558  1.00  0.00     0.002 A 
HETATM   32  C12 UNL     1      -3.799  49.506 -28.302  1.00  0.00     0.001 A 
HETATM   33  O3  UNL     1      -0.994  52.926 -27.715  1.00  0.00    -0.267 OA
HETATM   34  N3  UNL     1       0.157  54.015 -26.059  1.00  0.00    -0.289 N 
HETATM   35  H20 UNL     1       0.522  54.772 -26.615  1.00  0.00     0.172 HD
HETATM   36  O4  UNL     1       1.071  54.623 -24.047  1.00  0.00    -0.267 OA
HETATM   37  C23 UNL     1       1.182  53.329 -19.747  1.00  0.00     0.001 A 
HETATM   38  C24 UNL     1       0.710  52.291 -18.954  1.00  0.00     0.002 A 
ENDBRANCH   3  13
TORSDOF 5
ENDMDL
MODEL 5
REMARK minimizedAffinity -10.9982843
REMARK  5 active torsions:
REMARK  status: ('A' for Active; 'I' for Inactive)
REMARK    1  A    between atoms: N1_2  and  C2_3 
REMARK    2  A    between atoms: C4_5  and  N4_34 
REMARK    3  A    between atoms: C5_7  and  N2_12 
REMARK    4  A    between atoms: C7_9  and  O2_10 
REMARK    5  A    between atoms: C27_35  and  C28_36 
ROOT
HETATM    1  C2  UNL     1      -3.664  47.207 -21.050  1.00  0.00     0.257 C 
HETATM    2  C3  UNL     1      -2.184  47.526 -20.806  1.00  0.00     0.092 C 
HETATM    3  C4  UNL     1      -1.637  48.548 -21.809  1.00  0.00     0.234 C 
HETATM    4  O1  UNL     1      -2.523  48.866 -22.877  1.00  0.00    -0.333 OA
HETATM    5  C5  UNL     1      -3.885  49.230 -22.540  1.00  0.00     0.168 C 
HETATM    6  C6  UNL     1      -4.622  48.654 -23.773  1.00  0.00     0.074 C 
HETATM    7  C7  UNL     1      -4.422  48.539 -21.241  1.00  0.00     0.209 C 
ENDROOT
BRANCH   1   8
HETATM    8  N1  UNL     1      -4.272  46.447 -19.937  1.00  0.00     0.086 N 
HETATM    9  C1  UNL     1      -4.257  45.006 -20.135  1.00  0.00     0.307 C 
HETATM   10  H4  UNL     1      -3.779  46.684 -19.072  1.00  0.00     0.316 HD
ENDBRANCH   1   8
BRANCH   7  11
HETATM   11  O2  UNL     1      -4.164  49.322 -20.052  1.00  0.00    -0.384 OA
HETATM   12  C8  UNL     1      -4.415  50.711 -20.236  1.00  0.00     0.202 C 
ENDBRANCH   7  11
BRANCH   3  13
HETATM   13  N4  UNL     1      -1.069  49.762 -21.232  1.00  0.00    -0.316 N 
HETATM   14  C26 UNL     1      -0.825  49.950 -19.880  1.00  0.00     0.048 A 
HETATM   15  C21 UNL     1      -0.139  51.168 -19.743  1.00  0.00     0.004 A 
HETATM   16  C25 UNL     1      -1.138  49.145 -18.769  1.00  0.00     0.030 A 
HETATM   17  C20 UNL     1       0.022  51.720 -21.050  1.00  0.00     0.022 A 
HETATM   18  C22 UNL     1       0.234  51.580 -18.445  1.00  0.00     0.014 A 
HETATM   19  C19 UNL     1       0.587  52.845 -21.661  1.00  0.00     0.062 A 
HETATM   20  C27 UNL     1      -0.585  50.832 -21.924  1.00  0.00     0.077 A 
HETATM   21  C16 UNL     1       0.541  53.101 -23.053  1.00  0.00     0.062 A 
HETATM   22  C18 UNL     1       1.300  53.964 -21.044  1.00  0.00     0.260 A 
HETATM   23  C15 UNL     1      -0.085  52.266 -23.988  1.00  0.00     0.022 A 
HETATM   24  C17 UNL     1       1.224  54.378 -23.270  1.00  0.00     0.260 A 
HETATM   25  C14 UNL     1      -0.376  52.239 -25.383  1.00  0.00     0.004 A 
HETATM   26  C28 UNL     1      -0.645  51.116 -23.460  1.00  0.00     0.078 A 
HETATM   27  C9  UNL     1      -1.145  51.086 -25.642  1.00  0.00     0.049 A 
HETATM   28  C13 UNL     1      -0.097  53.123 -26.451  1.00  0.00     0.014 A 
HETATM   29  N2  UNL     1      -1.237  50.373 -24.449  1.00  0.00    -0.308 N 
HETATM   30  C10 UNL     1      -1.671  50.856 -26.929  1.00  0.00     0.030 A 
HETATM   31  C11 UNL     1      -1.379  51.752 -27.961  1.00  0.00     0.002 A 
HETATM   32  C12 UNL     1      -0.592  52.868 -27.730  1.00  0.00     0.001 A 
HETATM   33  O3  UNL     1       1.399  54.953 -24.325  1.00  0.00    -0.267 OA
HETATM   34  N3  UNL     1       1.638  54.811 -22.050  1.00  0.00    -0.289 N 
HETATM   35  H20 UNL     1       2.141  55.672 -21.907  1.00  0.00     0.172 HD
HETATM   36  O4  UNL     1       1.551  54.120 -19.866  1.00  0.00    -0.267 OA
HETATM   37  C23 UNL     1      -0.079  50.785 -17.337  1.00  0.00     0.001 A 
HETATM   38  C24 UNL     1      -0.756  49.584 -17.500  1.00  0.00     0.002 A 
ENDBRANCH   3  13
TORSDOF 5
ENDMDL
MODEL 6
REMARK minimizedAffinity -10.7080584
REMARK  5 active torsions:
REMARK  status: ('A' for Active; 'I' for Inactive)
REMARK    1  A    between atoms: N1_2  and  C2_3 
REMARK    2  A    between atoms: C4_5  and  N4_34 
REMARK    3  A    between atoms: C5_7  and  N2_12 
REMARK    4  A    between atoms: C7_9  and  O2_10 
REMARK    5  A    between atoms: C27_35  and  C28_36 
ROOT
HETATM    1  C2  UNL     1      -4.255  46.966 -21.917  1.00  0.00     0.257 C 
HETATM    2  C3  UNL     1      -2.826  47.080 -21.373  1.00  0.00     0.092 C 
HETATM    3  C4  UNL     1      -2.085  48.299 -21.935  1.00  0.00     0.234 C 
HETATM    4  O1  UNL     1      -2.770  48.981 -22.979  1.00  0.00    -0.333 OA
HETATM    5  C5  UNL     1      -4.156  49.343 -22.755  1.00  0.00     0.168 C 
HETATM    6  C6  UNL     1      -4.697  49.209 -24.198  1.00  0.00     0.074 C 
HETATM    7  C7  UNL     1      -4.924  48.354 -21.815  1.00  0.00     0.209 C 
ENDROOT
BRANCH   1   8
HETATM    8  N1  UNL     1      -5.064  45.971 -21.184  1.00  0.00     0.086 N 
HETATM    9  C1  UNL     1      -4.284  45.112 -20.307  1.00  0.00     0.307 C 
HETATM   10  H4  UNL     1      -5.777  46.465 -20.641  1.00  0.00     0.316 HD
ENDBRANCH   1   8
BRANCH   7  11
HETATM   11  O2  UNL     1      -4.840  48.738 -20.422  1.00  0.00    -0.384 OA
HETATM   12  C8  UNL     1      -5.032  50.133 -20.218  1.00  0.00     0.202 C 
ENDBRANCH   7  11
BRANCH   3  13
HETATM   13  N4  UNL     1      -1.579  49.245 -20.945  1.00  0.00    -0.316 N 
HETATM   14  C26 UNL     1      -1.586  49.029 -19.575  1.00  0.00     0.048 A 
HETATM   15  C21 UNL     1      -0.881  50.088 -18.979  1.00  0.00     0.004 A 
HETATM   16  C25 UNL     1      -2.141  47.985 -18.813  1.00  0.00     0.030 A 
HETATM   17  C20 UNL     1      -0.451  50.959 -20.026  1.00  0.00     0.022 A 
HETATM   18  C22 UNL     1      -0.742  50.088 -17.575  1.00  0.00     0.014 A 
HETATM   19  C19 UNL     1       0.272  52.147 -20.183  1.00  0.00     0.062 A 
HETATM   20  C27 UNL     1      -0.923  50.410 -21.207  1.00  0.00     0.077 A 
HETATM   21  C16 UNL     1       0.502  52.779 -21.429  1.00  0.00     0.062 A 
HETATM   22  C18 UNL     1       0.908  52.976 -19.159  1.00  0.00     0.260 A 
HETATM   23  C15 UNL     1       0.025  52.299 -22.657  1.00  0.00     0.022 A 
HETATM   24  C17 UNL     1       1.274  53.992 -21.151  1.00  0.00     0.260 A 
HETATM   25  C14 UNL     1       0.002  52.686 -24.028  1.00  0.00     0.004 A 
HETATM   26  C28 UNL     1      -0.678  51.110 -22.584  1.00  0.00     0.078 A 
HETATM   27  C9  UNL     1      -0.758  51.731 -24.734  1.00  0.00     0.049 A 
HETATM   28  C13 UNL     1       0.519  53.797 -24.733  1.00  0.00     0.014 A 
HETATM   29  N2  UNL     1      -1.108  50.730 -23.830  1.00  0.00    -0.308 N 
HETATM   30  C10 UNL     1      -1.041  51.916 -26.102  1.00  0.00     0.030 A 
HETATM   31  C11 UNL     1      -0.518  53.029 -26.767  1.00  0.00     0.002 A 
HETATM   32  C12 UNL     1       0.263  53.954 -26.095  1.00  0.00     0.001 A 
HETATM   33  O3  UNL     1       1.672  54.815 -21.950  1.00  0.00    -0.267 OA
HETATM   34  N3  UNL     1       1.470  54.030 -19.807  1.00  0.00    -0.289 N 
HETATM   35  H20 UNL     1       1.977  54.764 -19.339  1.00  0.00     0.172 HD
HETATM   36  O4  UNL     1       0.939  52.778 -17.961  1.00  0.00    -0.267 OA
HETATM   37  C23 UNL     1      -1.295  49.054 -16.812  1.00  0.00     0.001 A 
HETATM   38  C24 UNL     1      -1.986  48.017 -17.426  1.00  0.00     0.002 A 
ENDBRANCH   3  13
TORSDOF 5
ENDMDL
MODEL 7
REMARK minimizedAffinity -10.5197172
REMARK  5 active torsions:
REMARK  status: ('A' for Active; 'I' for Inactive)
REMARK    1  A    between atoms: N1_2  and  C2_3 
REMARK    2  A    between atoms: C4_5  and  N4_34 
REMARK    3  A    between atoms: C5_7  and  N2_12 
REMARK    4  A    between atoms: C7_9  and  O2_10 
REMARK    5  A    between atoms: C27_35  and  C28_36 
ROOT
HETATM    1  C2  UNL     1      -2.898  48.532 -19.457  1.00  0.00     0.257 C 
HETATM    2  C3  UNL     1      -3.236  49.806 -20.240  1.00  0.00     0.092 C 
HETATM    3  C4  UNL     1      -2.298  50.969 -19.894  1.00  0.00     0.234 C 
HETATM    4  O1  UNL     1      -1.425  50.721 -18.797  1.00  0.00    -0.333 OA
HETATM    5  C5  UNL     1      -0.657  49.492 -18.808  1.00  0.00     0.168 C 
HETATM    6  C6  UNL     1      -0.601  49.205 -17.288  1.00  0.00     0.074 C 
HETATM    7  C7  UNL     1      -1.372  48.305 -19.537  1.00  0.00     0.209 C 
ENDROOT
BRANCH   1   8
HETATM    8  N1  UNL     1      -3.604  47.343 -19.975  1.00  0.00     0.086 N 
HETATM    9  C1  UNL     1      -3.952  46.373 -18.948  1.00  0.00     0.307 C 
HETATM   10  H4  UNL     1      -4.449  47.650 -20.463  1.00  0.00     0.316 HD
ENDBRANCH   1   8
BRANCH   7  11
HETATM   11  O2  UNL     1      -1.049  48.247 -20.947  1.00  0.00    -0.384 OA
HETATM   12  C8  UNL     1      -1.484  47.042 -21.567  1.00  0.00     0.202 C 
ENDBRANCH   7  11
BRANCH   3  13
HETATM   13  N4  UNL     1      -1.565  51.548 -21.015  1.00  0.00    -0.316 N 
HETATM   14  C26 UNL     1      -0.497  52.424 -20.888  1.00  0.00     0.048 A 
HETATM   15  C21 UNL     1       0.031  52.631 -22.173  1.00  0.00     0.004 A 
HETATM   16  C25 UNL     1       0.056  53.039 -19.749  1.00  0.00     0.030 A 
HETATM   17  C20 UNL     1      -0.751  51.862 -23.087  1.00  0.00     0.022 A 
HETATM   18  C22 UNL     1       1.145  53.488 -22.304  1.00  0.00     0.014 A 
HETATM   19  C19 UNL     1      -0.804  51.582 -24.457  1.00  0.00     0.062 A 
HETATM   20  C27 UNL     1      -1.729  51.236 -22.331  1.00  0.00     0.077 A 
HETATM   21  C16 UNL     1      -1.778  50.750 -25.062  1.00  0.00     0.062 A 
HETATM   22  C18 UNL     1       0.069  52.064 -25.527  1.00  0.00     0.260 A 
HETATM   23  C15 UNL     1      -2.814  50.114 -24.364  1.00  0.00     0.022 A 
HETATM   24  C17 UNL     1      -1.490  50.737 -26.497  1.00  0.00     0.260 A 
HETATM   25  C14 UNL     1      -3.955  49.305 -24.634  1.00  0.00     0.004 A 
HETATM   26  C28 UNL     1      -2.811  50.324 -22.997  1.00  0.00     0.078 A 
HETATM   27  C9  UNL     1      -4.631  49.089 -23.415  1.00  0.00     0.049 A 
HETATM   28  C13 UNL     1      -4.510  48.773 -25.821  1.00  0.00     0.014 A 
HETATM   29  N2  UNL     1      -3.864  49.671 -22.408  1.00  0.00    -0.308 N 
HETATM   30  C10 UNL     1      -5.863  48.405 -23.395  1.00  0.00     0.030 A 
HETATM   31  C11 UNL     1      -6.385  47.896 -24.588  1.00  0.00     0.002 A 
HETATM   32  C12 UNL     1      -5.713  48.067 -25.787  1.00  0.00     0.001 A 
HETATM   33  O3  UNL     1      -2.096  50.145 -27.367  1.00  0.00    -0.267 OA
HETATM   34  N3  UNL     1      -0.398  51.525 -26.683  1.00  0.00    -0.289 N 
HETATM   35  H20 UNL     1       0.019  51.693 -27.584  1.00  0.00     0.172 HD
HETATM   36  O4  UNL     1       1.029  52.801 -25.422  1.00  0.00    -0.267 OA
HETATM   37  C23 UNL     1       1.696  54.105 -21.176  1.00  0.00     0.001 A 
HETATM   38  C24 UNL     1       1.156  53.882 -19.916  1.00  0.00     0.002 A 
ENDBRANCH   3  13
TORSDOF 5
ENDMDL
MODEL 8
REMARK minimizedAffinity -10.1117239
REMARK  5 active torsions:
REMARK  status: ('A' for Active; 'I' for Inactive)
REMARK    1  A    between atoms: N1_2  and  C2_3 
REMARK    2  A    between atoms: C4_5  and  N4_34 
REMARK    3  A    between atoms: C5_7  and  N2_12 
REMARK    4  A    between atoms: C7_9  and  O2_10 
REMARK    5  A    between atoms: C27_35  and  C28_36 
ROOT
HETATM    1  C2  UNL     1      -6.063  48.620 -19.136  1.00  0.00     0.257 C 
HETATM    2  C3  UNL     1      -6.212  49.472 -20.402  1.00  0.00     0.092 C 
HETATM    3  C4  UNL     1      -4.895  50.141 -20.812  1.00  0.00     0.234 C 
HETATM    4  O1  UNL     1      -3.842  50.010 -19.863  1.00  0.00    -0.333 OA
HETATM    5  C5  UNL     1      -3.551  48.684 -19.355  1.00  0.00     0.168 C 
HETATM    6  C6  UNL     1      -3.102  49.047 -17.919  1.00  0.00     0.074 C 
HETATM    7  C7  UNL     1      -4.801  47.743 -19.289  1.00  0.00     0.209 C 
ENDROOT
BRANCH   1   8
HETATM    8  N1  UNL     1      -7.237  47.758 -18.890  1.00  0.00     0.086 N 
HETATM    9  C1  UNL     1      -7.951  48.075 -17.663  1.00  0.00     0.307 C 
HETATM   10  H4  UNL     1      -7.872  47.833 -19.689  1.00  0.00     0.316 HD
ENDBRANCH   1   8
BRANCH   7  11
HETATM   11  O2  UNL     1      -4.985  46.984 -20.507  1.00  0.00    -0.384 OA
HETATM   12  C8  UNL     1      -3.783  46.382 -20.974  1.00  0.00     0.202 C 
ENDBRANCH   7  11
BRANCH   3  13
HETATM   13  N4  UNL     1      -4.419  49.834 -22.157  1.00  0.00    -0.316 N 
HETATM   14  C26 UNL     1      -5.126  49.091 -23.091  1.00  0.00     0.048 A 
HETATM   15  C21 UNL     1      -4.412  49.148 -24.299  1.00  0.00     0.004 A 
HETATM   16  C25 UNL     1      -6.339  48.387 -22.976  1.00  0.00     0.030 A 
HETATM   17  C20 UNL     1      -3.247  49.941 -24.072  1.00  0.00     0.022 A 
HETATM   18  C22 UNL     1      -4.942  48.468 -25.418  1.00  0.00     0.014 A 
HETATM   19  C19 UNL     1      -2.136  50.415 -24.780  1.00  0.00     0.062 A 
HETATM   20  C27 UNL     1      -3.286  50.317 -22.739  1.00  0.00     0.077 A 
HETATM   21  C16 UNL     1      -1.104  51.199 -24.208  1.00  0.00     0.062 A 
HETATM   22  C18 UNL     1      -1.789  50.213 -26.187  1.00  0.00     0.260 A 
HETATM   23  C15 UNL     1      -1.062  51.586 -22.861  1.00  0.00     0.022 A 
HETATM   24  C17 UNL     1      -0.135  51.463 -25.273  1.00  0.00     0.260 A 
HETATM   25  C14 UNL     1      -0.194  52.276 -21.966  1.00  0.00     0.004 A 
HETATM   26  C28 UNL     1      -2.144  51.175 -22.103  1.00  0.00     0.078 A 
HETATM   27  C9  UNL     1      -0.767  52.219 -20.679  1.00  0.00     0.049 A 
HETATM   28  C13 UNL     1       1.062  52.906 -22.123  1.00  0.00     0.014 A 
HETATM   29  N2  UNL     1      -2.006  51.594 -20.804  1.00  0.00    -0.308 N 
HETATM   30  C10 UNL     1      -0.070  52.731 -19.566  1.00  0.00     0.030 A 
HETATM   31  C11 UNL     1       1.173  53.344 -19.757  1.00  0.00     0.002 A 
HETATM   32  C12 UNL     1       1.729  53.441 -21.021  1.00  0.00     0.001 A 
HETATM   33  O3  UNL     1       0.897  52.098 -25.193  1.00  0.00    -0.267 OA
HETATM   34  N3  UNL     1      -0.611  50.856 -26.393  1.00  0.00    -0.289 N 
HETATM   35  H20 UNL     1      -0.138  50.880 -27.281  1.00  0.00     0.172 HD
HETATM   36  O4  UNL     1      -2.419  49.596 -27.022  1.00  0.00    -0.267 OA
HETATM   37  C23 UNL     1      -6.146  47.764 -25.308  1.00  0.00     0.001 A 
HETATM   38  C24 UNL     1      -6.833  47.725 -24.102  1.00  0.00     0.002 A 
ENDBRANCH   3  13
TORSDOF 5
ENDMDL
MODEL 9
REMARK minimizedAffinity -9.89299107
REMARK  5 active torsions:
REMARK  status: ('A' for Active; 'I' for Inactive)
REMARK    1  A    between atoms: N1_2  and  C2_3 
REMARK    2  A    between atoms: C4_5  and  N4_34 
REMARK    3  A    between atoms: C5_7  and  N2_12 
REMARK    4  A    between atoms: C7_9  and  O2_10 
REMARK    5  A    between atoms: C27_35  and  C28_36 
ROOT
HETATM    1  C2  UNL     1      -0.803  52.488 -27.351  1.00  0.00     0.257 C 
HETATM    2  C3  UNL     1      -1.759  51.571 -26.579  1.00  0.00     0.092 C 
HETATM    3  C4  UNL     1      -1.019  50.646 -25.606  1.00  0.00     0.234 C 
HETATM    4  O1  UNL     1       0.398  50.668 -25.728  1.00  0.00    -0.333 OA
HETATM    5  C5  UNL     1       1.057  51.959 -25.732  1.00  0.00     0.168 C 
HETATM    6  C6  UNL     1       2.241  51.645 -26.678  1.00  0.00     0.074 C 
HETATM    7  C7  UNL     1       0.190  53.110 -26.345  1.00  0.00     0.209 C 
ENDROOT
BRANCH   1   8
HETATM    8  N1  UNL     1      -1.510  53.563 -28.078  1.00  0.00     0.086 N 
HETATM    9  C1  UNL     1      -0.683  54.729 -28.348  1.00  0.00     0.307 C 
HETATM   10  H4  UNL     1      -1.871  53.183 -28.956  1.00  0.00     0.316 HD
ENDBRANCH   1   8
BRANCH   7  11
HETATM   11  O2  UNL     1      -0.617  53.784 -25.350  1.00  0.00    -0.384 OA
HETATM   12  C8  UNL     1       0.062  54.868 -24.726  1.00  0.00     0.202 C 
ENDBRANCH   7  11
BRANCH   3  13
HETATM   13  N4  UNL     1      -1.419  50.748 -24.206  1.00  0.00    -0.316 N 
HETATM   14  C26 UNL     1      -0.649  51.330 -23.210  1.00  0.00     0.048 A 
HETATM   15  C21 UNL     1      -1.433  51.373 -22.045  1.00  0.00     0.004 A 
HETATM   16  C25 UNL     1       0.664  51.833 -23.240  1.00  0.00     0.030 A 
HETATM   17  C20 UNL     1      -2.700  50.794 -22.360  1.00  0.00     0.022 A 
HETATM   18  C22 UNL     1      -0.867  51.937 -20.881  1.00  0.00     0.014 A 
HETATM   19  C19 UNL     1      -3.923  50.521 -21.735  1.00  0.00     0.062 A 
HETATM   20  C27 UNL     1      -2.631  50.406 -23.688  1.00  0.00     0.077 A 
HETATM   21  C16 UNL     1      -5.015  49.881 -22.370  1.00  0.00     0.062 A 
HETATM   22  C18 UNL     1      -4.332  50.799 -20.359  1.00  0.00     0.260 A 
HETATM   23  C15 UNL     1      -5.002  49.433 -23.698  1.00  0.00     0.022 A 
HETATM   24  C17 UNL     1      -6.079  49.772 -21.371  1.00  0.00     0.260 A 
HETATM   25  C14 UNL     1      -5.844  48.723 -24.602  1.00  0.00     0.004 A 
HETATM   26  C28 UNL     1      -3.833  49.692 -24.390  1.00  0.00     0.078 A 
HETATM   27  C9  UNL     1      -5.130  48.539 -25.805  1.00  0.00     0.049 A 
HETATM   28  C13 UNL     1      -7.141  48.170 -24.492  1.00  0.00     0.014 A 
HETATM   29  N2  UNL     1      -3.916  49.209 -25.671  1.00  0.00    -0.308 N 
HETATM   30  C10 UNL     1      -5.680  47.770 -26.849  1.00  0.00     0.030 A 
HETATM   31  C11 UNL     1      -6.963  47.234 -26.705  1.00  0.00     0.002 A 
HETATM   32  C12 UNL     1      -7.692  47.439 -25.545  1.00  0.00     0.001 A 
HETATM   33  O3  UNL     1      -7.181  49.281 -21.514  1.00  0.00    -0.267 OA
HETATM   34  N3  UNL     1      -5.601  50.333 -20.229  1.00  0.00    -0.289 N 
HETATM   35  H20 UNL     1      -6.132  50.394 -19.375  1.00  0.00     0.172 HD
HETATM   36  O4  UNL     1      -3.680  51.341 -19.489  1.00  0.00    -0.267 OA
HETATM   37  C23 UNL     1       0.440  52.436 -20.905  1.00  0.00     0.001 A 
HETATM   38  C24 UNL     1       1.194  52.383 -22.070  1.00  0.00     0.002 A 
ENDBRANCH   3  13
TORSDOF 5
ENDMDL
