MODEL 1
REMARK minimizedAffinity -8.74786663
REMARK CNNscore 0.57763201
REMARK CNNaffinity 7.19895315
REMARK  13 active torsions:
REMARK  status: ('A' for Active; 'I' for Inactive)
REMARK    1  A    between atoms: C5_6  and  C6_7 
REMARK    2  A    between atoms: C5_6  and  C27_31 
REMARK    3  A    between atoms: C18_19  and  O2_20 
REMARK    4  A    between atoms: C23_25  and  O3_26 
REMARK    5  A    between atoms: C28_33  and  C29_34 
REMARK    6  A    between atoms: C29_34  and  O6_36 
REMARK    7  A    between atoms: C29_34  and  C31_37 
REMARK    8  A    between atoms: C31_37  and  C33_39 
REMARK    9  A    between atoms: C31_37  and  C34_41 
REMARK   10  A    between atoms: C33_39  and  O7_40 
REMARK   11  A    between atoms: C34_41  and  C35_42 
REMARK   12  A    between atoms: C35_42  and  C36_43 
REMARK   13  A    between atoms: C39_48  and  N2_49 
ROOT
HETATM    1  C1  UNL     1     -12.552  12.205  24.606  1.00  0.00     0.010 C 
HETATM    2  C2  UNL     1     -12.238  10.965  23.770  1.00  0.00    -0.014 C 
HETATM    3  C3  UNL     1     -10.891  11.106  23.059  1.00  0.00     0.030 C 
HETATM    4  C4  UNL     1     -10.820  10.288  21.776  1.00  0.00     0.169 C 
HETATM    5  O1  UNL     1     -11.668   9.145  21.846  1.00  0.00    -0.377 OA
HETATM    6  C5  UNL     1     -13.076   9.456  21.834  1.00  0.00     0.094 C 
HETATM    7  C41 UNL     1     -13.358  10.670  22.765  1.00  0.00     0.045 C 
ENDROOT
BRANCH   6   8
HETATM    8  C6  UNL     1     -13.850   8.164  22.284  1.00  0.00     0.035 C 
HETATM    9  C7  UNL     1     -13.842   7.000  21.186  1.00  0.00     0.016 C 
HETATM   10  C8  UNL     1     -13.724   5.692  21.978  1.00  0.00     0.026 C 
HETATM   11  C9  UNL     1     -14.319   4.382  21.500  1.00  0.00     0.013 C 
HETATM   12  C18 UNL     1     -14.319   6.086  23.324  1.00  0.00     0.094 C 
HETATM   13  C10 UNL     1     -13.965   3.299  22.560  1.00  0.00     0.043 C 
HETATM   14  C11 UNL     1     -14.042   3.764  24.008  1.00  0.00    -0.006 C 
HETATM   15  C12 UNL     1     -14.287   5.032  24.377  1.00  0.00    -0.030 C 
HETATM   16  C26 UNL     1     -13.835   2.756  25.077  1.00  0.00     0.161 C 
HETATM   17  C13 UNL     1     -14.646   5.531  25.768  1.00  0.00     0.027 C 
HETATM   18  C14 UNL     1     -13.937   6.880  26.083  1.00  0.00     0.011 C 
HETATM   19  C19 UNL     1     -14.600   4.408  26.884  1.00  0.00    -0.026 C 
HETATM   20  C15 UNL     1     -14.067   7.935  24.948  1.00  0.00     0.014 C 
HETATM   21  C16 UNL     1     -13.515   7.384  23.620  1.00  0.00    -0.002 C 
HETATM   22  C17 UNL     1     -11.992   7.118  23.797  1.00  0.00     0.019 C 
HETATM   23  C20 UNL     1     -14.201   5.014  28.254  1.00  0.00     0.016 C 
HETATM   24  C21 UNL     1     -16.028   3.791  27.022  1.00  0.00     0.013 C 
HETATM   25  C25 UNL     1     -13.611   3.266  26.506  1.00  0.00     0.071 C 
HETATM   26  C22 UNL     1     -16.104   2.612  27.992  1.00  0.00     0.032 C 
HETATM   27  C23 UNL     1     -15.082   1.527  27.670  1.00  0.00     0.119 C 
HETATM   28  C24 UNL     1     -13.668   2.085  27.496  1.00  0.00     0.045 C 
HETATM   29  O4  UNL     1     -13.771   1.566  24.773  1.00  0.00    -0.292 OA
BRANCH  27  30
HETATM   30  O3  UNL     1     -15.088   0.559  28.717  1.00  0.00    -0.396 OA
HETATM   31  H34 UNL     1     -14.756   0.982  29.526  1.00  0.00     0.210 HD
ENDBRANCH  27  30
BRANCH  12  32
HETATM   32  O2  UNL     1     -15.715   6.399  23.163  1.00  0.00    -0.384 OA
HETATM   33  H25 UNL     1     -16.204   5.566  23.054  1.00  0.00     0.211 HD
ENDBRANCH  12  32
ENDBRANCH   6   8
BRANCH   6  34
HETATM   34  C27 UNL     1     -13.440   9.755  20.364  1.00  0.00     0.189 A 
HETATM   35  O5  UNL     1     -13.413  11.154  19.997  1.00  0.00    -0.369 OA
HETATM   36  C28 UNL     1     -12.500  10.323  19.290  1.00  0.00     0.189 A 
BRANCH  36  37
HETATM   37  C29 UNL     1     -12.745  10.167  17.797  1.00  0.00     0.092 C 
HETATM   38  C30 UNL     1     -13.886  11.070  17.282  1.00  0.00     0.049 C 
BRANCH  37  39
HETATM   39  O6  UNL     1     -13.200   8.808  17.623  1.00  0.00    -0.387 OA
HETATM   40  H43 UNL     1     -14.101   8.753  17.988  1.00  0.00     0.210 HD
ENDBRANCH  37  39
BRANCH  37  41
HETATM   41  C31 UNL     1     -11.395  10.343  16.945  1.00  0.00     0.011 C 
HETATM   42  C32 UNL     1     -10.625  11.587  17.459  1.00  0.00     0.020 C 
BRANCH  41  43
HETATM   43  C33 UNL     1     -11.703  10.611  15.438  1.00  0.00     0.176 C 
BRANCH  43  44
HETATM   44  O7  UNL     1     -11.627  11.984  15.074  1.00  0.00    -0.400 OA
HETATM   45  H49 UNL     1     -11.813  12.511  15.881  1.00  0.00     0.209 HD
ENDBRANCH  43  44
ENDBRANCH  41  43
BRANCH  41  46
HETATM   46  C34 UNL     1     -10.512   9.054  17.066  1.00  0.00     0.019 C 
BRANCH  46  47
HETATM   47  C35 UNL     1     -10.018   8.362  15.780  1.00  0.00     0.039 C 
BRANCH  47  48
HETATM   48  C36 UNL     1      -8.575   7.924  15.776  1.00  0.00    -0.054 A 
HETATM   49  C37 UNL     1      -8.186   6.696  16.309  1.00  0.00     0.024 A 
HETATM   50  C38 UNL     1      -6.847   6.350  16.263  1.00  0.00     0.090 A 
HETATM   51  N1  UNL     1      -5.886   7.127  15.722  1.00  0.00    -0.357 N 
HETATM   52  C39 UNL     1      -6.261   8.301  15.195  1.00  0.00     0.077 A 
ATOM     53  H1  UNL     1      -4.909   6.832  15.715  1.00  0.00     0.166 HD
HETATM   54  C40 UNL     1      -7.587   8.728  15.195  1.00  0.00     0.049 A 
BRANCH  52  55
HETATM   55  N2  UNL     1      -5.268   9.097  14.614  1.00  0.00    -0.289 NA
HETATM   56  H56 UNL     1      -5.258  10.009  15.058  1.00  0.00     0.125 HD
HETATM   57  H57 UNL     1      -5.474   9.225  13.629  1.00  0.00     0.125 HD
ENDBRANCH  52  55
ENDBRANCH  47  48
ENDBRANCH  46  47
ENDBRANCH  41  46
ENDBRANCH  37  41
ENDBRANCH  36  37
ENDBRANCH   6  34
TORSDOF 13
ENDMDL
MODEL 2
REMARK minimizedAffinity -10.777667
REMARK CNNscore 0.436207622
REMARK CNNaffinity 7.43560028
REMARK  13 active torsions:
REMARK  status: ('A' for Active; 'I' for Inactive)
REMARK    1  A    between atoms: C5_6  and  C6_7 
REMARK    2  A    between atoms: C5_6  and  C27_31 
REMARK    3  A    between atoms: C18_19  and  O2_20 
REMARK    4  A    between atoms: C23_25  and  O3_26 
REMARK    5  A    between atoms: C28_33  and  C29_34 
REMARK    6  A    between atoms: C29_34  and  O6_36 
REMARK    7  A    between atoms: C29_34  and  C31_37 
REMARK    8  A    between atoms: C31_37  and  C33_39 
REMARK    9  A    between atoms: C31_37  and  C34_41 
REMARK   10  A    between atoms: C33_39  and  O7_40 
REMARK   11  A    between atoms: C34_41  and  C35_42 
REMARK   12  A    between atoms: C35_42  and  C36_43 
REMARK   13  A    between atoms: C39_48  and  N2_49 
ROOT
HETATM    1  C1  UNL     1       0.592   8.168   8.778  1.00  0.00     0.010 C 
HETATM    2  C2  UNL     1       1.317   7.747  10.056  1.00  0.00    -0.014 C 
HETATM    3  C3  UNL     1       1.204   6.238  10.282  1.00  0.00     0.030 C 
HETATM    4  C4  UNL     1       1.297   5.859  11.754  1.00  0.00     0.169 C 
HETATM    5  O1  UNL     1       2.074   6.806  12.481  1.00  0.00    -0.377 OA
HETATM    6  C5  UNL     1       1.447   8.097  12.623  1.00  0.00     0.094 C 
HETATM    7  C41 UNL     1       0.798   8.521  11.274  1.00  0.00     0.045 C 
ENDROOT
BRANCH   6   8
HETATM    8  C6  UNL     1       2.549   9.110  13.101  1.00  0.00     0.035 C 
HETATM    9  C7  UNL     1       2.011  10.190  14.151  1.00  0.00     0.016 C 
HETATM   10  C8  UNL     1       3.160  10.400  15.147  1.00  0.00     0.026 C 
HETATM   11  C9  UNL     1       3.399  11.714  15.864  1.00  0.00     0.013 C 
HETATM   12  C18 UNL     1       4.373  10.025  14.306  1.00  0.00     0.094 C 
HETATM   13  C10 UNL     1       4.630  11.516  16.795  1.00  0.00     0.043 C 
HETATM   14  C11 UNL     1       5.757  10.678  16.204  1.00  0.00    -0.006 C 
HETATM   15  C12 UNL     1       5.683  10.052  15.017  1.00  0.00    -0.030 C 
HETATM   16  C26 UNL     1       7.012  10.546  16.984  1.00  0.00     0.161 C 
HETATM   17  C13 UNL     1       6.830   9.431  14.234  1.00  0.00     0.027 C 
HETATM   18  C14 UNL     1       6.400   8.089  13.576  1.00  0.00     0.011 C 
HETATM   19  C19 UNL     1       8.216   9.453  15.000  1.00  0.00    -0.026 C 
HETATM   20  C15 UNL     1       5.046   8.170  12.814  1.00  0.00     0.014 C 
HETATM   21  C16 UNL     1       3.918   8.647  13.749  1.00  0.00    -0.002 C 
HETATM   22  C17 UNL     1       3.726   7.582  14.866  1.00  0.00     0.019 C 
HETATM   23  C20 UNL     1       9.082   8.232  14.599  1.00  0.00     0.016 C 
HETATM   24  C21 UNL     1       8.985  10.750  14.590  1.00  0.00     0.013 C 
HETATM   25  C25 UNL     1       8.017   9.474  16.544  1.00  0.00     0.071 C 
HETATM   26  C22 UNL     1      10.298  10.957  15.342  1.00  0.00     0.032 C 
HETATM   27  C23 UNL     1      10.118  10.898  16.855  1.00  0.00     0.119 C 
HETATM   28  C24 UNL     1       9.343   9.659  17.307  1.00  0.00     0.045 C 
HETATM   29  O4  UNL     1       7.166  11.236  17.989  1.00  0.00    -0.292 OA
BRANCH  27  30
HETATM   30  O3  UNL     1      11.401  10.913  17.477  1.00  0.00    -0.396 OA
HETATM   31  H34 UNL     1      11.860  10.087  17.248  1.00  0.00     0.210 HD
ENDBRANCH  27  30
BRANCH  12  32
HETATM   32  O2  UNL     1       4.525  10.967  13.227  1.00  0.00    -0.384 OA
HETATM   33  H25 UNL     1       4.881  11.794  13.592  1.00  0.00     0.211 HD
ENDBRANCH  12  32
ENDBRANCH   6   8
BRANCH   6  34
HETATM   34  C27 UNL     1       0.400   7.948  13.748  1.00  0.00     0.189 A 
HETATM   35  O5  UNL     1      -0.806   8.726  13.572  1.00  0.00    -0.369 OA
HETATM   36  C28 UNL     1      -0.994   7.317  13.617  1.00  0.00     0.189 A 
BRANCH  36  37
HETATM   37  C29 UNL     1      -1.782   6.778  14.801  1.00  0.00     0.092 C 
HETATM   38  C30 UNL     1      -1.817   7.760  15.991  1.00  0.00     0.049 C 
BRANCH  37  39
HETATM   39  O6  UNL     1      -1.047   5.623  15.257  1.00  0.00    -0.387 OA
HETATM   40  H43 UNL     1      -0.231   5.943  15.680  1.00  0.00     0.210 HD
ENDBRANCH  37  39
BRANCH  37  41
HETATM   41  C31 UNL     1      -3.250   6.286  14.373  1.00  0.00     0.011 C 
HETATM   42  C32 UNL     1      -3.856   7.302  13.371  1.00  0.00     0.020 C 
BRANCH  41  43
HETATM   43  C33 UNL     1      -4.218   6.245  15.597  1.00  0.00     0.176 C 
BRANCH  43  44
HETATM   44  O7  UNL     1      -5.176   7.297  15.602  1.00  0.00    -0.400 OA
HETATM   45  H49 UNL     1      -4.790   8.047  15.101  1.00  0.00     0.209 HD
ENDBRANCH  43  44
ENDBRANCH  41  43
BRANCH  41  46
HETATM   46  C34 UNL     1      -3.170   4.856  13.734  1.00  0.00     0.019 C 
BRANCH  46  47
HETATM   47  C35 UNL     1      -3.731   4.640  12.314  1.00  0.00     0.039 C 
BRANCH  47  48
HETATM   48  C36 UNL     1      -4.877   3.669  12.195  1.00  0.00    -0.054 A 
HETATM   49  C37 UNL     1      -4.743   2.466  11.501  1.00  0.00     0.024 A 
HETATM   50  C38 UNL     1      -5.832   1.614  11.441  1.00  0.00     0.090 A 
HETATM   51  N1  UNL     1      -7.022   1.868  12.023  1.00  0.00    -0.357 N 
HETATM   52  C39 UNL     1      -7.147   3.016  12.703  1.00  0.00     0.077 A 
ATOM     53  H1  UNL     1      -7.799   1.211  11.948  1.00  0.00     0.166 HD
HETATM   54  C40 UNL     1      -6.103   3.931  12.819  1.00  0.00     0.049 A 
BRANCH  52  55
HETATM   55  N2  UNL     1      -8.374   3.271  13.326  1.00  0.00    -0.289 NA
HETATM   56  H56 UNL     1      -8.749   4.152  12.994  1.00  0.00     0.125 HD
HETATM   57  H57 UNL     1      -8.232   3.342  14.328  1.00  0.00     0.125 HD
ENDBRANCH  52  55
ENDBRANCH  47  48
ENDBRANCH  46  47
ENDBRANCH  41  46
ENDBRANCH  37  41
ENDBRANCH  36  37
ENDBRANCH   6  34
TORSDOF 13
ENDMDL
MODEL 3
REMARK minimizedAffinity -10.6084843
REMARK CNNscore 0.405921012
REMARK CNNaffinity 7.12992477
REMARK  13 active torsions:
REMARK  status: ('A' for Active; 'I' for Inactive)
REMARK    1  A    between atoms: C5_6  and  C6_7 
REMARK    2  A    between atoms: C5_6  and  C27_31 
REMARK    3  A    between atoms: C18_19  and  O2_20 
REMARK    4  A    between atoms: C23_25  and  O3_26 
REMARK    5  A    between atoms: C28_33  and  C29_34 
REMARK    6  A    between atoms: C29_34  and  O6_36 
REMARK    7  A    between atoms: C29_34  and  C31_37 
REMARK    8  A    between atoms: C31_37  and  C33_39 
REMARK    9  A    between atoms: C31_37  and  C34_41 
REMARK   10  A    between atoms: C33_39  and  O7_40 
REMARK   11  A    between atoms: C34_41  and  C35_42 
REMARK   12  A    between atoms: C35_42  and  C36_43 
REMARK   13  A    between atoms: C39_48  and  N2_49 
ROOT
HETATM    1  C1  UNL     1      -3.617  12.673  19.161  1.00  0.00     0.010 C 
HETATM    2  C2  UNL     1      -2.576  12.354  18.088  1.00  0.00    -0.014 C 
HETATM    3  C3  UNL     1      -3.082  12.741  16.697  1.00  0.00     0.030 C 
HETATM    4  C4  UNL     1      -2.451  11.904  15.592  1.00  0.00     0.169 C 
HETATM    5  O1  UNL     1      -1.153  11.451  15.966  1.00  0.00    -0.377 OA
HETATM    6  C5  UNL     1      -1.155  10.465  17.019  1.00  0.00     0.094 C 
HETATM    7  C41 UNL     1      -2.166  10.877  18.128  1.00  0.00     0.045 C 
ENDROOT
BRANCH   6   8
HETATM    8  C6  UNL     1       0.315  10.350  17.563  1.00  0.00     0.035 C 
HETATM    9  C7  UNL     1       1.421  10.307  16.409  1.00  0.00     0.016 C 
HETATM   10  C8  UNL     1       2.613  11.106  16.954  1.00  0.00     0.026 C 
HETATM   11  C9  UNL     1       4.049  10.809  16.571  1.00  0.00     0.013 C 
HETATM   12  C18 UNL     1       2.423  10.961  18.458  1.00  0.00     0.094 C 
HETATM   13  C10 UNL     1       4.948  11.844  17.307  1.00  0.00     0.043 C 
HETATM   14  C11 UNL     1       4.521  12.170  18.733  1.00  0.00    -0.006 C 
HETATM   15  C12 UNL     1       3.400  11.702  19.305  1.00  0.00    -0.030 C 
HETATM   16  C26 UNL     1       5.397  13.056  19.538  1.00  0.00     0.161 C 
HETATM   17  C13 UNL     1       3.034  11.749  20.781  1.00  0.00     0.027 C 
HETATM   18  C14 UNL     1       1.525  12.073  20.978  1.00  0.00     0.011 C 
HETATM   19  C19 UNL     1       4.071  12.548  21.674  1.00  0.00    -0.026 C 
HETATM   20  C15 UNL     1       0.580  11.216  20.088  1.00  0.00     0.014 C 
HETATM   21  C16 UNL     1       0.931  11.378  18.597  1.00  0.00    -0.002 C 
HETATM   22  C17 UNL     1       0.683  12.860  18.195  1.00  0.00     0.019 C 
HETATM   23  C20 UNL     1       3.356  13.217  22.875  1.00  0.00     0.016 C 
HETATM   24  C21 UNL     1       5.121  11.535  22.235  1.00  0.00     0.013 C 
HETATM   25  C25 UNL     1       4.829  13.625  20.845  1.00  0.00     0.071 C 
HETATM   26  C22 UNL     1       6.250  12.189  23.029  1.00  0.00     0.032 C 
HETATM   27  C23 UNL     1       6.944  13.300  22.246  1.00  0.00     0.119 C 
HETATM   28  C24 UNL     1       5.956  14.304  21.650  1.00  0.00     0.045 C 
HETATM   29  O4  UNL     1       6.503  13.365  19.098  1.00  0.00    -0.292 OA
BRANCH  27  30
HETATM   30  O3  UNL     1       7.852  13.979  23.111  1.00  0.00    -0.396 OA
HETATM   31  H34 UNL     1       7.337  14.440  23.794  1.00  0.00     0.210 HD
ENDBRANCH  27  30
BRANCH  12  32
HETATM   32  O2  UNL     1       2.585   9.581  18.837  1.00  0.00    -0.384 OA
HETATM   33  H25 UNL     1       3.534   9.368  18.812  1.00  0.00     0.211 HD
ENDBRANCH  12  32
ENDBRANCH   6   8
BRANCH   6  34
HETATM   34  C27 UNL     1      -1.536   9.125  16.355  1.00  0.00     0.189 A 
HETATM   35  O5  UNL     1      -2.934   8.766  16.455  1.00  0.00    -0.369 OA
HETATM   36  C28 UNL     1      -2.445   8.941  15.131  1.00  0.00     0.189 A 
BRANCH  36  37
HETATM   37  C29 UNL     1      -2.420   7.701  14.250  1.00  0.00     0.092 C 
HETATM   38  C30 UNL     1      -1.442   6.624  14.764  1.00  0.00     0.049 C 
BRANCH  37  39
HETATM   39  O6  UNL     1      -1.897   8.144  12.980  1.00  0.00    -0.387 OA
HETATM   40  H43 UNL     1      -0.950   8.330  13.103  1.00  0.00     0.210 HD
ENDBRANCH  37  39
BRANCH  37  41
HETATM   41  C31 UNL     1      -3.893   7.115  13.995  1.00  0.00     0.011 C 
HETATM   42  C32 UNL     1      -4.843   8.275  13.600  1.00  0.00     0.020 C 
BRANCH  41  43
HETATM   43  C33 UNL     1      -4.489   6.483  15.292  1.00  0.00     0.176 C 
BRANCH  43  44
HETATM   44  O7  UNL     1      -3.502   6.071  16.231  1.00  0.00    -0.400 OA
HETATM   45  H49 UNL     1      -2.683   5.876  15.728  1.00  0.00     0.209 HD
ENDBRANCH  43  44
ENDBRANCH  41  43
BRANCH  41  46
HETATM   46  C34 UNL     1      -3.850   6.026  12.868  1.00  0.00     0.019 C 
BRANCH  46  47
HETATM   47  C35 UNL     1      -3.789   4.538  13.268  1.00  0.00     0.039 C 
BRANCH  47  48
HETATM   48  C36 UNL     1      -4.879   3.658  12.710  1.00  0.00    -0.054 A 
HETATM   49  C37 UNL     1      -4.601   2.660  11.776  1.00  0.00     0.024 A 
HETATM   50  C38 UNL     1      -5.647   1.880  11.314  1.00  0.00     0.090 A 
HETATM   51  N1  UNL     1      -6.927   2.016  11.718  1.00  0.00    -0.357 N 
HETATM   52  C39 UNL     1      -7.191   2.965  12.627  1.00  0.00     0.077 A 
ATOM     53  H1  UNL     1      -7.666   1.420  11.345  1.00  0.00     0.166 HD
HETATM   54  C40 UNL     1      -6.201   3.793  13.150  1.00  0.00     0.049 A 
BRANCH  52  55
HETATM   55  N2  UNL     1      -8.515   3.093  13.063  1.00  0.00    -0.289 NA
HETATM   56  H56 UNL     1      -8.839   4.039  12.898  1.00  0.00     0.125 HD
HETATM   57  H57 UNL     1      -8.557   2.911  14.061  1.00  0.00     0.125 HD
ENDBRANCH  52  55
ENDBRANCH  47  48
ENDBRANCH  46  47
ENDBRANCH  41  46
ENDBRANCH  37  41
ENDBRANCH  36  37
ENDBRANCH   6  34
TORSDOF 13
ENDMDL
MODEL 4
REMARK minimizedAffinity -9.76185322
REMARK CNNscore 0.28069222
REMARK CNNaffinity 7.72174406
REMARK  13 active torsions:
REMARK  status: ('A' for Active; 'I' for Inactive)
REMARK    1  A    between atoms: C5_6  and  C6_7 
REMARK    2  A    between atoms: C5_6  and  C27_31 
REMARK    3  A    between atoms: C18_19  and  O2_20 
REMARK    4  A    between atoms: C23_25  and  O3_26 
REMARK    5  A    between atoms: C28_33  and  C29_34 
REMARK    6  A    between atoms: C29_34  and  O6_36 
REMARK    7  A    between atoms: C29_34  and  C31_37 
REMARK    8  A    between atoms: C31_37  and  C33_39 
REMARK    9  A    between atoms: C31_37  and  C34_41 
REMARK   10  A    between atoms: C33_39  and  O7_40 
REMARK   11  A    between atoms: C34_41  and  C35_42 
REMARK   12  A    between atoms: C35_42  and  C36_43 
REMARK   13  A    between atoms: C39_48  and  N2_49 
ROOT
HETATM    1  C1  UNL     1      -3.516   1.184  11.702  1.00  0.00     0.010 C 
HETATM    2  C2  UNL     1      -3.948   2.647  11.796  1.00  0.00    -0.014 C 
HETATM    3  C3  UNL     1      -3.244   3.499  10.739  1.00  0.00     0.030 C 
HETATM    4  C4  UNL     1      -3.101   4.955  11.162  1.00  0.00     0.169 C 
HETATM    5  O1  UNL     1      -4.145   5.337  12.053  1.00  0.00    -0.377 OA
HETATM    6  C5  UNL     1      -4.064   4.718  13.354  1.00  0.00     0.094 C 
HETATM    7  C41 UNL     1      -3.708   3.211  13.202  1.00  0.00     0.045 C 
ENDROOT
BRANCH   6   8
HETATM    8  C6  UNL     1      -5.447   4.936  14.069  1.00  0.00     0.035 C 
HETATM    9  C7  UNL     1      -5.312   5.495  15.562  1.00  0.00     0.016 C 
HETATM   10  C8  UNL     1      -6.480   6.474  15.739  1.00  0.00     0.026 C 
HETATM   11  C9  UNL     1      -7.150   6.723  17.076  1.00  0.00     0.013 C 
HETATM   12  C18 UNL     1      -7.489   5.942  14.730  1.00  0.00     0.094 C 
HETATM   13  C10 UNL     1      -8.261   7.789  16.844  1.00  0.00     0.043 C 
HETATM   14  C11 UNL     1      -9.039   7.638  15.543  1.00  0.00    -0.006 C 
HETATM   15  C12 UNL     1      -8.744   6.733  14.594  1.00  0.00    -0.030 C 
HETATM   16  C26 UNL     1     -10.191   8.542  15.310  1.00  0.00     0.161 C 
HETATM   17  C13 UNL     1      -9.609   6.332  13.409  1.00  0.00     0.027 C 
HETATM   18  C14 UNL     1      -8.750   6.127  12.128  1.00  0.00     0.011 C 
HETATM   19  C19 UNL     1     -10.936   7.184  13.265  1.00  0.00    -0.026 C 
HETATM   20  C15 UNL     1      -7.488   5.247  12.356  1.00  0.00     0.014 C 
HETATM   21  C16 UNL     1      -6.595   5.841  13.461  1.00  0.00    -0.002 C 
HETATM   22  C17 UNL     1      -6.078   7.227  12.980  1.00  0.00     0.019 C 
HETATM   23  C20 UNL     1     -11.343   7.314  11.775  1.00  0.00     0.016 C 
HETATM   24  C21 UNL     1     -12.084   6.440  14.020  1.00  0.00     0.013 C 
HETATM   25  C25 UNL     1     -10.778   8.600  13.893  1.00  0.00     0.071 C 
HETATM   26  C22 UNL     1     -13.403   7.210  14.056  1.00  0.00     0.032 C 
HETATM   27  C23 UNL     1     -13.236   8.626  14.598  1.00  0.00     0.119 C 
HETATM   28  C24 UNL     1     -12.102   9.389  13.911  1.00  0.00     0.045 C 
HETATM   29  O4  UNL     1     -10.580   9.264  16.225  1.00  0.00    -0.292 OA
BRANCH  27  30
HETATM   30  O3  UNL     1     -14.462   9.336  14.429  1.00  0.00    -0.396 OA
HETATM   31  H34 UNL     1     -14.618   9.450  13.476  1.00  0.00     0.210 HD
ENDBRANCH  27  30
BRANCH  12  32
HETATM   32  O2  UNL     1      -7.927   4.629  15.128  1.00  0.00    -0.384 OA
HETATM   33  H25 UNL     1      -8.542   4.726  15.875  1.00  0.00     0.211 HD
ENDBRANCH  12  32
ENDBRANCH   6   8
BRANCH   6  34
HETATM   34  C27 UNL     1      -2.983   5.494  14.135  1.00  0.00     0.189 A 
HETATM   35  O5  UNL     1      -1.618   5.149  13.803  1.00  0.00    -0.369 OA
HETATM   36  C28 UNL     1      -1.981   6.500  13.549  1.00  0.00     0.189 A 
BRANCH  36  37
HETATM   37  C29 UNL     1      -1.274   7.558  14.382  1.00  0.00     0.092 C 
HETATM   38  C30 UNL     1      -0.401   6.952  15.500  1.00  0.00     0.049 C 
BRANCH  37  39
HETATM   39  O6  UNL     1      -2.326   8.289  15.047  1.00  0.00    -0.387 OA
HETATM   40  H43 UNL     1      -2.702   7.705  15.729  1.00  0.00     0.210 HD
ENDBRANCH  37  39
BRANCH  37  41
HETATM   41  C31 UNL     1      -0.459   8.598  13.468  1.00  0.00     0.011 C 
HETATM   42  C32 UNL     1       0.615   9.306  14.333  1.00  0.00     0.020 C 
BRANCH  41  43
HETATM   43  C33 UNL     1      -1.389   9.723  12.916  1.00  0.00     0.176 C 
BRANCH  43  44
HETATM   44  O7  UNL     1      -1.380  10.909  13.703  1.00  0.00    -0.400 OA
HETATM   45  H49 UNL     1      -1.144  10.649  14.619  1.00  0.00     0.209 HD
ENDBRANCH  43  44
ENDBRANCH  41  43
BRANCH  41  46
HETATM   46  C34 UNL     1       0.206   7.846  12.264  1.00  0.00     0.019 C 
BRANCH  46  47
HETATM   47  C35 UNL     1      -0.094   8.322  10.828  1.00  0.00     0.039 C 
BRANCH  47  48
HETATM   48  C36 UNL     1       0.768   7.731   9.741  1.00  0.00    -0.054 A 
HETATM   49  C37 UNL     1       0.810   8.287   8.463  1.00  0.00     0.024 A 
HETATM   50  C38 UNL     1       1.632   7.702   7.515  1.00  0.00     0.090 A 
HETATM   51  N1  UNL     1       2.408   6.624   7.752  1.00  0.00    -0.357 N 
HETATM   52  C39 UNL     1       2.380   6.099   8.985  1.00  0.00     0.077 A 
ATOM     53  H1  UNL     1       2.995   6.223   7.020  1.00  0.00     0.166 HD
HETATM   54  C40 UNL     1       1.586   6.624  10.001  1.00  0.00     0.049 A 
BRANCH  52  55
HETATM   55  N2  UNL     1       3.202   4.995   9.238  1.00  0.00    -0.289 NA
HETATM   56  H56 UNL     1       2.640   4.219   9.570  1.00  0.00     0.125 HD
HETATM   57  H57 UNL     1       3.872   5.235   9.961  1.00  0.00     0.125 HD
ENDBRANCH  52  55
ENDBRANCH  47  48
ENDBRANCH  46  47
ENDBRANCH  41  46
ENDBRANCH  37  41
ENDBRANCH  36  37
ENDBRANCH   6  34
TORSDOF 13
ENDMDL
MODEL 5
REMARK minimizedAffinity -8.61095238
REMARK CNNscore 0.277279645
REMARK CNNaffinity 6.61775208
REMARK  13 active torsions:
REMARK  status: ('A' for Active; 'I' for Inactive)
REMARK    1  A    between atoms: C5_6  and  C6_7 
REMARK    2  A    between atoms: C5_6  and  C27_31 
REMARK    3  A    between atoms: C18_19  and  O2_20 
REMARK    4  A    between atoms: C23_25  and  O3_26 
REMARK    5  A    between atoms: C28_33  and  C29_34 
REMARK    6  A    between atoms: C29_34  and  O6_36 
REMARK    7  A    between atoms: C29_34  and  C31_37 
REMARK    8  A    between atoms: C31_37  and  C33_39 
REMARK    9  A    between atoms: C31_37  and  C34_41 
REMARK   10  A    between atoms: C33_39  and  O7_40 
REMARK   11  A    between atoms: C34_41  and  C35_42 
REMARK   12  A    between atoms: C35_42  and  C36_43 
REMARK   13  A    between atoms: C39_48  and  N2_49 
ROOT
HETATM    1  C1  UNL     1     -13.256  12.561  23.959  1.00  0.00     0.010 C 
HETATM    2  C2  UNL     1     -12.698  11.212  23.509  1.00  0.00    -0.014 C 
HETATM    3  C3  UNL     1     -11.217  11.323  23.140  1.00  0.00     0.030 C 
HETATM    4  C4  UNL     1     -10.790  10.279  22.118  1.00  0.00     0.169 C 
HETATM    5  O1  UNL     1     -11.591   9.105  22.215  1.00  0.00    -0.377 OA
HETATM    6  C5  UNL     1     -12.956   9.287  21.789  1.00  0.00     0.094 C 
HETATM    7  C41 UNL     1     -13.508  10.632  22.343  1.00  0.00     0.045 C 
ENDROOT
BRANCH   6   8
HETATM    8  C6  UNL     1     -13.780   8.048  22.295  1.00  0.00     0.035 C 
HETATM    9  C7  UNL     1     -13.832   6.843  21.244  1.00  0.00     0.016 C 
HETATM   10  C8  UNL     1     -13.762   5.563  22.087  1.00  0.00     0.026 C 
HETATM   11  C9  UNL     1     -14.417   4.262  21.665  1.00  0.00     0.013 C 
HETATM   12  C18 UNL     1     -14.327   6.035  23.420  1.00  0.00     0.094 C 
HETATM   13  C10 UNL     1     -14.099   3.207  22.765  1.00  0.00     0.043 C 
HETATM   14  C11 UNL     1     -14.143   3.731  24.194  1.00  0.00    -0.006 C 
HETATM   15  C12 UNL     1     -14.331   5.022  24.514  1.00  0.00    -0.030 C 
HETATM   16  C26 UNL     1     -13.970   2.758  25.300  1.00  0.00     0.161 C 
HETATM   17  C13 UNL     1     -14.657   5.590  25.887  1.00  0.00     0.027 C 
HETATM   18  C14 UNL     1     -13.889   6.919  26.143  1.00  0.00     0.011 C 
HETATM   19  C19 UNL     1     -14.648   4.511  27.046  1.00  0.00    -0.026 C 
HETATM   20  C15 UNL     1     -13.983   7.934  24.968  1.00  0.00     0.014 C 
HETATM   21  C16 UNL     1     -13.467   7.308  23.659  1.00  0.00    -0.002 C 
HETATM   22  C17 UNL     1     -11.955   6.984  23.835  1.00  0.00     0.019 C 
HETATM   23  C20 UNL     1     -14.212   5.153  28.388  1.00  0.00     0.016 C 
HETATM   24  C21 UNL     1     -16.101   3.961  27.218  1.00  0.00     0.013 C 
HETATM   25  C25 UNL     1     -13.712   3.314  26.706  1.00  0.00     0.071 C 
HETATM   26  C22 UNL     1     -16.218   2.826  28.234  1.00  0.00     0.032 C 
HETATM   27  C23 UNL     1     -15.245   1.687  27.948  1.00  0.00     0.119 C 
HETATM   28  C24 UNL     1     -13.810   2.177  27.742  1.00  0.00     0.045 C 
HETATM   29  O4  UNL     1     -13.960   1.556  25.043  1.00  0.00    -0.292 OA
BRANCH  27  30
HETATM   30  O3  UNL     1     -15.283   0.761  29.033  1.00  0.00    -0.396 OA
HETATM   31  H34 UNL     1     -14.926   1.202  29.822  1.00  0.00     0.210 HD
ENDBRANCH  27  30
BRANCH  12  32
HETATM   32  O2  UNL     1     -15.711   6.401  23.257  1.00  0.00    -0.384 OA
HETATM   33  H25 UNL     1     -16.235   5.585  23.184  1.00  0.00     0.211 HD
ENDBRANCH  12  32
ENDBRANCH   6   8
BRANCH   6  34
HETATM   34  C27 UNL     1     -12.935   9.261  20.245  1.00  0.00     0.189 A 
HETATM   35  O5  UNL     1     -13.613  10.365  19.603  1.00  0.00    -0.369 OA
HETATM   36  C28 UNL     1     -12.222  10.264  19.327  1.00  0.00     0.189 A 
BRANCH  36  37
HETATM   37  C29 UNL     1     -11.838   9.954  17.888  1.00  0.00     0.092 C 
HETATM   38  C30 UNL     1     -12.997   9.331  17.083  1.00  0.00     0.049 C 
BRANCH  37  39
HETATM   39  O6  UNL     1     -10.817   8.938  17.974  1.00  0.00    -0.387 OA
HETATM   40  H43 UNL     1     -11.249   8.113  18.255  1.00  0.00     0.210 HD
ENDBRANCH  37  39
BRANCH  37  41
HETATM   41  C31 UNL     1     -11.199  11.229  17.149  1.00  0.00     0.011 C 
HETATM   42  C32 UNL     1     -10.588  12.181  18.209  1.00  0.00     0.020 C 
BRANCH  41  43
HETATM   43  C33 UNL     1     -12.286  12.055  16.392  1.00  0.00     0.176 C 
BRANCH  43  44
HETATM   44  O7  UNL     1     -12.772  13.171  17.130  1.00  0.00    -0.400 OA
HETATM   45  H49 UNL     1     -12.655  12.964  18.082  1.00  0.00     0.209 HD
ENDBRANCH  43  44
ENDBRANCH  41  43
BRANCH  41  46
HETATM   46  C34 UNL     1     -10.106  10.763  16.126  1.00  0.00     0.019 C 
BRANCH  46  47
HETATM   47  C35 UNL     1      -9.973   9.260  15.807  1.00  0.00     0.039 C 
BRANCH  47  48
HETATM   48  C36 UNL     1     -10.585   8.802  14.507  1.00  0.00    -0.054 A 
HETATM   49  C37 UNL     1     -10.517   7.470  14.101  1.00  0.00     0.024 A 
HETATM   50  C38 UNL     1     -11.111   7.115  12.902  1.00  0.00     0.090 A 
HETATM   51  N1  UNL     1     -11.764   7.979  12.098  1.00  0.00    -0.357 N 
HETATM   52  C39 UNL     1     -11.843   9.256  12.496  1.00  0.00     0.077 A 
ATOM     53  H1  UNL     1     -12.183   7.672  11.220  1.00  0.00     0.166 HD
HETATM   54  C40 UNL     1     -11.279   9.702  13.689  1.00  0.00     0.049 A 
BRANCH  52  55
HETATM   55  N2  UNL     1     -12.540  10.149  11.674  1.00  0.00    -0.289 NA
HETATM   56  H56 UNL     1     -11.934  10.919  11.416  1.00  0.00     0.125 HD
HETATM   57  H57 UNL     1     -13.332  10.525  12.185  1.00  0.00     0.125 HD
ENDBRANCH  52  55
ENDBRANCH  47  48
ENDBRANCH  46  47
ENDBRANCH  41  46
ENDBRANCH  37  41
ENDBRANCH  36  37
ENDBRANCH   6  34
TORSDOF 13
ENDMDL
MODEL 6
REMARK minimizedAffinity -8.75175953
REMARK CNNscore 0.249298245
REMARK CNNaffinity 6.25215483
REMARK  13 active torsions:
REMARK  status: ('A' for Active; 'I' for Inactive)
REMARK    1  A    between atoms: C5_6  and  C6_7 
REMARK    2  A    between atoms: C5_6  and  C27_31 
REMARK    3  A    between atoms: C18_19  and  O2_20 
REMARK    4  A    between atoms: C23_25  and  O3_26 
REMARK    5  A    between atoms: C28_33  and  C29_34 
REMARK    6  A    between atoms: C29_34  and  O6_36 
REMARK    7  A    between atoms: C29_34  and  C31_37 
REMARK    8  A    between atoms: C31_37  and  C33_39 
REMARK    9  A    between atoms: C31_37  and  C34_41 
REMARK   10  A    between atoms: C33_39  and  O7_40 
REMARK   11  A    between atoms: C34_41  and  C35_42 
REMARK   12  A    between atoms: C35_42  and  C36_43 
REMARK   13  A    between atoms: C39_48  and  N2_49 
ROOT
HETATM    1  C1  UNL     1       2.865  12.400  14.902  1.00  0.00     0.010 C 
HETATM    2  C2  UNL     1       2.684  11.431  16.070  1.00  0.00    -0.014 C 
HETATM    3  C3  UNL     1       2.415  10.010  15.571  1.00  0.00     0.030 C 
HETATM    4  C4  UNL     1       1.611   9.184  16.566  1.00  0.00     0.169 C 
HETATM    5  O1  UNL     1       1.838   9.624  17.902  1.00  0.00    -0.377 OA
HETATM    6  C5  UNL     1       1.286  10.924  18.195  1.00  0.00     0.094 C 
HETATM    7  C41 UNL     1       1.571  11.897  17.016  1.00  0.00     0.045 C 
ENDROOT
BRANCH   6   8
HETATM    8  C6  UNL     1       1.924  11.416  19.545  1.00  0.00     0.035 C 
HETATM    9  C7  UNL     1       2.231  10.232  20.575  1.00  0.00     0.016 C 
HETATM   10  C8  UNL     1       3.549  10.618  21.260  1.00  0.00     0.026 C 
HETATM   11  C9  UNL     1       3.886  10.217  22.683  1.00  0.00     0.013 C 
HETATM   12  C18 UNL     1       3.539  12.135  21.123  1.00  0.00     0.094 C 
HETATM   13  C10 UNL     1       5.305  10.774  22.996  1.00  0.00     0.043 C 
HETATM   14  C11 UNL     1       5.592  12.161  22.436  1.00  0.00    -0.006 C 
HETATM   15  C12 UNL     1       4.749  12.836  21.637  1.00  0.00    -0.030 C 
HETATM   16  C26 UNL     1       6.879  12.806  22.795  1.00  0.00     0.161 C 
HETATM   17  C13 UNL     1       4.825  14.307  21.257  1.00  0.00     0.027 C 
HETATM   18  C14 UNL     1       4.453  14.523  19.762  1.00  0.00     0.011 C 
HETATM   19  C19 UNL     1       6.119  15.044  21.797  1.00  0.00    -0.026 C 
HETATM   20  C15 UNL     1       3.149  13.794  19.330  1.00  0.00     0.014 C 
HETATM   21  C16 UNL     1       3.249  12.281  19.603  1.00  0.00    -0.002 C 
HETATM   22  C17 UNL     1       4.388  11.699  18.716  1.00  0.00     0.019 C 
HETATM   23  C20 UNL     1       6.548  16.176  20.830  1.00  0.00     0.016 C 
HETATM   24  C21 UNL     1       5.778  15.688  23.180  1.00  0.00     0.013 C 
HETATM   25  C25 UNL     1       7.300  14.050  22.002  1.00  0.00     0.071 C 
HETATM   26  C22 UNL     1       6.974  16.342  23.871  1.00  0.00     0.032 C 
HETATM   27  C23 UNL     1       8.161  15.392  24.001  1.00  0.00     0.119 C 
HETATM   28  C24 UNL     1       8.517  14.712  22.678  1.00  0.00     0.045 C 
HETATM   29  O4  UNL     1       7.592  12.284  23.649  1.00  0.00    -0.292 OA
BRANCH  27  30
HETATM   30  O3  UNL     1       9.288  16.122  24.482  1.00  0.00    -0.396 OA
HETATM   31  H34 UNL     1       9.553  16.760  23.798  1.00  0.00     0.210 HD
ENDBRANCH  27  30
BRANCH  12  32
HETATM   32  O2  UNL     1       2.448  12.683  21.887  1.00  0.00    -0.384 OA
HETATM   33  H25 UNL     1       2.687  12.647  22.829  1.00  0.00     0.211 HD
ENDBRANCH  12  32
ENDBRANCH   6   8
BRANCH   6  34
HETATM   34  C27 UNL     1      -0.226  10.711  18.420  1.00  0.00     0.189 A 
HETATM   35  O5  UNL     1      -0.982  11.914  18.691  1.00  0.00    -0.369 OA
HETATM   36  C28 UNL     1      -1.361  11.211  17.514  1.00  0.00     0.189 A 
BRANCH  36  37
HETATM   37  C29 UNL     1      -2.756  10.604  17.508  1.00  0.00     0.092 C 
HETATM   38  C30 UNL     1      -3.600  11.037  18.725  1.00  0.00     0.049 C 
BRANCH  37  39
HETATM   39  O6  UNL     1      -2.555   9.182  17.645  1.00  0.00    -0.387 OA
HETATM   40  H43 UNL     1      -2.260   9.014  18.557  1.00  0.00     0.210 HD
ENDBRANCH  37  39
BRANCH  37  41
HETATM   41  C31 UNL     1      -3.516  10.860  16.117  1.00  0.00     0.011 C 
HETATM   42  C32 UNL     1      -2.469  11.094  14.998  1.00  0.00     0.020 C 
BRANCH  41  43
HETATM   43  C33 UNL     1      -4.393  12.151  16.174  1.00  0.00     0.176 C 
BRANCH  43  44
HETATM   44  O7  UNL     1      -3.701  13.329  15.776  1.00  0.00    -0.400 OA
HETATM   45  H49 UNL     1      -2.747  13.180  15.950  1.00  0.00     0.209 HD
ENDBRANCH  43  44
ENDBRANCH  41  43
BRANCH  41  46
HETATM   46  C34 UNL     1      -4.432   9.634  15.773  1.00  0.00     0.019 C 
BRANCH  46  47
HETATM   47  C35 UNL     1      -4.434   9.083  14.333  1.00  0.00     0.039 C 
BRANCH  47  48
HETATM   48  C36 UNL     1      -4.017   7.643  14.175  1.00  0.00    -0.054 A 
HETATM   49  C37 UNL     1      -2.789   7.185  14.650  1.00  0.00     0.024 A 
HETATM   50  C38 UNL     1      -2.474   5.847  14.482  1.00  0.00     0.090 A 
HETATM   51  N1  UNL     1      -3.289   4.948  13.892  1.00  0.00    -0.357 N 
HETATM   52  C39 UNL     1      -4.476   5.385  13.450  1.00  0.00     0.077 A 
ATOM     53  H1  UNL     1      -3.011   3.972  13.787  1.00  0.00     0.166 HD
HETATM   54  C40 UNL     1      -4.878   6.712  13.579  1.00  0.00     0.049 A 
BRANCH  52  55
HETATM   55  N2  UNL     1      -5.331   4.449  12.858  1.00  0.00    -0.289 NA
HETATM   56  H56 UNL     1      -5.572   4.751  11.921  1.00  0.00     0.125 HD
HETATM   57  H57 UNL     1      -6.185   4.385  13.402  1.00  0.00     0.125 HD
ENDBRANCH  52  55
ENDBRANCH  47  48
ENDBRANCH  46  47
ENDBRANCH  41  46
ENDBRANCH  37  41
ENDBRANCH  36  37
ENDBRANCH   6  34
TORSDOF 13
ENDMDL
MODEL 7
REMARK minimizedAffinity -9.19921494
REMARK CNNscore 0.238598853
REMARK CNNaffinity 6.83556747
REMARK  13 active torsions:
REMARK  status: ('A' for Active; 'I' for Inactive)
REMARK    1  A    between atoms: C5_6  and  C6_7 
REMARK    2  A    between atoms: C5_6  and  C27_31 
REMARK    3  A    between atoms: C18_19  and  O2_20 
REMARK    4  A    between atoms: C23_25  and  O3_26 
REMARK    5  A    between atoms: C28_33  and  C29_34 
REMARK    6  A    between atoms: C29_34  and  O6_36 
REMARK    7  A    between atoms: C29_34  and  C31_37 
REMARK    8  A    between atoms: C31_37  and  C33_39 
REMARK    9  A    between atoms: C31_37  and  C34_41 
REMARK   10  A    between atoms: C33_39  and  O7_40 
REMARK   11  A    between atoms: C34_41  and  C35_42 
REMARK   12  A    between atoms: C35_42  and  C36_43 
REMARK   13  A    between atoms: C39_48  and  N2_49 
ROOT
HETATM    1  C1  UNL     1       3.124   4.389   9.286  1.00  0.00     0.010 C 
HETATM    2  C2  UNL     1       2.809   5.821   9.718  1.00  0.00    -0.014 C 
HETATM    3  C3  UNL     1       3.200   6.823   8.630  1.00  0.00     0.030 C 
HETATM    4  C4  UNL     1       3.530   8.198   9.194  1.00  0.00     0.169 C 
HETATM    5  O1  UNL     1       2.823   8.441  10.407  1.00  0.00    -0.377 OA
HETATM    6  C5  UNL     1       3.264   7.633  11.517  1.00  0.00     0.094 C 
HETATM    7  C41 UNL     1       3.488   6.167  11.048  1.00  0.00     0.045 C 
ENDROOT
BRANCH   6   8
HETATM    8  C6  UNL     1       2.174   7.740  12.645  1.00  0.00     0.035 C 
HETATM    9  C7  UNL     1       2.180   9.147  13.406  1.00  0.00     0.016 C 
HETATM   10  C8  UNL     1       0.706   9.468  13.685  1.00  0.00     0.026 C 
HETATM   11  C9  UNL     1       0.250  10.272  14.886  1.00  0.00     0.013 C 
HETATM   12  C18 UNL     1       0.083   8.078  13.708  1.00  0.00     0.094 C 
HETATM   13  C10 UNL     1      -1.299  10.398  14.797  1.00  0.00     0.043 C 
HETATM   14  C11 UNL     1      -2.021   9.146  14.316  1.00  0.00    -0.006 C 
HETATM   15  C12 UNL     1      -1.396   8.037  13.889  1.00  0.00    -0.030 C 
HETATM   16  C26 UNL     1      -3.505   9.151  14.321  1.00  0.00     0.161 C 
HETATM   17  C13 UNL     1      -2.014   6.668  13.651  1.00  0.00     0.027 C 
HETATM   18  C14 UNL     1      -1.430   5.999  12.374  1.00  0.00     0.011 C 
HETATM   19  C19 UNL     1      -3.587   6.634  13.834  1.00  0.00    -0.026 C 
HETATM   20  C15 UNL     1       0.123   6.046  12.297  1.00  0.00     0.014 C 
HETATM   21  C16 UNL     1       0.633   7.498  12.374  1.00  0.00    -0.002 C 
HETATM   22  C17 UNL     1       0.112   8.266  11.126  1.00  0.00     0.019 C 
HETATM   23  C20 UNL     1      -4.224   5.575  12.898  1.00  0.00     0.016 C 
HETATM   24  C21 UNL     1      -3.903   6.231  15.311  1.00  0.00     0.013 C 
HETATM   25  C25 UNL     1      -4.225   8.029  13.563  1.00  0.00     0.071 C 
HETATM   26  C22 UNL     1      -5.391   6.267  15.658  1.00  0.00     0.032 C 
HETATM   27  C23 UNL     1      -6.035   7.607  15.320  1.00  0.00     0.119 C 
HETATM   28  C24 UNL     1      -5.731   8.062  13.892  1.00  0.00     0.045 C 
HETATM   29  O4  UNL     1      -4.098  10.085  14.856  1.00  0.00    -0.292 OA
BRANCH  27  30
HETATM   30  O3  UNL     1      -7.447   7.502  15.498  1.00  0.00    -0.396 OA
HETATM   31  H34 UNL     1      -7.792   6.883  14.832  1.00  0.00     0.210 HD
ENDBRANCH  27  30
BRANCH  12  32
HETATM   32  O2  UNL     1       0.607   7.331  14.822  1.00  0.00    -0.384 OA
HETATM   33  H25 UNL     1       0.191   7.664  15.635  1.00  0.00     0.211 HD
ENDBRANCH  12  32
ENDBRANCH   6   8
BRANCH   6  34
HETATM   34  C27 UNL     1       4.566   8.282  12.034  1.00  0.00     0.189 A 
HETATM   35  O5  UNL     1       5.174   9.239  11.135  1.00  0.00    -0.369 OA
HETATM   36  C28 UNL     1       4.766   9.762  12.393  1.00  0.00     0.189 A 
BRANCH  36  37
HETATM   37  C29 UNL     1       5.873  10.257  13.311  1.00  0.00     0.092 C 
HETATM   38  C30 UNL     1       5.373  11.288  14.345  1.00  0.00     0.049 C 
BRANCH  37  39
HETATM   39  O6  UNL     1       6.794  10.964  12.454  1.00  0.00    -0.387 OA
HETATM   40  H43 UNL     1       6.363  11.793  12.182  1.00  0.00     0.210 HD
ENDBRANCH  37  39
BRANCH  37  41
HETATM   41  C31 UNL     1       6.673   9.045  13.996  1.00  0.00     0.011 C 
HETATM   42  C32 UNL     1       7.132   8.051  12.898  1.00  0.00     0.020 C 
BRANCH  41  43
HETATM   43  C33 UNL     1       5.759   8.234  14.968  1.00  0.00     0.176 C 
BRANCH  43  44
HETATM   44  O7  UNL     1       5.893   6.824  14.834  1.00  0.00    -0.400 OA
HETATM   45  H49 UNL     1       6.190   6.644  13.917  1.00  0.00     0.209 HD
ENDBRANCH  43  44
ENDBRANCH  41  43
BRANCH  41  46
HETATM   46  C34 UNL     1       7.905   9.599  14.793  1.00  0.00     0.019 C 
BRANCH  46  47
HETATM   47  C35 UNL     1       8.226   9.005  16.180  1.00  0.00     0.039 C 
BRANCH  47  48
HETATM   48  C36 UNL     1       8.301   9.989  17.320  1.00  0.00    -0.054 A 
HETATM   49  C37 UNL     1       9.513  10.289  17.942  1.00  0.00     0.024 A 
HETATM   50  C38 UNL     1       9.514  11.211  18.975  1.00  0.00     0.090 A 
HETATM   51  N1  UNL     1       8.411  11.850  19.417  1.00  0.00    -0.357 N 
HETATM   52  C39 UNL     1       7.249  11.573  18.809  1.00  0.00     0.077 A 
ATOM     53  H1  UNL     1       8.459  12.519  20.185  1.00  0.00     0.166 HD
HETATM   54  C40 UNL     1       7.155  10.662  17.759  1.00  0.00     0.049 A 
BRANCH  52  55
HETATM   55  N2  UNL     1       6.108  12.252  19.251  1.00  0.00    -0.289 NA
HETATM   56  H56 UNL     1       5.402  11.583  19.536  1.00  0.00     0.125 HD
HETATM   57  H57 UNL     1       5.732  12.807  18.490  1.00  0.00     0.125 HD
ENDBRANCH  52  55
ENDBRANCH  47  48
ENDBRANCH  46  47
ENDBRANCH  41  46
ENDBRANCH  37  41
ENDBRANCH  36  37
ENDBRANCH   6  34
TORSDOF 13
ENDMDL
MODEL 8
REMARK minimizedAffinity -9.06577778
REMARK CNNscore 0.221472308
REMARK CNNaffinity 7.00871801
REMARK  13 active torsions:
REMARK  status: ('A' for Active; 'I' for Inactive)
REMARK    1  A    between atoms: C5_6  and  C6_7 
REMARK    2  A    between atoms: C5_6  and  C27_31 
REMARK    3  A    between atoms: C18_19  and  O2_20 
REMARK    4  A    between atoms: C23_25  and  O3_26 
REMARK    5  A    between atoms: C28_33  and  C29_34 
REMARK    6  A    between atoms: C29_34  and  O6_36 
REMARK    7  A    between atoms: C29_34  and  C31_37 
REMARK    8  A    between atoms: C31_37  and  C33_39 
REMARK    9  A    between atoms: C31_37  and  C34_41 
REMARK   10  A    between atoms: C33_39  and  O7_40 
REMARK   11  A    between atoms: C34_41  and  C35_42 
REMARK   12  A    between atoms: C35_42  and  C36_43 
REMARK   13  A    between atoms: C39_48  and  N2_49 
ROOT
HETATM    1  C1  UNL     1       2.349   9.656  16.692  1.00  0.00     0.010 C 
HETATM    2  C2  UNL     1       1.291  10.366  15.849  1.00  0.00    -0.014 C 
HETATM    3  C3  UNL     1       1.545  11.874  15.799  1.00  0.00     0.030 C 
HETATM    4  C4  UNL     1       0.269  12.674  15.574  1.00  0.00     0.169 C 
HETATM    5  O1  UNL     1      -0.694  11.915  14.848  1.00  0.00    -0.377 OA
HETATM    6  C5  UNL     1      -1.252  10.810  15.587  1.00  0.00     0.094 C 
HETATM    7  C41 UNL     1      -0.124  10.067  16.360  1.00  0.00     0.045 C 
ENDROOT
BRANCH   6   8
HETATM    8  C6  UNL     1      -1.988   9.876  14.560  1.00  0.00     0.035 C 
HETATM    9  C7  UNL     1      -1.001   8.907  13.757  1.00  0.00     0.016 C 
HETATM   10  C8  UNL     1      -1.763   7.584  13.602  1.00  0.00     0.026 C 
HETATM   11  C9  UNL     1      -1.567   6.652  12.423  1.00  0.00     0.013 C 
HETATM   12  C18 UNL     1      -3.212   8.047  13.679  1.00  0.00     0.094 C 
HETATM   13  C10 UNL     1      -2.492   5.421  12.647  1.00  0.00     0.043 C 
HETATM   14  C11 UNL     1      -3.862   5.742  13.229  1.00  0.00    -0.006 C 
HETATM   15  C12 UNL     1      -4.237   6.967  13.633  1.00  0.00    -0.030 C 
HETATM   16  C26 UNL     1      -4.842   4.635  13.358  1.00  0.00     0.161 C 
HETATM   17  C13 UNL     1      -5.647   7.431  13.968  1.00  0.00     0.027 C 
HETATM   18  C14 UNL     1      -5.650   8.371  15.208  1.00  0.00     0.011 C 
HETATM   19  C19 UNL     1      -6.729   6.276  13.929  1.00  0.00    -0.026 C 
HETATM   20  C15 UNL     1      -4.580   9.497  15.143  1.00  0.00     0.014 C 
HETATM   21  C16 UNL     1      -3.168   8.905  14.975  1.00  0.00    -0.002 C 
HETATM   22  C17 UNL     1      -2.838   8.062  16.241  1.00  0.00     0.019 C 
HETATM   23  C20 UNL     1      -7.861   6.552  14.951  1.00  0.00     0.016 C 
HETATM   24  C21 UNL     1      -7.362   6.242  12.500  1.00  0.00     0.013 C 
HETATM   25  C25 UNL     1      -6.092   4.884  14.212  1.00  0.00     0.071 C 
HETATM   26  C22 UNL     1      -8.350   5.096  12.287  1.00  0.00     0.032 C 
HETATM   27  C23 UNL     1      -7.752   3.738  12.640  1.00  0.00     0.119 C 
HETATM   28  C24 UNL     1      -7.092   3.727  14.020  1.00  0.00     0.045 C 
HETATM   29  O4  UNL     1      -4.585   3.546  12.850  1.00  0.00    -0.292 OA
BRANCH  27  30
HETATM   30  O3  UNL     1      -8.780   2.751  12.593  1.00  0.00    -0.396 OA
HETATM   31  H34 UNL     1      -9.414   2.938  13.306  1.00  0.00     0.210 HD
ENDBRANCH  27  30
BRANCH  12  32
HETATM   32  O2  UNL     1      -3.513   8.883  12.546  1.00  0.00    -0.384 OA
HETATM   33  H25 UNL     1      -3.608   8.314  11.763  1.00  0.00     0.211 HD
ENDBRANCH  12  32
ENDBRANCH   6   8
BRANCH   6  34
HETATM   34  C27 UNL     1      -2.306  11.415  16.539  1.00  0.00     0.189 A 
HETATM   35  O5  UNL     1      -1.962  11.370  17.944  1.00  0.00    -0.369 OA
HETATM   36  C28 UNL     1      -2.138  12.673  17.403  1.00  0.00     0.189 A 
BRANCH  36  37
HETATM   37  C29 UNL     1      -3.309  13.479  17.944  1.00  0.00     0.092 C 
HETATM   38  C30 UNL     1      -4.438  12.588  18.503  1.00  0.00     0.049 C 
BRANCH  37  39
HETATM   39  O6  UNL     1      -3.866  14.161  16.801  1.00  0.00    -0.387 OA
HETATM   40  H43 UNL     1      -4.310  13.494  16.250  1.00  0.00     0.210 HD
ENDBRANCH  37  39
BRANCH  37  41
HETATM   41  C31 UNL     1      -2.835  14.595  18.997  1.00  0.00     0.011 C 
HETATM   42  C32 UNL     1      -3.074  16.002  18.392  1.00  0.00     0.020 C 
BRANCH  41  43
HETATM   43  C33 UNL     1      -1.304  14.495  19.284  1.00  0.00     0.176 C 
BRANCH  43  44
HETATM   44  O7  UNL     1      -0.931  14.976  20.571  1.00  0.00    -0.400 OA
HETATM   45  H49 UNL     1      -1.604  15.638  20.841  1.00  0.00     0.209 HD
ENDBRANCH  43  44
ENDBRANCH  41  43
BRANCH  41  46
HETATM   46  C34 UNL     1      -3.621  14.430  20.344  1.00  0.00     0.019 C 
BRANCH  46  47
HETATM   47  C35 UNL     1      -5.154  14.274  20.300  1.00  0.00     0.039 C 
BRANCH  47  48
HETATM   48  C36 UNL     1      -5.869  14.384  21.623  1.00  0.00    -0.054 A 
HETATM   49  C37 UNL     1      -5.640  15.454  22.487  1.00  0.00     0.024 A 
HETATM   50  C38 UNL     1      -6.338  15.500  23.681  1.00  0.00     0.090 A 
HETATM   51  N1  UNL     1      -7.241  14.573  24.063  1.00  0.00    -0.357 N 
HETATM   52  C39 UNL     1      -7.473  13.553  23.226  1.00  0.00     0.077 A 
ATOM     53  H1  UNL     1      -7.729  14.647  24.956  1.00  0.00     0.166 HD
HETATM   54  C40 UNL     1      -6.820  13.428  22.003  1.00  0.00     0.049 A 
BRANCH  52  55
HETATM   55  N2  UNL     1      -8.426  12.603  23.611  1.00  0.00    -0.289 NA
HETATM   56  H56 UNL     1      -8.005  11.682  23.623  1.00  0.00     0.125 HD
HETATM   57  H57 UNL     1      -9.185  12.598  22.937  1.00  0.00     0.125 HD
ENDBRANCH  52  55
ENDBRANCH  47  48
ENDBRANCH  46  47
ENDBRANCH  41  46
ENDBRANCH  37  41
ENDBRANCH  36  37
ENDBRANCH   6  34
TORSDOF 13
ENDMDL
MODEL 9
REMARK minimizedAffinity -9.82164001
REMARK CNNscore 0.214805871
REMARK CNNaffinity 6.71551752
REMARK  13 active torsions:
REMARK  status: ('A' for Active; 'I' for Inactive)
REMARK    1  A    between atoms: C5_6  and  C6_7 
REMARK    2  A    between atoms: C5_6  and  C27_31 
REMARK    3  A    between atoms: C18_19  and  O2_20 
REMARK    4  A    between atoms: C23_25  and  O3_26 
REMARK    5  A    between atoms: C28_33  and  C29_34 
REMARK    6  A    between atoms: C29_34  and  O6_36 
REMARK    7  A    between atoms: C29_34  and  C31_37 
REMARK    8  A    between atoms: C31_37  and  C33_39 
REMARK    9  A    between atoms: C31_37  and  C34_41 
REMARK   10  A    between atoms: C33_39  and  O7_40 
REMARK   11  A    between atoms: C34_41  and  C35_42 
REMARK   12  A    between atoms: C35_42  and  C36_43 
REMARK   13  A    between atoms: C39_48  and  N2_49 
ROOT
HETATM    1  C1  UNL     1       2.701   7.103  12.527  1.00  0.00     0.010 C 
HETATM    2  C2  UNL     1       1.970   8.211  13.285  1.00  0.00    -0.014 C 
HETATM    3  C3  UNL     1       2.605   9.576  13.013  1.00  0.00     0.030 C 
HETATM    4  C4  UNL     1       2.395  10.557  14.160  1.00  0.00     0.169 C 
HETATM    5  O1  UNL     1       1.196  10.265  14.873  1.00  0.00    -0.377 OA
HETATM    6  C5  UNL     1       1.247   9.041  15.634  1.00  0.00     0.094 C 
HETATM    7  C41 UNL     1       1.921   7.921  14.790  1.00  0.00     0.045 C 
ENDROOT
BRANCH   6   8
HETATM    8  C6  UNL     1      -0.226   8.677  16.044  1.00  0.00     0.035 C 
HETATM    9  C7  UNL     1      -1.036   9.905  16.672  1.00  0.00     0.016 C 
HETATM   10  C8  UNL     1      -2.471   9.756  16.152  1.00  0.00     0.026 C 
HETATM   11  C9  UNL     1      -3.684  10.221  16.934  1.00  0.00     0.013 C 
HETATM   12  C18 UNL     1      -2.553   8.259  15.885  1.00  0.00     0.094 C 
HETATM   13  C10 UNL     1      -4.939   9.918  16.065  1.00  0.00     0.043 C 
HETATM   14  C11 UNL     1      -4.897   8.596  15.311  1.00  0.00    -0.006 C 
HETATM   15  C12 UNL     1      -3.831   7.779  15.286  1.00  0.00    -0.030 C 
HETATM   16  C26 UNL     1      -6.107   8.183  14.558  1.00  0.00     0.161 C 
HETATM   17  C13 UNL     1      -3.788   6.340  14.797  1.00  0.00     0.027 C 
HETATM   18  C14 UNL     1      -2.476   6.051  14.011  1.00  0.00     0.011 C 
HETATM   19  C19 UNL     1      -5.145   5.840  14.152  1.00  0.00    -0.026 C 
HETATM   20  C15 UNL     1      -1.191   6.543  14.736  1.00  0.00     0.014 C 
HETATM   21  C16 UNL     1      -1.270   8.052  15.031  1.00  0.00    -0.002 C 
HETATM   22  C17 UNL     1      -1.323   8.813  13.675  1.00  0.00     0.019 C 
HETATM   23  C20 UNL     1      -4.872   4.790  13.045  1.00  0.00     0.016 C 
HETATM   24  C21 UNL     1      -6.000   5.159  15.269  1.00  0.00     0.013 C 
HETATM   25  C25 UNL     1      -5.969   7.023  13.563  1.00  0.00     0.071 C 
HETATM   26  C22 UNL     1      -7.391   4.726  14.808  1.00  0.00     0.032 C 
HETATM   27  C23 UNL     1      -8.170   5.865  14.159  1.00  0.00     0.119 C 
HETATM   28  C24 UNL     1      -7.364   6.586  13.076  1.00  0.00     0.045 C 
HETATM   29  O4  UNL     1      -7.145   8.827  14.695  1.00  0.00    -0.292 OA
BRANCH  27  30
HETATM   30  O3  UNL     1      -9.371   5.343  13.594  1.00  0.00    -0.396 OA
HETATM   31  H34 UNL     1      -9.131   4.754  12.859  1.00  0.00     0.210 HD
ENDBRANCH  27  30
BRANCH  12  32
HETATM   32  O2  UNL     1      -2.439   7.538  17.126  1.00  0.00    -0.384 OA
HETATM   33  H25 UNL     1      -3.280   7.622  17.606  1.00  0.00     0.211 HD
ENDBRANCH  12  32
ENDBRANCH   6   8
BRANCH   6  34
HETATM   34  C27 UNL     1       2.046   9.362  16.915  1.00  0.00     0.189 A 
HETATM   35  O5  UNL     1       3.352   9.943  16.695  1.00  0.00    -0.369 OA
HETATM   36  C28 UNL     1       2.439  10.758  17.418  1.00  0.00     0.189 A 
BRANCH  36  37
HETATM   37  C29 UNL     1       2.797  11.056  18.867  1.00  0.00     0.092 C 
HETATM   38  C30 UNL     1       4.186  11.712  19.015  1.00  0.00     0.049 C 
BRANCH  37  39
HETATM   39  O6  UNL     1       2.892   9.767  19.510  1.00  0.00    -0.387 OA
HETATM   40  H43 UNL     1       3.699   9.335  19.181  1.00  0.00     0.210 HD
ENDBRANCH  37  39
BRANCH  37  41
HETATM   41  C31 UNL     1       1.645  11.891  19.611  1.00  0.00     0.011 C 
HETATM   42  C32 UNL     1       0.676  10.907  20.317  1.00  0.00     0.020 C 
BRANCH  41  43
HETATM   43  C33 UNL     1       0.782  12.703  18.596  1.00  0.00     0.176 C 
BRANCH  43  44
HETATM   44  O7  UNL     1      -0.617  12.628  18.846  1.00  0.00    -0.400 OA
HETATM   45  H49 UNL     1      -0.785  11.782  19.314  1.00  0.00     0.209 HD
ENDBRANCH  43  44
ENDBRANCH  41  43
BRANCH  41  46
HETATM   46  C34 UNL     1       2.284  12.880  20.647  1.00  0.00     0.019 C 
BRANCH  46  47
HETATM   47  C35 UNL     1       2.867  12.315  21.958  1.00  0.00     0.039 C 
BRANCH  47  48
HETATM   48  C36 UNL     1       4.181  12.904  22.406  1.00  0.00    -0.054 A 
HETATM   49  C37 UNL     1       4.321  14.270  22.646  1.00  0.00     0.024 A 
HETATM   50  C38 UNL     1       5.552  14.743  23.067  1.00  0.00     0.090 A 
HETATM   51  N1  UNL     1       6.632  13.960  23.271  1.00  0.00    -0.357 N 
HETATM   52  C39 UNL     1       6.492  12.645  23.055  1.00  0.00     0.077 A 
ATOM     53  H1  UNL     1       7.521  14.355  23.577  1.00  0.00     0.166 HD
HETATM   54  C40 UNL     1       5.290  12.081  22.635  1.00  0.00     0.049 A 
BRANCH  52  55
HETATM   55  N2  UNL     1       7.605  11.829  23.288  1.00  0.00    -0.289 NA
HETATM   56  H56 UNL     1       7.830  11.310  22.447  1.00  0.00     0.125 HD
HETATM   57  H57 UNL     1       7.386  11.165  24.023  1.00  0.00     0.125 HD
ENDBRANCH  52  55
ENDBRANCH  47  48
ENDBRANCH  46  47
ENDBRANCH  41  46
ENDBRANCH  37  41
ENDBRANCH  36  37
ENDBRANCH   6  34
TORSDOF 13
ENDMDL
