MODEL 1
REMARK minimizedAffinity -9.85333729
REMARK CNNscore 0.691445589
REMARK CNNaffinity 7.50529337
REMARK  12 active torsions:
REMARK  status: ('A' for Active; 'I' for Inactive)
REMARK    1  A    between atoms: O1_2  and  C2_3 
REMARK    2  A    between atoms: C3_5  and  C4_6 
REMARK    3  A    between atoms: C4_6  and  O3_7 
REMARK    4  A    between atoms: C4_6  and  C5_8 
REMARK    5  A    between atoms: C5_8  and  O4_10 
REMARK    6  A    between atoms: C5_8  and  C7_11 
REMARK    7  A    between atoms: C7_11  and  O5_12 
REMARK    8  A    between atoms: C9_14  and  C10_15 
REMARK    9  A    between atoms: C23_28  and  O6_29 
REMARK   10  A    between atoms: O6_29  and  C24_30 
REMARK   11  A    between atoms: C24_30  and  C25_32 
REMARK   12  A    between atoms: C34_41  and  O8_42 
ROOT
HETATM    1  C10 UNL     1      -0.208  51.069 -20.460  1.00  0.00     0.004 C 
HETATM    2  C11 UNL     1      -0.908  49.714 -20.716  1.00  0.00     0.007 C 
HETATM    3  C12 UNL     1      -2.054  49.598 -19.710  1.00  0.00     0.011 C 
HETATM    4  C13 UNL     1      -1.630  50.497 -18.560  1.00  0.00    -0.021 A 
HETATM    5  C14 UNL     1      -2.095  51.923 -18.708  1.00  0.00     0.022 A 
HETATM    6  C15 UNL     1      -0.665  51.545 -19.083  1.00  0.00    -0.027 A 
HETATM    7  C16 UNL     1       0.392  52.178 -18.197  1.00  0.00     0.011 C 
HETATM    8  C17 UNL     1       0.674  51.415 -16.898  1.00  0.00     0.007 C 
HETATM    9  C18 UNL     1      -0.618  50.894 -16.229  1.00  0.00     0.005 C 
HETATM   10  C19 UNL     1      -0.462  50.477 -14.698  1.00  0.00    -0.035 C 
HETATM   11  C20 UNL     1       0.650  49.425 -14.491  1.00  0.00     0.016 C 
HETATM   12  C21 UNL     1      -0.071  51.738 -13.866  1.00  0.00     0.012 C 
HETATM   13  C22 UNL     1      -0.172  51.545 -12.350  1.00  0.00     0.034 C 
HETATM   14  C23 UNL     1      -1.552  51.061 -11.906  1.00  0.00     0.140 C 
HETATM   15  C29 UNL     1      -2.025  49.772 -12.650  1.00  0.00    -0.016 C 
HETATM   16  C30 UNL     1      -3.524  49.566 -12.295  1.00  0.00     0.018 C 
HETATM   17  C31 UNL     1      -1.293  48.517 -12.132  1.00  0.00     0.018 C 
HETATM   18  C32 UNL     1      -1.881  50.007 -14.196  1.00  0.00     0.007 C 
HETATM   19  C33 UNL     1      -2.447  48.871 -15.081  1.00  0.00     0.038 C 
HETATM   20  C34 UNL     1      -2.635  49.331 -16.535  1.00  0.00     0.128 C 
HETATM   21  C35 UNL     1      -1.314  49.838 -17.181  1.00  0.00    -0.005 C 
HETATM   22  C36 UNL     1      -0.393  48.608 -17.450  1.00  0.00     0.019 C 
ENDROOT
BRANCH   1  23
HETATM   23  C9  UNL     1      -0.296  52.043 -21.639  1.00  0.00     0.048 C 
HETATM   24  C2  UNL     1       0.997  52.539 -22.292  1.00  0.00     0.264 C 
HETATM   25  O2  UNL     1       0.695  52.727 -23.691  1.00  0.00    -0.353 OA
HETATM   26  C3  UNL     1      -0.727  52.656 -23.838  1.00  0.00     0.157 C 
HETATM   27  C8  UNL     1      -1.114  51.579 -22.835  1.00  0.00     0.044 C 
BRANCH  24  28
HETATM   28  O1  UNL     1       1.376  53.772 -21.693  1.00  0.00    -0.366 OA
HETATM   29  C1  UNL     1       1.012  53.828 -20.319  1.00  0.00     0.204 C 
ENDBRANCH  24  28
BRANCH  26  30
HETATM   30  C4  UNL     1      -1.130  52.396 -25.297  1.00  0.00     0.183 C 
BRANCH  30  31
HETATM   31  O3  UNL     1      -1.188  50.996 -25.623  1.00  0.00    -0.390 OA
HETATM   32  H7  UNL     1      -0.981  50.480 -24.816  1.00  0.00     0.210 HD
ENDBRANCH  30  31
BRANCH  30  33
HETATM   33  C5  UNL     1      -0.224  53.076 -26.365  1.00  0.00     0.103 C 
HETATM   34  C6  UNL     1       1.068  52.296 -26.619  1.00  0.00     0.051 C 
BRANCH  33  35
HETATM   35  O4  UNL     1       0.180  54.359 -25.814  1.00  0.00    -0.385 OA
HETATM   36  H11 UNL     1      -0.644  54.720 -25.419  1.00  0.00     0.210 HD
ENDBRANCH  33  35
BRANCH  33  37
HETATM   37  C7  UNL     1      -0.953  53.397 -27.693  1.00  0.00     0.204 C 
BRANCH  37  38
HETATM   38  O5  UNL     1      -0.359  52.665 -28.772  1.00  0.00    -0.398 OA
HETATM   39  H14 UNL     1       0.592  52.579 -28.539  1.00  0.00     0.209 HD
ENDBRANCH  37  38
ENDBRANCH  33  37
ENDBRANCH  30  33
ENDBRANCH  26  30
ENDBRANCH   1  23
BRANCH  20  40
HETATM   40  O8  UNL     1      -3.626  50.366 -16.540  1.00  0.00    -0.395 OA
HETATM   41  H55 UNL     1      -4.466  49.977 -16.229  1.00  0.00     0.210 HD
ENDBRANCH  20  40
BRANCH  14  42
HETATM   42  O6  UNL     1      -1.506  50.787 -10.492  1.00  0.00    -0.312 OA
BRANCH  42  43
HETATM   43  C24 UNL     1      -2.266  51.563  -9.690  1.00  0.00     0.283 C 
HETATM   44  O7  UNL     1      -3.212  51.208  -9.007  1.00  0.00    -0.260 OA
BRANCH  43  45
HETATM   45  C25 UNL     1      -1.731  52.941  -9.662  1.00  0.00     0.084 C 
HETATM   46  C26 UNL     1      -2.280  54.048 -10.196  1.00  0.00    -0.082 C 
HETATM   47  C27 UNL     1      -3.620  54.122 -10.878  1.00  0.00     0.043 C 
HETATM   48  C28 UNL     1      -1.555  55.362 -10.112  1.00  0.00     0.043 C 
ENDBRANCH  43  45
ENDBRANCH  42  43
ENDBRANCH  14  42
TORSDOF 12
ENDMDL
MODEL 2
REMARK minimizedAffinity -7.74213076
REMARK CNNscore 0.580047011
REMARK CNNaffinity 7.10147905
REMARK  12 active torsions:
REMARK  status: ('A' for Active; 'I' for Inactive)
REMARK    1  A    between atoms: O1_2  and  C2_3 
REMARK    2  A    between atoms: C3_5  and  C4_6 
REMARK    3  A    between atoms: C4_6  and  O3_7 
REMARK    4  A    between atoms: C4_6  and  C5_8 
REMARK    5  A    between atoms: C5_8  and  O4_10 
REMARK    6  A    between atoms: C5_8  and  C7_11 
REMARK    7  A    between atoms: C7_11  and  O5_12 
REMARK    8  A    between atoms: C9_14  and  C10_15 
REMARK    9  A    between atoms: C23_28  and  O6_29 
REMARK   10  A    between atoms: O6_29  and  C24_30 
REMARK   11  A    between atoms: C24_30  and  C25_32 
REMARK   12  A    between atoms: C34_41  and  O8_42 
ROOT
HETATM    1  C10 UNL     1      -3.446  51.401  -9.784  1.00  0.00     0.004 C 
HETATM    2  C11 UNL     1      -3.825  52.380 -10.920  1.00  0.00     0.007 C 
HETATM    3  C12 UNL     1      -2.542  52.703 -11.686  1.00  0.00     0.011 C 
HETATM    4  C13 UNL     1      -1.434  52.456 -10.675  1.00  0.00    -0.021 A 
HETATM    5  C14 UNL     1      -0.915  51.041 -10.686  1.00  0.00     0.022 A 
HETATM    6  C15 UNL     1      -1.929  51.471  -9.632  1.00  0.00    -0.027 A 
HETATM    7  C16 UNL     1      -1.387  51.462  -8.214  1.00  0.00     0.011 C 
HETATM    8  C17 UNL     1      -0.632  52.735  -7.813  1.00  0.00     0.007 C 
HETATM    9  C18 UNL     1       0.290  53.253  -8.940  1.00  0.00     0.005 C 
HETATM   10  C19 UNL     1       1.405  54.291  -8.474  1.00  0.00    -0.035 C 
HETATM   11  C20 UNL     1       0.799  55.510  -7.744  1.00  0.00     0.016 C 
HETATM   12  C21 UNL     1       2.372  53.583  -7.473  1.00  0.00     0.012 C 
HETATM   13  C22 UNL     1       3.649  54.371  -7.171  1.00  0.00     0.034 C 
HETATM   14  C23 UNL     1       4.424  54.746  -8.433  1.00  0.00     0.140 C 
HETATM   15  C29 UNL     1       3.558  55.502  -9.491  1.00  0.00    -0.016 C 
HETATM   16  C30 UNL     1       4.395  55.572 -10.799  1.00  0.00     0.018 C 
HETATM   17  C31 UNL     1       3.305  56.965  -9.074  1.00  0.00     0.018 C 
HETATM   18  C32 UNL     1       2.251  54.671  -9.749  1.00  0.00     0.007 C 
HETATM   19  C33 UNL     1       1.350  55.216 -10.884  1.00  0.00     0.038 C 
HETATM   20  C34 UNL     1       0.327  54.166 -11.342  1.00  0.00     0.128 C 
HETATM   21  C35 UNL     1      -0.591  53.675 -10.187  1.00  0.00    -0.005 C 
HETATM   22  C36 UNL     1      -1.587  54.820  -9.828  1.00  0.00     0.019 C 
ENDROOT
BRANCH   1  23
HETATM   23  C9  UNL     1      -4.108  50.025  -9.907  1.00  0.00     0.048 C 
HETATM   24  C2  UNL     1      -3.649  48.893  -8.984  1.00  0.00     0.264 C 
HETATM   25  O2  UNL     1      -4.814  48.080  -8.733  1.00  0.00    -0.353 OA
HETATM   26  C3  UNL     1      -5.829  48.484  -9.659  1.00  0.00     0.157 C 
HETATM   27  C8  UNL     1      -5.621  49.988  -9.748  1.00  0.00     0.044 C 
BRANCH  24  28
HETATM   28  O1  UNL     1      -2.643  48.134  -9.645  1.00  0.00    -0.366 OA
HETATM   29  C1  UNL     1      -2.425  46.878  -9.015  1.00  0.00     0.204 C 
ENDBRANCH  24  28
BRANCH  26  30
HETATM   30  C4  UNL     1      -7.221  48.021  -9.206  1.00  0.00     0.183 C 
BRANCH  30  31
HETATM   31  O3  UNL     1      -7.477  46.637  -9.504  1.00  0.00    -0.390 OA
HETATM   32  H7  UNL     1      -6.677  46.256  -9.922  1.00  0.00     0.210 HD
ENDBRANCH  30  31
BRANCH  30  33
HETATM   33  C5  UNL     1      -8.412  48.841  -9.781  1.00  0.00     0.103 C 
HETATM   34  C6  UNL     1      -8.533  48.706 -11.302  1.00  0.00     0.051 C 
BRANCH  33  35
HETATM   35  O4  UNL     1      -8.120  50.241  -9.522  1.00  0.00    -0.385 OA
HETATM   36  H11 UNL     1      -7.788  50.248  -8.597  1.00  0.00     0.210 HD
ENDBRANCH  33  35
BRANCH  33  37
HETATM   37  C7  UNL     1      -9.765  48.555  -9.086  1.00  0.00     0.204 C 
BRANCH  37  38
HETATM   38  O5  UNL     1      -9.593  47.578  -8.051  1.00  0.00    -0.398 OA
HETATM   39  H14 UNL     1      -8.867  46.992  -8.362  1.00  0.00     0.209 HD
ENDBRANCH  37  38
ENDBRANCH  33  37
ENDBRANCH  30  33
ENDBRANCH  26  30
ENDBRANCH   1  23
BRANCH  20  40
HETATM   40  O8  UNL     1       1.054  53.068 -11.908  1.00  0.00    -0.395 OA
HETATM   41  H55 UNL     1       1.529  53.398 -12.695  1.00  0.00     0.210 HD
ENDBRANCH  20  40
BRANCH  14  42
HETATM   42  O6  UNL     1       5.531  55.590  -8.055  1.00  0.00    -0.312 OA
BRANCH  42  43
HETATM   43  C24 UNL     1       6.753  55.017  -8.009  1.00  0.00     0.283 C 
HETATM   44  O7  UNL     1       7.693  55.349  -7.306  1.00  0.00    -0.260 OA
BRANCH  43  45
HETATM   45  C25 UNL     1       6.788  53.825  -8.883  1.00  0.00     0.084 C 
HETATM   46  C26 UNL     1       6.793  52.531  -8.511  1.00  0.00    -0.082 C 
HETATM   47  C27 UNL     1       6.681  52.023  -7.098  1.00  0.00     0.043 C 
HETATM   48  C28 UNL     1       6.887  51.450  -9.552  1.00  0.00     0.043 C 
ENDBRANCH  43  45
ENDBRANCH  42  43
ENDBRANCH  14  42
TORSDOF 12
ENDMDL
MODEL 3
REMARK minimizedAffinity -8.86563396
REMARK CNNscore 0.412689328
REMARK CNNaffinity 6.429564
REMARK  12 active torsions:
REMARK  status: ('A' for Active; 'I' for Inactive)
REMARK    1  A    between atoms: O1_2  and  C2_3 
REMARK    2  A    between atoms: C3_5  and  C4_6 
REMARK    3  A    between atoms: C4_6  and  O3_7 
REMARK    4  A    between atoms: C4_6  and  C5_8 
REMARK    5  A    between atoms: C5_8  and  O4_10 
REMARK    6  A    between atoms: C5_8  and  C7_11 
REMARK    7  A    between atoms: C7_11  and  O5_12 
REMARK    8  A    between atoms: C9_14  and  C10_15 
REMARK    9  A    between atoms: C23_28  and  O6_29 
REMARK   10  A    between atoms: O6_29  and  C24_30 
REMARK   11  A    between atoms: C24_30  and  C25_32 
REMARK   12  A    between atoms: C34_41  and  O8_42 
ROOT
HETATM    1  C10 UNL     1      -4.286  49.412 -23.342  1.00  0.00     0.004 C 
HETATM    2  C11 UNL     1      -4.397  48.291 -24.402  1.00  0.00     0.007 C 
HETATM    3  C12 UNL     1      -5.886  48.055 -24.658  1.00  0.00     0.011 C 
HETATM    4  C13 UNL     1      -6.561  48.530 -23.381  1.00  0.00    -0.021 A 
HETATM    5  C14 UNL     1      -6.935  49.990 -23.407  1.00  0.00     0.022 A 
HETATM    6  C15 UNL     1      -5.663  49.542 -22.695  1.00  0.00    -0.027 A 
HETATM    7  C16 UNL     1      -5.690  49.752 -21.192  1.00  0.00     0.011 C 
HETATM    8  C17 UNL     1      -6.366  48.625 -20.404  1.00  0.00     0.007 C 
HETATM    9  C18 UNL     1      -7.655  48.119 -21.090  1.00  0.00     0.005 C 
HETATM   10  C19 UNL     1      -8.629  47.273 -20.153  1.00  0.00    -0.035 C 
HETATM   11  C20 UNL     1      -7.914  46.064 -19.509  1.00  0.00     0.016 C 
HETATM   12  C21 UNL     1      -9.136  48.185 -18.993  1.00  0.00     0.012 C 
HETATM   13  C22 UNL     1     -10.297  47.592 -18.189  1.00  0.00     0.034 C 
HETATM   14  C23 UNL     1     -11.482  47.195 -19.069  1.00  0.00     0.140 C 
HETATM   15  C29 UNL     1     -11.091  46.242 -20.243  1.00  0.00    -0.016 C 
HETATM   16  C30 UNL     1     -12.325  46.150 -21.184  1.00  0.00     0.018 C 
HETATM   17  C31 UNL     1     -10.834  44.805 -19.744  1.00  0.00     0.018 C 
HETATM   18  C32 UNL     1      -9.885  46.879 -21.021  1.00  0.00     0.007 C 
HETATM   19  C33 UNL     1      -9.470  46.122 -22.306  1.00  0.00     0.038 C 
HETATM   20  C34 UNL     1      -8.580  46.992 -23.207  1.00  0.00     0.128 C 
HETATM   21  C35 UNL     1      -7.287  47.476 -22.489  1.00  0.00    -0.005 C 
HETATM   22  C36 UNL     1      -6.327  46.257 -22.330  1.00  0.00     0.019 C 
ENDROOT
BRANCH   1  23
HETATM   23  C9  UNL     1      -3.594  50.679 -23.854  1.00  0.00     0.048 C 
HETATM   24  C2  UNL     1      -2.171  50.993 -23.383  1.00  0.00     0.264 C 
HETATM   25  O2  UNL     1      -1.519  51.658 -24.485  1.00  0.00    -0.353 OA
HETATM   26  C3  UNL     1      -2.530  52.007 -25.436  1.00  0.00     0.157 C 
HETATM   27  C8  UNL     1      -3.481  50.822 -25.365  1.00  0.00     0.044 C 
BRANCH  24  28
HETATM   28  O1  UNL     1      -2.236  51.849 -22.249  1.00  0.00    -0.366 OA
HETATM   29  C1  UNL     1      -2.129  51.124 -21.030  1.00  0.00     0.204 C 
ENDBRANCH  24  28
BRANCH  26  30
HETATM   30  C4  UNL     1      -1.926  52.305 -26.816  1.00  0.00     0.183 C 
BRANCH  30  31
HETATM   31  O3  UNL     1      -1.621  51.116 -27.566  1.00  0.00    -0.390 OA
HETATM   32  H7  UNL     1      -1.896  50.338 -27.038  1.00  0.00     0.210 HD
ENDBRANCH  30  31
BRANCH  30  33
HETATM   33  C5  UNL     1      -0.637  53.179 -26.800  1.00  0.00     0.103 C 
HETATM   34  C6  UNL     1       0.638  52.336 -26.709  1.00  0.00     0.051 C 
BRANCH  33  35
HETATM   35  O4  UNL     1      -0.685  53.971 -25.583  1.00  0.00    -0.385 OA
HETATM   36  H11 UNL     1      -1.615  54.287 -25.540  1.00  0.00     0.210 HD
ENDBRANCH  33  35
BRANCH  33  37
HETATM   37  C7  UNL     1      -0.553  54.195 -27.964  1.00  0.00     0.204 C 
BRANCH  37  38
HETATM   38  O5  UNL     1      -1.853  54.407 -28.531  1.00  0.00    -0.398 OA
HETATM   39  H14 UNL     1      -2.327  53.553 -28.426  1.00  0.00     0.209 HD
ENDBRANCH  37  38
ENDBRANCH  33  37
ENDBRANCH  30  33
ENDBRANCH  26  30
ENDBRANCH   1  23
BRANCH  20  40
HETATM   40  O8  UNL     1      -9.362  48.112 -23.642  1.00  0.00    -0.395 OA
HETATM   41  H55 UNL     1     -10.101  47.769 -24.180  1.00  0.00     0.210 HD
ENDBRANCH  20  40
BRANCH  14  42
HETATM   42  O6  UNL     1     -12.460  46.533 -18.243  1.00  0.00    -0.312 OA
BRANCH  42  43
HETATM   43  C24 UNL     1     -13.432  47.301 -17.704  1.00  0.00     0.283 C 
HETATM   44  O7  UNL     1     -13.307  48.127 -16.815  1.00  0.00    -0.260 OA
BRANCH  43  45
HETATM   45  C25 UNL     1     -14.708  47.080 -18.418  1.00  0.00     0.084 C 
HETATM   46  C26 UNL     1     -15.754  47.922 -18.515  1.00  0.00    -0.082 C 
HETATM   47  C27 UNL     1     -15.805  49.325 -17.968  1.00  0.00     0.043 C 
HETATM   48  C28 UNL     1     -16.997  47.496 -19.244  1.00  0.00     0.043 C 
ENDBRANCH  43  45
ENDBRANCH  42  43
ENDBRANCH  14  42
TORSDOF 12
ENDMDL
MODEL 4
REMARK minimizedAffinity -7.81549835
REMARK CNNscore 0.398106903
REMARK CNNaffinity 6.11191797
REMARK  12 active torsions:
REMARK  status: ('A' for Active; 'I' for Inactive)
REMARK    1  A    between atoms: O1_2  and  C2_3 
REMARK    2  A    between atoms: C3_5  and  C4_6 
REMARK    3  A    between atoms: C4_6  and  O3_7 
REMARK    4  A    between atoms: C4_6  and  C5_8 
REMARK    5  A    between atoms: C5_8  and  O4_10 
REMARK    6  A    between atoms: C5_8  and  C7_11 
REMARK    7  A    between atoms: C7_11  and  O5_12 
REMARK    8  A    between atoms: C9_14  and  C10_15 
REMARK    9  A    between atoms: C23_28  and  O6_29 
REMARK   10  A    between atoms: O6_29  and  C24_30 
REMARK   11  A    between atoms: C24_30  and  C25_32 
REMARK   12  A    between atoms: C34_41  and  O8_42 
ROOT
HETATM    1  C10 UNL     1      -8.869  46.089 -32.649  1.00  0.00     0.004 C 
HETATM    2  C11 UNL     1      -7.787  45.180 -32.020  1.00  0.00     0.007 C 
HETATM    3  C12 UNL     1      -8.512  44.123 -31.186  1.00  0.00     0.011 C 
HETATM    4  C13 UNL     1      -9.841  44.774 -30.838  1.00  0.00    -0.021 A 
HETATM    5  C14 UNL     1     -10.924  44.508 -31.852  1.00  0.00     0.022 A 
HETATM    6  C15 UNL     1     -10.162  45.829 -31.880  1.00  0.00    -0.027 A 
HETATM    7  C16 UNL     1     -11.017  47.042 -31.559  1.00  0.00     0.011 C 
HETATM    8  C17 UNL     1     -11.184  47.324 -30.062  1.00  0.00     0.007 C 
HETATM    9  C18 UNL     1     -11.414  46.035 -29.241  1.00  0.00     0.005 C 
HETATM   10  C19 UNL     1     -12.012  46.264 -27.781  1.00  0.00    -0.035 C 
HETATM   11  C20 UNL     1     -11.144  47.227 -26.940  1.00  0.00     0.016 C 
HETATM   12  C21 UNL     1     -13.429  46.906 -27.908  1.00  0.00     0.012 C 
HETATM   13  C22 UNL     1     -14.233  46.913 -26.604  1.00  0.00     0.034 C 
HETATM   14  C23 UNL     1     -14.367  45.522 -25.985  1.00  0.00     0.140 C 
HETATM   15  C29 UNL     1     -12.997  44.803 -25.773  1.00  0.00    -0.016 C 
HETATM   16  C30 UNL     1     -13.310  43.328 -25.399  1.00  0.00     0.018 C 
HETATM   17  C31 UNL     1     -12.229  45.390 -24.571  1.00  0.00     0.018 C 
HETATM   18  C32 UNL     1     -12.199  44.843 -27.126  1.00  0.00     0.007 C 
HETATM   19  C33 UNL     1     -10.875  44.042 -27.121  1.00  0.00     0.038 C 
HETATM   20  C34 UNL     1     -10.363  43.794 -28.549  1.00  0.00     0.128 C 
HETATM   21  C35 UNL     1     -10.132  45.112 -29.343  1.00  0.00    -0.005 C 
HETATM   22  C36 UNL     1      -8.866  45.818 -28.767  1.00  0.00     0.019 C 
ENDROOT
BRANCH   1  23
HETATM   23  C9  UNL     1      -8.905  46.038 -34.180  1.00  0.00     0.048 C 
HETATM   24  C2  UNL     1     -10.259  46.053 -34.894  1.00  0.00     0.264 C 
HETATM   25  O2  UNL     1     -10.052  46.758 -36.137  1.00  0.00    -0.353 OA
HETATM   26  C3  UNL     1      -8.639  46.895 -36.323  1.00  0.00     0.157 C 
HETATM   27  C8  UNL     1      -8.135  47.131 -34.908  1.00  0.00     0.044 C 
BRANCH  24  28
HETATM   28  O1  UNL     1     -10.668  44.714 -35.141  1.00  0.00    -0.366 OA
HETATM   29  C1  UNL     1      -9.559  43.828 -35.232  1.00  0.00     0.204 C 
ENDBRANCH  24  28
BRANCH  26  30
HETATM   30  C4  UNL     1      -8.311  47.990 -37.349  1.00  0.00     0.183 C 
BRANCH  30  31
HETATM   31  O3  UNL     1      -9.104  49.177 -37.176  1.00  0.00    -0.390 OA
HETATM   32  H7  UNL     1      -9.688  49.051 -36.400  1.00  0.00     0.210 HD
ENDBRANCH  30  31
BRANCH  30  33
HETATM   33  C5  UNL     1      -8.446  47.562 -38.840  1.00  0.00     0.103 C 
HETATM   34  C6  UNL     1      -9.685  48.162 -39.510  1.00  0.00     0.051 C 
BRANCH  33  35
HETATM   35  O4  UNL     1      -8.641  46.122 -38.846  1.00  0.00    -0.385 OA
HETATM   36  H11 UNL     1      -7.987  45.790 -38.191  1.00  0.00     0.210 HD
ENDBRANCH  33  35
BRANCH  33  37
HETATM   37  C7  UNL     1      -7.174  47.822 -39.684  1.00  0.00     0.204 C 
BRANCH  37  38
HETATM   38  O5  UNL     1      -6.389  48.862 -39.089  1.00  0.00    -0.398 OA
HETATM   39  H14 UNL     1      -7.035  49.464 -38.657  1.00  0.00     0.209 HD
ENDBRANCH  37  38
ENDBRANCH  33  37
ENDBRANCH  30  33
ENDBRANCH  26  30
ENDBRANCH   1  23
BRANCH  20  40
HETATM   40  O8  UNL     1     -11.323  42.967 -29.218  1.00  0.00    -0.395 OA
HETATM   41  H55 UNL     1     -11.356  42.110 -28.751  1.00  0.00     0.210 HD
ENDBRANCH  20  40
BRANCH  14  42
HETATM   42  O6  UNL     1     -15.021  45.654 -24.707  1.00  0.00    -0.312 OA
BRANCH  42  43
HETATM   43  C24 UNL     1     -15.681  46.808 -24.470  1.00  0.00     0.283 C 
HETATM   44  O7  UNL     1     -15.207  47.852 -24.053  1.00  0.00    -0.260 OA
BRANCH  43  45
HETATM   45  C25 UNL     1     -17.094  46.679 -24.884  1.00  0.00     0.084 C 
HETATM   46  C26 UNL     1     -18.163  46.439 -24.101  1.00  0.00    -0.082 C 
HETATM   47  C27 UNL     1     -18.144  46.328 -22.599  1.00  0.00     0.043 C 
HETATM   48  C28 UNL     1     -19.526  46.287 -24.716  1.00  0.00     0.043 C 
ENDBRANCH  43  45
ENDBRANCH  42  43
ENDBRANCH  14  42
TORSDOF 12
ENDMDL
MODEL 5
REMARK minimizedAffinity -7.81445026
REMARK CNNscore 0.3604334
REMARK CNNaffinity 6.18077993
REMARK  12 active torsions:
REMARK  status: ('A' for Active; 'I' for Inactive)
REMARK    1  A    between atoms: O1_2  and  C2_3 
REMARK    2  A    between atoms: C3_5  and  C4_6 
REMARK    3  A    between atoms: C4_6  and  O3_7 
REMARK    4  A    between atoms: C4_6  and  C5_8 
REMARK    5  A    between atoms: C5_8  and  O4_10 
REMARK    6  A    between atoms: C5_8  and  C7_11 
REMARK    7  A    between atoms: C7_11  and  O5_12 
REMARK    8  A    between atoms: C9_14  and  C10_15 
REMARK    9  A    between atoms: C23_28  and  O6_29 
REMARK   10  A    between atoms: O6_29  and  C24_30 
REMARK   11  A    between atoms: C24_30  and  C25_32 
REMARK   12  A    between atoms: C34_41  and  O8_42 
ROOT
HETATM    1  C10 UNL     1     -10.185  45.326 -30.580  1.00  0.00     0.004 C 
HETATM    2  C11 UNL     1     -11.121  46.404 -31.175  1.00  0.00     0.007 C 
HETATM    3  C12 UNL     1     -11.538  47.325 -30.027  1.00  0.00     0.011 C 
HETATM    4  C13 UNL     1     -11.388  46.461 -28.786  1.00  0.00    -0.021 A 
HETATM    5  C14 UNL     1     -10.018  46.539 -28.160  1.00  0.00     0.022 A 
HETATM    6  C15 UNL     1     -10.376  45.365 -29.066  1.00  0.00    -0.027 A 
HETATM    7  C16 UNL     1     -10.422  44.026 -28.352  1.00  0.00     0.011 C 
HETATM    8  C17 UNL     1     -11.753  43.721 -27.657  1.00  0.00     0.007 C 
HETATM    9  C18 UNL     1     -12.333  44.954 -26.928  1.00  0.00     0.005 C 
HETATM   10  C19 UNL     1     -13.460  44.629 -25.849  1.00  0.00    -0.035 C 
HETATM   11  C20 UNL     1     -14.633  43.827 -26.454  1.00  0.00     0.016 C 
HETATM   12  C21 UNL     1     -12.839  43.758 -24.712  1.00  0.00     0.012 C 
HETATM   13  C22 UNL     1     -13.728  43.617 -23.473  1.00  0.00     0.034 C 
HETATM   14  C23 UNL     1     -14.153  44.965 -22.894  1.00  0.00     0.140 C 
HETATM   15  C29 UNL     1     -14.829  45.905 -23.943  1.00  0.00    -0.016 C 
HETATM   16  C30 UNL     1     -14.954  47.307 -23.284  1.00  0.00     0.018 C 
HETATM   17  C31 UNL     1     -16.271  45.457 -24.258  1.00  0.00     0.018 C 
HETATM   18  C32 UNL     1     -13.896  45.999 -25.202  1.00  0.00     0.007 C 
HETATM   19  C33 UNL     1     -14.358  47.011 -26.278  1.00  0.00     0.038 C 
HETATM   20  C34 UNL     1     -13.226  47.340 -27.263  1.00  0.00     0.128 C 
HETATM   21  C35 UNL     1     -12.673  46.080 -27.987  1.00  0.00    -0.005 C 
HETATM   22  C36 UNL     1     -13.739  45.597 -29.019  1.00  0.00     0.019 C 
ENDROOT
BRANCH   1  23
HETATM   23  C9  UNL     1      -8.759  45.368 -31.141  1.00  0.00     0.048 C 
HETATM   24  C2  UNL     1      -8.436  44.582 -32.414  1.00  0.00     0.264 C 
HETATM   25  O2  UNL     1      -7.430  45.343 -33.114  1.00  0.00    -0.353 OA
HETATM   26  C3  UNL     1      -6.945  46.345 -32.214  1.00  0.00     0.157 C 
HETATM   27  C8  UNL     1      -8.200  46.748 -31.454  1.00  0.00     0.044 C 
BRANCH  24  28
HETATM   28  O1  UNL     1      -7.934  43.301 -32.053  1.00  0.00    -0.366 OA
HETATM   29  C1  UNL     1      -6.958  42.833 -32.977  1.00  0.00     0.204 C 
ENDBRANCH  24  28
BRANCH  26  30
HETATM   30  C4  UNL     1      -6.219  47.471 -32.964  1.00  0.00     0.183 C 
BRANCH  30  31
HETATM   31  O3  UNL     1      -6.450  47.441 -34.383  1.00  0.00    -0.390 OA
HETATM   32  H7  UNL     1      -7.064  46.704 -34.582  1.00  0.00     0.210 HD
ENDBRANCH  30  31
BRANCH  30  33
HETATM   33  C5  UNL     1      -4.677  47.521 -32.752  1.00  0.00     0.103 C 
HETATM   34  C6  UNL     1      -4.150  46.292 -32.008  1.00  0.00     0.051 C 
BRANCH  33  35
HETATM   35  O4  UNL     1      -4.410  48.660 -31.891  1.00  0.00    -0.385 OA
HETATM   36  H11 UNL     1      -4.981  49.373 -32.253  1.00  0.00     0.210 HD
ENDBRANCH  33  35
BRANCH  33  37
HETATM   37  C7  UNL     1      -3.874  47.774 -34.051  1.00  0.00     0.204 C 
BRANCH  37  38
HETATM   38  O5  UNL     1      -3.867  49.173 -34.364  1.00  0.00    -0.398 OA
HETATM   39  H14 UNL     1      -4.726  49.520 -34.034  1.00  0.00     0.209 HD
ENDBRANCH  37  38
ENDBRANCH  33  37
ENDBRANCH  30  33
ENDBRANCH  26  30
ENDBRANCH   1  23
BRANCH  20  40
HETATM   40  O8  UNL     1     -12.184  47.994 -26.528  1.00  0.00    -0.395 OA
HETATM   41  H55 UNL     1     -12.544  48.833 -26.182  1.00  0.00     0.210 HD
ENDBRANCH  20  40
BRANCH  14  42
HETATM   42  O6  UNL     1     -15.085  44.727 -21.820  1.00  0.00    -0.312 OA
BRANCH  42  43
HETATM   43  C24 UNL     1     -14.654  44.979 -20.565  1.00  0.00     0.283 C 
HETATM   44  O7  UNL     1     -13.610  44.603 -20.058  1.00  0.00    -0.260 OA
BRANCH  43  45
HETATM   45  C25 UNL     1     -15.597  45.886 -19.877  1.00  0.00     0.084 C 
HETATM   46  C26 UNL     1     -15.394  47.169 -19.521  1.00  0.00    -0.082 C 
HETATM   47  C27 UNL     1     -14.165  47.982 -19.829  1.00  0.00     0.043 C 
HETATM   48  C28 UNL     1     -16.461  47.919 -18.774  1.00  0.00     0.043 C 
ENDBRANCH  43  45
ENDBRANCH  42  43
ENDBRANCH  14  42
TORSDOF 12
ENDMDL
MODEL 6
REMARK minimizedAffinity -9.30692482
REMARK CNNscore 0.35313037
REMARK CNNaffinity 6.92496061
REMARK  12 active torsions:
REMARK  status: ('A' for Active; 'I' for Inactive)
REMARK    1  A    between atoms: O1_2  and  C2_3 
REMARK    2  A    between atoms: C3_5  and  C4_6 
REMARK    3  A    between atoms: C4_6  and  O3_7 
REMARK    4  A    between atoms: C4_6  and  C5_8 
REMARK    5  A    between atoms: C5_8  and  O4_10 
REMARK    6  A    between atoms: C5_8  and  C7_11 
REMARK    7  A    between atoms: C7_11  and  O5_12 
REMARK    8  A    between atoms: C9_14  and  C10_15 
REMARK    9  A    between atoms: C23_28  and  O6_29 
REMARK   10  A    between atoms: O6_29  and  C24_30 
REMARK   11  A    between atoms: C24_30  and  C25_32 
REMARK   12  A    between atoms: C34_41  and  O8_42 
ROOT
HETATM    1  C10 UNL     1      -7.286  47.035 -24.859  1.00  0.00     0.004 C 
HETATM    2  C11 UNL     1      -8.011  46.474 -23.614  1.00  0.00     0.007 C 
HETATM    3  C12 UNL     1      -7.888  47.522 -22.507  1.00  0.00     0.011 C 
HETATM    4  C13 UNL     1      -6.642  48.309 -22.880  1.00  0.00    -0.021 A 
HETATM    5  C14 UNL     1      -6.923  49.492 -23.771  1.00  0.00     0.022 A 
HETATM    6  C15 UNL     1      -6.411  48.189 -24.375  1.00  0.00    -0.027 A 
HETATM    7  C16 UNL     1      -5.025  48.294 -24.985  1.00  0.00     0.011 C 
HETATM    8  C17 UNL     1      -3.875  48.126 -23.986  1.00  0.00     0.007 C 
HETATM    9  C18 UNL     1      -4.140  48.862 -22.654  1.00  0.00     0.005 C 
HETATM   10  C19 UNL     1      -2.851  49.096 -21.746  1.00  0.00    -0.035 C 
HETATM   11  C20 UNL     1      -2.111  47.776 -21.433  1.00  0.00     0.016 C 
HETATM   12  C21 UNL     1      -1.852  50.019 -22.511  1.00  0.00     0.012 C 
HETATM   13  C22 UNL     1      -0.708  50.558 -21.647  1.00  0.00     0.034 C 
HETATM   14  C23 UNL     1      -1.204  51.285 -20.397  1.00  0.00     0.140 C 
HETATM   15  C29 UNL     1      -2.182  50.430 -19.530  1.00  0.00    -0.016 C 
HETATM   16  C30 UNL     1      -2.797  51.382 -18.466  1.00  0.00     0.018 C 
HETATM   17  C31 UNL     1      -1.432  49.340 -18.738  1.00  0.00     0.018 C 
HETATM   18  C32 UNL     1      -3.321  49.880 -20.461  1.00  0.00     0.007 C 
HETATM   19  C33 UNL     1      -4.456  49.129 -19.723  1.00  0.00     0.038 C 
HETATM   20  C34 UNL     1      -5.699  48.975 -20.613  1.00  0.00     0.128 C 
HETATM   21  C35 UNL     1      -5.400  48.221 -21.940  1.00  0.00    -0.005 C 
HETATM   22  C36 UNL     1      -5.169  46.714 -21.609  1.00  0.00     0.019 C 
ENDROOT
BRANCH   1  23
HETATM   23  C9  UNL     1      -8.209  47.269 -26.060  1.00  0.00     0.048 C 
HETATM   24  C2  UNL     1      -9.129  48.492 -26.064  1.00  0.00     0.264 C 
HETATM   25  O2  UNL     1      -9.246  48.904 -27.443  1.00  0.00    -0.353 OA
HETATM   26  C3  UNL     1      -8.707  47.853 -28.252  1.00  0.00     0.157 C 
HETATM   27  C8  UNL     1      -7.534  47.357 -27.421  1.00  0.00     0.044 C 
BRANCH  24  28
HETATM   28  O1  UNL     1     -10.399  48.120 -25.544  1.00  0.00    -0.366 OA
HETATM   29  C1  UNL     1     -11.349  47.889 -26.576  1.00  0.00     0.204 C 
ENDBRANCH  24  28
BRANCH  26  30
HETATM   30  C4  UNL     1      -8.371  48.348 -29.666  1.00  0.00     0.183 C 
BRANCH  30  31
HETATM   31  O3  UNL     1      -9.066  49.557 -30.018  1.00  0.00    -0.390 OA
HETATM   32  H7  UNL     1      -9.606  49.840 -29.250  1.00  0.00     0.210 HD
ENDBRANCH  30  31
BRANCH  30  33
HETATM   33  C5  UNL     1      -8.632  47.322 -30.807  1.00  0.00     0.103 C 
HETATM   34  C6  UNL     1      -7.387  47.067 -31.660  1.00  0.00     0.051 C 
BRANCH  33  35
HETATM   35  O4  UNL     1      -9.613  47.923 -31.694  1.00  0.00    -0.385 OA
HETATM   36  H11 UNL     1     -10.279  48.314 -31.085  1.00  0.00     0.210 HD
ENDBRANCH  33  35
BRANCH  33  37
HETATM   37  C7  UNL     1      -9.258  45.992 -30.322  1.00  0.00     0.204 C 
BRANCH  37  38
HETATM   38  O5  UNL     1     -10.654  45.954 -30.648  1.00  0.00    -0.398 OA
HETATM   39  H14 UNL     1     -10.959  46.888 -30.605  1.00  0.00     0.209 HD
ENDBRANCH  37  38
ENDBRANCH  33  37
ENDBRANCH  30  33
ENDBRANCH  26  30
ENDBRANCH   1  23
BRANCH  20  40
HETATM   40  O8  UNL     1      -6.206  50.288 -20.885  1.00  0.00    -0.395 OA
HETATM   41  H55 UNL     1      -6.482  50.683 -20.036  1.00  0.00     0.210 HD
ENDBRANCH  20  40
BRANCH  14  42
HETATM   42  O6  UNL     1      -0.061  51.637 -19.592  1.00  0.00    -0.312 OA
BRANCH  42  43
HETATM   43  C24 UNL     1       0.787  52.559 -20.096  1.00  0.00     0.283 C 
HETATM   44  O7  UNL     1       1.615  53.209 -19.480  1.00  0.00    -0.260 OA
BRANCH  43  45
HETATM   45  C25 UNL     1       0.651  52.623 -21.567  1.00  0.00     0.084 C 
HETATM   46  C26 UNL     1       1.030  53.622 -22.386  1.00  0.00    -0.082 C 
HETATM   47  C27 UNL     1       1.758  54.872 -21.968  1.00  0.00     0.043 C 
HETATM   48  C28 UNL     1       0.758  53.527 -23.862  1.00  0.00     0.043 C 
ENDBRANCH  43  45
ENDBRANCH  42  43
ENDBRANCH  14  42
TORSDOF 12
ENDMDL
MODEL 7
REMARK minimizedAffinity -7.56194115
REMARK CNNscore 0.344325125
REMARK CNNaffinity 6.01160479
REMARK  12 active torsions:
REMARK  status: ('A' for Active; 'I' for Inactive)
REMARK    1  A    between atoms: O1_2  and  C2_3 
REMARK    2  A    between atoms: C3_5  and  C4_6 
REMARK    3  A    between atoms: C4_6  and  O3_7 
REMARK    4  A    between atoms: C4_6  and  C5_8 
REMARK    5  A    between atoms: C5_8  and  O4_10 
REMARK    6  A    between atoms: C5_8  and  C7_11 
REMARK    7  A    between atoms: C7_11  and  O5_12 
REMARK    8  A    between atoms: C9_14  and  C10_15 
REMARK    9  A    between atoms: C23_28  and  O6_29 
REMARK   10  A    between atoms: O6_29  and  C24_30 
REMARK   11  A    between atoms: C24_30  and  C25_32 
REMARK   12  A    between atoms: C34_41  and  O8_42 
ROOT
HETATM    1  C10 UNL     1      -9.740  44.114 -28.611  1.00  0.00     0.004 C 
HETATM    2  C11 UNL     1     -10.667  44.157 -29.848  1.00  0.00     0.007 C 
HETATM    3  C12 UNL     1     -11.755  45.193 -29.563  1.00  0.00     0.011 C 
HETATM    4  C13 UNL     1     -11.825  45.249 -28.046  1.00  0.00    -0.021 A 
HETATM    5  C14 UNL     1     -10.896  46.269 -27.438  1.00  0.00     0.022 A 
HETATM    6  C15 UNL     1     -10.494  44.798 -27.473  1.00  0.00    -0.027 A 
HETATM    7  C16 UNL     1     -10.385  44.155 -26.102  1.00  0.00     0.011 C 
HETATM    8  C17 UNL     1     -11.711  43.640 -25.533  1.00  0.00     0.007 C 
HETATM    9  C18 UNL     1     -12.880  44.619 -25.786  1.00  0.00     0.005 C 
HETATM   10  C19 UNL     1     -14.169  44.376 -24.880  1.00  0.00    -0.035 C 
HETATM   11  C20 UNL     1     -14.708  42.934 -25.007  1.00  0.00     0.016 C 
HETATM   12  C21 UNL     1     -13.788  44.601 -23.383  1.00  0.00     0.012 C 
HETATM   13  C22 UNL     1     -14.988  44.685 -22.436  1.00  0.00     0.034 C 
HETATM   14  C23 UNL     1     -16.001  45.747 -22.859  1.00  0.00     0.140 C 
HETATM   15  C29 UNL     1     -16.486  45.590 -24.335  1.00  0.00    -0.016 C 
HETATM   16  C30 UNL     1     -17.285  46.874 -24.691  1.00  0.00     0.018 C 
HETATM   17  C31 UNL     1     -17.480  44.419 -24.483  1.00  0.00     0.018 C 
HETATM   18  C32 UNL     1     -15.224  45.483 -25.264  1.00  0.00     0.007 C 
HETATM   19  C33 UNL     1     -15.536  45.467 -26.781  1.00  0.00     0.038 C 
HETATM   20  C34 UNL     1     -14.279  45.760 -27.615  1.00  0.00     0.128 C 
HETATM   21  C35 UNL     1     -13.127  44.751 -27.344  1.00  0.00    -0.005 C 
HETATM   22  C36 UNL     1     -13.511  43.382 -27.986  1.00  0.00     0.019 C 
ENDROOT
BRANCH   1  23
HETATM   23  C9  UNL     1      -8.300  44.549 -28.902  1.00  0.00     0.048 C 
HETATM   24  C2  UNL     1      -7.760  44.431 -30.330  1.00  0.00     0.264 C 
HETATM   25  O2  UNL     1      -6.836  45.525 -30.504  1.00  0.00    -0.353 OA
HETATM   26  C3  UNL     1      -6.585  46.086 -29.211  1.00  0.00     0.157 C 
HETATM   27  C8  UNL     1      -7.942  45.981 -28.531  1.00  0.00     0.044 C 
BRANCH  24  28
HETATM   28  O1  UNL     1      -7.092  43.183 -30.471  1.00  0.00    -0.366 OA
HETATM   29  C1  UNL     1      -6.288  43.141 -31.643  1.00  0.00     0.204 C 
ENDBRANCH  24  28
BRANCH  26  30
HETATM   30  C4  UNL     1      -5.989  47.498 -29.316  1.00  0.00     0.183 C 
BRANCH  30  31
HETATM   31  O3  UNL     1      -6.851  48.513 -28.772  1.00  0.00    -0.390 OA
HETATM   32  H7  UNL     1      -7.652  48.079 -28.410  1.00  0.00     0.210 HD
ENDBRANCH  30  31
BRANCH  30  33
HETATM   33  C5  UNL     1      -5.604  47.948 -30.756  1.00  0.00     0.103 C 
HETATM   34  C6  UNL     1      -6.792  47.902 -31.720  1.00  0.00     0.051 C 
BRANCH  33  35
HETATM   35  O4  UNL     1      -4.642  46.978 -31.253  1.00  0.00    -0.385 OA
HETATM   36  H11 UNL     1      -4.034  46.834 -30.495  1.00  0.00     0.210 HD
ENDBRANCH  33  35
BRANCH  33  37
HETATM   37  C7  UNL     1      -4.890  49.320 -30.813  1.00  0.00     0.204 C 
BRANCH  37  38
HETATM   38  O5  UNL     1      -4.315  49.633 -29.538  1.00  0.00    -0.398 OA
HETATM   39  H14 UNL     1      -4.910  49.219 -28.873  1.00  0.00     0.209 HD
ENDBRANCH  37  38
ENDBRANCH  33  37
ENDBRANCH  30  33
ENDBRANCH  26  30
ENDBRANCH   1  23
BRANCH  20  40
HETATM   40  O8  UNL     1     -13.858  47.096 -27.313  1.00  0.00    -0.395 OA
HETATM   41  H55 UNL     1     -14.566  47.705 -27.599  1.00  0.00     0.210 HD
ENDBRANCH  20  40
BRANCH  14  42
HETATM   42  O6  UNL     1     -17.145  45.659 -21.986  1.00  0.00    -0.312 OA
BRANCH  42  43
HETATM   43  C24 UNL     1     -17.007  46.159 -20.739  1.00  0.00     0.283 C 
HETATM   44  O7  UNL     1     -16.249  47.046 -20.383  1.00  0.00    -0.260 OA
BRANCH  43  45
HETATM   45  C25 UNL     1     -17.998  45.541 -19.832  1.00  0.00     0.084 C 
HETATM   46  C26 UNL     1     -19.044  46.135 -19.228  1.00  0.00    -0.082 C 
HETATM   47  C27 UNL     1     -19.473  47.566 -19.420  1.00  0.00     0.043 C 
HETATM   48  C28 UNL     1     -19.916  45.348 -18.290  1.00  0.00     0.043 C 
ENDBRANCH  43  45
ENDBRANCH  42  43
ENDBRANCH  14  42
TORSDOF 12
ENDMDL
MODEL 8
REMARK minimizedAffinity -8.47199345
REMARK CNNscore 0.337247938
REMARK CNNaffinity 6.8758316
REMARK  12 active torsions:
REMARK  status: ('A' for Active; 'I' for Inactive)
REMARK    1  A    between atoms: O1_2  and  C2_3 
REMARK    2  A    between atoms: C3_5  and  C4_6 
REMARK    3  A    between atoms: C4_6  and  O3_7 
REMARK    4  A    between atoms: C4_6  and  C5_8 
REMARK    5  A    between atoms: C5_8  and  O4_10 
REMARK    6  A    between atoms: C5_8  and  C7_11 
REMARK    7  A    between atoms: C7_11  and  O5_12 
REMARK    8  A    between atoms: C9_14  and  C10_15 
REMARK    9  A    between atoms: C23_28  and  O6_29 
REMARK   10  A    between atoms: O6_29  and  C24_30 
REMARK   11  A    between atoms: C24_30  and  C25_32 
REMARK   12  A    between atoms: C34_41  and  O8_42 
ROOT
HETATM    1  C10 UNL     1      -8.138  46.548 -23.789  1.00  0.00     0.004 C 
HETATM    2  C11 UNL     1      -8.392  46.241 -22.295  1.00  0.00     0.007 C 
HETATM    3  C12 UNL     1      -7.987  47.484 -21.502  1.00  0.00     0.011 C 
HETATM    4  C13 UNL     1      -6.976  48.183 -22.398  1.00  0.00    -0.021 A 
HETATM    5  C14 UNL     1      -7.600  49.170 -23.351  1.00  0.00     0.022 A 
HETATM    6  C15 UNL     1      -7.228  47.773 -23.837  1.00  0.00    -0.027 A 
HETATM    7  C16 UNL     1      -6.119  47.756 -24.873  1.00  0.00     0.011 C 
HETATM    8  C17 UNL     1      -4.702  47.784 -24.290  1.00  0.00     0.007 C 
HETATM    9  C18 UNL     1      -4.573  48.766 -23.104  1.00  0.00     0.005 C 
HETATM   10  C19 UNL     1      -3.079  49.170 -22.724  1.00  0.00    -0.035 C 
HETATM   11  C20 UNL     1      -2.197  47.936 -22.430  1.00  0.00     0.016 C 
HETATM   12  C21 UNL     1      -2.435  49.925 -23.929  1.00  0.00     0.012 C 
HETATM   13  C22 UNL     1      -1.111  50.620 -23.599  1.00  0.00     0.034 C 
HETATM   14  C23 UNL     1      -1.226  51.577 -22.413  1.00  0.00     0.140 C 
HETATM   15  C29 UNL     1      -1.822  50.909 -21.133  1.00  0.00    -0.016 C 
HETATM   16  C30 UNL     1      -2.122  52.051 -20.122  1.00  0.00     0.018 C 
HETATM   17  C31 UNL     1      -0.792  49.993 -20.440  1.00  0.00     0.018 C 
HETATM   18  C32 UNL     1      -3.162  50.190 -21.524  1.00  0.00     0.007 C 
HETATM   19  C33 UNL     1      -3.952  49.599 -20.332  1.00  0.00     0.038 C 
HETATM   20  C34 UNL     1      -5.402  49.276 -20.725  1.00  0.00     0.128 C 
HETATM   21  C35 UNL     1      -5.496  48.277 -21.914  1.00  0.00    -0.005 C 
HETATM   22  C36 UNL     1      -5.079  46.864 -21.403  1.00  0.00     0.019 C 
ENDROOT
BRANCH   1  23
HETATM   23  C9  UNL     1      -9.408  46.545 -24.645  1.00  0.00     0.048 C 
HETATM   24  C2  UNL     1     -10.726  47.015 -24.024  1.00  0.00     0.264 C 
HETATM   25  O2  UNL     1     -11.474  47.641 -25.088  1.00  0.00    -0.353 OA
HETATM   26  C3  UNL     1     -10.822  47.313 -26.321  1.00  0.00     0.157 C 
HETATM   27  C8  UNL     1      -9.350  47.342 -25.940  1.00  0.00     0.044 C 
BRANCH  24  28
HETATM   28  O1  UNL     1     -11.428  45.888 -23.515  1.00  0.00    -0.366 OA
HETATM   29  C1  UNL     1     -12.172  46.208 -22.346  1.00  0.00     0.204 C 
ENDBRANCH  24  28
BRANCH  26  30
HETATM   30  C4  UNL     1     -11.246  48.263 -27.451  1.00  0.00     0.183 C 
BRANCH  30  31
HETATM   31  O3  UNL     1     -12.591  48.751 -27.299  1.00  0.00    -0.390 OA
HETATM   32  H7  UNL     1     -12.961  48.389 -26.467  1.00  0.00     0.210 HD
ENDBRANCH  30  31
BRANCH  30  33
HETATM   33  C5  UNL     1     -11.133  47.675 -28.888  1.00  0.00     0.103 C 
HETATM   34  C6  UNL     1     -10.495  46.283 -28.900  1.00  0.00     0.051 C 
BRANCH  33  35
HETATM   35  O4  UNL     1     -10.226  48.541 -29.623  1.00  0.00    -0.385 OA
HETATM   36  H11 UNL     1     -10.510  49.449 -29.375  1.00  0.00     0.210 HD
ENDBRANCH  33  35
BRANCH  33  37
HETATM   37  C7  UNL     1     -12.464  47.687 -29.677  1.00  0.00     0.204 C 
BRANCH  37  38
HETATM   38  O5  UNL     1     -12.283  47.076 -30.961  1.00  0.00    -0.398 OA
HETATM   39  H14 UNL     1     -11.355  47.275 -31.218  1.00  0.00     0.209 HD
ENDBRANCH  37  38
ENDBRANCH  33  37
ENDBRANCH  30  33
ENDBRANCH  26  30
ENDBRANCH   1  23
BRANCH  20  40
HETATM   40  O8  UNL     1      -6.050  50.511 -21.055  1.00  0.00    -0.395 OA
HETATM   41  H55 UNL     1      -6.065  51.065 -20.250  1.00  0.00     0.210 HD
ENDBRANCH  20  40
BRANCH  14  42
HETATM   42  O6  UNL     1       0.090  52.078 -22.102  1.00  0.00    -0.312 OA
BRANCH  42  43
HETATM   43  C24 UNL     1       0.511  53.164 -22.784  1.00  0.00     0.283 C 
HETATM   44  O7  UNL     1       1.384  53.948 -22.449  1.00  0.00    -0.260 OA
BRANCH  43  45
HETATM   45  C25 UNL     1      -0.176  53.242 -24.091  1.00  0.00     0.084 C 
HETATM   46  C26 UNL     1       0.297  52.865 -25.294  1.00  0.00    -0.082 C 
HETATM   47  C27 UNL     1       1.624  52.199 -25.546  1.00  0.00     0.043 C 
HETATM   48  C28 UNL     1      -0.536  53.073 -26.527  1.00  0.00     0.043 C 
ENDBRANCH  43  45
ENDBRANCH  42  43
ENDBRANCH  14  42
TORSDOF 12
ENDMDL
MODEL 9
REMARK minimizedAffinity -7.8417244
REMARK CNNscore 0.332313061
REMARK CNNaffinity 6.69013071
REMARK  12 active torsions:
REMARK  status: ('A' for Active; 'I' for Inactive)
REMARK    1  A    between atoms: O1_2  and  C2_3 
REMARK    2  A    between atoms: C3_5  and  C4_6 
REMARK    3  A    between atoms: C4_6  and  O3_7 
REMARK    4  A    between atoms: C4_6  and  C5_8 
REMARK    5  A    between atoms: C5_8  and  O4_10 
REMARK    6  A    between atoms: C5_8  and  C7_11 
REMARK    7  A    between atoms: C7_11  and  O5_12 
REMARK    8  A    between atoms: C9_14  and  C10_15 
REMARK    9  A    between atoms: C23_28  and  O6_29 
REMARK   10  A    between atoms: O6_29  and  C24_30 
REMARK   11  A    between atoms: C24_30  and  C25_32 
REMARK   12  A    between atoms: C34_41  and  O8_42 
ROOT
HETATM    1  C10 UNL     1      -1.362  49.275 -19.360  1.00  0.00     0.004 C 
HETATM    2  C11 UNL     1      -1.008  48.369 -20.563  1.00  0.00     0.007 C 
HETATM    3  C12 UNL     1      -2.193  48.415 -21.529  1.00  0.00     0.011 C 
HETATM    4  C13 UNL     1      -3.376  48.780 -20.646  1.00  0.00    -0.021 A 
HETATM    5  C14 UNL     1      -3.601  50.266 -20.527  1.00  0.00     0.022 A 
HETATM    6  C15 UNL     1      -2.869  49.515 -19.420  1.00  0.00    -0.027 A 
HETATM    7  C16 UNL     1      -3.614  49.483 -18.098  1.00  0.00     0.011 C 
HETATM    8  C17 UNL     1      -4.656  48.366 -17.982  1.00  0.00     0.007 C 
HETATM    9  C18 UNL     1      -5.473  48.184 -19.281  1.00  0.00     0.005 C 
HETATM   10  C19 UNL     1      -6.829  47.364 -19.115  1.00  0.00    -0.035 C 
HETATM   11  C20 UNL     1      -6.595  45.970 -18.490  1.00  0.00     0.016 C 
HETATM   12  C21 UNL     1      -7.783  48.147 -18.160  1.00  0.00     0.012 C 
HETATM   13  C22 UNL     1      -9.222  47.622 -18.141  1.00  0.00     0.034 C 
HETATM   14  C23 UNL     1      -9.847  47.563 -19.534  1.00  0.00     0.140 C 
HETATM   15  C29 UNL     1      -8.990  46.761 -20.564  1.00  0.00    -0.016 C 
HETATM   16  C30 UNL     1      -9.609  47.016 -21.967  1.00  0.00     0.018 C 
HETATM   17  C31 UNL     1      -9.097  45.240 -20.327  1.00  0.00     0.018 C 
HETATM   18  C32 UNL     1      -7.522  47.316 -20.530  1.00  0.00     0.007 C 
HETATM   19  C33 UNL     1      -6.578  46.719 -21.603  1.00  0.00     0.038 C 
HETATM   20  C34 UNL     1      -5.310  47.570 -21.772  1.00  0.00     0.128 C 
HETATM   21  C35 UNL     1      -4.507  47.724 -20.448  1.00  0.00    -0.005 C 
HETATM   22  C36 UNL     1      -3.823  46.359 -20.127  1.00  0.00     0.019 C 
ENDROOT
BRANCH   1  23
HETATM   23  C9  UNL     1      -0.433  50.483 -19.202  1.00  0.00     0.048 C 
HETATM   24  C2  UNL     1      -0.970  51.882 -19.520  1.00  0.00     0.264 C 
HETATM   25  O2  UNL     1      -0.298  52.786 -18.618  1.00  0.00    -0.353 OA
HETATM   26  C3  UNL     1       0.780  52.066 -18.012  1.00  0.00     0.157 C 
HETATM   27  C8  UNL     1       0.195  50.675 -17.829  1.00  0.00     0.044 C 
BRANCH  24  28
HETATM   28  O1  UNL     1      -0.660  52.201 -20.871  1.00  0.00    -0.366 OA
HETATM   29  C1  UNL     1       0.568  51.616 -21.287  1.00  0.00     0.204 C 
ENDBRANCH  24  28
BRANCH  26  30
HETATM   30  C4  UNL     1       1.275  52.763 -16.735  1.00  0.00     0.183 C 
BRANCH  30  31
HETATM   31  O3  UNL     1       2.672  53.102 -16.785  1.00  0.00    -0.390 OA
HETATM   32  H7  UNL     1       3.025  52.836 -17.660  1.00  0.00     0.210 HD
ENDBRANCH  30  31
BRANCH  30  33
HETATM   33  C5  UNL     1       1.043  51.971 -15.416  1.00  0.00     0.103 C 
HETATM   34  C6  UNL     1      -0.186  51.061 -15.489  1.00  0.00     0.051 C 
BRANCH  33  35
HETATM   35  O4  UNL     1       0.758  52.953 -14.383  1.00  0.00    -0.385 OA
HETATM   36  H11 UNL     1       1.419  53.663 -14.539  1.00  0.00     0.210 HD
ENDBRANCH  33  35
BRANCH  33  37
HETATM   37  C7  UNL     1       2.287  51.191 -14.926  1.00  0.00     0.204 C 
BRANCH  37  38
HETATM   38  O5  UNL     1       3.188  52.072 -14.244  1.00  0.00    -0.398 OA
HETATM   39  H14 UNL     1       3.080  52.947 -14.681  1.00  0.00     0.209 HD
ENDBRANCH  37  38
ENDBRANCH  33  37
ENDBRANCH  30  33
ENDBRANCH  26  30
ENDBRANCH   1  23
BRANCH  20  40
HETATM   40  O8  UNL     1      -5.711  48.854 -22.268  1.00  0.00    -0.395 OA
HETATM   41  H55 UNL     1      -6.112  48.722 -23.148  1.00  0.00     0.210 HD
ENDBRANCH  20  40
BRANCH  14  42
HETATM   42  O6  UNL     1     -11.142  46.939 -19.426  1.00  0.00    -0.312 OA
BRANCH  42  43
HETATM   43  C24 UNL     1     -12.186  47.738 -19.114  1.00  0.00     0.283 C 
HETATM   44  O7  UNL     1     -12.682  48.604 -19.816  1.00  0.00    -0.260 OA
BRANCH  43  45
HETATM   45  C25 UNL     1     -12.742  47.357 -17.798  1.00  0.00     0.084 C 
HETATM   46  C26 UNL     1     -13.623  46.375 -17.530  1.00  0.00    -0.082 C 
HETATM   47  C27 UNL     1     -14.174  45.393 -18.529  1.00  0.00     0.043 C 
HETATM   48  C28 UNL     1     -14.117  46.172 -16.125  1.00  0.00     0.043 C 
ENDBRANCH  43  45
ENDBRANCH  42  43
ENDBRANCH  14  42
TORSDOF 12
ENDMDL
