MODEL 1
REMARK minimizedAffinity -9.84634399
REMARK  12 active torsions:
REMARK  status: ('A' for Active; 'I' for Inactive)
REMARK    1  A    between atoms: C2_2  and  C3_3 
REMARK    2  A    between atoms: C2_2  and  C26_31 
REMARK    3  A    between atoms: C3_3  and  C4_4 
REMARK    4  A    between atoms: C4_4  and  C5_5 
REMARK    5  A    between atoms: C5_5  and  C7_7 
REMARK    6  A    between atoms: C8_8  and  O1_9 
REMARK    7  A    between atoms: C9_10  and  O2_11 
REMARK    8  A    between atoms: C20_22  and  O3_23 
REMARK    9  A    between atoms: C23_26  and  O4_27 
REMARK   10  A    between atoms: C25_29  and  O5_30 
REMARK   11  A    between atoms: C26_31  and  C28_33 
REMARK   12  A    between atoms: C28_33  and  O6_34 
ROOT
HETATM    1  C7  UNL     1      -5.462   5.739  13.246  1.00  0.00     0.029 C 
HETATM    2  C8  UNL     1      -6.343   4.548  12.722  1.00  0.00     0.152 C 
HETATM    3  C9  UNL     1      -7.816   4.901  13.053  1.00  0.00     0.155 C 
HETATM    4  C10 UNL     1      -7.747   6.334  13.566  1.00  0.00     0.060 C 
HETATM    5  C11 UNL     1      -6.382   6.406  14.329  1.00  0.00    -0.029 C 
HETATM    6  C12 UNL     1      -6.292   5.628  15.664  1.00  0.00     0.016 C 
HETATM    7  C13 UNL     1      -6.126   7.902  14.607  1.00  0.00     0.011 C 
HETATM    8  C14 UNL     1      -7.290   8.569  15.369  1.00  0.00     0.009 C 
HETATM    9  C15 UNL     1      -8.652   8.408  14.651  1.00  0.00     0.029 C 
HETATM   10  C16 UNL     1      -9.853   9.173  15.332  1.00  0.00    -0.031 C 
HETATM   11  C17 UNL     1     -10.121   8.670  16.772  1.00  0.00     0.016 C 
HETATM   12  C18 UNL     1      -9.543  10.700  15.410  1.00  0.00     0.012 C 
HETATM   13  C19 UNL     1     -10.740  11.556  15.832  1.00  0.00     0.032 C 
HETATM   14  C20 UNL     1     -11.985  11.286  14.994  1.00  0.00     0.118 C 
HETATM   15  C21 UNL     1     -12.316   9.797  14.903  1.00  0.00     0.039 C 
HETATM   16  C22 UNL     1     -11.101   8.998  14.407  1.00  0.00     0.025 C 
HETATM   17  C23 UNL     1     -11.434   7.520  14.137  1.00  0.00     0.126 C 
HETATM   18  C24 UNL     1     -10.245   6.794  13.498  1.00  0.00     0.071 C 
HETATM   19  C25 UNL     1      -8.958   6.907  14.331  1.00  0.00     0.071 C 
ENDROOT
BRANCH   1  20
HETATM   20  C5  UNL     1      -4.001   5.336  13.605  1.00  0.00    -0.011 C 
HETATM   21  C6  UNL     1      -2.973   6.399  13.198  1.00  0.00     0.010 C 
BRANCH  20  22
HETATM   22  C4  UNL     1      -3.630   3.993  12.915  1.00  0.00     0.009 C 
BRANCH  22  23
HETATM   23  C3  UNL     1      -2.740   4.184  11.672  1.00  0.00     0.034 C 
BRANCH  23  24
HETATM   24  C2  UNL     1      -1.585   3.204  11.490  1.00  0.00    -0.083 C 
HETATM   25  C1  UNL     1      -0.320   3.483  11.858  1.00  0.00     0.015 C 
BRANCH  24  26
HETATM   26  C26 UNL     1      -1.999   1.859  10.869  1.00  0.00     0.033 C 
HETATM   27  C27 UNL     1      -3.107   1.110  11.627  1.00  0.00     0.017 C 
BRANCH  26  28
HETATM   28  C28 UNL     1      -0.792   0.923  10.631  1.00  0.00     0.172 C 
BRANCH  28  29
HETATM   29  O6  UNL     1      -0.592   0.609   9.256  1.00  0.00    -0.400 OA
HETATM   30  H48 UNL     1      -0.590   1.441   8.755  1.00  0.00     0.209 HD
ENDBRANCH  28  29
ENDBRANCH  26  28
ENDBRANCH  24  26
ENDBRANCH  23  24
ENDBRANCH  22  23
ENDBRANCH  20  22
ENDBRANCH   1  20
BRANCH   2  31
HETATM   31  O1  UNL     1      -6.041   3.291  13.330  1.00  0.00    -0.393 OA
HETATM   32  H13 UNL     1      -5.218   2.955  12.933  1.00  0.00     0.210 HD
ENDBRANCH   2  31
BRANCH   3  33
HETATM   33  O2  UNL     1      -8.367   4.027  14.038  1.00  0.00    -0.392 OA
HETATM   34  H15 UNL     1      -7.737   3.270  14.069  1.00  0.00     0.210 HD
ENDBRANCH   3  33
BRANCH  19  35
HETATM   35  O5  UNL     1      -9.166   6.164  15.524  1.00  0.00    -0.389 OA
HETATM   36  H41 UNL     1      -9.112   5.213  15.275  1.00  0.00     0.210 HD
ENDBRANCH  19  35
BRANCH  17  37
HETATM   37  O4  UNL     1     -12.544   7.431  13.237  1.00  0.00    -0.395 OA
HETATM   38  H38 UNL     1     -12.288   7.845  12.396  1.00  0.00     0.210 HD
ENDBRANCH  17  37
BRANCH  14  39
HETATM   39  O3  UNL     1     -13.080  11.993  15.565  1.00  0.00    -0.396 OA
HETATM   40  H33 UNL     1     -13.876  11.763  15.057  1.00  0.00     0.210 HD
ENDBRANCH  14  39
TORSDOF 12
ENDMDL
MODEL 2
REMARK minimizedAffinity -9.78380394
REMARK  12 active torsions:
REMARK  status: ('A' for Active; 'I' for Inactive)
REMARK    1  A    between atoms: C2_2  and  C3_3 
REMARK    2  A    between atoms: C2_2  and  C26_31 
REMARK    3  A    between atoms: C3_3  and  C4_4 
REMARK    4  A    between atoms: C4_4  and  C5_5 
REMARK    5  A    between atoms: C5_5  and  C7_7 
REMARK    6  A    between atoms: C8_8  and  O1_9 
REMARK    7  A    between atoms: C9_10  and  O2_11 
REMARK    8  A    between atoms: C20_22  and  O3_23 
REMARK    9  A    between atoms: C23_26  and  O4_27 
REMARK   10  A    between atoms: C25_29  and  O5_30 
REMARK   11  A    between atoms: C26_31  and  C28_33 
REMARK   12  A    between atoms: C28_33  and  O6_34 
ROOT
HETATM    1  C7  UNL     1      -0.363   6.769  11.273  1.00  0.00     0.029 C 
HETATM    2  C8  UNL     1      -0.298   5.265  10.820  1.00  0.00     0.152 C 
HETATM    3  C9  UNL     1      -1.562   4.571  11.390  1.00  0.00     0.155 C 
HETATM    4  C10 UNL     1      -2.384   5.716  11.969  1.00  0.00     0.060 C 
HETATM    5  C11 UNL     1      -1.316   6.719  12.519  1.00  0.00    -0.029 C 
HETATM    6  C12 UNL     1      -0.533   6.275  13.778  1.00  0.00     0.016 C 
HETATM    7  C13 UNL     1      -2.079   8.021  12.841  1.00  0.00     0.011 C 
HETATM    8  C14 UNL     1      -3.259   7.791  13.808  1.00  0.00     0.009 C 
HETATM    9  C15 UNL     1      -4.259   6.726  13.295  1.00  0.00     0.029 C 
HETATM   10  C16 UNL     1      -5.544   6.540  14.194  1.00  0.00    -0.031 C 
HETATM   11  C17 UNL     1      -5.190   6.070  15.626  1.00  0.00     0.016 C 
HETATM   12  C18 UNL     1      -6.317   7.889  14.312  1.00  0.00     0.012 C 
HETATM   13  C19 UNL     1      -7.699   7.759  14.958  1.00  0.00     0.032 C 
HETATM   14  C20 UNL     1      -8.559   6.683  14.304  1.00  0.00     0.118 C 
HETATM   15  C21 UNL     1      -7.828   5.347  14.179  1.00  0.00     0.039 C 
HETATM   16  C22 UNL     1      -6.482   5.528  13.459  1.00  0.00     0.025 C 
HETATM   17  C23 UNL     1      -5.788   4.189  13.157  1.00  0.00     0.126 C 
HETATM   18  C24 UNL     1      -4.530   4.398  12.305  1.00  0.00     0.071 C 
HETATM   19  C25 UNL     1      -3.536   5.385  12.940  1.00  0.00     0.071 C 
ENDROOT
BRANCH   1  20
HETATM   20  C5  UNL     1       1.029   7.458  11.383  1.00  0.00    -0.011 C 
HETATM   21  C6  UNL     1       1.148   8.368  12.612  1.00  0.00     0.010 C 
BRANCH  20  22
HETATM   22  C4  UNL     1       1.313   8.302  10.107  1.00  0.00     0.009 C 
BRANCH  22  23
HETATM   23  C3  UNL     1       2.686   7.997   9.481  1.00  0.00     0.034 C 
BRANCH  23  24
HETATM   24  C2  UNL     1       2.920   6.574   8.984  1.00  0.00    -0.083 C 
HETATM   25  C1  UNL     1       2.556   6.154   7.758  1.00  0.00     0.015 C 
BRANCH  24  26
HETATM   26  C26 UNL     1       3.633   5.667  10.002  1.00  0.00     0.033 C 
HETATM   27  C27 UNL     1       4.875   6.286  10.664  1.00  0.00     0.017 C 
BRANCH  26  28
HETATM   28  C28 UNL     1       3.980   4.279   9.415  1.00  0.00     0.172 C 
BRANCH  28  29
HETATM   29  O6  UNL     1       3.116   3.246   9.878  1.00  0.00    -0.400 OA
HETATM   30  H48 UNL     1       2.200   3.542   9.756  1.00  0.00     0.209 HD
ENDBRANCH  28  29
ENDBRANCH  26  28
ENDBRANCH  24  26
ENDBRANCH  23  24
ENDBRANCH  22  23
ENDBRANCH  20  22
ENDBRANCH   1  20
BRANCH   2  31
HETATM   31  O1  UNL     1       0.849   4.563  11.302  1.00  0.00    -0.393 OA
HETATM   32  H13 UNL     1       1.615   4.835  10.766  1.00  0.00     0.210 HD
ENDBRANCH   2  31
BRANCH   3  33
HETATM   33  O2  UNL     1      -1.237   3.610  12.395  1.00  0.00    -0.392 OA
HETATM   34  H15 UNL     1      -0.269   3.465  12.286  1.00  0.00     0.210 HD
ENDBRANCH   3  33
BRANCH  19  35
HETATM   35  O5  UNL     1      -3.016   4.761  14.105  1.00  0.00    -0.389 OA
HETATM   36  H41 UNL     1      -2.383   4.073  13.796  1.00  0.00     0.210 HD
ENDBRANCH  19  35
BRANCH  17  37
HETATM   37  O4  UNL     1      -6.677   3.334  12.432  1.00  0.00    -0.395 OA
HETATM   38  H38 UNL     1      -6.892   3.764  11.587  1.00  0.00     0.210 HD
ENDBRANCH  17  37
BRANCH  14  39
HETATM   39  O3  UNL     1      -9.744   6.518  15.073  1.00  0.00    -0.396 OA
HETATM   40  H33 UNL     1     -10.252   5.788  14.679  1.00  0.00     0.210 HD
ENDBRANCH  14  39
TORSDOF 12
ENDMDL
MODEL 3
REMARK minimizedAffinity -9.72290707
REMARK  12 active torsions:
REMARK  status: ('A' for Active; 'I' for Inactive)
REMARK    1  A    between atoms: C2_2  and  C3_3 
REMARK    2  A    between atoms: C2_2  and  C26_31 
REMARK    3  A    between atoms: C3_3  and  C4_4 
REMARK    4  A    between atoms: C4_4  and  C5_5 
REMARK    5  A    between atoms: C5_5  and  C7_7 
REMARK    6  A    between atoms: C8_8  and  O1_9 
REMARK    7  A    between atoms: C9_10  and  O2_11 
REMARK    8  A    between atoms: C20_22  and  O3_23 
REMARK    9  A    between atoms: C23_26  and  O4_27 
REMARK   10  A    between atoms: C25_29  and  O5_30 
REMARK   11  A    between atoms: C26_31  and  C28_33 
REMARK   12  A    between atoms: C28_33  and  O6_34 
ROOT
HETATM    1  C7  UNL     1      -2.192   7.581  12.855  1.00  0.00     0.029 C 
HETATM    2  C8  UNL     1      -2.202   6.083  12.379  1.00  0.00     0.152 C 
HETATM    3  C9  UNL     1      -3.577   5.493  12.787  1.00  0.00     0.155 C 
HETATM    4  C10 UNL     1      -4.361   6.697  13.295  1.00  0.00     0.060 C 
HETATM    5  C11 UNL     1      -3.282   7.597  13.984  1.00  0.00    -0.029 C 
HETATM    6  C12 UNL     1      -2.688   7.072  15.313  1.00  0.00     0.016 C 
HETATM    7  C13 UNL     1      -3.964   8.957  14.247  1.00  0.00     0.011 C 
HETATM    8  C14 UNL     1      -5.262   8.816  15.069  1.00  0.00     0.009 C 
HETATM    9  C15 UNL     1      -6.283   7.848  14.423  1.00  0.00     0.029 C 
HETATM   10  C16 UNL     1      -7.673   7.762  15.167  1.00  0.00    -0.031 C 
HETATM   11  C17 UNL     1      -7.526   7.245  16.619  1.00  0.00     0.016 C 
HETATM   12  C18 UNL     1      -8.339   9.171  15.227  1.00  0.00     0.012 C 
HETATM   13  C19 UNL     1      -9.792   9.152  15.710  1.00  0.00     0.032 C 
HETATM   14  C20 UNL     1     -10.659   8.163  14.939  1.00  0.00     0.118 C 
HETATM   15  C21 UNL     1     -10.033   6.770  14.868  1.00  0.00     0.039 C 
HETATM   16  C22 UNL     1      -8.603   6.844  14.308  1.00  0.00     0.025 C 
HETATM   17  C23 UNL     1      -7.994   5.454  14.057  1.00  0.00     0.126 C 
HETATM   18  C24 UNL     1      -6.634   5.565  13.357  1.00  0.00     0.071 C 
HETATM   19  C25 UNL     1      -5.640   6.454  14.122  1.00  0.00     0.071 C 
ENDROOT
BRANCH   1  20
HETATM   20  C5  UNL     1      -0.768   8.146  13.137  1.00  0.00    -0.011 C 
HETATM   21  C6  UNL     1      -0.764   9.242  14.209  1.00  0.00     0.010 C 
BRANCH  20  22
HETATM   22  C4  UNL     1      -0.152   8.724  11.830  1.00  0.00     0.009 C 
BRANCH  22  23
HETATM   23  C3  UNL     1       0.557   7.654  10.979  1.00  0.00     0.034 C 
BRANCH  23  24
HETATM   24  C2  UNL     1       0.741   7.959   9.496  1.00  0.00    -0.083 C 
HETATM   25  C1  UNL     1      -0.221   8.515   8.735  1.00  0.00     0.015 C 
BRANCH  24  26
HETATM   26  C26 UNL     1       2.132   7.595   8.951  1.00  0.00     0.033 C 
HETATM   27  C27 UNL     1       2.337   7.878   7.454  1.00  0.00     0.017 C 
BRANCH  26  28
HETATM   28  C28 UNL     1       2.530   6.136   9.276  1.00  0.00     0.172 C 
BRANCH  28  29
HETATM   29  O6  UNL     1       2.877   5.382   8.118  1.00  0.00    -0.400 OA
HETATM   30  H48 UNL     1       3.524   5.895   7.607  1.00  0.00     0.209 HD
ENDBRANCH  28  29
ENDBRANCH  26  28
ENDBRANCH  24  26
ENDBRANCH  23  24
ENDBRANCH  22  23
ENDBRANCH  20  22
ENDBRANCH   1  20
BRANCH   2  31
HETATM   31  O1  UNL     1      -1.181   5.279  12.971  1.00  0.00    -0.393 OA
HETATM   32  H13 UNL     1      -0.338   5.491  12.532  1.00  0.00     0.210 HD
ENDBRANCH   2  31
BRANCH   3  33
HETATM   33  O2  UNL     1      -3.451   4.495  13.800  1.00  0.00    -0.392 OA
HETATM   34  H15 UNL     1      -2.493   4.269  13.799  1.00  0.00     0.210 HD
ENDBRANCH   3  33
BRANCH  19  35
HETATM   35  O5  UNL     1      -5.310   5.773  15.324  1.00  0.00    -0.389 OA
HETATM   36  H41 UNL     1      -4.706   5.037  15.074  1.00  0.00     0.210 HD
ENDBRANCH  19  35
BRANCH  17  37
HETATM   37  O4  UNL     1      -8.864   4.688  13.218  1.00  0.00    -0.395 OA
HETATM   38  H38 UNL     1      -8.943   5.146  12.364  1.00  0.00     0.210 HD
ENDBRANCH  17  37
BRANCH  14  39
HETATM   39  O3  UNL     1     -11.934   8.091  15.566  1.00  0.00    -0.396 OA
HETATM   40  H33 UNL     1     -12.453   7.413  15.102  1.00  0.00     0.210 HD
ENDBRANCH  14  39
TORSDOF 12
ENDMDL
MODEL 4
REMARK minimizedAffinity -9.577672
REMARK  12 active torsions:
REMARK  status: ('A' for Active; 'I' for Inactive)
REMARK    1  A    between atoms: C2_2  and  C3_3 
REMARK    2  A    between atoms: C2_2  and  C26_31 
REMARK    3  A    between atoms: C3_3  and  C4_4 
REMARK    4  A    between atoms: C4_4  and  C5_5 
REMARK    5  A    between atoms: C5_5  and  C7_7 
REMARK    6  A    between atoms: C8_8  and  O1_9 
REMARK    7  A    between atoms: C9_10  and  O2_11 
REMARK    8  A    between atoms: C20_22  and  O3_23 
REMARK    9  A    between atoms: C23_26  and  O4_27 
REMARK   10  A    between atoms: C25_29  and  O5_30 
REMARK   11  A    between atoms: C26_31  and  C28_33 
REMARK   12  A    between atoms: C28_33  and  O6_34 
ROOT
HETATM    1  C7  UNL     1      -4.775   7.812  13.989  1.00  0.00     0.029 C 
HETATM    2  C8  UNL     1      -4.467   9.056  14.900  1.00  0.00     0.152 C 
HETATM    3  C9  UNL     1      -2.936   9.292  14.830  1.00  0.00     0.155 C 
HETATM    4  C10 UNL     1      -2.460   8.323  13.755  1.00  0.00     0.060 C 
HETATM    5  C11 UNL     1      -3.392   7.076  13.920  1.00  0.00    -0.029 C 
HETATM    6  C12 UNL     1      -3.177   6.213  15.188  1.00  0.00     0.016 C 
HETATM    7  C13 UNL     1      -3.153   6.196  12.674  1.00  0.00     0.011 C 
HETATM    8  C14 UNL     1      -1.667   5.830  12.485  1.00  0.00     0.009 C 
HETATM    9  C15 UNL     1      -0.744   7.071  12.419  1.00  0.00     0.029 C 
HETATM   10  C16 UNL     1       0.771   6.753  12.109  1.00  0.00    -0.031 C 
HETATM   11  C17 UNL     1       1.413   5.860  13.199  1.00  0.00     0.016 C 
HETATM   12  C18 UNL     1       0.895   6.004  10.746  1.00  0.00     0.012 C 
HETATM   13  C19 UNL     1       2.334   5.866  10.242  1.00  0.00     0.032 C 
HETATM   14  C20 UNL     1       3.081   7.194  10.214  1.00  0.00     0.118 C 
HETATM   15  C21 UNL     1       2.981   7.949  11.540  1.00  0.00     0.039 C 
HETATM   16  C22 UNL     1       1.512   8.121  11.958  1.00  0.00     0.025 C 
HETATM   17  C23 UNL     1       1.352   9.020  13.196  1.00  0.00     0.126 C 
HETATM   18  C24 UNL     1      -0.128   9.295  13.490  1.00  0.00     0.071 C 
HETATM   19  C25 UNL     1      -0.953   8.008  13.655  1.00  0.00     0.071 C 
ENDROOT
BRANCH   1  20
HETATM   20  C5  UNL     1      -6.057   7.028  14.402  1.00  0.00    -0.011 C 
HETATM   21  C6  UNL     1      -5.840   6.137  15.631  1.00  0.00     0.010 C 
BRANCH  20  22
HETATM   22  C4  UNL     1      -6.545   6.140  13.221  1.00  0.00     0.009 C 
BRANCH  22  23
HETATM   23  C3  UNL     1      -5.877   4.753  13.199  1.00  0.00     0.034 C 
BRANCH  23  24
HETATM   24  C2  UNL     1      -6.674   3.610  12.578  1.00  0.00    -0.083 C 
HETATM   25  C1  UNL     1      -7.877   3.218  13.038  1.00  0.00     0.015 C 
BRANCH  24  26
HETATM   26  C26 UNL     1      -5.991   2.961  11.362  1.00  0.00     0.033 C 
HETATM   27  C27 UNL     1      -6.104   1.429  11.296  1.00  0.00     0.017 C 
BRANCH  26  28
HETATM   28  C28 UNL     1      -4.512   3.391  11.218  1.00  0.00     0.172 C 
BRANCH  28  29
HETATM   29  O6  UNL     1      -4.023   3.269   9.886  1.00  0.00    -0.400 OA
HETATM   30  H48 UNL     1      -4.653   3.708   9.292  1.00  0.00     0.209 HD
ENDBRANCH  28  29
ENDBRANCH  26  28
ENDBRANCH  24  26
ENDBRANCH  23  24
ENDBRANCH  22  23
ENDBRANCH  20  22
ENDBRANCH   1  20
BRANCH   2  31
HETATM   31  O1  UNL     1      -4.825   8.875  16.270  1.00  0.00    -0.393 OA
HETATM   32  H13 UNL     1      -5.792   8.968  16.343  1.00  0.00     0.210 HD
ENDBRANCH   2  31
BRANCH   3  33
HETATM   33  O2  UNL     1      -2.296   9.032  16.079  1.00  0.00    -0.392 OA
HETATM   34  H15 UNL     1      -3.037   9.006  16.728  1.00  0.00     0.210 HD
ENDBRANCH   3  33
BRANCH  19  35
HETATM   35  O5  UNL     1      -0.514   7.381  14.851  1.00  0.00    -0.389 OA
HETATM   36  H41 UNL     1      -0.887   7.905  15.596  1.00  0.00     0.210 HD
ENDBRANCH  19  35
BRANCH  17  37
HETATM   37  O4  UNL     1       2.000  10.276  12.969  1.00  0.00    -0.395 OA
HETATM   38  H38 UNL     1       1.565  10.711  12.217  1.00  0.00     0.210 HD
ENDBRANCH  17  37
BRANCH  14  39
HETATM   39  O3  UNL     1       4.446   6.942   9.901  1.00  0.00    -0.396 OA
HETATM   40  H33 UNL     1       4.921   7.789   9.947  1.00  0.00     0.210 HD
ENDBRANCH  14  39
TORSDOF 12
ENDMDL
MODEL 5
REMARK minimizedAffinity -9.27668095
REMARK  12 active torsions:
REMARK  status: ('A' for Active; 'I' for Inactive)
REMARK    1  A    between atoms: C2_2  and  C3_3 
REMARK    2  A    between atoms: C2_2  and  C26_31 
REMARK    3  A    between atoms: C3_3  and  C4_4 
REMARK    4  A    between atoms: C4_4  and  C5_5 
REMARK    5  A    between atoms: C5_5  and  C7_7 
REMARK    6  A    between atoms: C8_8  and  O1_9 
REMARK    7  A    between atoms: C9_10  and  O2_11 
REMARK    8  A    between atoms: C20_22  and  O3_23 
REMARK    9  A    between atoms: C23_26  and  O4_27 
REMARK   10  A    between atoms: C25_29  and  O5_30 
REMARK   11  A    between atoms: C26_31  and  C28_33 
REMARK   12  A    between atoms: C28_33  and  O6_34 
ROOT
HETATM    1  C7  UNL     1      -2.527   7.549  13.548  1.00  0.00     0.029 C 
HETATM    2  C8  UNL     1      -2.231   7.386  15.083  1.00  0.00     0.152 C 
HETATM    3  C9  UNL     1      -0.689   7.360  15.241  1.00  0.00     0.155 C 
HETATM    4  C10 UNL     1      -0.168   7.698  13.850  1.00  0.00     0.060 C 
HETATM    5  C11 UNL     1      -1.203   7.037  12.879  1.00  0.00    -0.029 C 
HETATM    6  C12 UNL     1      -1.198   5.491  12.810  1.00  0.00     0.016 C 
HETATM    7  C13 UNL     1      -0.891   7.599  11.476  1.00  0.00     0.011 C 
HETATM    8  C14 UNL     1       0.576   7.366  11.059  1.00  0.00     0.009 C 
HETATM    9  C15 UNL     1       1.590   7.942  12.077  1.00  0.00     0.029 C 
HETATM   10  C16 UNL     1       3.102   7.833  11.637  1.00  0.00    -0.031 C 
HETATM   11  C17 UNL     1       3.548   6.362  11.447  1.00  0.00     0.016 C 
HETATM   12  C18 UNL     1       3.324   8.577  10.284  1.00  0.00     0.012 C 
HETATM   13  C19 UNL     1       4.796   8.735   9.896  1.00  0.00     0.032 C 
HETATM   14  C20 UNL     1       5.639   9.348  11.008  1.00  0.00     0.118 C 
HETATM   15  C21 UNL     1       5.446   8.635  12.347  1.00  0.00     0.039 C 
HETATM   16  C22 UNL     1       3.956   8.570  12.719  1.00  0.00     0.025 C 
HETATM   17  C23 UNL     1       3.724   8.016  14.135  1.00  0.00     0.126 C 
HETATM   18  C24 UNL     1       2.245   8.111  14.529  1.00  0.00     0.071 C 
HETATM   19  C25 UNL     1       1.313   7.415  13.524  1.00  0.00     0.071 C 
ENDROOT
BRANCH   1  20
HETATM   20  C5  UNL     1      -3.901   6.968  13.102  1.00  0.00    -0.011 C 
HETATM   21  C6  UNL     1      -5.057   7.956  13.295  1.00  0.00     0.010 C 
BRANCH  20  22
HETATM   22  C4  UNL     1      -4.218   5.668  13.897  1.00  0.00     0.009 C 
BRANCH  22  23
HETATM   23  C3  UNL     1      -5.443   4.914  13.348  1.00  0.00     0.034 C 
BRANCH  23  24
HETATM   24  C2  UNL     1      -5.171   3.743  12.408  1.00  0.00    -0.083 C 
HETATM   25  C1  UNL     1      -3.938   3.417  11.977  1.00  0.00     0.015 C 
BRANCH  24  26
HETATM   26  C26 UNL     1      -6.431   2.954  12.015  1.00  0.00     0.033 C 
HETATM   27  C27 UNL     1      -7.482   2.814  13.128  1.00  0.00     0.017 C 
BRANCH  26  28
HETATM   28  C28 UNL     1      -6.096   1.565  11.423  1.00  0.00     0.172 C 
BRANCH  28  29
HETATM   29  O6  UNL     1      -4.697   1.351  11.261  1.00  0.00    -0.400 OA
HETATM   30  H48 UNL     1      -4.259   1.573  12.098  1.00  0.00     0.209 HD
ENDBRANCH  28  29
ENDBRANCH  26  28
ENDBRANCH  24  26
ENDBRANCH  23  24
ENDBRANCH  22  23
ENDBRANCH  20  22
ENDBRANCH   1  20
BRANCH   2  31
HETATM   31  O1  UNL     1      -2.755   6.184  15.651  1.00  0.00    -0.393 OA
HETATM   32  H13 UNL     1      -3.714   6.302  15.771  1.00  0.00     0.210 HD
ENDBRANCH   2  31
BRANCH   3  33
HETATM   33  O2  UNL     1      -0.216   6.085  15.673  1.00  0.00    -0.392 OA
HETATM   34  H15 UNL     1      -1.025   5.624  15.995  1.00  0.00     0.210 HD
ENDBRANCH   3  33
BRANCH  19  35
HETATM   35  O5  UNL     1       1.566   6.021  13.616  1.00  0.00    -0.389 OA
HETATM   36  H41 UNL     1       1.151   5.715  14.455  1.00  0.00     0.210 HD
ENDBRANCH  19  35
BRANCH  17  37
HETATM   37  O4  UNL     1       4.485   8.772  15.082  1.00  0.00    -0.395 OA
HETATM   38  H38 UNL     1       4.172   9.692  15.059  1.00  0.00     0.210 HD
ENDBRANCH  17  37
BRANCH  14  39
HETATM   39  O3  UNL     1       7.008   9.295  10.624  1.00  0.00    -0.396 OA
HETATM   40  H33 UNL     1       7.536   9.632  11.368  1.00  0.00     0.210 HD
ENDBRANCH  14  39
TORSDOF 12
ENDMDL
MODEL 6
REMARK minimizedAffinity -9.2697506
REMARK  12 active torsions:
REMARK  status: ('A' for Active; 'I' for Inactive)
REMARK    1  A    between atoms: C2_2  and  C3_3 
REMARK    2  A    between atoms: C2_2  and  C26_31 
REMARK    3  A    between atoms: C3_3  and  C4_4 
REMARK    4  A    between atoms: C4_4  and  C5_5 
REMARK    5  A    between atoms: C5_5  and  C7_7 
REMARK    6  A    between atoms: C8_8  and  O1_9 
REMARK    7  A    between atoms: C9_10  and  O2_11 
REMARK    8  A    between atoms: C20_22  and  O3_23 
REMARK    9  A    between atoms: C23_26  and  O4_27 
REMARK   10  A    between atoms: C25_29  and  O5_30 
REMARK   11  A    between atoms: C26_31  and  C28_33 
REMARK   12  A    between atoms: C28_33  and  O6_34 
ROOT
HETATM    1  C7  UNL     1      -2.166   8.088  13.627  1.00  0.00     0.029 C 
HETATM    2  C8  UNL     1      -1.985   7.708  15.142  1.00  0.00     0.152 C 
HETATM    3  C9  UNL     1      -0.461   7.553  15.385  1.00  0.00     0.155 C 
HETATM    4  C10 UNL     1       0.172   8.030  14.083  1.00  0.00     0.060 C 
HETATM    5  C11 UNL     1      -0.835   7.573  12.975  1.00  0.00    -0.029 C 
HETATM    6  C12 UNL     1      -0.922   6.053  12.701  1.00  0.00     0.016 C 
HETATM    7  C13 UNL     1      -0.395   8.287  11.679  1.00  0.00     0.011 C 
HETATM    8  C14 UNL     1       1.079   8.007  11.321  1.00  0.00     0.009 C 
HETATM    9  C15 UNL     1       2.056   8.374  12.463  1.00  0.00     0.029 C 
HETATM   10  C16 UNL     1       3.585   8.215  12.102  1.00  0.00    -0.031 C 
HETATM   11  C17 UNL     1       3.950   6.753  11.745  1.00  0.00     0.016 C 
HETATM   12  C18 UNL     1       3.943   9.109  10.874  1.00  0.00     0.012 C 
HETATM   13  C19 UNL     1       5.445   9.211  10.597  1.00  0.00     0.032 C 
HETATM   14  C20 UNL     1       6.248   9.615  11.828  1.00  0.00     0.118 C 
HETATM   15  C21 UNL     1       5.921   8.752  13.047  1.00  0.00     0.039 C 
HETATM   16  C22 UNL     1       4.409   8.745  13.320  1.00  0.00     0.025 C 
HETATM   17  C23 UNL     1       4.048   8.031  14.634  1.00  0.00     0.126 C 
HETATM   18  C24 UNL     1       2.555   8.179  14.951  1.00  0.00     0.071 C 
HETATM   19  C25 UNL     1       1.651   7.687  13.809  1.00  0.00     0.071 C 
ENDROOT
BRANCH   1  20
HETATM   20  C5  UNL     1      -3.541   7.667  13.029  1.00  0.00    -0.011 C 
HETATM   21  C6  UNL     1      -4.729   8.304  13.761  1.00  0.00     0.010 C 
BRANCH  20  22
HETATM   22  C4  UNL     1      -3.697   6.120  13.077  1.00  0.00     0.009 C 
BRANCH  22  23
HETATM   23  C3  UNL     1      -5.152   5.672  13.307  1.00  0.00     0.034 C 
BRANCH  23  24
HETATM   24  C2  UNL     1      -5.585   4.362  12.655  1.00  0.00    -0.083 C 
HETATM   25  C1  UNL     1      -4.713   3.418  12.254  1.00  0.00     0.015 C 
BRANCH  24  26
HETATM   26  C26 UNL     1      -7.109   4.207  12.519  1.00  0.00     0.033 C 
HETATM   27  C27 UNL     1      -7.914   5.498  12.739  1.00  0.00     0.017 C 
BRANCH  26  28
HETATM   28  C28 UNL     1      -7.668   3.073  13.410  1.00  0.00     0.172 C 
BRANCH  28  29
HETATM   29  O6  UNL     1      -8.030   1.910  12.672  1.00  0.00    -0.400 OA
HETATM   30  H48 UNL     1      -7.282   1.672  12.100  1.00  0.00     0.209 HD
ENDBRANCH  28  29
ENDBRANCH  26  28
ENDBRANCH  24  26
ENDBRANCH  23  24
ENDBRANCH  22  23
ENDBRANCH  20  22
ENDBRANCH   1  20
BRANCH   2  31
HETATM   31  O1  UNL     1      -2.620   6.484  15.513  1.00  0.00    -0.393 OA
HETATM   32  H13 UNL     1      -3.575   6.653  15.593  1.00  0.00     0.210 HD
ENDBRANCH   2  31
BRANCH   3  33
HETATM   33  O2  UNL     1      -0.099   6.202  15.670  1.00  0.00    -0.392 OA
HETATM   34  H15 UNL     1      -0.955   5.763  15.880  1.00  0.00     0.210 HD
ENDBRANCH   3  33
BRANCH  19  35
HETATM   35  O5  UNL     1       1.809   6.277  13.730  1.00  0.00    -0.389 OA
HETATM   36  H41 UNL     1       1.321   5.897  14.495  1.00  0.00     0.210 HD
ENDBRANCH  19  35
BRANCH  17  37
HETATM   37  O4  UNL     1       4.790   8.603  15.716  1.00  0.00    -0.395 OA
HETATM   38  H38 UNL     1       4.537   9.539  15.797  1.00  0.00     0.210 HD
ENDBRANCH  17  37
BRANCH  14  39
HETATM   39  O3  UNL     1       7.634   9.515  11.521  1.00  0.00    -0.396 OA
HETATM   40  H33 UNL     1       8.131   9.716  12.332  1.00  0.00     0.210 HD
ENDBRANCH  14  39
TORSDOF 12
ENDMDL
MODEL 7
REMARK minimizedAffinity -9.21367741
REMARK  12 active torsions:
REMARK  status: ('A' for Active; 'I' for Inactive)
REMARK    1  A    between atoms: C2_2  and  C3_3 
REMARK    2  A    between atoms: C2_2  and  C26_31 
REMARK    3  A    between atoms: C3_3  and  C4_4 
REMARK    4  A    between atoms: C4_4  and  C5_5 
REMARK    5  A    between atoms: C5_5  and  C7_7 
REMARK    6  A    between atoms: C8_8  and  O1_9 
REMARK    7  A    between atoms: C9_10  and  O2_11 
REMARK    8  A    between atoms: C20_22  and  O3_23 
REMARK    9  A    between atoms: C23_26  and  O4_27 
REMARK   10  A    between atoms: C25_29  and  O5_30 
REMARK   11  A    between atoms: C26_31  and  C28_33 
REMARK   12  A    between atoms: C28_33  and  O6_34 
ROOT
HETATM    1  C7  UNL     1      -0.059   7.558  12.564  1.00  0.00     0.029 C 
HETATM    2  C8  UNL     1       0.129   6.147  11.897  1.00  0.00     0.152 C 
HETATM    3  C9  UNL     1      -1.182   5.358  12.144  1.00  0.00     0.155 C 
HETATM    4  C10 UNL     1      -2.124   6.386  12.757  1.00  0.00     0.060 C 
HETATM    5  C11 UNL     1      -1.190   7.299  13.620  1.00  0.00    -0.029 C 
HETATM    6  C12 UNL     1      -0.595   6.668  14.902  1.00  0.00     0.016 C 
HETATM    7  C13 UNL     1      -2.039   8.525  14.017  1.00  0.00     0.011 C 
HETATM    8  C14 UNL     1      -3.346   8.130  14.737  1.00  0.00     0.009 C 
HETATM    9  C15 UNL     1      -4.216   7.151  13.913  1.00  0.00     0.029 C 
HETATM   10  C16 UNL     1      -5.616   6.810  14.556  1.00  0.00    -0.031 C 
HETATM   11  C17 UNL     1      -5.471   6.120  15.935  1.00  0.00     0.016 C 
HETATM   12  C18 UNL     1      -6.447   8.115  14.761  1.00  0.00     0.012 C 
HETATM   13  C19 UNL     1      -7.906   7.868  15.152  1.00  0.00     0.032 C 
HETATM   14  C20 UNL     1      -8.616   6.902  14.209  1.00  0.00     0.118 C 
HETATM   15  C21 UNL     1      -7.827   5.611  13.994  1.00  0.00     0.039 C 
HETATM   16  C22 UNL     1      -6.394   5.919  13.533  1.00  0.00     0.025 C 
HETATM   17  C23 UNL     1      -5.614   4.653  13.139  1.00  0.00     0.126 C 
HETATM   18  C24 UNL     1      -4.249   5.009  12.540  1.00  0.00     0.071 C 
HETATM   19  C25 UNL     1      -3.400   5.892  13.470  1.00  0.00     0.071 C 
ENDROOT
BRANCH   1  20
HETATM   20  C5  UNL     1       1.275   8.235  12.999  1.00  0.00    -0.011 C 
HETATM   21  C6  UNL     1       1.078   9.285  14.099  1.00  0.00     0.010 C 
BRANCH  20  22
HETATM   22  C4  UNL     1       1.956   8.915  11.776  1.00  0.00     0.009 C 
BRANCH  22  23
HETATM   23  C3  UNL     1       2.504   7.900  10.756  1.00  0.00     0.034 C 
BRANCH  23  24
HETATM   24  C2  UNL     1       1.818   7.847   9.395  1.00  0.00    -0.083 C 
HETATM   25  C1  UNL     1       0.608   8.389   9.160  1.00  0.00     0.015 C 
BRANCH  24  26
HETATM   26  C26 UNL     1       2.643   7.138   8.307  1.00  0.00     0.033 C 
HETATM   27  C27 UNL     1       2.068   7.243   6.886  1.00  0.00     0.017 C 
BRANCH  26  28
HETATM   28  C28 UNL     1       2.931   5.659   8.656  1.00  0.00     0.172 C 
BRANCH  28  29
HETATM   29  O6  UNL     1       3.373   4.898   7.536  1.00  0.00    -0.400 OA
HETATM   30  H48 UNL     1       4.098   5.383   7.110  1.00  0.00     0.209 HD
ENDBRANCH  28  29
ENDBRANCH  26  28
ENDBRANCH  24  26
ENDBRANCH  23  24
ENDBRANCH  22  23
ENDBRANCH  20  22
ENDBRANCH   1  20
BRANCH   2  31
HETATM   31  O1  UNL     1       1.212   5.389  12.437  1.00  0.00    -0.393 OA
HETATM   32  H13 UNL     1       2.042   5.752  12.079  1.00  0.00     0.210 HD
ENDBRANCH   2  31
BRANCH   3  33
HETATM   33  O2  UNL     1      -0.983   4.252  13.024  1.00  0.00    -0.392 OA
HETATM   34  H15 UNL     1      -0.005   4.136  13.048  1.00  0.00     0.210 HD
ENDBRANCH   3  33
BRANCH  19  35
HETATM   35  O5  UNL     1      -3.044   5.094  14.590  1.00  0.00    -0.389 OA
HETATM   36  H41 UNL     1      -2.347   4.472  14.282  1.00  0.00     0.210 HD
ENDBRANCH  19  35
BRANCH  17  37
HETATM   37  O4  UNL     1      -6.350   3.916  12.157  1.00  0.00    -0.395 OA
HETATM   38  H38 UNL     1      -6.447   4.474  11.367  1.00  0.00     0.210 HD
ENDBRANCH  17  37
BRANCH  14  39
HETATM   39  O3  UNL     1      -9.899   6.603  14.746  1.00  0.00    -0.396 OA
HETATM   40  H33 UNL     1     -10.314   5.941  14.168  1.00  0.00     0.210 HD
ENDBRANCH  14  39
TORSDOF 12
ENDMDL
MODEL 8
REMARK minimizedAffinity -9.03118324
REMARK  12 active torsions:
REMARK  status: ('A' for Active; 'I' for Inactive)
REMARK    1  A    between atoms: C2_2  and  C3_3 
REMARK    2  A    between atoms: C2_2  and  C26_31 
REMARK    3  A    between atoms: C3_3  and  C4_4 
REMARK    4  A    between atoms: C4_4  and  C5_5 
REMARK    5  A    between atoms: C5_5  and  C7_7 
REMARK    6  A    between atoms: C8_8  and  O1_9 
REMARK    7  A    between atoms: C9_10  and  O2_11 
REMARK    8  A    between atoms: C20_22  and  O3_23 
REMARK    9  A    between atoms: C23_26  and  O4_27 
REMARK   10  A    between atoms: C25_29  and  O5_30 
REMARK   11  A    between atoms: C26_31  and  C28_33 
REMARK   12  A    between atoms: C28_33  and  O6_34 
ROOT
HETATM    1  C7  UNL     1      -6.052   6.957  14.007  1.00  0.00     0.029 C 
HETATM    2  C8  UNL     1      -5.920   8.227  14.923  1.00  0.00     0.152 C 
HETATM    3  C9  UNL     1      -4.417   8.608  14.946  1.00  0.00     0.155 C 
HETATM    4  C10 UNL     1      -3.785   7.685  13.912  1.00  0.00     0.060 C 
HETATM    5  C11 UNL     1      -4.602   6.355  14.031  1.00  0.00    -0.029 C 
HETATM    6  C12 UNL     1      -4.387   5.521  15.317  1.00  0.00     0.016 C 
HETATM    7  C13 UNL     1      -4.204   5.498  12.810  1.00  0.00     0.011 C 
HETATM    8  C14 UNL     1      -2.681   5.275  12.717  1.00  0.00     0.009 C 
HETATM    9  C15 UNL     1      -1.878   6.598  12.696  1.00  0.00     0.029 C 
HETATM   10  C16 UNL     1      -0.323   6.425  12.484  1.00  0.00    -0.031 C 
HETATM   11  C17 UNL     1       0.331   5.601  13.620  1.00  0.00     0.016 C 
HETATM   12  C18 UNL     1      -0.043   5.687  11.138  1.00  0.00     0.012 C 
HETATM   13  C19 UNL     1       1.431   5.685  10.726  1.00  0.00     0.032 C 
HETATM   14  C20 UNL     1       2.049   7.078  10.732  1.00  0.00     0.118 C 
HETATM   15  C21 UNL     1       1.795   7.824  12.042  1.00  0.00     0.039 C 
HETATM   16  C22 UNL     1       0.293   7.857  12.367  1.00  0.00     0.025 C 
HETATM   17  C23 UNL     1      -0.029   8.741  13.584  1.00  0.00     0.126 C 
HETATM   18  C24 UNL     1      -1.544   8.874  13.784  1.00  0.00     0.071 C 
HETATM   19  C25 UNL     1      -2.252   7.515  13.908  1.00  0.00     0.071 C 
ENDROOT
BRANCH   1  20
HETATM   20  C5  UNL     1      -7.276   6.055  14.346  1.00  0.00    -0.011 C 
HETATM   21  C6  UNL     1      -7.577   5.023  13.253  1.00  0.00     0.010 C 
BRANCH  20  22
HETATM   22  C4  UNL     1      -8.542   6.931  14.569  1.00  0.00     0.009 C 
BRANCH  22  23
HETATM   23  C3  UNL     1      -9.709   6.542  13.642  1.00  0.00     0.034 C 
BRANCH  23  24
HETATM   24  C2  UNL     1     -11.043   7.246  13.875  1.00  0.00    -0.083 C 
HETATM   25  C1  UNL     1     -12.164   6.596  14.237  1.00  0.00     0.015 C 
BRANCH  24  26
HETATM   26  C26 UNL     1     -10.985   8.771  13.681  1.00  0.00     0.033 C 
HETATM   27  C27 UNL     1     -10.868   9.585  14.980  1.00  0.00     0.017 C 
BRANCH  26  28
HETATM   28  C28 UNL     1     -12.159   9.302  12.826  1.00  0.00     0.172 C 
BRANCH  28  29
HETATM   29  O6  UNL     1     -11.783   9.594  11.484  1.00  0.00    -0.400 OA
HETATM   30  H48 UNL     1     -11.312   8.823  11.128  1.00  0.00     0.209 HD
ENDBRANCH  28  29
ENDBRANCH  26  28
ENDBRANCH  24  26
ENDBRANCH  23  24
ENDBRANCH  22  23
ENDBRANCH  20  22
ENDBRANCH   1  20
BRANCH   2  31
HETATM   31  O1  UNL     1      -6.345   8.018  16.271  1.00  0.00    -0.393 OA
HETATM   32  H13 UNL     1      -7.318   8.017  16.283  1.00  0.00     0.210 HD
ENDBRANCH   2  31
BRANCH   3  33
HETATM   33  O2  UNL     1      -3.835   8.414  16.235  1.00  0.00    -0.392 OA
HETATM   34  H15 UNL     1      -4.609   8.320  16.837  1.00  0.00     0.210 HD
ENDBRANCH   3  33
BRANCH  19  35
HETATM   35  O5  UNL     1      -1.831   6.937  15.135  1.00  0.00    -0.389 OA
HETATM   36  H41 UNL     1      -2.298   7.425  15.851  1.00  0.00     0.210 HD
ENDBRANCH  19  35
BRANCH  17  37
HETATM   37  O4  UNL     1       0.509  10.052  13.386  1.00  0.00    -0.395 OA
HETATM   38  H38 UNL     1       0.083  10.441  12.604  1.00  0.00     0.210 HD
ENDBRANCH  17  37
BRANCH  14  39
HETATM   39  O3  UNL     1       3.449   6.956  10.507  1.00  0.00    -0.396 OA
HETATM   40  H33 UNL     1       3.837   7.845  10.574  1.00  0.00     0.210 HD
ENDBRANCH  14  39
TORSDOF 12
ENDMDL
MODEL 9
REMARK minimizedAffinity -8.80737591
REMARK  12 active torsions:
REMARK  status: ('A' for Active; 'I' for Inactive)
REMARK    1  A    between atoms: C2_2  and  C3_3 
REMARK    2  A    between atoms: C2_2  and  C26_31 
REMARK    3  A    between atoms: C3_3  and  C4_4 
REMARK    4  A    between atoms: C4_4  and  C5_5 
REMARK    5  A    between atoms: C5_5  and  C7_7 
REMARK    6  A    between atoms: C8_8  and  O1_9 
REMARK    7  A    between atoms: C9_10  and  O2_11 
REMARK    8  A    between atoms: C20_22  and  O3_23 
REMARK    9  A    between atoms: C23_26  and  O4_27 
REMARK   10  A    between atoms: C25_29  and  O5_30 
REMARK   11  A    between atoms: C26_31  and  C28_33 
REMARK   12  A    between atoms: C28_33  and  O6_34 
ROOT
HETATM    1  C7  UNL     1       0.555   8.102  13.432  1.00  0.00     0.029 C 
HETATM    2  C8  UNL     1       1.152   6.675  13.157  1.00  0.00     0.152 C 
HETATM    3  C9  UNL     1      -0.026   5.671  13.252  1.00  0.00     0.155 C 
HETATM    4  C10 UNL     1      -1.259   6.557  13.381  1.00  0.00     0.060 C 
HETATM    5  C11 UNL     1      -0.766   7.784  14.219  1.00  0.00    -0.029 C 
HETATM    6  C12 UNL     1      -0.453   7.524  15.712  1.00  0.00     0.016 C 
HETATM    7  C13 UNL     1      -1.884   8.844  14.122  1.00  0.00     0.011 C 
HETATM    8  C14 UNL     1      -3.254   8.301  14.579  1.00  0.00     0.009 C 
HETATM    9  C15 UNL     1      -3.685   7.030  13.807  1.00  0.00     0.029 C 
HETATM   10  C16 UNL     1      -5.132   6.505  14.158  1.00  0.00    -0.031 C 
HETATM   11  C17 UNL     1      -5.262   6.106  15.648  1.00  0.00     0.016 C 
HETATM   12  C18 UNL     1      -6.192   7.612  13.866  1.00  0.00     0.012 C 
HETATM   13  C19 UNL     1      -7.640   7.122  13.943  1.00  0.00     0.032 C 
HETATM   14  C20 UNL     1      -7.890   5.880  13.095  1.00  0.00     0.118 C 
HETATM   15  C21 UNL     1      -6.869   4.775  13.363  1.00  0.00     0.039 C 
HETATM   16  C22 UNL     1      -5.436   5.306  13.201  1.00  0.00     0.025 C 
HETATM   17  C23 UNL     1      -4.378   4.193  13.293  1.00  0.00     0.126 C 
HETATM   18  C24 UNL     1      -2.979   4.733  12.973  1.00  0.00     0.071 C 
HETATM   19  C25 UNL     1      -2.581   5.923  13.860  1.00  0.00     0.071 C 
ENDROOT
BRANCH   1  20
HETATM   20  C5  UNL     1       1.583   9.118  14.012  1.00  0.00    -0.011 C 
HETATM   21  C6  UNL     1       0.916  10.352  14.632  1.00  0.00     0.010 C 
BRANCH  20  22
HETATM   22  C4  UNL     1       2.562   9.586  12.898  1.00  0.00     0.009 C 
BRANCH  22  23
HETATM   23  C3  UNL     1       3.604   8.514  12.526  1.00  0.00     0.034 C 
BRANCH  23  24
HETATM   24  C2  UNL     1       4.482   8.794  11.311  1.00  0.00    -0.083 C 
HETATM   25  C1  UNL     1       5.319   9.846  11.235  1.00  0.00     0.015 C 
BRANCH  24  26
HETATM   26  C26 UNL     1       4.344   7.751  10.188  1.00  0.00     0.033 C 
HETATM   27  C27 UNL     1       3.296   8.089   9.116  1.00  0.00     0.017 C 
BRANCH  26  28
HETATM   28  C28 UNL     1       4.104   6.325  10.735  1.00  0.00     0.172 C 
BRANCH  28  29
HETATM   29  O6  UNL     1       5.213   5.455  10.532  1.00  0.00    -0.400 OA
HETATM   30  H48 UNL     1       6.011   5.905  10.855  1.00  0.00     0.209 HD
ENDBRANCH  28  29
ENDBRANCH  26  28
ENDBRANCH  24  26
ENDBRANCH  23  24
ENDBRANCH  22  23
ENDBRANCH  20  22
ENDBRANCH   1  20
BRANCH   2  31
HETATM   31  O1  UNL     1       2.153   6.274  14.093  1.00  0.00    -0.393 OA
HETATM   32  H13 UNL     1       2.977   6.743  13.872  1.00  0.00     0.210 HD
ENDBRANCH   2  31
BRANCH   3  33
HETATM   33  O2  UNL     1       0.103   4.800  14.376  1.00  0.00    -0.392 OA
HETATM   34  H15 UNL     1       1.041   4.907  14.657  1.00  0.00     0.210 HD
ENDBRANCH   3  33
BRANCH  19  35
HETATM   35  O5  UNL     1      -2.422   5.424  15.181  1.00  0.00    -0.389 OA
HETATM   36  H41 UNL     1      -1.573   4.926  15.192  1.00  0.00     0.210 HD
ENDBRANCH  19  35
BRANCH  17  37
HETATM   37  O4  UNL     1      -4.680   3.158  12.351  1.00  0.00    -0.395 OA
HETATM   38  H38 UNL     1      -4.645   3.540  11.458  1.00  0.00     0.210 HD
ENDBRANCH  17  37
BRANCH  14  39
HETATM   39  O3  UNL     1      -9.204   5.402  13.363  1.00  0.00    -0.396 OA
HETATM   40  H33 UNL     1      -9.325   4.578  12.863  1.00  0.00     0.210 HD
ENDBRANCH  14  39
TORSDOF 12
ENDMDL
