MODEL 1
REMARK minimizedAffinity -10.5952988
REMARK CNNscore 0.554555774
REMARK CNNaffinity 7.11698341
REMARK  11 active torsions:
REMARK  status: ('A' for Active; 'I' for Inactive)
REMARK    1  A    between atoms: C5_5  and  C6_6 
REMARK    2  A    between atoms: C8_8  and  C9_9 
REMARK    3  A    between atoms: C9_9  and  O1_10 
REMARK    4  A    between atoms: C11_12  and  C12_13 
REMARK    5  A    between atoms: C12_13  and  C13_14 
REMARK    6  A    between atoms: C13_14  and  O2_15 
REMARK    7  A    between atoms: C13_14  and  C14_16 
REMARK    8  A    between atoms: C14_16  and  O3_18 
REMARK    9  A    between atoms: C24_29  and  O6_30 
REMARK   10  A    between atoms: C29_35  and  C30_36 
REMARK   11  A    between atoms: C30_36  and  O7_37 
ROOT
HETATM    1  C1  UNL     1       3.639  11.992  14.485  1.00  0.00     0.036 C 
HETATM    2  C2  UNL     1       3.761  11.595  15.924  1.00  0.00    -0.018 C 
HETATM    3  C3  UNL     1       2.809  11.052  16.713  1.00  0.00     0.015 C 
HETATM    4  C4  UNL     1       3.088  10.692  18.161  1.00  0.00     0.066 C 
HETATM    5  C5  UNL     1       3.343  11.901  19.115  1.00  0.00     0.102 C 
HETATM    6  C17 UNL     1       2.153  12.779  19.215  1.00  0.00    -0.096 C 
HETATM    7  C18 UNL     1       1.107  13.371  19.196  1.00  0.00    -0.096 C 
HETATM    8  C19 UNL     1      -0.260  13.877  18.951  1.00  0.00     0.110 C 
HETATM    9  C20 UNL     1      -0.827  14.666  20.111  1.00  0.00     0.133 C 
HETATM   10  C21 UNL     1      -2.182  15.214  19.735  1.00  0.00     0.265 C 
HETATM   11  O4  UNL     1      -2.560  16.327  20.091  1.00  0.00    -0.265 OA
HETATM   12  O5  UNL     1      -3.023  14.365  19.015  1.00  0.00    -0.278 OA
HETATM   13  C22 UNL     1      -2.590  13.091  18.606  1.00  0.00     0.089 A 
HETATM   14  C23 UNL     1      -3.542  12.175  18.162  1.00  0.00     0.075 A 
HETATM   15  C24 UNL     1      -3.124  10.904  17.753  1.00  0.00     0.074 A 
HETATM   16  C25 UNL     1      -1.778  10.532  17.824  1.00  0.00    -0.022 A 
HETATM   17  C26 UNL     1      -0.866  11.470  18.307  1.00  0.00     0.021 A 
HETATM   18  C27 UNL     1      -1.240  12.774  18.635  1.00  0.00    -0.007 A 
HETATM   19  C28 UNL     1      -1.257   9.174  17.397  1.00  0.00     0.077 C 
HETATM   20  C29 UNL     1      -0.354   9.197  16.122  1.00  0.00     0.171 C 
HETATM   21  O9  UNL     1       0.994   9.586  16.525  1.00  0.00    -0.309 OA
HETATM   22  C40 UNL     1       1.435  10.824  16.174  1.00  0.00     0.289 C 
HETATM   23  O10 UNL     1       0.822  11.645  15.513  1.00  0.00    -0.260 OA
ENDROOT
BRANCH   5  24
HETATM   24  C6  UNL     1       3.768  11.404  20.492  1.00  0.00    -0.041 A 
HETATM   25  C7  UNL     1       3.142  10.296  21.088  1.00  0.00     0.017 A 
HETATM   26  C8  UNL     1       3.551   9.813  22.339  1.00  0.00    -0.034 A 
HETATM   27  C10 UNL     1       4.591  10.469  23.008  1.00  0.00     0.016 A 
HETATM   28  C11 UNL     1       5.228  11.582  22.440  1.00  0.00    -0.054 A 
HETATM   29  C16 UNL     1       4.812  12.041  21.182  1.00  0.00     0.015 A 
BRANCH  26  30
HETATM   30  C9  UNL     1       2.845   8.646  22.979  1.00  0.00     0.202 C 
BRANCH  30  31
HETATM   31  O1  UNL     1       1.960   8.036  22.047  1.00  0.00    -0.396 OA
HETATM   32  H11 UNL     1       1.558   7.278  22.503  1.00  0.00     0.209 HD
ENDBRANCH  30  31
ENDBRANCH  26  30
BRANCH  28  33
HETATM   33  C12 UNL     1       6.337  12.288  23.187  1.00  0.00     0.073 C 
BRANCH  33  34
HETATM   34  C13 UNL     1       7.713  12.059  22.541  1.00  0.00     0.150 C 
BRANCH  34  35
HETATM   35  O2  UNL     1       8.483  11.136  23.339  1.00  0.00    -0.393 OA
HETATM   36  H16 UNL     1       8.007  10.284  23.314  1.00  0.00     0.210 HD
ENDBRANCH  34  35
BRANCH  34  37
HETATM   37  C14 UNL     1       8.551  13.351  22.441  1.00  0.00     0.143 C 
HETATM   38  C15 UNL     1       9.633  13.307  21.373  1.00  0.00     0.042 C 
BRANCH  37  39
HETATM   39  O3  UNL     1       9.195  13.559  23.705  1.00  0.00    -0.393 OA
HETATM   40  H21 UNL     1       8.484  13.435  24.366  1.00  0.00     0.210 HD
ENDBRANCH  37  39
ENDBRANCH  34  37
ENDBRANCH  33  34
ENDBRANCH  28  33
ENDBRANCH   5  24
BRANCH  20  41
HETATM   41  C30 UNL     1      -0.316   7.786  15.420  1.00  0.00     0.089 C 
HETATM   42  C31 UNL     1       0.485   7.828  14.094  1.00  0.00     0.041 C 
HETATM   43  C32 UNL     1       0.148   6.712  13.099  1.00  0.00     0.004 C 
HETATM   44  C33 UNL     1      -0.361   5.434  13.747  1.00  0.00     0.005 C 
HETATM   45  C34 UNL     1      -1.520   5.637  14.749  1.00  0.00    -0.001 C 
HETATM   46  C35 UNL     1      -2.808   4.942  14.299  1.00  0.00     0.083 C 
HETATM   47  C39 UNL     1      -1.722   7.126  15.192  1.00  0.00     0.027 C 
HETATM   48  C36 UNL     1      -3.579   5.808  13.344  1.00  0.00     0.127 C 
HETATM   49  O8  UNL     1      -3.951   5.409  12.244  1.00  0.00    -0.298 OA
HETATM   50  C37 UNL     1      -3.931   7.172  13.863  1.00  0.00     0.079 C 
HETATM   51  C38 UNL     1      -2.665   7.916  14.259  1.00  0.00     0.015 C 
BRANCH  41  52
HETATM   52  O7  UNL     1       0.348   6.874  16.328  1.00  0.00    -0.387 OA
HETATM   53  H32 UNL     1       1.311   6.952  16.233  1.00  0.00     0.210 HD
ENDBRANCH  41  52
ENDBRANCH  20  41
BRANCH  15  54
HETATM   54  O6  UNL     1      -4.036   9.998  17.289  1.00  0.00    -0.360 OA
HETATM   55  H27 UNL     1      -4.921  10.405  17.303  1.00  0.00     0.217 HD
ENDBRANCH  15  54
TORSDOF 11
ENDMDL
MODEL 2
REMARK minimizedAffinity -9.11070728
REMARK CNNscore 0.366238862
REMARK CNNaffinity 6.5791049
REMARK  11 active torsions:
REMARK  status: ('A' for Active; 'I' for Inactive)
REMARK    1  A    between atoms: C5_5  and  C6_6 
REMARK    2  A    between atoms: C8_8  and  C9_9 
REMARK    3  A    between atoms: C9_9  and  O1_10 
REMARK    4  A    between atoms: C11_12  and  C12_13 
REMARK    5  A    between atoms: C12_13  and  C13_14 
REMARK    6  A    between atoms: C13_14  and  O2_15 
REMARK    7  A    between atoms: C13_14  and  C14_16 
REMARK    8  A    between atoms: C14_16  and  O3_18 
REMARK    9  A    between atoms: C24_29  and  O6_30 
REMARK   10  A    between atoms: C29_35  and  C30_36 
REMARK   11  A    between atoms: C30_36  and  O7_37 
ROOT
HETATM    1  C1  UNL     1      11.608  -5.754   9.779  1.00  0.00     0.036 C 
HETATM    2  C2  UNL     1      11.932  -6.485   8.513  1.00  0.00    -0.018 C 
HETATM    3  C3  UNL     1      13.049  -6.380   7.763  1.00  0.00     0.015 C 
HETATM    4  C4  UNL     1      13.237  -7.201   6.500  1.00  0.00     0.066 C 
HETATM    5  C5  UNL     1      12.281  -6.842   5.320  1.00  0.00     0.102 C 
HETATM    6  C17 UNL     1      12.491  -5.453   4.847  1.00  0.00    -0.096 C 
HETATM    7  C18 UNL     1      12.795  -4.321   4.579  1.00  0.00    -0.096 C 
HETATM    8  C19 UNL     1      13.364  -2.959   4.507  1.00  0.00     0.110 C 
HETATM    9  C20 UNL     1      13.298  -2.351   3.123  1.00  0.00     0.133 C 
HETATM   10  C21 UNL     1      13.817  -0.935   3.167  1.00  0.00     0.265 C 
HETATM   11  O4  UNL     1      13.317  -0.033   2.500  1.00  0.00    -0.265 OA
HETATM   12  O5  UNL     1      14.945  -0.706   3.955  1.00  0.00    -0.278 OA
HETATM   13  C22 UNL     1      15.516  -1.738   4.721  1.00  0.00     0.089 A 
HETATM   14  C23 UNL     1      16.794  -1.549   5.246  1.00  0.00     0.075 A 
HETATM   15  C24 UNL     1      17.373  -2.568   6.008  1.00  0.00     0.074 A 
HETATM   16  C25 UNL     1      16.708  -3.781   6.213  1.00  0.00    -0.022 A 
HETATM   17  C26 UNL     1      15.446  -3.939   5.638  1.00  0.00     0.021 A 
HETATM   18  C27 UNL     1      14.805  -2.907   4.951  1.00  0.00    -0.007 A 
HETATM   19  C28 UNL     1      17.276  -4.926   7.027  1.00  0.00     0.077 C 
HETATM   20  C29 UNL     1      16.521  -5.207   8.366  1.00  0.00     0.171 C 
HETATM   21  O9  UNL     1      15.341  -6.011   8.064  1.00  0.00    -0.309 OA
HETATM   22  C40 UNL     1      14.121  -5.416   8.153  1.00  0.00     0.289 C 
HETATM   23  O10 UNL     1      13.905  -4.268   8.503  1.00  0.00    -0.260 OA
ENDROOT
BRANCH   5  24
HETATM   24  C6  UNL     1      12.459  -7.836   4.177  1.00  0.00    -0.041 A 
HETATM   25  C7  UNL     1      13.335  -7.567   3.112  1.00  0.00     0.017 A 
HETATM   26  C8  UNL     1      13.530  -8.491   2.076  1.00  0.00    -0.034 A 
HETATM   27  C10 UNL     1      12.816  -9.695   2.103  1.00  0.00     0.016 A 
HETATM   28  C11 UNL     1      11.928  -9.986   3.151  1.00  0.00    -0.054 A 
HETATM   29  C16 UNL     1      11.758  -9.053   4.183  1.00  0.00     0.015 A 
BRANCH  26  30
HETATM   30  C9  UNL     1      14.446  -8.171   0.924  1.00  0.00     0.202 C 
BRANCH  30  31
HETATM   31  O1  UNL     1      14.973  -6.857   1.066  1.00  0.00    -0.396 OA
HETATM   32  H11 UNL     1      15.574  -6.718   0.316  1.00  0.00     0.209 HD
ENDBRANCH  30  31
ENDBRANCH  26  30
BRANCH  28  33
HETATM   33  C12 UNL     1      11.152 -11.284   3.152  1.00  0.00     0.073 C 
BRANCH  33  34
HETATM   34  C13 UNL     1      11.995 -12.468   3.652  1.00  0.00     0.150 C 
BRANCH  34  35
HETATM   35  O2  UNL     1      11.437 -13.707   3.169  1.00  0.00    -0.393 OA
HETATM   36  H16 UNL     1      11.516 -13.686   2.196  1.00  0.00     0.210 HD
ENDBRANCH  34  35
BRANCH  34  37
HETATM   37  C14 UNL     1      12.026 -12.575   5.190  1.00  0.00     0.143 C 
HETATM   38  C15 UNL     1      12.868 -11.506   5.870  1.00  0.00     0.042 C 
BRANCH  37  39
HETATM   39  O3  UNL     1      12.582 -13.851   5.534  1.00  0.00    -0.393 OA
HETATM   40  H21 UNL     1      12.104 -14.488   4.965  1.00  0.00     0.210 HD
ENDBRANCH  37  39
ENDBRANCH  34  37
ENDBRANCH  33  34
ENDBRANCH  28  33
ENDBRANCH   5  24
BRANCH  20  41
HETATM   41  C30 UNL     1      17.440  -5.972   9.394  1.00  0.00     0.089 C 
HETATM   42  C31 UNL     1      18.834  -5.308   9.520  1.00  0.00     0.041 C 
HETATM   43  C32 UNL     1      19.944  -6.227  10.044  1.00  0.00     0.004 C 
HETATM   44  C33 UNL     1      19.449  -7.347  10.945  1.00  0.00     0.005 C 
HETATM   45  C34 UNL     1      18.285  -8.179  10.359  1.00  0.00    -0.001 C 
HETATM   46  C35 UNL     1      18.671  -9.644  10.137  1.00  0.00     0.083 C 
HETATM   47  C39 UNL     1      17.587  -7.512   9.126  1.00  0.00     0.027 C 
HETATM   48  C36 UNL     1      19.366  -9.823   8.818  1.00  0.00     0.127 C 
HETATM   49  O8  UNL     1      20.459 -10.374   8.717  1.00  0.00    -0.298 OA
HETATM   50  C37 UNL     1      18.593  -9.348   7.622  1.00  0.00     0.079 C 
HETATM   51  C38 UNL     1      18.250  -7.875   7.780  1.00  0.00     0.015 C 
BRANCH  41  52
HETATM   52  O7  UNL     1      16.784  -5.910  10.683  1.00  0.00    -0.387 OA
HETATM   53  H32 UNL     1      16.989  -5.067  11.121  1.00  0.00     0.210 HD
ENDBRANCH  41  52
ENDBRANCH  20  41
BRANCH  15  54
HETATM   54  O6  UNL     1      18.613  -2.395   6.556  1.00  0.00    -0.360 OA
HETATM   55  H27 UNL     1      18.940  -1.507   6.324  1.00  0.00     0.217 HD
ENDBRANCH  15  54
TORSDOF 11
ENDMDL
MODEL 3
REMARK minimizedAffinity -9.3295908
REMARK CNNscore 0.344623566
REMARK CNNaffinity 6.23040438
REMARK  11 active torsions:
REMARK  status: ('A' for Active; 'I' for Inactive)
REMARK    1  A    between atoms: C5_5  and  C6_6 
REMARK    2  A    between atoms: C8_8  and  C9_9 
REMARK    3  A    between atoms: C9_9  and  O1_10 
REMARK    4  A    between atoms: C11_12  and  C12_13 
REMARK    5  A    between atoms: C12_13  and  C13_14 
REMARK    6  A    between atoms: C13_14  and  O2_15 
REMARK    7  A    between atoms: C13_14  and  C14_16 
REMARK    8  A    between atoms: C14_16  and  O3_18 
REMARK    9  A    between atoms: C24_29  and  O6_30 
REMARK   10  A    between atoms: C29_35  and  C30_36 
REMARK   11  A    between atoms: C30_36  and  O7_37 
ROOT
HETATM    1  C1  UNL     1     -10.441 -12.782   4.979  1.00  0.00     0.036 C 
HETATM    2  C2  UNL     1     -10.794 -11.327   4.962  1.00  0.00    -0.018 C 
HETATM    3  C3  UNL     1     -10.162 -10.318   5.599  1.00  0.00     0.015 C 
HETATM    4  C4  UNL     1     -10.637  -8.881   5.477  1.00  0.00     0.066 C 
HETATM    5  C5  UNL     1     -12.019  -8.575   6.133  1.00  0.00     0.102 C 
HETATM    6  C17 UNL     1     -11.990  -8.790   7.599  1.00  0.00    -0.096 C 
HETATM    7  C18 UNL     1     -11.794  -8.998   8.767  1.00  0.00    -0.096 C 
HETATM    8  C19 UNL     1     -11.261  -9.348  10.100  1.00  0.00     0.110 C 
HETATM    9  C20 UNL     1     -11.946  -8.617  11.234  1.00  0.00     0.133 C 
HETATM   10  C21 UNL     1     -11.399  -9.104  12.554  1.00  0.00     0.265 C 
HETATM   11  O4  UNL     1     -12.110  -9.248  13.545  1.00  0.00    -0.265 OA
HETATM   12  O5  UNL     1     -10.022  -9.319  12.619  1.00  0.00    -0.278 OA
HETATM   13  C22 UNL     1      -9.208  -9.155  11.484  1.00  0.00     0.089 A 
HETATM   14  C23 UNL     1      -7.827  -9.087  11.660  1.00  0.00     0.075 A 
HETATM   15  C24 UNL     1      -7.006  -8.924  10.539  1.00  0.00     0.074 A 
HETATM   16  C25 UNL     1      -7.553  -8.787   9.260  1.00  0.00    -0.022 A 
HETATM   17  C26 UNL     1      -8.943  -8.827   9.136  1.00  0.00     0.021 A 
HETATM   18  C27 UNL     1      -9.781  -9.080  10.223  1.00  0.00    -0.007 A 
HETATM   19  C28 UNL     1      -6.724  -8.608   8.004  1.00  0.00     0.077 C 
HETATM   20  C29 UNL     1      -6.766  -9.821   7.020  1.00  0.00     0.171 C 
HETATM   21  O9  UNL     1      -7.987  -9.721   6.226  1.00  0.00    -0.309 OA
HETATM   22  C40 UNL     1      -8.988 -10.608   6.475  1.00  0.00     0.289 C 
HETATM   23  O10 UNL     1      -8.955 -11.521   7.284  1.00  0.00    -0.260 OA
ENDROOT
BRANCH   5  24
HETATM   24  C6  UNL     1     -12.454  -7.151   5.803  1.00  0.00    -0.041 A 
HETATM   25  C7  UNL     1     -12.068  -6.535   4.601  1.00  0.00     0.017 A 
HETATM   26  C8  UNL     1     -12.493  -5.239   4.275  1.00  0.00    -0.034 A 
HETATM   27  C10 UNL     1     -13.300  -4.546   5.185  1.00  0.00     0.016 A 
HETATM   28  C11 UNL     1     -13.694  -5.134   6.397  1.00  0.00    -0.054 A 
HETATM   29  C16 UNL     1     -13.268  -6.436   6.697  1.00  0.00     0.015 A 
BRANCH  26  30
HETATM   30  C9  UNL     1     -12.040  -4.581   2.998  1.00  0.00     0.202 C 
BRANCH  30  31
HETATM   31  O1  UNL     1     -12.387  -3.201   3.007  1.00  0.00    -0.396 OA
HETATM   32  H11 UNL     1     -12.047  -2.826   2.178  1.00  0.00     0.209 HD
ENDBRANCH  30  31
ENDBRANCH  26  30
BRANCH  28  33
HETATM   33  C12 UNL     1     -14.552  -4.362   7.374  1.00  0.00     0.073 C 
BRANCH  33  34
HETATM   34  C13 UNL     1     -13.747  -3.306   8.150  1.00  0.00     0.150 C 
BRANCH  34  35
HETATM   35  O2  UNL     1     -12.334  -3.533   7.965  1.00  0.00    -0.393 OA
HETATM   36  H16 UNL     1     -12.153  -3.395   7.015  1.00  0.00     0.210 HD
ENDBRANCH  34  35
BRANCH  34  37
HETATM   37  C14 UNL     1     -14.000  -3.357   9.670  1.00  0.00     0.143 C 
HETATM   38  C15 UNL     1     -15.404  -3.801  10.051  1.00  0.00     0.042 C 
BRANCH  37  39
HETATM   39  O3  UNL     1     -13.803  -2.038  10.196  1.00  0.00    -0.393 OA
HETATM   40  H21 UNL     1     -12.955  -1.743   9.806  1.00  0.00     0.210 HD
ENDBRANCH  37  39
ENDBRANCH  34  37
ENDBRANCH  33  34
ENDBRANCH  28  33
ENDBRANCH   5  24
BRANCH  20  41
HETATM   41  C30 UNL     1      -5.509  -9.833   6.069  1.00  0.00     0.089 C 
HETATM   42  C31 UNL     1      -5.905  -9.567   4.594  1.00  0.00     0.041 C 
HETATM   43  C32 UNL     1      -4.899 -10.071   3.553  1.00  0.00     0.004 C 
HETATM   44  C33 UNL     1      -3.465 -10.131   4.053  1.00  0.00     0.005 C 
HETATM   45  C34 UNL     1      -3.280 -10.878   5.394  1.00  0.00    -0.001 C 
HETATM   46  C35 UNL     1      -2.409 -12.129   5.249  1.00  0.00     0.083 C 
HETATM   47  C39 UNL     1      -4.616 -11.120   6.174  1.00  0.00     0.027 C 
HETATM   48  C36 UNL     1      -3.228 -13.303   4.792  1.00  0.00     0.127 C 
HETATM   49  O8  UNL     1      -2.925 -13.978   3.812  1.00  0.00    -0.298 OA
HETATM   50  C37 UNL     1      -4.402 -13.638   5.666  1.00  0.00     0.079 C 
HETATM   51  C38 UNL     1      -5.323 -12.434   5.778  1.00  0.00     0.015 C 
BRANCH  41  52
HETATM   52  O7  UNL     1      -4.630  -8.769   6.507  1.00  0.00    -0.387 OA
HETATM   53  H32 UNL     1      -4.916  -7.923   6.125  1.00  0.00     0.210 HD
ENDBRANCH  41  52
ENDBRANCH  20  41
BRANCH  15  54
HETATM   54  O6  UNL     1      -5.648  -8.881  10.684  1.00  0.00    -0.360 OA
HETATM   55  H27 UNL     1      -5.427  -8.988  11.627  1.00  0.00     0.217 HD
ENDBRANCH  15  54
TORSDOF 11
ENDMDL
MODEL 4
REMARK minimizedAffinity -10.1569271
REMARK CNNscore 0.32879743
REMARK CNNaffinity 6.74185181
REMARK  11 active torsions:
REMARK  status: ('A' for Active; 'I' for Inactive)
REMARK    1  A    between atoms: C5_5  and  C6_6 
REMARK    2  A    between atoms: C8_8  and  C9_9 
REMARK    3  A    between atoms: C9_9  and  O1_10 
REMARK    4  A    between atoms: C11_12  and  C12_13 
REMARK    5  A    between atoms: C12_13  and  C13_14 
REMARK    6  A    between atoms: C13_14  and  O2_15 
REMARK    7  A    between atoms: C13_14  and  C14_16 
REMARK    8  A    between atoms: C14_16  and  O3_18 
REMARK    9  A    between atoms: C24_29  and  O6_30 
REMARK   10  A    between atoms: C29_35  and  C30_36 
REMARK   11  A    between atoms: C30_36  and  O7_37 
ROOT
HETATM    1  C1  UNL     1       4.124  14.361  15.305  1.00  0.00     0.036 C 
HETATM    2  C2  UNL     1       4.285  13.571  16.567  1.00  0.00    -0.018 C 
HETATM    3  C3  UNL     1       3.851  12.317  16.816  1.00  0.00     0.015 C 
HETATM    4  C4  UNL     1       4.101  11.642  18.153  1.00  0.00     0.066 C 
HETATM    5  C5  UNL     1       3.343  12.262  19.368  1.00  0.00     0.102 C 
HETATM    6  C17 UNL     1       1.873  12.153  19.211  1.00  0.00    -0.096 C 
HETATM    7  C18 UNL     1       0.716  11.973  18.937  1.00  0.00    -0.096 C 
HETATM    8  C19 UNL     1      -0.584  11.637  18.322  1.00  0.00     0.110 C 
HETATM    9  C20 UNL     1      -1.685  11.399  19.333  1.00  0.00     0.133 C 
HETATM   10  C21 UNL     1      -2.988  11.152  18.613  1.00  0.00     0.265 C 
HETATM   11  O4  UNL     1      -4.061  11.578  19.035  1.00  0.00    -0.265 OA
HETATM   12  O5  UNL     1      -2.931  10.352  17.472  1.00  0.00    -0.278 OA
HETATM   13  C22 UNL     1      -1.703   9.866  16.987  1.00  0.00     0.089 A 
HETATM   14  C23 UNL     1      -1.719   8.843  16.040  1.00  0.00     0.075 A 
HETATM   15  C24 UNL     1      -0.505   8.351  15.551  1.00  0.00     0.074 A 
HETATM   16  C25 UNL     1       0.715   8.840  16.029  1.00  0.00    -0.022 A 
HETATM   17  C26 UNL     1       0.682   9.840  17.003  1.00  0.00     0.021 A 
HETATM   18  C27 UNL     1      -0.512  10.413  17.441  1.00  0.00    -0.007 A 
HETATM   19  C28 UNL     1       2.066   8.352  15.544  1.00  0.00     0.077 C 
HETATM   20  C29 UNL     1       2.879   9.405  14.725  1.00  0.00     0.171 C 
HETATM   21  O9  UNL     1       3.543  10.301  15.667  1.00  0.00    -0.309 OA
HETATM   22  C40 UNL     1       3.078  11.575  15.776  1.00  0.00     0.289 C 
HETATM   23  O10 UNL     1       2.170  12.066  15.128  1.00  0.00    -0.260 OA
ENDROOT
BRANCH   5  24
HETATM   24  C6  UNL     1       3.800  11.603  20.665  1.00  0.00    -0.041 A 
HETATM   25  C7  UNL     1       3.159  10.454  21.160  1.00  0.00     0.017 A 
HETATM   26  C8  UNL     1       3.595   9.822  22.332  1.00  0.00    -0.034 A 
HETATM   27  C10 UNL     1       4.680  10.369  23.029  1.00  0.00     0.016 A 
HETATM   28  C11 UNL     1       5.334  11.519  22.562  1.00  0.00    -0.054 A 
HETATM   29  C16 UNL     1       4.889  12.128  21.380  1.00  0.00     0.015 A 
BRANCH  26  30
HETATM   30  C9  UNL     1       2.873   8.613  22.867  1.00  0.00     0.202 C 
BRANCH  30  31
HETATM   31  O1  UNL     1       1.948   8.126  21.902  1.00  0.00    -0.396 OA
HETATM   32  H11 UNL     1       1.537   7.335  22.288  1.00  0.00     0.209 HD
ENDBRANCH  30  31
ENDBRANCH  26  30
BRANCH  28  33
HETATM   33  C12 UNL     1       6.491  12.104  23.339  1.00  0.00     0.073 C 
BRANCH  33  34
HETATM   34  C13 UNL     1       7.824  11.977  22.584  1.00  0.00     0.150 C 
BRANCH  34  35
HETATM   35  O2  UNL     1       8.718  11.107  23.309  1.00  0.00    -0.393 OA
HETATM   36  H16 UNL     1       8.303  10.223  23.313  1.00  0.00     0.210 HD
ENDBRANCH  34  35
BRANCH  34  37
HETATM   37  C14 UNL     1       8.558  13.325  22.431  1.00  0.00     0.143 C 
HETATM   38  C15 UNL     1       9.704  13.297  21.431  1.00  0.00     0.042 C 
BRANCH  37  39
HETATM   39  O3  UNL     1       9.103  13.679  23.708  1.00  0.00    -0.393 OA
HETATM   40  H21 UNL     1       8.364  13.543  24.336  1.00  0.00     0.210 HD
ENDBRANCH  37  39
ENDBRANCH  34  37
ENDBRANCH  33  34
ENDBRANCH  28  33
ENDBRANCH   5  24
BRANCH  20  41
HETATM   41  C30 UNL     1       3.952   8.711  13.801  1.00  0.00     0.089 C 
HETATM   42  C31 UNL     1       4.941   9.740  13.199  1.00  0.00     0.041 C 
HETATM   43  C32 UNL     1       5.652   9.283  11.920  1.00  0.00     0.004 C 
HETATM   44  C33 UNL     1       5.815   7.776  11.805  1.00  0.00     0.005 C 
HETATM   45  C34 UNL     1       4.515   6.969  12.022  1.00  0.00    -0.001 C 
HETATM   46  C35 UNL     1       4.097   6.190  10.772  1.00  0.00     0.083 C 
HETATM   47  C39 UNL     1       3.355   7.797  12.672  1.00  0.00     0.027 C 
HETATM   48  C36 UNL     1       3.311   7.061   9.834  1.00  0.00     0.127 C 
HETATM   49  O8  UNL     1       3.610   7.194   8.650  1.00  0.00    -0.298 OA
HETATM   50  C37 UNL     1       2.089   7.697  10.429  1.00  0.00     0.079 C 
HETATM   51  C38 UNL     1       2.479   8.534  11.637  1.00  0.00     0.015 C 
BRANCH  41  52
HETATM   52  O7  UNL     1       4.698   7.788  14.631  1.00  0.00    -0.387 OA
HETATM   53  H32 UNL     1       5.404   8.261  15.102  1.00  0.00     0.210 HD
ENDBRANCH  41  52
ENDBRANCH  20  41
BRANCH  15  54
HETATM   54  O6  UNL     1      -0.496   7.367  14.603  1.00  0.00    -0.360 OA
HETATM   55  H27 UNL     1      -1.415   7.136  14.379  1.00  0.00     0.217 HD
ENDBRANCH  15  54
TORSDOF 11
ENDMDL
MODEL 5
REMARK minimizedAffinity -8.36259365
REMARK CNNscore 0.303551853
REMARK CNNaffinity 5.99252844
REMARK  11 active torsions:
REMARK  status: ('A' for Active; 'I' for Inactive)
REMARK    1  A    between atoms: C5_5  and  C6_6 
REMARK    2  A    between atoms: C8_8  and  C9_9 
REMARK    3  A    between atoms: C9_9  and  O1_10 
REMARK    4  A    between atoms: C11_12  and  C12_13 
REMARK    5  A    between atoms: C12_13  and  C13_14 
REMARK    6  A    between atoms: C13_14  and  O2_15 
REMARK    7  A    between atoms: C13_14  and  C14_16 
REMARK    8  A    between atoms: C14_16  and  O3_18 
REMARK    9  A    between atoms: C24_29  and  O6_30 
REMARK   10  A    between atoms: C29_35  and  C30_36 
REMARK   11  A    between atoms: C30_36  and  O7_37 
ROOT
HETATM    1  C1  UNL     1     -21.023  -2.964  13.867  1.00  0.00     0.036 C 
HETATM    2  C2  UNL     1     -21.044  -1.920  12.793  1.00  0.00    -0.018 C 
HETATM    3  C3  UNL     1     -20.068  -1.045  12.475  1.00  0.00     0.015 C 
HETATM    4  C4  UNL     1     -20.235  -0.044  11.346  1.00  0.00     0.066 C 
HETATM    5  C5  UNL     1     -21.302   1.068  11.589  1.00  0.00     0.102 C 
HETATM    6  C17 UNL     1     -20.944   1.928  12.743  1.00  0.00    -0.096 C 
HETATM    7  C18 UNL     1     -20.504   2.532  13.685  1.00  0.00    -0.096 C 
HETATM    8  C19 UNL     1     -19.735   3.043  14.838  1.00  0.00     0.110 C 
HETATM    9  C20 UNL     1     -19.930   4.524  15.083  1.00  0.00     0.133 C 
HETATM   10  C21 UNL     1     -19.181   4.934  16.328  1.00  0.00     0.265 C 
HETATM   11  O4  UNL     1     -19.627   5.760  17.119  1.00  0.00    -0.265 OA
HETATM   12  O5  UNL     1     -17.914   4.378  16.507  1.00  0.00    -0.278 OA
HETATM   13  C22 UNL     1     -17.403   3.430  15.602  1.00  0.00     0.089 A 
HETATM   14  C23 UNL     1     -16.043   3.131  15.648  1.00  0.00     0.075 A 
HETATM   15  C24 UNL     1     -15.522   2.190  14.753  1.00  0.00     0.074 A 
HETATM   16  C25 UNL     1     -16.338   1.582  13.793  1.00  0.00    -0.022 A 
HETATM   17  C26 UNL     1     -17.687   1.938  13.762  1.00  0.00     0.021 A 
HETATM   18  C27 UNL     1     -18.251   2.803  14.701  1.00  0.00    -0.007 A 
HETATM   19  C28 UNL     1     -15.841   0.556  12.795  1.00  0.00     0.077 C 
HETATM   20  C29 UNL     1     -16.396  -0.887  13.018  1.00  0.00     0.171 C 
HETATM   21  O9  UNL     1     -17.728  -0.960  12.426  1.00  0.00    -0.309 OA
HETATM   22  C40 UNL     1     -18.799  -1.024  13.263  1.00  0.00     0.289 C 
HETATM   23  O10 UNL     1     -18.757  -1.066  14.481  1.00  0.00    -0.260 OA
ENDROOT
BRANCH   5  24
HETATM   24  C6  UNL     1     -21.488   1.905  10.328  1.00  0.00    -0.041 A 
HETATM   25  C7  UNL     1     -21.693   3.293  10.402  1.00  0.00     0.017 A 
HETATM   26  C8  UNL     1     -21.830   4.074   9.246  1.00  0.00    -0.034 A 
HETATM   27  C10 UNL     1     -21.782   3.442   7.997  1.00  0.00     0.016 A 
HETATM   28  C11 UNL     1     -21.586   2.057   7.894  1.00  0.00    -0.054 A 
HETATM   29  C16 UNL     1     -21.439   1.297   9.063  1.00  0.00     0.015 A 
BRANCH  26  30
HETATM   30  C9  UNL     1     -22.085   5.555   9.346  1.00  0.00     0.202 C 
BRANCH  30  31
HETATM   31  O1  UNL     1     -23.441   5.843   9.028  1.00  0.00    -0.396 OA
HETATM   32  H11 UNL     1     -23.553   6.801   9.136  1.00  0.00     0.209 HD
ENDBRANCH  30  31
ENDBRANCH  26  30
BRANCH  28  33
HETATM   33  C12 UNL     1     -21.555   1.392   6.536  1.00  0.00     0.073 C 
BRANCH  33  34
HETATM   34  C13 UNL     1     -21.906   2.366   5.401  1.00  0.00     0.150 C 
BRANCH  34  35
HETATM   35  O2  UNL     1     -23.309   2.261   5.079  1.00  0.00    -0.393 OA
HETATM   36  H16 UNL     1     -23.798   2.553   5.872  1.00  0.00     0.210 HD
ENDBRANCH  34  35
BRANCH  34  37
HETATM   37  C14 UNL     1     -21.138   2.070   4.097  1.00  0.00     0.143 C 
HETATM   38  C15 UNL     1     -21.968   1.368   3.033  1.00  0.00     0.042 C 
BRANCH  37  39
HETATM   39  O3  UNL     1     -20.032   1.216   4.419  1.00  0.00    -0.393 OA
HETATM   40  H21 UNL     1     -19.616   1.638   5.199  1.00  0.00     0.210 HD
ENDBRANCH  37  39
ENDBRANCH  34  37
ENDBRANCH  33  34
ENDBRANCH  28  33
ENDBRANCH   5  24
BRANCH  20  41
HETATM   41  C30 UNL     1     -15.459  -1.971  12.359  1.00  0.00     0.089 C 
HETATM   42  C31 UNL     1     -16.234  -2.864  11.357  1.00  0.00     0.041 C 
HETATM   43  C32 UNL     1     -15.595  -4.230  11.079  1.00  0.00     0.004 C 
HETATM   44  C33 UNL     1     -14.085  -4.257  11.254  1.00  0.00     0.005 C 
HETATM   45  C34 UNL     1     -13.582  -3.684  12.599  1.00  0.00    -0.001 C 
HETATM   46  C35 UNL     1     -12.871  -4.738  13.451  1.00  0.00     0.083 C 
HETATM   47  C39 UNL     1     -14.659  -2.856  13.379  1.00  0.00     0.027 C 
HETATM   48  C36 UNL     1     -13.860  -5.541  14.248  1.00  0.00     0.127 C 
HETATM   49  O8  UNL     1     -13.888  -6.768  14.221  1.00  0.00    -0.298 OA
HETATM   50  C37 UNL     1     -14.761  -4.737  15.139  1.00  0.00     0.079 C 
HETATM   51  C38 UNL     1     -15.533  -3.721  14.312  1.00  0.00     0.015 C 
BRANCH  41  52
HETATM   52  O7  UNL     1     -14.425  -1.261  11.636  1.00  0.00    -0.387 OA
HETATM   53  H32 UNL     1     -14.751  -1.002  10.758  1.00  0.00     0.210 HD
ENDBRANCH  41  52
ENDBRANCH  20  41
BRANCH  15  54
HETATM   54  O6  UNL     1     -14.197   1.862  14.797  1.00  0.00    -0.360 OA
HETATM   55  H27 UNL     1     -13.770   2.367  15.512  1.00  0.00     0.217 HD
ENDBRANCH  15  54
TORSDOF 11
ENDMDL
MODEL 6
REMARK minimizedAffinity -9.270401
REMARK CNNscore 0.300007254
REMARK CNNaffinity 5.72238207
REMARK  11 active torsions:
REMARK  status: ('A' for Active; 'I' for Inactive)
REMARK    1  A    between atoms: C5_5  and  C6_6 
REMARK    2  A    between atoms: C8_8  and  C9_9 
REMARK    3  A    between atoms: C9_9  and  O1_10 
REMARK    4  A    between atoms: C11_12  and  C12_13 
REMARK    5  A    between atoms: C12_13  and  C13_14 
REMARK    6  A    between atoms: C13_14  and  O2_15 
REMARK    7  A    between atoms: C13_14  and  C14_16 
REMARK    8  A    between atoms: C14_16  and  O3_18 
REMARK    9  A    between atoms: C24_29  and  O6_30 
REMARK   10  A    between atoms: C29_35  and  C30_36 
REMARK   11  A    between atoms: C30_36  and  O7_37 
ROOT
HETATM    1  C1  UNL     1     -17.923  -7.463  14.822  1.00  0.00     0.036 C 
HETATM    2  C2  UNL     1     -16.457  -7.767  14.856  1.00  0.00    -0.018 C 
HETATM    3  C3  UNL     1     -15.447  -7.005  14.388  1.00  0.00     0.015 C 
HETATM    4  C4  UNL     1     -13.999  -7.447  14.504  1.00  0.00     0.066 C 
HETATM    5  C5  UNL     1     -13.607  -8.688  13.642  1.00  0.00     0.102 C 
HETATM    6  C17 UNL     1     -13.755  -8.416  12.192  1.00  0.00    -0.096 C 
HETATM    7  C18 UNL     1     -13.915  -8.030  11.065  1.00  0.00    -0.096 C 
HETATM    8  C19 UNL     1     -14.225  -7.289   9.824  1.00  0.00     0.110 C 
HETATM    9  C20 UNL     1     -13.414  -7.748   8.631  1.00  0.00     0.133 C 
HETATM   10  C21 UNL     1     -13.861  -7.000   7.399  1.00  0.00     0.265 C 
HETATM   11  O4  UNL     1     -13.931  -7.536   6.296  1.00  0.00    -0.265 OA
HETATM   12  O5  UNL     1     -14.128  -5.639   7.555  1.00  0.00    -0.278 OA
HETATM   13  C22 UNL     1     -14.050  -5.025   8.818  1.00  0.00     0.089 A 
HETATM   14  C23 UNL     1     -14.030  -3.633   8.881  1.00  0.00     0.075 A 
HETATM   15  C24 UNL     1     -13.952  -3.010  10.131  1.00  0.00     0.074 A 
HETATM   16  C25 UNL     1     -13.853  -3.763  11.306  1.00  0.00    -0.022 A 
HETATM   17  C26 UNL     1     -13.843  -5.154  11.191  1.00  0.00     0.021 A 
HETATM   18  C27 UNL     1     -14.011  -5.802   9.967  1.00  0.00    -0.007 A 
HETATM   19  C28 UNL     1     -13.766  -3.155  12.691  1.00  0.00     0.077 C 
HETATM   20  C29 UNL     1     -15.021  -3.402  13.588  1.00  0.00     0.171 C 
HETATM   21  O9  UNL     1     -14.909  -4.737  14.170  1.00  0.00    -0.309 OA
HETATM   22  C40 UNL     1     -15.743  -5.708  13.709  1.00  0.00     0.289 C 
HETATM   23  O10 UNL     1     -16.617  -5.567  12.871  1.00  0.00    -0.260 OA
ENDROOT
BRANCH   5  24
HETATM   24  C6  UNL     1     -12.183  -9.127  13.968  1.00  0.00    -0.041 A 
HETATM   25  C7  UNL     1     -11.788  -9.380  15.292  1.00  0.00     0.017 A 
HETATM   26  C8  UNL     1     -10.492  -9.818  15.596  1.00  0.00    -0.034 A 
HETATM   27  C10 UNL     1      -9.573  -9.982  14.552  1.00  0.00     0.016 A 
HETATM   28  C11 UNL     1      -9.939  -9.729  13.221  1.00  0.00    -0.054 A 
HETATM   29  C16 UNL     1     -11.245  -9.304  12.938  1.00  0.00     0.015 A 
BRANCH  26  30
HETATM   30  C9  UNL     1     -10.074 -10.050  17.025  1.00  0.00     0.202 C 
BRANCH  30  31
HETATM   31  O1  UNL     1      -9.315  -8.945  17.500  1.00  0.00    -0.396 OA
HETATM   32  H11 UNL     1      -9.100  -9.136  18.428  1.00  0.00     0.209 HD
ENDBRANCH  30  31
ENDBRANCH  26  30
BRANCH  28  33
HETATM   33  C12 UNL     1      -8.927  -9.895  12.109  1.00  0.00     0.073 C 
BRANCH  33  34
HETATM   34  C13 UNL     1      -7.625  -9.126  12.385  1.00  0.00     0.150 C 
BRANCH  34  35
HETATM   35  O2  UNL     1      -7.879  -7.706  12.363  1.00  0.00    -0.393 OA
HETATM   36  H16 UNL     1      -8.487  -7.521  13.105  1.00  0.00     0.210 HD
ENDBRANCH  34  35
BRANCH  34  37
HETATM   37  C14 UNL     1      -6.537  -9.389  11.325  1.00  0.00     0.143 C 
HETATM   38  C15 UNL     1      -5.962 -10.797  11.362  1.00  0.00     0.042 C 
BRANCH  37  39
HETATM   39  O3  UNL     1      -5.460  -8.473  11.559  1.00  0.00    -0.393 OA
HETATM   40  H21 UNL     1      -5.897  -7.604  11.669  1.00  0.00     0.210 HD
ENDBRANCH  37  39
ENDBRANCH  34  37
ENDBRANCH  33  34
ENDBRANCH  28  33
ENDBRANCH   5  24
BRANCH  20  41
HETATM   41  C30 UNL     1     -15.127  -2.327  14.736  1.00  0.00     0.089 C 
HETATM   42  C31 UNL     1     -16.332  -2.604  15.670  1.00  0.00     0.041 C 
HETATM   43  C32 UNL     1     -16.839  -1.387  16.452  1.00  0.00     0.004 C 
HETATM   44  C33 UNL     1     -15.774  -0.336  16.724  1.00  0.00     0.005 C 
HETATM   45  C34 UNL     1     -14.977   0.111  15.477  1.00  0.00    -0.001 C 
HETATM   46  C35 UNL     1     -15.183   1.594  15.155  1.00  0.00     0.083 C 
HETATM   47  C39 UNL     1     -15.147  -0.837  14.242  1.00  0.00     0.027 C 
HETATM   48  C36 UNL     1     -16.429   1.799  14.341  1.00  0.00     0.127 C 
HETATM   49  O8  UNL     1     -17.308   2.591  14.668  1.00  0.00    -0.298 OA
HETATM   50  C37 UNL     1     -16.486   1.021  13.059  1.00  0.00     0.079 C 
HETATM   51  C38 UNL     1     -16.350  -0.465  13.350  1.00  0.00     0.015 C 
BRANCH  41  52
HETATM   52  O7  UNL     1     -13.911  -2.413  15.518  1.00  0.00    -0.387 OA
HETATM   53  H32 UNL     1     -13.988  -3.126  16.174  1.00  0.00     0.210 HD
ENDBRANCH  41  52
ENDBRANCH  20  41
BRANCH  15  54
HETATM   54  O6  UNL     1     -13.956  -1.647  10.220  1.00  0.00    -0.360 OA
HETATM   55  H27 UNL     1     -14.028  -1.272   9.324  1.00  0.00     0.217 HD
ENDBRANCH  15  54
TORSDOF 11
ENDMDL
MODEL 7
REMARK minimizedAffinity -7.96849632
REMARK CNNscore 0.281274348
REMARK CNNaffinity 6.40735483
REMARK  11 active torsions:
REMARK  status: ('A' for Active; 'I' for Inactive)
REMARK    1  A    between atoms: C5_5  and  C6_6 
REMARK    2  A    between atoms: C8_8  and  C9_9 
REMARK    3  A    between atoms: C9_9  and  O1_10 
REMARK    4  A    between atoms: C11_12  and  C12_13 
REMARK    5  A    between atoms: C12_13  and  C13_14 
REMARK    6  A    between atoms: C13_14  and  O2_15 
REMARK    7  A    between atoms: C13_14  and  C14_16 
REMARK    8  A    between atoms: C14_16  and  O3_18 
REMARK    9  A    between atoms: C24_29  and  O6_30 
REMARK   10  A    between atoms: C29_35  and  C30_36 
REMARK   11  A    between atoms: C30_36  and  O7_37 
ROOT
HETATM    1  C1  UNL     1      11.710  -5.050   9.113  1.00  0.00     0.036 C 
HETATM    2  C2  UNL     1      12.021  -6.203   8.209  1.00  0.00    -0.018 C 
HETATM    3  C3  UNL     1      13.177  -6.453   7.560  1.00  0.00     0.015 C 
HETATM    4  C4  UNL     1      13.345  -7.678   6.678  1.00  0.00     0.066 C 
HETATM    5  C5  UNL     1      12.485  -7.689   5.376  1.00  0.00     0.102 C 
HETATM    6  C17 UNL     1      12.852  -6.576   4.469  1.00  0.00    -0.096 C 
HETATM    7  C18 UNL     1      13.277  -5.637   3.849  1.00  0.00    -0.096 C 
HETATM    8  C19 UNL     1      13.978  -4.435   3.354  1.00  0.00     0.110 C 
HETATM    9  C20 UNL     1      14.037  -4.351   1.844  1.00  0.00     0.133 C 
HETATM   10  C21 UNL     1      14.689  -3.053   1.434  1.00  0.00     0.265 C 
HETATM   11  O4  UNL     1      14.312  -2.410   0.458  1.00  0.00    -0.265 OA
HETATM   12  O5  UNL     1      15.796  -2.646   2.179  1.00  0.00    -0.278 OA
HETATM   13  C22 UNL     1      16.227  -3.381   3.298  1.00  0.00     0.089 A 
HETATM   14  C23 UNL     1      17.490  -3.114   3.824  1.00  0.00     0.075 A 
HETATM   15  C24 UNL     1      17.931  -3.839   4.936  1.00  0.00     0.074 A 
HETATM   16  C25 UNL     1      17.142  -4.849   5.495  1.00  0.00    -0.022 A 
HETATM   17  C26 UNL     1      15.899  -5.104   4.914  1.00  0.00     0.021 A 
HETATM   18  C27 UNL     1      15.395  -4.337   3.864  1.00  0.00    -0.007 A 
HETATM   19  C28 UNL     1      17.557  -5.672   6.699  1.00  0.00     0.077 C 
HETATM   20  C29 UNL     1      16.715  -5.405   7.988  1.00  0.00     0.171 C 
HETATM   21  O9  UNL     1      15.478  -6.174   7.892  1.00  0.00    -0.309 OA
HETATM   22  C40 UNL     1      14.319  -5.496   7.673  1.00  0.00     0.289 C 
HETATM   23  O10 UNL     1      14.199  -4.286   7.584  1.00  0.00    -0.260 OA
ENDROOT
BRANCH   5  24
HETATM   24  C6  UNL     1      12.619  -9.032   4.668  1.00  0.00    -0.041 A 
HETATM   25  C7  UNL     1      11.564  -9.557   3.903  1.00  0.00     0.017 A 
HETATM   26  C8  UNL     1      11.692 -10.774   3.220  1.00  0.00    -0.034 A 
HETATM   27  C10 UNL     1      12.895 -11.484   3.328  1.00  0.00     0.016 A 
HETATM   28  C11 UNL     1      13.962 -10.987   4.091  1.00  0.00    -0.054 A 
HETATM   29  C16 UNL     1      13.816  -9.761   4.755  1.00  0.00     0.015 A 
BRANCH  26  30
HETATM   30  C9  UNL     1      10.538 -11.339   2.433  1.00  0.00     0.202 C 
BRANCH  30  31
HETATM   31  O1  UNL     1      10.557 -12.761   2.486  1.00  0.00    -0.396 OA
HETATM   32  H11 UNL     1       9.780 -13.066   1.990  1.00  0.00     0.209 HD
ENDBRANCH  30  31
ENDBRANCH  26  30
BRANCH  28  33
HETATM   33  C12 UNL     1      15.245 -11.778   4.210  1.00  0.00     0.073 C 
BRANCH  33  34
HETATM   34  C13 UNL     1      16.474 -10.965   3.770  1.00  0.00     0.150 C 
BRANCH  34  35
HETATM   35  O2  UNL     1      17.374 -11.805   3.018  1.00  0.00    -0.393 OA
HETATM   36  H16 UNL     1      16.897 -12.069   2.208  1.00  0.00     0.210 HD
ENDBRANCH  34  35
BRANCH  34  37
HETATM   37  C14 UNL     1      17.286 -10.413   4.960  1.00  0.00     0.143 C 
HETATM   38  C15 UNL     1      17.488  -8.906   4.926  1.00  0.00     0.042 C 
BRANCH  37  39
HETATM   39  O3  UNL     1      18.581 -11.027   4.935  1.00  0.00    -0.393 OA
HETATM   40  H21 UNL     1      18.397 -11.981   4.812  1.00  0.00     0.210 HD
ENDBRANCH  37  39
ENDBRANCH  34  37
ENDBRANCH  33  34
ENDBRANCH  28  33
ENDBRANCH   5  24
BRANCH  20  41
HETATM   41  C30 UNL     1      17.505  -5.825   9.287  1.00  0.00     0.089 C 
HETATM   42  C31 UNL     1      18.823  -5.023   9.439  1.00  0.00     0.041 C 
HETATM   43  C32 UNL     1      19.888  -5.690  10.317  1.00  0.00     0.004 C 
HETATM   44  C33 UNL     1      19.324  -6.613  11.384  1.00  0.00     0.005 C 
HETATM   45  C34 UNL     1      18.315  -7.662  10.862  1.00  0.00    -0.001 C 
HETATM   46  C35 UNL     1      18.814  -9.097  11.057  1.00  0.00     0.083 C 
HETATM   47  C39 UNL     1      17.780  -7.364   9.421  1.00  0.00     0.027 C 
HETATM   48  C36 UNL     1      19.714  -9.509   9.928  1.00  0.00     0.127 C 
HETATM   49  O8  UNL     1      20.839  -9.966  10.114  1.00  0.00    -0.298 OA
HETATM   50  C37 UNL     1      19.111  -9.396   8.558  1.00  0.00     0.079 C 
HETATM   51  C38 UNL     1      18.664  -7.965   8.307  1.00  0.00     0.015 C 
BRANCH  41  52
HETATM   52  O7  UNL     1      16.654  -5.528  10.420  1.00  0.00    -0.387 OA
HETATM   53  H32 UNL     1      16.741  -4.591  10.665  1.00  0.00     0.210 HD
ENDBRANCH  41  52
ENDBRANCH  20  41
BRANCH  15  54
HETATM   54  O6  UNL     1      19.154  -3.577   5.484  1.00  0.00    -0.360 OA
HETATM   55  H27 UNL     1      19.576  -2.855   4.985  1.00  0.00     0.217 HD
ENDBRANCH  15  54
TORSDOF 11
ENDMDL
MODEL 8
REMARK minimizedAffinity -8.65080929
REMARK CNNscore 0.271033555
REMARK CNNaffinity 6.25987959
REMARK  11 active torsions:
REMARK  status: ('A' for Active; 'I' for Inactive)
REMARK    1  A    between atoms: C5_5  and  C6_6 
REMARK    2  A    between atoms: C8_8  and  C9_9 
REMARK    3  A    between atoms: C9_9  and  O1_10 
REMARK    4  A    between atoms: C11_12  and  C12_13 
REMARK    5  A    between atoms: C12_13  and  C13_14 
REMARK    6  A    between atoms: C13_14  and  O2_15 
REMARK    7  A    between atoms: C13_14  and  C14_16 
REMARK    8  A    between atoms: C14_16  and  O3_18 
REMARK    9  A    between atoms: C24_29  and  O6_30 
REMARK   10  A    between atoms: C29_35  and  C30_36 
REMARK   11  A    between atoms: C30_36  and  O7_37 
ROOT
HETATM    1  C1  UNL     1      11.668  -5.289   9.044  1.00  0.00     0.036 C 
HETATM    2  C2  UNL     1      12.118  -6.408   8.155  1.00  0.00    -0.018 C 
HETATM    3  C3  UNL     1      13.319  -6.552   7.557  1.00  0.00     0.015 C 
HETATM    4  C4  UNL     1      13.633  -7.755   6.685  1.00  0.00     0.066 C 
HETATM    5  C5  UNL     1      12.834  -7.837   5.346  1.00  0.00     0.102 C 
HETATM    6  C17 UNL     1      13.140  -6.693   4.455  1.00  0.00    -0.096 C 
HETATM    7  C18 UNL     1      13.507  -5.718   3.854  1.00  0.00    -0.096 C 
HETATM    8  C19 UNL     1      14.120  -4.457   3.389  1.00  0.00     0.110 C 
HETATM    9  C20 UNL     1      14.236  -4.364   1.883  1.00  0.00     0.133 C 
HETATM   10  C21 UNL     1      14.788  -3.011   1.501  1.00  0.00     0.265 C 
HETATM   11  O4  UNL     1      14.398  -2.401   0.509  1.00  0.00    -0.265 OA
HETATM   12  O5  UNL     1      15.821  -2.511   2.294  1.00  0.00    -0.278 OA
HETATM   13  C22 UNL     1      16.266  -3.208   3.431  1.00  0.00     0.089 A 
HETATM   14  C23 UNL     1      17.477  -2.832   4.010  1.00  0.00     0.075 A 
HETATM   15  C24 UNL     1      17.932  -3.519   5.141  1.00  0.00     0.074 A 
HETATM   16  C25 UNL     1      17.212  -4.597   5.666  1.00  0.00    -0.022 A 
HETATM   17  C26 UNL     1      16.023  -4.959   5.032  1.00  0.00     0.021 A 
HETATM   18  C27 UNL     1      15.499  -4.235   3.960  1.00  0.00    -0.007 A 
HETATM   19  C28 UNL     1      17.645  -5.383   6.887  1.00  0.00     0.077 C 
HETATM   20  C29 UNL     1      16.728  -5.196   8.138  1.00  0.00     0.171 C 
HETATM   21  O9  UNL     1      15.569  -6.071   7.989  1.00  0.00    -0.309 OA
HETATM   22  C40 UNL     1      14.365  -5.498   7.719  1.00  0.00     0.289 C 
HETATM   23  O10 UNL     1      14.143  -4.303   7.625  1.00  0.00    -0.260 OA
ENDROOT
BRANCH   5  24
HETATM   24  C6  UNL     1      13.118  -9.161   4.645  1.00  0.00    -0.041 A 
HETATM   25  C7  UNL     1      14.388  -9.759   4.710  1.00  0.00     0.017 A 
HETATM   26  C8  UNL     1      14.646 -10.993   4.098  1.00  0.00    -0.034 A 
HETATM   27  C10 UNL     1      13.615 -11.623   3.390  1.00  0.00     0.016 A 
HETATM   28  C11 UNL     1      12.340 -11.045   3.302  1.00  0.00    -0.054 A 
HETATM   29  C16 UNL     1      12.100  -9.816   3.933  1.00  0.00     0.015 A 
BRANCH  26  30
HETATM   30  C9  UNL     1      16.023 -11.602   4.148  1.00  0.00     0.202 C 
BRANCH  30  31
HETATM   31  O1  UNL     1      16.770 -11.039   5.220  1.00  0.00    -0.396 OA
HETATM   32  H11 UNL     1      17.632 -11.487   5.221  1.00  0.00     0.209 HD
ENDBRANCH  30  31
ENDBRANCH  26  30
BRANCH  28  33
HETATM   33  C12 UNL     1      11.245 -11.733   2.518  1.00  0.00     0.073 C 
BRANCH  33  34
HETATM   34  C13 UNL     1       9.911 -10.972   2.588  1.00  0.00     0.150 C 
BRANCH  34  35
HETATM   35  O2  UNL     1       9.432 -10.945   3.948  1.00  0.00    -0.393 OA
HETATM   36  H16 UNL     1      10.085 -10.431   4.462  1.00  0.00     0.210 HD
ENDBRANCH  34  35
BRANCH  34  37
HETATM   37  C14 UNL     1       8.799 -11.634   1.748  1.00  0.00     0.143 C 
HETATM   38  C15 UNL     1       7.536 -10.796   1.621  1.00  0.00     0.042 C 
BRANCH  37  39
HETATM   39  O3  UNL     1       8.440 -12.868   2.384  1.00  0.00    -0.393 OA
HETATM   40  H21 UNL     1       9.296 -13.304   2.573  1.00  0.00     0.210 HD
ENDBRANCH  37  39
ENDBRANCH  34  37
ENDBRANCH  33  34
ENDBRANCH  28  33
ENDBRANCH   5  24
BRANCH  20  41
HETATM   41  C30 UNL     1      17.496  -5.548   9.470  1.00  0.00     0.089 C 
HETATM   42  C31 UNL     1      18.752  -4.662   9.658  1.00  0.00     0.041 C 
HETATM   43  C32 UNL     1      19.825  -5.248  10.584  1.00  0.00     0.004 C 
HETATM   44  C33 UNL     1      19.283  -6.193  11.643  1.00  0.00     0.005 C 
HETATM   45  C34 UNL     1      18.364  -7.310  11.100  1.00  0.00    -0.001 C 
HETATM   46  C35 UNL     1      18.945  -8.708  11.332  1.00  0.00     0.083 C 
HETATM   47  C39 UNL     1      17.863  -7.066   9.636  1.00  0.00     0.027 C 
HETATM   48  C36 UNL     1      19.912  -9.074  10.242  1.00  0.00     0.127 C 
HETATM   49  O8  UNL     1      21.056  -9.455  10.475  1.00  0.00    -0.298 OA
HETATM   50  C37 UNL     1      19.353  -9.017   8.850  1.00  0.00     0.079 C 
HETATM   51  C38 UNL     1      18.825  -7.620   8.563  1.00  0.00     0.015 C 
BRANCH  41  52
HETATM   52  O7  UNL     1      16.586  -5.294  10.568  1.00  0.00    -0.387 OA
HETATM   53  H32 UNL     1      16.603  -4.351  10.802  1.00  0.00     0.210 HD
ENDBRANCH  41  52
ENDBRANCH  20  41
BRANCH  15  54
HETATM   54  O6  UNL     1      19.102  -3.151   5.742  1.00  0.00    -0.360 OA
HETATM   55  H27 UNL     1      19.480  -2.393   5.261  1.00  0.00     0.217 HD
ENDBRANCH  15  54
TORSDOF 11
ENDMDL
MODEL 9
REMARK minimizedAffinity -10.7590179
REMARK CNNscore 0.258657604
REMARK CNNaffinity 6.55609894
REMARK  11 active torsions:
REMARK  status: ('A' for Active; 'I' for Inactive)
REMARK    1  A    between atoms: C5_5  and  C6_6 
REMARK    2  A    between atoms: C8_8  and  C9_9 
REMARK    3  A    between atoms: C9_9  and  O1_10 
REMARK    4  A    between atoms: C11_12  and  C12_13 
REMARK    5  A    between atoms: C12_13  and  C13_14 
REMARK    6  A    between atoms: C13_14  and  O2_15 
REMARK    7  A    between atoms: C13_14  and  C14_16 
REMARK    8  A    between atoms: C14_16  and  O3_18 
REMARK    9  A    between atoms: C24_29  and  O6_30 
REMARK   10  A    between atoms: C29_35  and  C30_36 
REMARK   11  A    between atoms: C30_36  and  O7_37 
ROOT
HETATM    1  C1  UNL     1       4.290  14.099  15.165  1.00  0.00     0.036 C 
HETATM    2  C2  UNL     1       4.434  13.362  16.461  1.00  0.00    -0.018 C 
HETATM    3  C3  UNL     1       4.066  12.092  16.731  1.00  0.00     0.015 C 
HETATM    4  C4  UNL     1       4.287  11.476  18.102  1.00  0.00     0.066 C 
HETATM    5  C5  UNL     1       3.430  12.085  19.255  1.00  0.00     0.102 C 
HETATM    6  C17 UNL     1       1.980  11.877  19.028  1.00  0.00    -0.096 C 
HETATM    7  C18 UNL     1       0.852  11.615  18.702  1.00  0.00    -0.096 C 
HETATM    8  C19 UNL     1      -0.391  11.177  18.035  1.00  0.00     0.110 C 
HETATM    9  C20 UNL     1      -1.527  10.901  18.997  1.00  0.00     0.133 C 
HETATM   10  C21 UNL     1      -2.773  10.549  18.222  1.00  0.00     0.265 C 
HETATM   11  O4  UNL     1      -3.890  10.919  18.574  1.00  0.00    -0.265 OA
HETATM   12  O5  UNL     1      -2.606   9.719  17.113  1.00  0.00    -0.278 OA
HETATM   13  C22 UNL     1      -1.327   9.297  16.709  1.00  0.00     0.089 A 
HETATM   14  C23 UNL     1      -1.229   8.246  15.798  1.00  0.00     0.075 A 
HETATM   15  C24 UNL     1       0.037   7.817  15.389  1.00  0.00     0.074 A 
HETATM   16  C25 UNL     1       1.198   8.397  15.910  1.00  0.00    -0.022 A 
HETATM   17  C26 UNL     1       1.051   9.423  16.845  1.00  0.00     0.021 A 
HETATM   18  C27 UNL     1      -0.197   9.933  17.202  1.00  0.00    -0.007 A 
HETATM   19  C28 UNL     1       2.600   7.982  15.510  1.00  0.00     0.077 C 
HETATM   20  C29 UNL     1       3.388   9.059  14.697  1.00  0.00     0.171 C 
HETATM   21  O9  UNL     1       3.945  10.024  15.639  1.00  0.00    -0.309 OA
HETATM   22  C40 UNL     1       3.396  11.269  15.680  1.00  0.00     0.289 C 
HETATM   23  O10 UNL     1       2.494  11.680  14.970  1.00  0.00    -0.260 OA
ENDROOT
BRANCH   5  24
HETATM   24  C6  UNL     1       3.858  11.497  20.595  1.00  0.00    -0.041 A 
HETATM   25  C7  UNL     1       3.209  10.374  21.135  1.00  0.00     0.017 A 
HETATM   26  C8  UNL     1       3.620   9.807  22.350  1.00  0.00    -0.034 A 
HETATM   27  C10 UNL     1       4.686  10.395  23.041  1.00  0.00     0.016 A 
HETATM   28  C11 UNL     1       5.347  11.522  22.529  1.00  0.00    -0.054 A 
HETATM   29  C16 UNL     1       4.928  12.065  21.306  1.00  0.00     0.015 A 
BRANCH  26  30
HETATM   30  C9  UNL     1       2.890   8.625  22.931  1.00  0.00     0.202 C 
BRANCH  30  31
HETATM   31  O1  UNL     1       1.920   8.144  22.008  1.00  0.00    -0.396 OA
HETATM   32  H11 UNL     1       1.505   7.369  22.422  1.00  0.00     0.209 HD
ENDBRANCH  30  31
ENDBRANCH  26  30
BRANCH  28  33
HETATM   33  C12 UNL     1       6.484  12.153  23.300  1.00  0.00     0.073 C 
BRANCH  33  34
HETATM   34  C13 UNL     1       7.834  11.999  22.580  1.00  0.00     0.150 C 
BRANCH  34  35
HETATM   35  O2  UNL     1       8.706  11.145  23.349  1.00  0.00    -0.393 OA
HETATM   36  H16 UNL     1       8.285  10.263  23.368  1.00  0.00     0.210 HD
ENDBRANCH  34  35
BRANCH  34  37
HETATM   37  C14 UNL     1       8.578  13.339  22.408  1.00  0.00     0.143 C 
HETATM   38  C15 UNL     1       9.770  13.269  21.466  1.00  0.00     0.042 C 
BRANCH  37  39
HETATM   39  O3  UNL     1       9.064  13.743  23.695  1.00  0.00    -0.393 OA
HETATM   40  H21 UNL     1       8.296  13.633  24.292  1.00  0.00     0.210 HD
ENDBRANCH  37  39
ENDBRANCH  34  37
ENDBRANCH  33  34
ENDBRANCH  28  33
ENDBRANCH   5  24
BRANCH  20  41
HETATM   41  C30 UNL     1       4.548   8.405  13.853  1.00  0.00     0.089 C 
HETATM   42  C31 UNL     1       5.762   8.033  14.742  1.00  0.00     0.041 C 
HETATM   43  C32 UNL     1       7.095   7.903  13.995  1.00  0.00     0.004 C 
HETATM   44  C33 UNL     1       6.953   7.504  12.535  1.00  0.00     0.005 C 
HETATM   45  C34 UNL     1       5.958   8.365  11.725  1.00  0.00    -0.001 C 
HETATM   46  C35 UNL     1       6.641   9.134  10.591  1.00  0.00     0.083 C 
HETATM   47  C39 UNL     1       5.013   9.246  12.611  1.00  0.00     0.027 C 
HETATM   48  C36 UNL     1       7.231  10.420  11.095  1.00  0.00     0.127 C 
HETATM   49  O8  UNL     1       8.406  10.726  10.906  1.00  0.00    -0.298 OA
HETATM   50  C37 UNL     1       6.262  11.341  11.777  1.00  0.00     0.079 C 
HETATM   51  C38 UNL     1       5.611  10.628  12.952  1.00  0.00     0.015 C 
BRANCH  41  52
HETATM   52  O7  UNL     1       4.020   7.191  13.266  1.00  0.00    -0.387 OA
HETATM   53  H32 UNL     1       4.070   6.463  13.908  1.00  0.00     0.210 HD
ENDBRANCH  41  52
ENDBRANCH  20  41
BRANCH  15  54
HETATM   54  O6  UNL     1       0.157   6.806  14.477  1.00  0.00    -0.360 OA
HETATM   55  H27 UNL     1      -0.733   6.510  14.215  1.00  0.00     0.217 HD
ENDBRANCH  15  54
TORSDOF 11
ENDMDL
