MODEL 1
REMARK minimizedAffinity -8.36222267
REMARK  13 active torsions:
REMARK  status: ('A' for Active; 'I' for Inactive)
REMARK    1  A    between atoms: C2_2  and  C3_3 
REMARK    2  A    between atoms: C2_2  and  C14_14 
REMARK    3  A    between atoms: C4_4  and  C5_5 
REMARK    4  A    between atoms: C6_6  and  C8_8 
REMARK    5  A    between atoms: C8_8  and  C9_9 
REMARK    6  A    between atoms: C9_9  and  C10_10 
REMARK    7  A    between atoms: C18_18  and  O1_19 
REMARK    8  A    between atoms: C19_20  and  C20_21 
REMARK    9  A    between atoms: C20_21  and  C21_22 
REMARK   10  A    between atoms: C21_22  and  C22_23 
REMARK   11  A    between atoms: C22_23  and  O2_24 
REMARK   12  A    between atoms: C24_26  and  C26_28 
REMARK   13  A    between atoms: C29_32  and  O4_34 
ROOT
HETATM    1  C14 UNL     1      -1.834   9.977  16.796  1.00  0.00     0.047 C 
HETATM    2  C15 UNL     1      -0.780  10.755  15.994  1.00  0.00     0.013 C 
HETATM    3  C16 UNL     1       0.098   9.719  15.294  1.00  0.00     0.017 C 
HETATM    4  C17 UNL     1      -0.720   8.403  15.201  1.00  0.00     0.024 C 
HETATM    5  C18 UNL     1      -1.429   8.488  16.613  1.00  0.00     0.138 C 
HETATM    6  C19 UNL     1      -1.824   8.394  14.046  1.00  0.00     0.029 C 
HETATM    7  C23 UNL     1      -2.410   7.015  13.662  1.00  0.00    -0.066 C 
HETATM    8  C24 UNL     1      -3.693   6.820  13.245  1.00  0.00    -0.021 C 
HETATM    9  C25 UNL     1      -4.261   5.504  12.765  1.00  0.00     0.052 C 
HETATM   10  C27 UNL     1      -1.482   5.820  13.822  1.00  0.00     0.038 C 
HETATM   11  C28 UNL     1      -0.589   5.864  15.051  1.00  0.00     0.042 C 
HETATM   12  C29 UNL     1       0.231   7.150  15.145  1.00  0.00     0.065 C 
HETATM   13  C30 UNL     1       1.284   7.172  14.026  1.00  0.00     0.047 C 
ENDROOT
BRANCH   5  14
HETATM   14  O1  UNL     1      -2.581   7.658  16.713  1.00  0.00    -0.394 OA
HETATM   15  H26 UNL     1      -2.926   7.761  17.618  1.00  0.00     0.210 HD
ENDBRANCH   5  14
BRANCH   6  16
HETATM   16  C20 UNL     1      -1.629   9.346  12.822  1.00  0.00     0.012 C 
BRANCH  16  17
HETATM   17  C21 UNL     1      -1.459   8.805  11.407  1.00  0.00     0.027 C 
BRANCH  17  18
HETATM   18  C22 UNL     1      -0.100   8.178  11.126  1.00  0.00     0.164 C 
BRANCH  18  19
HETATM   19  O2  UNL     1       0.456   8.761   9.953  1.00  0.00    -0.401 OA
HETATM   20  H34 UNL     1       0.594   9.707  10.130  1.00  0.00     0.209 HD
ENDBRANCH  18  19
ENDBRANCH  17  18
ENDBRANCH  16  17
ENDBRANCH   6  16
BRANCH  12  21
HETATM   21  O4  UNL     1       0.990   7.044  16.366  1.00  0.00    -0.389 OA
HETATM   22  H46 UNL     1       1.772   7.618  16.308  1.00  0.00     0.210 HD
ENDBRANCH  12  21
BRANCH   1  23
HETATM   23  C2  UNL     1      -2.011  10.517  18.218  1.00  0.00    -0.061 C 
HETATM   24  C1  UNL     1      -3.149  10.398  18.926  1.00  0.00     0.019 C 
BRANCH  23  25
HETATM   25  C3  UNL     1      -0.896  11.228  18.854  1.00  0.00     0.007 C 
HETATM   26  C4  UNL     1      -0.025  10.740  19.753  1.00  0.00     0.001 C 
BRANCH  26  27
HETATM   27  C5  UNL     1       1.047  11.539  20.315  1.00  0.00     0.002 C 
HETATM   28  C6  UNL     1       2.077  11.102  21.066  1.00  0.00    -0.084 C 
HETATM   29  C7  UNL     1       2.296   9.679  21.516  1.00  0.00     0.043 C 
BRANCH  28  30
HETATM   30  C8  UNL     1       3.123  12.089  21.562  1.00  0.00     0.037 C 
BRANCH  30  31
HETATM   31  C9  UNL     1       3.652  11.739  22.958  1.00  0.00     0.031 C 
BRANCH  31  32
HETATM   32  C10 UNL     1       5.149  11.571  22.953  1.00  0.00    -0.024 C 
HETATM   33  C11 UNL     1       6.085  12.538  23.006  1.00  0.00    -0.091 C 
HETATM   34  C12 UNL     1       7.550  12.190  23.043  1.00  0.00     0.042 C 
HETATM   35  C13 UNL     1       5.800  14.015  23.025  1.00  0.00     0.042 C 
ENDBRANCH  31  32
ENDBRANCH  30  31
ENDBRANCH  28  30
ENDBRANCH  26  27
ENDBRANCH  23  25
ENDBRANCH   1  23
BRANCH   8  36
HETATM   36  C26 UNL     1      -4.717   7.919  13.200  1.00  0.00     0.265 C 
HETATM   37  O3  UNL     1      -5.920   7.718  13.331  1.00  0.00    -0.302 OA
ENDBRANCH   8  36
TORSDOF 13
ENDMDL
MODEL 2
REMARK minimizedAffinity -8.25260735
REMARK  13 active torsions:
REMARK  status: ('A' for Active; 'I' for Inactive)
REMARK    1  A    between atoms: C2_2  and  C3_3 
REMARK    2  A    between atoms: C2_2  and  C14_14 
REMARK    3  A    between atoms: C4_4  and  C5_5 
REMARK    4  A    between atoms: C6_6  and  C8_8 
REMARK    5  A    between atoms: C8_8  and  C9_9 
REMARK    6  A    between atoms: C9_9  and  C10_10 
REMARK    7  A    between atoms: C18_18  and  O1_19 
REMARK    8  A    between atoms: C19_20  and  C20_21 
REMARK    9  A    between atoms: C20_21  and  C21_22 
REMARK   10  A    between atoms: C21_22  and  C22_23 
REMARK   11  A    between atoms: C22_23  and  O2_24 
REMARK   12  A    between atoms: C24_26  and  C26_28 
REMARK   13  A    between atoms: C29_32  and  O4_34 
ROOT
HETATM    1  C14 UNL     1      -3.978   6.116  13.164  1.00  0.00     0.047 C 
HETATM    2  C15 UNL     1      -4.223   7.070  14.342  1.00  0.00     0.013 C 
HETATM    3  C16 UNL     1      -2.885   7.243  15.057  1.00  0.00     0.017 C 
HETATM    4  C17 UNL     1      -1.766   6.885  14.044  1.00  0.00     0.024 C 
HETATM    5  C18 UNL     1      -2.498   5.677  13.330  1.00  0.00     0.138 C 
HETATM    6  C19 UNL     1      -1.455   8.031  12.973  1.00  0.00     0.029 C 
HETATM    7  C23 UNL     1      -0.132   7.898  12.183  1.00  0.00    -0.066 C 
HETATM    8  C24 UNL     1       0.032   8.306  10.893  1.00  0.00    -0.021 C 
HETATM    9  C25 UNL     1       1.338   8.284  10.134  1.00  0.00     0.052 C 
HETATM   10  C27 UNL     1       1.020   7.215  12.907  1.00  0.00     0.038 C 
HETATM   11  C28 UNL     1       0.619   6.031  13.773  1.00  0.00     0.042 C 
HETATM   12  C29 UNL     1      -0.473   6.378  14.785  1.00  0.00     0.065 C 
HETATM   13  C30 UNL     1       0.093   7.331  15.848  1.00  0.00     0.047 C 
ENDROOT
BRANCH   5  14
HETATM   14  O1  UNL     1      -1.942   5.355  12.060  1.00  0.00    -0.394 OA
HETATM   15  H26 UNL     1      -2.440   4.591  11.719  1.00  0.00     0.210 HD
ENDBRANCH   5  14
BRANCH   6  16
HETATM   16  C20 UNL     1      -1.811   9.507  13.340  1.00  0.00     0.012 C 
BRANCH  16  17
HETATM   17  C21 UNL     1      -1.767  10.007  14.780  1.00  0.00     0.027 C 
BRANCH  17  18
HETATM   18  C22 UNL     1      -1.196  11.408  14.949  1.00  0.00     0.164 C 
BRANCH  18  19
HETATM   19  O2  UNL     1      -1.314  12.117  13.721  1.00  0.00    -0.401 OA
HETATM   20  H34 UNL     1      -2.260  12.203  13.519  1.00  0.00     0.209 HD
ENDBRANCH  18  19
ENDBRANCH  17  18
ENDBRANCH  16  17
ENDBRANCH   6  16
BRANCH  12  21
HETATM   21  O4  UNL     1      -0.753   5.154  15.494  1.00  0.00    -0.389 OA
HETATM   22  H46 UNL     1      -1.143   5.367  16.359  1.00  0.00     0.210 HD
ENDBRANCH  12  21
BRANCH   1  23
HETATM   23  C2  UNL     1      -5.054   5.032  13.048  1.00  0.00    -0.061 C 
HETATM   24  C1  UNL     1      -4.846   3.829  12.481  1.00  0.00     0.019 C 
BRANCH  23  25
HETATM   25  C3  UNL     1      -6.401   5.309  13.558  1.00  0.00     0.007 C 
HETATM   26  C4  UNL     1      -7.405   5.932  12.917  1.00  0.00     0.001 C 
BRANCH  26  27
HETATM   27  C5  UNL     1      -8.704   6.147  13.523  1.00  0.00     0.002 C 
HETATM   28  C6  UNL     1      -9.022   7.068  14.454  1.00  0.00    -0.084 C 
HETATM   29  C7  UNL     1      -8.064   8.041  15.093  1.00  0.00     0.043 C 
BRANCH  28  30
HETATM   30  C8  UNL     1     -10.451   7.158  14.969  1.00  0.00     0.037 C 
BRANCH  30  31
HETATM   31  C9  UNL     1     -11.493   6.956  13.863  1.00  0.00     0.031 C 
BRANCH  31  32
HETATM   32  C10 UNL     1     -12.718   6.250  14.382  1.00  0.00    -0.024 C 
HETATM   33  C11 UNL     1     -13.978   6.337  13.912  1.00  0.00    -0.091 C 
HETATM   34  C12 UNL     1     -15.085   5.518  14.523  1.00  0.00     0.042 C 
HETATM   35  C13 UNL     1     -14.418   7.224  12.781  1.00  0.00     0.042 C 
ENDBRANCH  31  32
ENDBRANCH  30  31
ENDBRANCH  28  30
ENDBRANCH  26  27
ENDBRANCH  23  25
ENDBRANCH   1  23
BRANCH   8  36
HETATM   36  C26 UNL     1      -1.090   8.854  10.058  1.00  0.00     0.265 C 
HETATM   37  O3  UNL     1      -0.936   9.251   8.908  1.00  0.00    -0.302 OA
ENDBRANCH   8  36
TORSDOF 13
ENDMDL
MODEL 3
REMARK minimizedAffinity -8.02247906
REMARK  13 active torsions:
REMARK  status: ('A' for Active; 'I' for Inactive)
REMARK    1  A    between atoms: C2_2  and  C3_3 
REMARK    2  A    between atoms: C2_2  and  C14_14 
REMARK    3  A    between atoms: C4_4  and  C5_5 
REMARK    4  A    between atoms: C6_6  and  C8_8 
REMARK    5  A    between atoms: C8_8  and  C9_9 
REMARK    6  A    between atoms: C9_9  and  C10_10 
REMARK    7  A    between atoms: C18_18  and  O1_19 
REMARK    8  A    between atoms: C19_20  and  C20_21 
REMARK    9  A    between atoms: C20_21  and  C21_22 
REMARK   10  A    between atoms: C21_22  and  C22_23 
REMARK   11  A    between atoms: C22_23  and  O2_24 
REMARK   12  A    between atoms: C24_26  and  C26_28 
REMARK   13  A    between atoms: C29_32  and  O4_34 
ROOT
HETATM    1  C14 UNL     1      -1.116   7.957  14.371  1.00  0.00     0.047 C 
HETATM    2  C15 UNL     1      -1.524   9.054  13.376  1.00  0.00     0.013 C 
HETATM    3  C16 UNL     1      -2.480   9.988  14.115  1.00  0.00     0.017 C 
HETATM    4  C17 UNL     1      -2.221   9.812  15.635  1.00  0.00     0.024 C 
HETATM    5  C18 UNL     1      -1.973   8.248  15.633  1.00  0.00     0.138 C 
HETATM    6  C19 UNL     1      -0.915  10.561  16.172  1.00  0.00     0.029 C 
HETATM    7  C23 UNL     1      -0.799  10.733  17.704  1.00  0.00    -0.066 C 
HETATM    8  C24 UNL     1       0.381  10.724  18.387  1.00  0.00    -0.021 C 
HETATM    9  C25 UNL     1       0.531  10.993  19.866  1.00  0.00     0.052 C 
HETATM   10  C27 UNL     1      -2.108  10.867  18.469  1.00  0.00     0.038 C 
HETATM   11  C28 UNL     1      -3.236   9.981  17.964  1.00  0.00     0.042 C 
HETATM   12  C29 UNL     1      -3.509  10.157  16.471  1.00  0.00     0.065 C 
HETATM   13  C30 UNL     1      -4.105  11.551  16.217  1.00  0.00     0.047 C 
ENDROOT
BRANCH   5  14
HETATM   14  O1  UNL     1      -1.295   7.786  16.795  1.00  0.00    -0.394 OA
HETATM   15  H26 UNL     1      -1.215   6.820  16.711  1.00  0.00     0.210 HD
ENDBRANCH   5  14
BRANCH   6  16
HETATM   16  C20 UNL     1      -0.379  11.789  15.369  1.00  0.00     0.012 C 
BRANCH  16  17
HETATM   17  C21 UNL     1      -1.199  13.066  15.217  1.00  0.00     0.027 C 
BRANCH  17  18
HETATM   18  C22 UNL     1      -0.543  14.144  14.366  1.00  0.00     0.164 C 
BRANCH  18  19
HETATM   19  O2  UNL     1      -1.187  14.202  13.098  1.00  0.00    -0.401 OA
HETATM   20  H34 UNL     1      -2.112  14.462  13.248  1.00  0.00     0.209 HD
ENDBRANCH  18  19
ENDBRANCH  17  18
ENDBRANCH  16  17
ENDBRANCH   6  16
BRANCH  12  21
HETATM   21  O4  UNL     1      -4.572   9.236  16.155  1.00  0.00    -0.389 OA
HETATM   22  H46 UNL     1      -5.032   9.541  15.354  1.00  0.00     0.210 HD
ENDBRANCH  12  21
BRANCH   1  23
HETATM   23  C2  UNL     1      -1.172   6.554  13.758  1.00  0.00    -0.061 C 
HETATM   24  C1  UNL     1      -0.118   5.718  13.708  1.00  0.00     0.019 C 
BRANCH  23  25
HETATM   25  C3  UNL     1      -2.429   6.084  13.166  1.00  0.00     0.007 C 
HETATM   26  C4  UNL     1      -3.125   4.983  13.495  1.00  0.00     0.001 C 
BRANCH  26  27
HETATM   27  C5  UNL     1      -4.366   4.617  12.840  1.00  0.00     0.002 C 
HETATM   28  C6  UNL     1      -4.626   3.475  12.175  1.00  0.00    -0.084 C 
HETATM   29  C7  UNL     1      -3.648   2.353  11.936  1.00  0.00     0.043 C 
BRANCH  28  30
HETATM   30  C8  UNL     1      -5.999   3.257  11.558  1.00  0.00     0.037 C 
BRANCH  30  31
HETATM   31  C9  UNL     1      -7.045   2.806  12.585  1.00  0.00     0.031 C 
BRANCH  31  32
HETATM   32  C10 UNL     1      -7.310   3.878  13.609  1.00  0.00    -0.024 C 
HETATM   33  C11 UNL     1      -7.959   5.046  13.428  1.00  0.00    -0.091 C 
HETATM   34  C12 UNL     1      -8.181   5.989  14.580  1.00  0.00     0.042 C 
HETATM   35  C13 UNL     1      -8.509   5.533  12.116  1.00  0.00     0.042 C 
ENDBRANCH  31  32
ENDBRANCH  30  31
ENDBRANCH  28  30
ENDBRANCH  26  27
ENDBRANCH  23  25
ENDBRANCH   1  23
BRANCH   8  36
HETATM   36  C26 UNL     1       1.704  10.451  17.732  1.00  0.00     0.265 C 
HETATM   37  O3  UNL     1       2.476   9.580  18.120  1.00  0.00    -0.302 OA
ENDBRANCH   8  36
TORSDOF 13
ENDMDL
MODEL 4
REMARK minimizedAffinity -7.94078732
REMARK  13 active torsions:
REMARK  status: ('A' for Active; 'I' for Inactive)
REMARK    1  A    between atoms: C2_2  and  C3_3 
REMARK    2  A    between atoms: C2_2  and  C14_14 
REMARK    3  A    between atoms: C4_4  and  C5_5 
REMARK    4  A    between atoms: C6_6  and  C8_8 
REMARK    5  A    between atoms: C8_8  and  C9_9 
REMARK    6  A    between atoms: C9_9  and  C10_10 
REMARK    7  A    between atoms: C18_18  and  O1_19 
REMARK    8  A    between atoms: C19_20  and  C20_21 
REMARK    9  A    between atoms: C20_21  and  C21_22 
REMARK   10  A    between atoms: C21_22  and  C22_23 
REMARK   11  A    between atoms: C22_23  and  O2_24 
REMARK   12  A    between atoms: C24_26  and  C26_28 
REMARK   13  A    between atoms: C29_32  and  O4_34 
ROOT
HETATM    1  C14 UNL     1      -0.019   7.179  11.928  1.00  0.00     0.047 C 
HETATM    2  C15 UNL     1      -0.238   5.828  11.230  1.00  0.00     0.013 C 
HETATM    3  C16 UNL     1       0.229   5.996   9.785  1.00  0.00     0.017 C 
HETATM    4  C17 UNL     1       1.213   7.195   9.750  1.00  0.00     0.024 C 
HETATM    5  C18 UNL     1       0.463   8.122  10.792  1.00  0.00     0.138 C 
HETATM    6  C19 UNL     1       2.680   6.859  10.290  1.00  0.00     0.029 C 
HETATM    7  C23 UNL     1       3.791   7.879   9.949  1.00  0.00    -0.066 C 
HETATM    8  C24 UNL     1       4.851   8.153  10.761  1.00  0.00    -0.021 C 
HETATM    9  C25 UNL     1       6.004   9.065  10.408  1.00  0.00     0.052 C 
HETATM   10  C27 UNL     1       3.630   8.641   8.642  1.00  0.00     0.038 C 
HETATM   11  C28 UNL     1       2.203   9.051   8.313  1.00  0.00     0.042 C 
HETATM   12  C29 UNL     1       1.227   7.874   8.331  1.00  0.00     0.065 C 
HETATM   13  C30 UNL     1       1.533   6.934   7.154  1.00  0.00     0.047 C 
ENDROOT
BRANCH   5  14
HETATM   14  O1  UNL     1       1.293   9.145  11.332  1.00  0.00    -0.394 OA
HETATM   15  H26 UNL     1       0.738   9.670  11.935  1.00  0.00     0.210 HD
ENDBRANCH   5  14
BRANCH   6  16
HETATM   16  C20 UNL     1       3.166   5.375  10.246  1.00  0.00     0.012 C 
BRANCH  16  17
HETATM   17  C21 UNL     1       3.756   4.764   8.980  1.00  0.00     0.027 C 
BRANCH  17  18
HETATM   18  C22 UNL     1       4.442   3.420   9.183  1.00  0.00     0.164 C 
BRANCH  18  19
HETATM   19  O2  UNL     1       5.244   3.122   8.046  1.00  0.00    -0.401 OA
HETATM   20  H34 UNL     1       5.934   3.803   7.984  1.00  0.00     0.209 HD
ENDBRANCH  18  19
ENDBRANCH  17  18
ENDBRANCH  16  17
ENDBRANCH   6  16
BRANCH  12  21
HETATM   21  O4  UNL     1      -0.067   8.434   8.032  1.00  0.00    -0.389 OA
HETATM   22  H46 UNL     1      -0.643   7.737   7.673  1.00  0.00     0.210 HD
ENDBRANCH  12  21
BRANCH   1  23
HETATM   23  C2  UNL     1      -1.221   7.608  12.773  1.00  0.00    -0.061 C 
HETATM   24  C1  UNL     1      -1.198   8.640  13.637  1.00  0.00     0.019 C 
BRANCH  23  25
HETATM   25  C3  UNL     1      -2.474   6.851  12.667  1.00  0.00     0.007 C 
HETATM   26  C4  UNL     1      -2.692   5.578  13.036  1.00  0.00     0.001 C 
BRANCH  26  27
HETATM   27  C5  UNL     1      -3.981   4.931  12.886  1.00  0.00     0.002 C 
HETATM   28  C6  UNL     1      -4.315   3.990  11.982  1.00  0.00    -0.084 C 
HETATM   29  C7  UNL     1      -3.414   3.448  10.901  1.00  0.00     0.043 C 
BRANCH  28  30
HETATM   30  C8  UNL     1      -5.722   3.410  11.980  1.00  0.00     0.037 C 
BRANCH  30  31
HETATM   31  C9  UNL     1      -6.479   3.689  13.285  1.00  0.00     0.031 C 
BRANCH  31  32
HETATM   32  C10 UNL     1      -7.755   4.446  13.031  1.00  0.00    -0.024 C 
HETATM   33  C11 UNL     1      -8.034   5.723  13.363  1.00  0.00    -0.091 C 
HETATM   34  C12 UNL     1      -9.353   6.344  12.987  1.00  0.00     0.042 C 
HETATM   35  C13 UNL     1      -7.112   6.639  14.119  1.00  0.00     0.042 C 
ENDBRANCH  31  32
ENDBRANCH  30  31
ENDBRANCH  28  30
ENDBRANCH  26  27
ENDBRANCH  23  25
ENDBRANCH   1  23
BRANCH   8  36
HETATM   36  C26 UNL     1       5.010   7.558  12.131  1.00  0.00     0.265 C 
HETATM   37  O3  UNL     1       5.496   8.172  13.075  1.00  0.00    -0.302 OA
ENDBRANCH   8  36
TORSDOF 13
ENDMDL
MODEL 5
REMARK minimizedAffinity -7.93331432
REMARK  13 active torsions:
REMARK  status: ('A' for Active; 'I' for Inactive)
REMARK    1  A    between atoms: C2_2  and  C3_3 
REMARK    2  A    between atoms: C2_2  and  C14_14 
REMARK    3  A    between atoms: C4_4  and  C5_5 
REMARK    4  A    between atoms: C6_6  and  C8_8 
REMARK    5  A    between atoms: C8_8  and  C9_9 
REMARK    6  A    between atoms: C9_9  and  C10_10 
REMARK    7  A    between atoms: C18_18  and  O1_19 
REMARK    8  A    between atoms: C19_20  and  C20_21 
REMARK    9  A    between atoms: C20_21  and  C21_22 
REMARK   10  A    between atoms: C21_22  and  C22_23 
REMARK   11  A    between atoms: C22_23  and  O2_24 
REMARK   12  A    between atoms: C24_26  and  C26_28 
REMARK   13  A    between atoms: C29_32  and  O4_34 
ROOT
HETATM    1  C14 UNL     1       3.654   6.788  11.109  1.00  0.00     0.047 C 
HETATM    2  C15 UNL     1       5.072   6.196  11.113  1.00  0.00     0.013 C 
HETATM    3  C16 UNL     1       6.039   7.369  11.262  1.00  0.00     0.017 C 
HETATM    4  C17 UNL     1       5.251   8.546  11.895  1.00  0.00     0.024 C 
HETATM    5  C18 UNL     1       3.881   8.324  11.134  1.00  0.00     0.138 C 
HETATM    6  C19 UNL     1       5.017   8.410  13.471  1.00  0.00     0.029 C 
HETATM    7  C23 UNL     1       4.574   9.690  14.217  1.00  0.00    -0.066 C 
HETATM    8  C24 UNL     1       3.748   9.695  15.301  1.00  0.00    -0.021 C 
HETATM    9  C25 UNL     1       3.383  10.918  16.110  1.00  0.00     0.052 C 
HETATM   10  C27 UNL     1       5.069  11.010  13.643  1.00  0.00     0.038 C 
HETATM   11  C28 UNL     1       5.093  11.078  12.124  1.00  0.00     0.042 C 
HETATM   12  C29 UNL     1       5.880   9.930  11.491  1.00  0.00     0.065 C 
HETATM   13  C30 UNL     1       7.375  10.093  11.808  1.00  0.00     0.047 C 
ENDROOT
BRANCH   5  14
HETATM   14  O1  UNL     1       2.778   8.966  11.766  1.00  0.00    -0.394 OA
HETATM   15  H26 UNL     1       1.996   8.792  11.212  1.00  0.00     0.210 HD
ENDBRANCH   5  14
BRANCH   6  16
HETATM   16  C20 UNL     1       6.006   7.524  14.296  1.00  0.00     0.012 C 
BRANCH  16  17
HETATM   17  C21 UNL     1       7.456   7.941  14.521  1.00  0.00     0.027 C 
BRANCH  17  18
HETATM   18  C22 UNL     1       7.703   8.703  15.815  1.00  0.00     0.164 C 
BRANCH  18  19
HETATM   19  O2  UNL     1       7.236   7.931  16.915  1.00  0.00    -0.401 OA
HETATM   20  H34 UNL     1       7.761   7.113  16.946  1.00  0.00     0.209 HD
ENDBRANCH  18  19
ENDBRANCH  17  18
ENDBRANCH  16  17
ENDBRANCH   6  16
BRANCH  12  21
HETATM   21  O4  UNL     1       5.780  10.127  10.066  1.00  0.00    -0.389 OA
HETATM   22  H46 UNL     1       6.525   9.681   9.628  1.00  0.00     0.210 HD
ENDBRANCH  12  21
BRANCH   1  23
HETATM   23  C2  UNL     1       2.771   6.197  10.006  1.00  0.00    -0.061 C 
HETATM   24  C1  UNL     1       2.987   6.391   8.691  1.00  0.00     0.019 C 
BRANCH  23  25
HETATM   25  C3  UNL     1       1.606   5.389  10.381  1.00  0.00     0.007 C 
HETATM   26  C4  UNL     1       0.445   5.822  10.901  1.00  0.00     0.001 C 
BRANCH  26  27
HETATM   27  C5  UNL     1      -0.645   4.926  11.232  1.00  0.00     0.002 C 
HETATM   28  C6  UNL     1      -1.675   5.174  12.064  1.00  0.00    -0.084 C 
HETATM   29  C7  UNL     1      -1.876   6.437  12.864  1.00  0.00     0.043 C 
BRANCH  28  30
HETATM   30  C8  UNL     1      -2.742   4.113  12.283  1.00  0.00     0.037 C 
BRANCH  30  31
HETATM   31  C9  UNL     1      -4.143   4.710  12.466  1.00  0.00     0.031 C 
BRANCH  31  32
HETATM   32  C10 UNL     1      -5.195   3.635  12.546  1.00  0.00    -0.024 C 
HETATM   33  C11 UNL     1      -6.496   3.779  12.866  1.00  0.00    -0.091 C 
HETATM   34  C12 UNL     1      -7.427   2.596  12.849  1.00  0.00     0.042 C 
HETATM   35  C13 UNL     1      -7.147   5.073  13.267  1.00  0.00     0.042 C 
ENDBRANCH  31  32
ENDBRANCH  30  31
ENDBRANCH  28  30
ENDBRANCH  26  27
ENDBRANCH  23  25
ENDBRANCH   1  23
BRANCH   8  36
HETATM   36  C26 UNL     1       3.097   8.454  15.841  1.00  0.00     0.265 C 
HETATM   37  O3  UNL     1       2.498   8.424  16.911  1.00  0.00    -0.302 OA
ENDBRANCH   8  36
TORSDOF 13
ENDMDL
MODEL 6
REMARK minimizedAffinity -7.79942274
REMARK  13 active torsions:
REMARK  status: ('A' for Active; 'I' for Inactive)
REMARK    1  A    between atoms: C2_2  and  C3_3 
REMARK    2  A    between atoms: C2_2  and  C14_14 
REMARK    3  A    between atoms: C4_4  and  C5_5 
REMARK    4  A    between atoms: C6_6  and  C8_8 
REMARK    5  A    between atoms: C8_8  and  C9_9 
REMARK    6  A    between atoms: C9_9  and  C10_10 
REMARK    7  A    between atoms: C18_18  and  O1_19 
REMARK    8  A    between atoms: C19_20  and  C20_21 
REMARK    9  A    between atoms: C20_21  and  C21_22 
REMARK   10  A    between atoms: C21_22  and  C22_23 
REMARK   11  A    between atoms: C22_23  and  O2_24 
REMARK   12  A    between atoms: C24_26  and  C26_28 
REMARK   13  A    between atoms: C29_32  and  O4_34 
ROOT
HETATM    1  C14 UNL     1      -0.481   5.216  11.867  1.00  0.00     0.047 C 
HETATM    2  C15 UNL     1      -1.282   6.323  11.165  1.00  0.00     0.013 C 
HETATM    3  C16 UNL     1      -1.086   7.598  11.983  1.00  0.00     0.017 C 
HETATM    4  C17 UNL     1       0.219   7.428  12.805  1.00  0.00     0.024 C 
HETATM    5  C18 UNL     1       0.055   5.893  13.158  1.00  0.00     0.138 C 
HETATM    6  C19 UNL     1       1.560   7.644  11.963  1.00  0.00     0.029 C 
HETATM    7  C23 UNL     1       2.860   7.851  12.775  1.00  0.00    -0.066 C 
HETATM    8  C24 UNL     1       4.090   7.426  12.370  1.00  0.00    -0.021 C 
HETATM    9  C25 UNL     1       5.388   7.706  13.092  1.00  0.00     0.052 C 
HETATM   10  C27 UNL     1       2.707   8.527  14.130  1.00  0.00     0.038 C 
HETATM   11  C28 UNL     1       1.470   8.118  14.913  1.00  0.00     0.042 C 
HETATM   12  C29 UNL     1       0.177   8.295  14.117  1.00  0.00     0.065 C 
HETATM   13  C30 UNL     1      -0.098   9.792  13.909  1.00  0.00     0.047 C 
ENDROOT
BRANCH   5  14
HETATM   14  O1  UNL     1       1.273   5.276  13.558  1.00  0.00    -0.394 OA
HETATM   15  H26 UNL     1       1.063   4.351  13.776  1.00  0.00     0.210 HD
ENDBRANCH   5  14
BRANCH   6  16
HETATM   16  C20 UNL     1       1.494   8.517  10.669  1.00  0.00     0.012 C 
BRANCH  16  17
HETATM   17  C21 UNL     1       1.613   7.899   9.280  1.00  0.00     0.027 C 
BRANCH  17  18
HETATM   18  C22 UNL     1       0.416   8.143   8.372  1.00  0.00     0.164 C 
BRANCH  18  19
HETATM   19  O2  UNL     1      -0.313   9.270   8.844  1.00  0.00    -0.401 OA
HETATM   20  H34 UNL     1       0.270  10.046   8.783  1.00  0.00     0.209 HD
ENDBRANCH  18  19
ENDBRANCH  17  18
ENDBRANCH  16  17
ENDBRANCH   6  16
BRANCH  12  21
HETATM   21  O4  UNL     1      -0.882   7.840  14.983  1.00  0.00    -0.389 OA
HETATM   22  H46 UNL     1      -1.720   8.250  14.708  1.00  0.00     0.210 HD
ENDBRANCH  12  21
BRANCH   1  23
HETATM   23  C2  UNL     1      -1.269   3.910  12.000  1.00  0.00    -0.061 C 
HETATM   24  C1  UNL     1      -0.806   2.712  11.598  1.00  0.00     0.019 C 
BRANCH  23  25
HETATM   25  C3  UNL     1      -2.619   3.948  12.576  1.00  0.00     0.007 C 
HETATM   26  C4  UNL     1      -3.767   3.571  11.989  1.00  0.00     0.001 C 
BRANCH  26  27
HETATM   27  C5  UNL     1      -5.050   3.650  12.660  1.00  0.00     0.002 C 
HETATM   28  C6  UNL     1      -6.134   2.884  12.430  1.00  0.00    -0.084 C 
HETATM   29  C7  UNL     1      -6.244   1.806  11.381  1.00  0.00     0.043 C 
BRANCH  28  30
HETATM   30  C8  UNL     1      -7.400   3.102  13.246  1.00  0.00     0.037 C 
BRANCH  30  31
HETATM   31  C9  UNL     1      -8.210   4.313  12.768  1.00  0.00     0.031 C 
BRANCH  31  32
HETATM   32  C10 UNL     1      -7.488   5.605  13.048  1.00  0.00    -0.024 C 
HETATM   33  C11 UNL     1      -7.273   6.185  14.245  1.00  0.00    -0.091 C 
HETATM   34  C12 UNL     1      -6.482   7.462  14.350  1.00  0.00     0.042 C 
HETATM   35  C13 UNL     1      -7.778   5.660  15.561  1.00  0.00     0.042 C 
ENDBRANCH  31  32
ENDBRANCH  30  31
ENDBRANCH  28  30
ENDBRANCH  26  27
ENDBRANCH  23  25
ENDBRANCH   1  23
BRANCH   8  36
HETATM   36  C26 UNL     1       4.309   6.623  11.120  1.00  0.00     0.265 C 
HETATM   37  O3  UNL     1       5.221   6.848  10.331  1.00  0.00    -0.302 OA
ENDBRANCH   8  36
TORSDOF 13
ENDMDL
MODEL 7
REMARK minimizedAffinity -7.60384369
REMARK  13 active torsions:
REMARK  status: ('A' for Active; 'I' for Inactive)
REMARK    1  A    between atoms: C2_2  and  C3_3 
REMARK    2  A    between atoms: C2_2  and  C14_14 
REMARK    3  A    between atoms: C4_4  and  C5_5 
REMARK    4  A    between atoms: C6_6  and  C8_8 
REMARK    5  A    between atoms: C8_8  and  C9_9 
REMARK    6  A    between atoms: C9_9  and  C10_10 
REMARK    7  A    between atoms: C18_18  and  O1_19 
REMARK    8  A    between atoms: C19_20  and  C20_21 
REMARK    9  A    between atoms: C20_21  and  C21_22 
REMARK   10  A    between atoms: C21_22  and  C22_23 
REMARK   11  A    between atoms: C22_23  and  O2_24 
REMARK   12  A    between atoms: C24_26  and  C26_28 
REMARK   13  A    between atoms: C29_32  and  O4_34 
ROOT
HETATM    1  C14 UNL     1      -2.062   8.493  14.037  1.00  0.00     0.047 C 
HETATM    2  C15 UNL     1      -2.529   7.167  13.416  1.00  0.00     0.013 C 
HETATM    3  C16 UNL     1      -1.632   6.904  12.208  1.00  0.00     0.017 C 
HETATM    4  C17 UNL     1      -0.324   7.713  12.415  1.00  0.00     0.024 C 
HETATM    5  C18 UNL     1      -0.968   9.006  13.062  1.00  0.00     0.138 C 
HETATM    6  C19 UNL     1       0.703   7.052  13.447  1.00  0.00     0.029 C 
HETATM    7  C23 UNL     1       2.151   7.595  13.424  1.00  0.00    -0.066 C 
HETATM    8  C24 UNL     1       2.951   7.681  14.524  1.00  0.00    -0.021 C 
HETATM    9  C25 UNL     1       4.401   8.109  14.513  1.00  0.00     0.052 C 
HETATM   10  C27 UNL     1       2.659   8.105  12.083  1.00  0.00     0.038 C 
HETATM   11  C28 UNL     1       1.632   8.863  11.257  1.00  0.00     0.042 C 
HETATM   12  C29 UNL     1       0.344   8.069  11.035  1.00  0.00     0.065 C 
HETATM   13  C30 UNL     1       0.629   6.874  10.112  1.00  0.00     0.047 C 
ENDROOT
BRANCH   5  14
HETATM   14  O1  UNL     1      -0.027   9.808  13.768  1.00  0.00    -0.394 OA
HETATM   15  H26 UNL     1      -0.512  10.583  14.102  1.00  0.00     0.210 HD
ENDBRANCH   5  14
BRANCH   6  16
HETATM   16  C20 UNL     1       0.624   5.510  13.690  1.00  0.00     0.012 C 
BRANCH  16  17
HETATM   17  C21 UNL     1      -0.222   4.603  12.803  1.00  0.00     0.027 C 
BRANCH  17  18
HETATM   18  C22 UNL     1       0.555   3.877  11.714  1.00  0.00     0.164 C 
BRANCH  18  19
HETATM   19  O2  UNL     1      -0.032   2.601  11.486  1.00  0.00    -0.401 OA
HETATM   20  H34 UNL     1      -0.937   2.745  11.162  1.00  0.00     0.209 HD
ENDBRANCH  18  19
ENDBRANCH  17  18
ENDBRANCH  16  17
ENDBRANCH   6  16
BRANCH  12  21
HETATM   21  O4  UNL     1      -0.521   8.932  10.270  1.00  0.00    -0.389 OA
HETATM   22  H46 UNL     1      -1.173   8.390   9.794  1.00  0.00     0.210 HD
ENDBRANCH  12  21
BRANCH   1  23
HETATM   23  C2  UNL     1      -3.226   9.424  14.385  1.00  0.00    -0.061 C 
HETATM   24  C1  UNL     1      -3.070  10.650  14.919  1.00  0.00     0.019 C 
BRANCH  23  25
HETATM   25  C3  UNL     1      -4.600   8.965  14.152  1.00  0.00     0.007 C 
HETATM   26  C4  UNL     1      -5.524   8.653  15.076  1.00  0.00     0.001 C 
BRANCH  26  27
HETATM   27  C5  UNL     1      -6.860   8.211  14.727  1.00  0.00     0.002 C 
HETATM   28  C6  UNL     1      -7.557   7.207  15.295  1.00  0.00    -0.084 C 
HETATM   29  C7  UNL     1      -7.059   6.301  16.393  1.00  0.00     0.043 C 
BRANCH  28  30
HETATM   30  C8  UNL     1      -8.961   6.891  14.804  1.00  0.00     0.037 C 
BRANCH  30  31
HETATM   31  C9  UNL     1      -8.965   6.112  13.482  1.00  0.00     0.031 C 
BRANCH  31  32
HETATM   32  C10 UNL     1      -7.569   5.744  13.055  1.00  0.00    -0.024 C 
HETATM   33  C11 UNL     1      -6.992   4.526  13.090  1.00  0.00    -0.091 C 
HETATM   34  C12 UNL     1      -5.592   4.324  12.574  1.00  0.00     0.042 C 
HETATM   35  C13 UNL     1      -7.640   3.280  13.628  1.00  0.00     0.042 C 
ENDBRANCH  31  32
ENDBRANCH  30  31
ENDBRANCH  28  30
ENDBRANCH  26  27
ENDBRANCH  23  25
ENDBRANCH   1  23
BRANCH   8  36
HETATM   36  C26 UNL     1       2.482   7.339  15.909  1.00  0.00     0.265 C 
HETATM   37  O3  UNL     1       1.926   8.147  16.646  1.00  0.00    -0.302 OA
ENDBRANCH   8  36
TORSDOF 13
ENDMDL
MODEL 8
REMARK minimizedAffinity -7.51714039
REMARK  13 active torsions:
REMARK  status: ('A' for Active; 'I' for Inactive)
REMARK    1  A    between atoms: C2_2  and  C3_3 
REMARK    2  A    between atoms: C2_2  and  C14_14 
REMARK    3  A    between atoms: C4_4  and  C5_5 
REMARK    4  A    between atoms: C6_6  and  C8_8 
REMARK    5  A    between atoms: C8_8  and  C9_9 
REMARK    6  A    between atoms: C9_9  and  C10_10 
REMARK    7  A    between atoms: C18_18  and  O1_19 
REMARK    8  A    between atoms: C19_20  and  C20_21 
REMARK    9  A    between atoms: C20_21  and  C21_22 
REMARK   10  A    between atoms: C21_22  and  C22_23 
REMARK   11  A    between atoms: C22_23  and  O2_24 
REMARK   12  A    between atoms: C24_26  and  C26_28 
REMARK   13  A    between atoms: C29_32  and  O4_34 
ROOT
HETATM    1  C14 UNL     1      -0.555   5.837  11.913  1.00  0.00     0.047 C 
HETATM    2  C15 UNL     1      -1.125   7.190  11.464  1.00  0.00     0.013 C 
HETATM    3  C16 UNL     1      -0.276   8.271  12.131  1.00  0.00     0.017 C 
HETATM    4  C17 UNL     1       1.088   7.630  12.500  1.00  0.00     0.024 C 
HETATM    5  C18 UNL     1       0.548   6.209  12.941  1.00  0.00     0.138 C 
HETATM    6  C19 UNL     1       2.092   7.463  11.267  1.00  0.00     0.029 C 
HETATM    7  C23 UNL     1       3.572   7.180  11.614  1.00  0.00    -0.066 C 
HETATM    8  C24 UNL     1       4.402   6.413  10.853  1.00  0.00    -0.021 C 
HETATM    9  C25 UNL     1       5.876   6.206  11.113  1.00  0.00     0.052 C 
HETATM   10  C27 UNL     1       4.081   7.769  12.922  1.00  0.00     0.038 C 
HETATM   11  C28 UNL     1       3.089   7.724  14.073  1.00  0.00     0.042 C 
HETATM   12  C29 UNL     1       1.746   8.366  13.725  1.00  0.00     0.065 C 
HETATM   13  C30 UNL     1       1.927   9.883  13.562  1.00  0.00     0.047 C 
ENDROOT
BRANCH   5  14
HETATM   14  O1  UNL     1       1.556   5.205  12.954  1.00  0.00    -0.394 OA
HETATM   15  H26 UNL     1       1.133   4.383  13.260  1.00  0.00     0.210 HD
ENDBRANCH   5  14
BRANCH   6  16
HETATM   16  C20 UNL     1       1.915   8.403  10.031  1.00  0.00     0.012 C 
BRANCH  16  17
HETATM   17  C21 UNL     1       1.216   7.931   8.761  1.00  0.00     0.027 C 
BRANCH  17  18
HETATM   18  C22 UNL     1       2.098   7.915   7.520  1.00  0.00     0.164 C 
BRANCH  18  19
HETATM   19  O2  UNL     1       3.086   8.932   7.630  1.00  0.00    -0.401 OA
HETATM   20  H34 UNL     1       3.645   8.721   8.396  1.00  0.00     0.209 HD
ENDBRANCH  18  19
ENDBRANCH  17  18
ENDBRANCH  16  17
ENDBRANCH   6  16
BRANCH  12  21
HETATM   21  O4  UNL     1       0.923   8.215  14.899  1.00  0.00    -0.389 OA
HETATM   22  H46 UNL     1       0.225   8.892  14.891  1.00  0.00     0.210 HD
ENDBRANCH  12  21
BRANCH   1  23
HETATM   23  C2  UNL     1      -1.646   4.848  12.337  1.00  0.00    -0.061 C 
HETATM   24  C1  UNL     1      -1.679   3.560  11.951  1.00  0.00     0.019 C 
BRANCH  23  25
HETATM   25  C3  UNL     1      -2.739   5.319  13.196  1.00  0.00     0.007 C 
HETATM   26  C4  UNL     1      -4.047   5.375  12.894  1.00  0.00     0.001 C 
BRANCH  26  27
HETATM   27  C5  UNL     1      -5.044   5.858  13.830  1.00  0.00     0.002 C 
HETATM   28  C6  UNL     1      -5.483   7.125  13.966  1.00  0.00    -0.084 C 
HETATM   29  C7  UNL     1      -4.982   8.317  13.191  1.00  0.00     0.043 C 
BRANCH  28  30
HETATM   30  C8  UNL     1      -6.551   7.447  15.000  1.00  0.00     0.037 C 
BRANCH  30  31
HETATM   31  C9  UNL     1      -7.957   7.032  14.548  1.00  0.00     0.031 C 
BRANCH  31  32
HETATM   32  C10 UNL     1      -8.021   5.562  14.226  1.00  0.00    -0.024 C 
HETATM   33  C11 UNL     1      -8.314   4.992  13.041  1.00  0.00    -0.091 C 
HETATM   34  C12 UNL     1      -8.285   3.495  12.881  1.00  0.00     0.042 C 
HETATM   35  C13 UNL     1      -8.694   5.740  11.793  1.00  0.00     0.042 C 
ENDBRANCH  31  32
ENDBRANCH  30  31
ENDBRANCH  28  30
ENDBRANCH  26  27
ENDBRANCH  23  25
ENDBRANCH   1  23
BRANCH   8  36
HETATM   36  C26 UNL     1       3.942   5.675   9.628  1.00  0.00     0.265 C 
HETATM   37  O3  UNL     1       3.269   4.651   9.677  1.00  0.00    -0.302 OA
ENDBRANCH   8  36
TORSDOF 13
ENDMDL
MODEL 9
REMARK minimizedAffinity -7.45673084
REMARK  13 active torsions:
REMARK  status: ('A' for Active; 'I' for Inactive)
REMARK    1  A    between atoms: C2_2  and  C3_3 
REMARK    2  A    between atoms: C2_2  and  C14_14 
REMARK    3  A    between atoms: C4_4  and  C5_5 
REMARK    4  A    between atoms: C6_6  and  C8_8 
REMARK    5  A    between atoms: C8_8  and  C9_9 
REMARK    6  A    between atoms: C9_9  and  C10_10 
REMARK    7  A    between atoms: C18_18  and  O1_19 
REMARK    8  A    between atoms: C19_20  and  C20_21 
REMARK    9  A    between atoms: C20_21  and  C21_22 
REMARK   10  A    between atoms: C21_22  and  C22_23 
REMARK   11  A    between atoms: C22_23  and  O2_24 
REMARK   12  A    between atoms: C24_26  and  C26_28 
REMARK   13  A    between atoms: C29_32  and  O4_34 
ROOT
HETATM    1  C14 UNL     1      -0.805   4.396  12.162  1.00  0.00     0.047 C 
HETATM    2  C15 UNL     1       0.644   4.087  11.756  1.00  0.00     0.013 C 
HETATM    3  C16 UNL     1       1.218   5.370  11.158  1.00  0.00     0.017 C 
HETATM    4  C17 UNL     1       0.371   6.554  11.695  1.00  0.00     0.024 C 
HETATM    5  C18 UNL     1      -1.043   5.844  11.655  1.00  0.00     0.138 C 
HETATM    6  C19 UNL     1       0.714   6.982  13.196  1.00  0.00     0.029 C 
HETATM    7  C23 UNL     1       0.182   8.359  13.660  1.00  0.00    -0.066 C 
HETATM    8  C24 UNL     1      -0.209   8.636  14.936  1.00  0.00    -0.021 C 
HETATM    9  C25 UNL     1      -0.632   9.996  15.439  1.00  0.00     0.052 C 
HETATM   10  C27 UNL     1       0.054   9.429  12.586  1.00  0.00     0.038 C 
HETATM   11  C28 UNL     1      -0.439   8.925  11.238  1.00  0.00     0.042 C 
HETATM   12  C29 UNL     1       0.399   7.768  10.694  1.00  0.00     0.065 C 
HETATM   13  C30 UNL     1       1.798   8.278  10.315  1.00  0.00     0.047 C 
ENDROOT
BRANCH   5  14
HETATM   14  O1  UNL     1      -2.017   6.488  12.469  1.00  0.00    -0.394 OA
HETATM   15  H26 UNL     1      -2.850   5.996  12.357  1.00  0.00     0.210 HD
ENDBRANCH   5  14
BRANCH   6  16
HETATM   16  C20 UNL     1       2.130   6.643  13.761  1.00  0.00     0.012 C 
BRANCH  16  17
HETATM   17  C21 UNL     1       3.216   7.707  13.890  1.00  0.00     0.027 C 
BRANCH  17  18
HETATM   18  C22 UNL     1       3.864   7.788  15.265  1.00  0.00     0.164 C 
BRANCH  18  19
HETATM   19  O2  UNL     1       3.442   6.681  16.053  1.00  0.00    -0.401 OA
HETATM   20  H34 UNL     1       3.761   5.871  15.619  1.00  0.00     0.209 HD
ENDBRANCH  18  19
ENDBRANCH  17  18
ENDBRANCH  16  17
ENDBRANCH   6  16
BRANCH  12  21
HETATM   21  O4  UNL     1      -0.212   7.397   9.442  1.00  0.00    -0.389 OA
HETATM   22  H46 UNL     1       0.445   6.946   8.885  1.00  0.00     0.210 HD
ENDBRANCH  12  21
BRANCH   1  23
HETATM   23  C2  UNL     1      -1.785   3.300  11.731  1.00  0.00    -0.061 C 
HETATM   24  C1  UNL     1      -1.478   2.325  10.855  1.00  0.00     0.019 C 
BRANCH  23  25
HETATM   25  C3  UNL     1      -3.147   3.308  12.276  1.00  0.00     0.007 C 
HETATM   26  C4  UNL     1      -4.091   4.248  12.100  1.00  0.00     0.001 C 
BRANCH  26  27
HETATM   27  C5  UNL     1      -5.412   4.147  12.688  1.00  0.00     0.002 C 
HETATM   28  C6  UNL     1      -6.324   3.179  12.472  1.00  0.00    -0.084 C 
HETATM   29  C7  UNL     1      -6.165   2.015  11.527  1.00  0.00     0.043 C 
BRANCH  28  30
HETATM   30  C8  UNL     1      -7.664   3.230  13.190  1.00  0.00     0.037 C 
BRANCH  30  31
HETATM   31  C9  UNL     1      -8.481   4.479  12.833  1.00  0.00     0.031 C 
BRANCH  31  32
HETATM   32  C10 UNL     1      -8.201   5.612  13.784  1.00  0.00    -0.024 C 
HETATM   33  C11 UNL     1      -9.024   6.625  14.121  1.00  0.00    -0.091 C 
HETATM   34  C12 UNL     1      -8.599   7.655  15.134  1.00  0.00     0.042 C 
HETATM   35  C13 UNL     1     -10.398   6.846  13.552  1.00  0.00     0.042 C 
ENDBRANCH  31  32
ENDBRANCH  30  31
ENDBRANCH  28  30
ENDBRANCH  26  27
ENDBRANCH  23  25
ENDBRANCH   1  23
BRANCH   8  36
HETATM   36  C26 UNL     1      -0.254   7.600  16.023  1.00  0.00     0.265 C 
HETATM   37  O3  UNL     1       0.727   7.283  16.687  1.00  0.00    -0.302 OA
ENDBRANCH   8  36
TORSDOF 13
ENDMDL
