MODEL 1
REMARK minimizedAffinity -8.97447968
REMARK  6 active torsions:
REMARK  status: ('A' for Active; 'I' for Inactive)
REMARK    1  A    between atoms: C2_2  and  C3_3 
REMARK    2  A    between atoms: C4_5  and  C5_6 
REMARK    3  A    between atoms: C5_6  and  C6_7 
REMARK    4  A    between atoms: C6_7  and  C7_8 
REMARK    5  A    between atoms: C7_8  and  C9_10 
REMARK    6  A    between atoms: C30_32  and  O3_33 
ROOT
HETATM    1  C9  UNL     1      -3.786   8.402  14.358  1.00  0.00    -0.002 C 
HETATM    2  C10 UNL     1      -3.483   7.673  15.696  1.00  0.00     0.007 C 
HETATM    3  C11 UNL     1      -1.985   7.316  15.700  1.00  0.00     0.015 C 
HETATM    4  C12 UNL     1      -1.371   8.119  14.538  1.00  0.00    -0.010 C 
HETATM    5  C13 UNL     1      -1.083   9.558  15.071  1.00  0.00     0.021 C 
HETATM    6  C14 UNL     1      -0.057   7.664  13.900  1.00  0.00    -0.039 C 
HETATM    7  C15 UNL     1       0.185   7.925  12.585  1.00  0.00    -0.066 C 
HETATM    8  C16 UNL     1      -0.847   8.632  11.703  1.00  0.00     0.036 C 
HETATM    9  C17 UNL     1      -2.212   8.972  12.331  1.00  0.00     0.015 C 
HETATM   10  C18 UNL     1      -2.550   8.024  13.487  1.00  0.00    -0.029 C 
HETATM   11  C19 UNL     1      -2.751   6.585  12.911  1.00  0.00     0.016 C 
HETATM   12  C20 UNL     1       1.450   7.369  11.892  1.00  0.00    -0.015 C 
HETATM   13  C21 UNL     1       1.112   5.892  11.519  1.00  0.00     0.020 C 
HETATM   14  C22 UNL     1       1.771   8.098  10.554  1.00  0.00     0.021 C 
HETATM   15  C23 UNL     1       3.185   7.841  10.066  1.00  0.00     0.080 C 
HETATM   16  C24 UNL     1       4.178   8.422  11.037  1.00  0.00     0.135 C 
HETATM   17  O2  UNL     1       5.267   8.832  10.628  1.00  0.00    -0.297 OA
HETATM   18  C25 UNL     1       3.792   8.470  12.524  1.00  0.00     0.018 C 
HETATM   19  C26 UNL     1       5.085   8.195  13.330  1.00  0.00     0.023 C 
HETATM   20  C27 UNL     1       3.322   9.902  12.845  1.00  0.00     0.023 C 
HETATM   21  C28 UNL     1       2.718   7.361  12.836  1.00  0.00     0.016 C 
HETATM   22  C29 UNL     1       2.382   7.317  14.343  1.00  0.00     0.043 C 
HETATM   23  C30 UNL     1       0.962   6.909  14.718  1.00  0.00     0.148 C 
ENDROOT
BRANCH   1  24
HETATM   24  C7  UNL     1      -5.222   8.096  13.842  1.00  0.00    -0.014 C 
HETATM   25  C8  UNL     1      -6.315   8.595  14.793  1.00  0.00     0.010 C 
BRANCH  24  26
HETATM   26  C6  UNL     1      -5.445   6.591  13.534  1.00  0.00     0.008 C 
BRANCH  26  27
HETATM   27  C5  UNL     1      -6.194   5.807  14.618  1.00  0.00     0.028 C 
BRANCH  27  28
HETATM   28  C4  UNL     1      -6.916   4.629  14.025  1.00  0.00    -0.017 C 
HETATM   29  C2  UNL     1      -6.430   3.735  13.143  1.00  0.00    -0.028 C 
HETATM   30  C1  UNL     1      -5.044   3.683  12.585  1.00  0.00     0.051 C 
BRANCH  29  31
HETATM   31  C3  UNL     1      -7.346   2.651  12.670  1.00  0.00     0.265 C 
HETATM   32  O1  UNL     1      -8.566   2.695  12.761  1.00  0.00    -0.302 OA
ENDBRANCH  29  31
ENDBRANCH  27  28
ENDBRANCH  26  27
ENDBRANCH  24  26
ENDBRANCH   1  24
BRANCH  23  33
HETATM   33  O3  UNL     1       0.819   7.187  16.106  1.00  0.00    -0.391 OA
HETATM   34  H46 UNL     1       1.446   6.619  16.582  1.00  0.00     0.210 HD
ENDBRANCH  23  33
TORSDOF 6
ENDMDL
MODEL 2
REMARK minimizedAffinity -8.7440176
REMARK  6 active torsions:
REMARK  status: ('A' for Active; 'I' for Inactive)
REMARK    1  A    between atoms: C2_2  and  C3_3 
REMARK    2  A    between atoms: C4_5  and  C5_6 
REMARK    3  A    between atoms: C5_6  and  C6_7 
REMARK    4  A    between atoms: C6_7  and  C7_8 
REMARK    5  A    between atoms: C7_8  and  C9_10 
REMARK    6  A    between atoms: C30_32  and  O3_33 
ROOT
HETATM    1  C9  UNL     1      -2.706   7.801  13.826  1.00  0.00    -0.002 C 
HETATM    2  C10 UNL     1      -2.385   7.124  15.187  1.00  0.00     0.007 C 
HETATM    3  C11 UNL     1      -0.853   7.029  15.306  1.00  0.00     0.015 C 
HETATM    4  C12 UNL     1      -0.299   7.935  14.191  1.00  0.00    -0.010 C 
HETATM    5  C13 UNL     1      -0.303   9.397  14.736  1.00  0.00     0.021 C 
HETATM    6  C14 UNL     1       1.118   7.716  13.656  1.00  0.00    -0.039 C 
HETATM    7  C15 UNL     1       1.411   8.025  12.363  1.00  0.00    -0.066 C 
HETATM    8  C16 UNL     1       0.343   8.551  11.401  1.00  0.00     0.036 C 
HETATM    9  C17 UNL     1      -1.104   8.648  11.922  1.00  0.00     0.015 C 
HETATM   10  C18 UNL     1      -1.361   7.647  13.053  1.00  0.00    -0.029 C 
HETATM   11  C19 UNL     1      -1.267   6.200  12.471  1.00  0.00     0.016 C 
HETATM   12  C20 UNL     1       2.801   7.700  11.771  1.00  0.00    -0.015 C 
HETATM   13  C21 UNL     1       2.751   6.189  11.381  1.00  0.00     0.020 C 
HETATM   14  C22 UNL     1       3.094   8.483  10.457  1.00  0.00     0.021 C 
HETATM   15  C23 UNL     1       4.564   8.476  10.080  1.00  0.00     0.080 C 
HETATM   16  C24 UNL     1       5.366   9.212  11.121  1.00  0.00     0.135 C 
HETATM   17  O2  UNL     1       6.396   9.805  10.794  1.00  0.00    -0.297 OA
HETATM   18  C25 UNL     1       4.865   9.181  12.574  1.00  0.00     0.018 C 
HETATM   19  C26 UNL     1       6.121   9.125  13.477  1.00  0.00     0.023 C 
HETATM   20  C27 UNL     1       4.133  10.508  12.850  1.00  0.00     0.023 C 
HETATM   21  C28 UNL     1       3.976   7.902  12.809  1.00  0.00     0.016 C 
HETATM   22  C29 UNL     1       3.540   7.789  14.287  1.00  0.00     0.043 C 
HETATM   23  C30 UNL     1       2.187   7.140  14.554  1.00  0.00     0.148 C 
ENDROOT
BRANCH   1  24
HETATM   24  C7  UNL     1      -4.025   7.257  13.203  1.00  0.00    -0.014 C 
HETATM   25  C8  UNL     1      -5.193   8.240  13.332  1.00  0.00     0.010 C 
BRANCH  24  26
HETATM   26  C6  UNL     1      -4.439   5.876  13.777  1.00  0.00     0.008 C 
BRANCH  26  27
HETATM   27  C5  UNL     1      -4.568   4.751  12.744  1.00  0.00     0.028 C 
BRANCH  27  28
HETATM   28  C4  UNL     1      -5.877   4.028  12.897  1.00  0.00    -0.017 C 
HETATM   29  C2  UNL     1      -6.249   2.880  12.301  1.00  0.00    -0.028 C 
HETATM   30  C1  UNL     1      -5.426   2.035  11.382  1.00  0.00     0.051 C 
BRANCH  29  31
HETATM   31  C3  UNL     1      -7.620   2.356  12.587  1.00  0.00     0.265 C 
HETATM   32  O1  UNL     1      -8.550   3.046  12.987  1.00  0.00    -0.302 OA
ENDBRANCH  29  31
ENDBRANCH  27  28
ENDBRANCH  26  27
ENDBRANCH  24  26
ENDBRANCH   1  24
BRANCH  23  33
HETATM   33  O3  UNL     1       1.893   7.379  15.926  1.00  0.00    -0.391 OA
HETATM   34  H46 UNL     1       2.570   6.924  16.451  1.00  0.00     0.210 HD
ENDBRANCH  23  33
TORSDOF 6
ENDMDL
MODEL 3
REMARK minimizedAffinity -8.64982891
REMARK  6 active torsions:
REMARK  status: ('A' for Active; 'I' for Inactive)
REMARK    1  A    between atoms: C2_2  and  C3_3 
REMARK    2  A    between atoms: C4_5  and  C5_6 
REMARK    3  A    between atoms: C5_6  and  C6_7 
REMARK    4  A    between atoms: C6_7  and  C7_8 
REMARK    5  A    between atoms: C7_8  and  C9_10 
REMARK    6  A    between atoms: C30_32  and  O3_33 
ROOT
HETATM    1  C9  UNL     1      -5.847   7.536  14.427  1.00  0.00    -0.002 C 
HETATM    2  C10 UNL     1      -5.396   8.757  15.275  1.00  0.00     0.007 C 
HETATM    3  C11 UNL     1      -3.888   8.959  15.031  1.00  0.00     0.015 C 
HETATM    4  C12 UNL     1      -3.552   8.082  13.810  1.00  0.00    -0.010 C 
HETATM    5  C13 UNL     1      -3.922   8.902  12.534  1.00  0.00     0.021 C 
HETATM    6  C14 UNL     1      -2.114   7.612  13.575  1.00  0.00    -0.039 C 
HETATM    7  C15 UNL     1      -1.882   6.427  12.946  1.00  0.00    -0.066 C 
HETATM    8  C16 UNL     1      -3.029   5.517  12.498  1.00  0.00     0.036 C 
HETATM    9  C17 UNL     1      -4.464   5.947  12.853  1.00  0.00     0.015 C 
HETATM   10  C18 UNL     1      -4.491   6.841  14.098  1.00  0.00    -0.029 C 
HETATM   11  C19 UNL     1      -4.037   5.995  15.330  1.00  0.00     0.016 C 
HETATM   12  C20 UNL     1      -0.445   5.878  12.806  1.00  0.00    -0.015 C 
HETATM   13  C21 UNL     1      -0.118   5.197  14.173  1.00  0.00     0.020 C 
HETATM   14  C22 UNL     1      -0.328   4.766  11.723  1.00  0.00     0.021 C 
HETATM   15  C23 UNL     1       1.106   4.494  11.306  1.00  0.00     0.080 C 
HETATM   16  C24 UNL     1       1.686   5.710  10.634  1.00  0.00     0.135 C 
HETATM   17  O2  UNL     1       2.547   5.576   9.761  1.00  0.00    -0.297 OA
HETATM   18  C25 UNL     1       1.182   7.092  11.081  1.00  0.00     0.018 C 
HETATM   19  C26 UNL     1       2.397   8.050  11.026  1.00  0.00     0.023 C 
HETATM   20  C27 UNL     1       0.144   7.573  10.048  1.00  0.00     0.023 C 
HETATM   21  C28 UNL     1       0.627   7.012  12.553  1.00  0.00     0.016 C 
HETATM   22  C29 UNL     1       0.204   8.406  13.067  1.00  0.00     0.043 C 
HETATM   23  C30 UNL     1      -0.954   8.449  14.056  1.00  0.00     0.148 C 
ENDROOT
BRANCH   1  24
HETATM   24  C7  UNL     1      -6.982   6.732  15.124  1.00  0.00    -0.014 C 
HETATM   25  C8  UNL     1      -6.473   5.871  16.285  1.00  0.00     0.010 C 
BRANCH  24  26
HETATM   26  C6  UNL     1      -7.793   5.851  14.136  1.00  0.00     0.008 C 
BRANCH  26  27
HETATM   27  C5  UNL     1      -7.501   4.347  14.212  1.00  0.00     0.028 C 
BRANCH  27  28
HETATM   28  C4  UNL     1      -6.562   3.927  13.116  1.00  0.00    -0.017 C 
HETATM   29  C2  UNL     1      -6.579   2.770  12.428  1.00  0.00    -0.028 C 
HETATM   30  C1  UNL     1      -7.565   1.654  12.567  1.00  0.00     0.051 C 
BRANCH  29  31
HETATM   31  C3  UNL     1      -5.523   2.558  11.390  1.00  0.00     0.265 C 
HETATM   32  O1  UNL     1      -5.483   3.153  10.321  1.00  0.00    -0.302 OA
ENDBRANCH  29  31
ENDBRANCH  27  28
ENDBRANCH  26  27
ENDBRANCH  24  26
ENDBRANCH   1  24
BRANCH  23  33
HETATM   33  O3  UNL     1      -1.322   9.818  14.181  1.00  0.00    -0.391 OA
HETATM   34  H46 UNL     1      -0.564  10.289  14.564  1.00  0.00     0.210 HD
ENDBRANCH  23  33
TORSDOF 6
ENDMDL
MODEL 4
REMARK minimizedAffinity -8.38763142
REMARK  6 active torsions:
REMARK  status: ('A' for Active; 'I' for Inactive)
REMARK    1  A    between atoms: C2_2  and  C3_3 
REMARK    2  A    between atoms: C4_5  and  C5_6 
REMARK    3  A    between atoms: C5_6  and  C6_7 
REMARK    4  A    between atoms: C6_7  and  C7_8 
REMARK    5  A    between atoms: C7_8  and  C9_10 
REMARK    6  A    between atoms: C30_32  and  O3_33 
ROOT
HETATM    1  C9  UNL     1      -2.729   4.143  12.666  1.00  0.00    -0.002 C 
HETATM    2  C10 UNL     1      -2.019   4.296  11.292  1.00  0.00     0.007 C 
HETATM    3  C11 UNL     1      -1.104   5.532  11.379  1.00  0.00     0.015 C 
HETATM    4  C12 UNL     1      -1.035   5.884  12.877  1.00  0.00    -0.010 C 
HETATM    5  C13 UNL     1       0.054   4.968  13.519  1.00  0.00     0.021 C 
HETATM    6  C14 UNL     1      -0.666   7.303  13.316  1.00  0.00    -0.039 C 
HETATM    7  C15 UNL     1      -1.164   7.804  14.480  1.00  0.00    -0.066 C 
HETATM    8  C16 UNL     1      -2.128   6.998  15.355  1.00  0.00     0.036 C 
HETATM    9  C17 UNL     1      -2.585   5.622  14.835  1.00  0.00     0.015 C 
HETATM   10  C18 UNL     1      -2.521   5.550  13.306  1.00  0.00    -0.029 C 
HETATM   11  C19 UNL     1      -3.573   6.541  12.714  1.00  0.00     0.016 C 
HETATM   12  C20 UNL     1      -0.903   9.273  14.882  1.00  0.00    -0.015 C 
HETATM   13  C21 UNL     1      -1.948  10.120  14.089  1.00  0.00     0.020 C 
HETATM   14  C22 UNL     1      -1.173   9.543  16.391  1.00  0.00     0.021 C 
HETATM   15  C23 UNL     1      -0.566  10.846  16.877  1.00  0.00     0.080 C 
HETATM   16  C24 UNL     1       0.936  10.779  16.789  1.00  0.00     0.135 C 
HETATM   17  O2  UNL     1       1.625  11.413  17.592  1.00  0.00    -0.297 OA
HETATM   18  C25 UNL     1       1.557   9.920  15.676  1.00  0.00     0.018 C 
HETATM   19  C26 UNL     1       2.831  10.659  15.200  1.00  0.00     0.023 C 
HETATM   20  C27 UNL     1       1.984   8.577  16.298  1.00  0.00     0.023 C 
HETATM   21  C28 UNL     1       0.542   9.775  14.480  1.00  0.00     0.016 C 
HETATM   22  C29 UNL     1       1.174   9.000  13.302  1.00  0.00     0.043 C 
HETATM   23  C30 UNL     1       0.232   8.155  12.453  1.00  0.00     0.148 C 
ENDROOT
BRANCH   1  24
HETATM   24  C7  UNL     1      -4.165   3.564  12.516  1.00  0.00    -0.014 C 
HETATM   25  C8  UNL     1      -4.529   3.245  11.062  1.00  0.00     0.010 C 
BRANCH  24  26
HETATM   26  C6  UNL     1      -5.253   4.479  13.138  1.00  0.00     0.008 C 
BRANCH  26  27
HETATM   27  C5  UNL     1      -6.698   4.113  12.778  1.00  0.00     0.028 C 
BRANCH  27  28
HETATM   28  C4  UNL     1      -7.672   5.018  13.481  1.00  0.00    -0.017 C 
HETATM   29  C2  UNL     1      -8.627   5.781  12.918  1.00  0.00    -0.028 C 
HETATM   30  C1  UNL     1      -8.968   5.870  11.465  1.00  0.00     0.051 C 
BRANCH  29  31
HETATM   31  C3  UNL     1      -9.470   6.625  13.821  1.00  0.00     0.265 C 
HETATM   32  O1  UNL     1     -10.552   7.103  13.501  1.00  0.00    -0.302 OA
ENDBRANCH  29  31
ENDBRANCH  27  28
ENDBRANCH  26  27
ENDBRANCH  24  26
ENDBRANCH   1  24
BRANCH  23  33
HETATM   33  O3  UNL     1       1.058   7.353  11.617  1.00  0.00    -0.391 OA
HETATM   34  H46 UNL     1       1.554   7.953  11.036  1.00  0.00     0.210 HD
ENDBRANCH  23  33
TORSDOF 6
ENDMDL
MODEL 5
REMARK minimizedAffinity -8.33058548
REMARK  6 active torsions:
REMARK  status: ('A' for Active; 'I' for Inactive)
REMARK    1  A    between atoms: C2_2  and  C3_3 
REMARK    2  A    between atoms: C4_5  and  C5_6 
REMARK    3  A    between atoms: C5_6  and  C6_7 
REMARK    4  A    between atoms: C6_7  and  C7_8 
REMARK    5  A    between atoms: C7_8  and  C9_10 
REMARK    6  A    between atoms: C30_32  and  O3_33 
ROOT
HETATM    1  C9  UNL     1      -5.687   7.369  14.730  1.00  0.00    -0.002 C 
HETATM    2  C10 UNL     1      -5.270   8.691  15.430  1.00  0.00     0.007 C 
HETATM    3  C11 UNL     1      -3.813   8.989  15.028  1.00  0.00     0.015 C 
HETATM    4  C12 UNL     1      -3.511   8.037  13.856  1.00  0.00    -0.010 C 
HETATM    5  C13 UNL     1      -4.061   8.709  12.559  1.00  0.00     0.021 C 
HETATM    6  C14 UNL     1      -2.064   7.663  13.524  1.00  0.00    -0.039 C 
HETATM    7  C15 UNL     1      -1.787   6.449  12.973  1.00  0.00    -0.066 C 
HETATM    8  C16 UNL     1      -2.885   5.415  12.711  1.00  0.00     0.036 C 
HETATM    9  C17 UNL     1      -4.316   5.761  13.166  1.00  0.00     0.015 C 
HETATM   10  C18 UNL     1      -4.309   6.756  14.331  1.00  0.00    -0.029 C 
HETATM   11  C19 UNL     1      -3.678   6.060  15.579  1.00  0.00     0.016 C 
HETATM   12  C20 UNL     1      -0.325   6.004  12.742  1.00  0.00    -0.015 C 
HETATM   13  C21 UNL     1       0.178   5.475  14.122  1.00  0.00     0.020 C 
HETATM   14  C22 UNL     1      -0.208   4.814  11.746  1.00  0.00     0.021 C 
HETATM   15  C23 UNL     1       1.202   4.620  11.218  1.00  0.00     0.080 C 
HETATM   16  C24 UNL     1       1.613   5.814  10.398  1.00  0.00     0.135 C 
HETATM   17  O2  UNL     1       2.402   5.672   9.460  1.00  0.00    -0.297 OA
HETATM   18  C25 UNL     1       1.032   7.186  10.777  1.00  0.00     0.018 C 
HETATM   19  C26 UNL     1       2.150   8.228  10.530  1.00  0.00     0.023 C 
HETATM   20  C27 UNL     1      -0.130   7.491   9.813  1.00  0.00     0.023 C 
HETATM   21  C28 UNL     1       0.618   7.193  12.298  1.00  0.00     0.016 C 
HETATM   22  C29 UNL     1       0.123   8.589  12.735  1.00  0.00     0.043 C 
HETATM   23  C30 UNL     1      -0.943   8.628  13.823  1.00  0.00     0.148 C 
ENDROOT
BRANCH   1  24
HETATM   24  C7  UNL     1      -6.682   6.542  15.595  1.00  0.00    -0.014 C 
HETATM   25  C8  UNL     1      -7.528   5.572  14.764  1.00  0.00     0.010 C 
BRANCH  24  26
HETATM   26  C6  UNL     1      -7.610   7.432  16.465  1.00  0.00     0.008 C 
BRANCH  26  27
HETATM   27  C5  UNL     1      -9.110   7.161  16.306  1.00  0.00     0.028 C 
BRANCH  27  28
HETATM   28  C4  UNL     1      -9.790   8.301  15.600  1.00  0.00    -0.017 C 
HETATM   29  C2  UNL     1     -10.478   8.249  14.445  1.00  0.00    -0.028 C 
HETATM   30  C1  UNL     1     -10.764   7.034  13.620  1.00  0.00     0.051 C 
BRANCH  29  31
HETATM   31  C3  UNL     1     -11.052   9.524  13.915  1.00  0.00     0.265 C 
HETATM   32  O1  UNL     1     -11.591   9.632  12.820  1.00  0.00    -0.302 OA
ENDBRANCH  29  31
ENDBRANCH  27  28
ENDBRANCH  26  27
ENDBRANCH  24  26
ENDBRANCH   1  24
BRANCH  23  33
HETATM   33  O3  UNL     1      -1.416   9.970  13.872  1.00  0.00    -0.391 OA
HETATM   34  H46 UNL     1      -0.670  10.531  14.141  1.00  0.00     0.210 HD
ENDBRANCH  23  33
TORSDOF 6
ENDMDL
MODEL 6
REMARK minimizedAffinity -8.32755947
REMARK  6 active torsions:
REMARK  status: ('A' for Active; 'I' for Inactive)
REMARK    1  A    between atoms: C2_2  and  C3_3 
REMARK    2  A    between atoms: C4_5  and  C5_6 
REMARK    3  A    between atoms: C5_6  and  C6_7 
REMARK    4  A    between atoms: C6_7  and  C7_8 
REMARK    5  A    between atoms: C7_8  and  C9_10 
REMARK    6  A    between atoms: C30_32  and  O3_33 
ROOT
HETATM    1  C9  UNL     1       1.859   7.299  10.107  1.00  0.00    -0.002 C 
HETATM    2  C10 UNL     1       2.553   6.157  10.899  1.00  0.00     0.007 C 
HETATM    3  C11 UNL     1       1.679   5.847  12.128  1.00  0.00     0.015 C 
HETATM    4  C12 UNL     1       0.341   6.564  11.868  1.00  0.00    -0.010 C 
HETATM    5  C13 UNL     1      -0.517   5.630  10.958  1.00  0.00     0.021 C 
HETATM    6  C14 UNL     1      -0.577   6.926  13.039  1.00  0.00    -0.039 C 
HETATM    7  C15 UNL     1      -1.383   8.019  12.956  1.00  0.00    -0.066 C 
HETATM    8  C16 UNL     1      -1.372   8.936  11.730  1.00  0.00     0.036 C 
HETATM    9  C17 UNL     1      -0.354   8.626  10.615  1.00  0.00     0.015 C 
HETATM   10  C18 UNL     1       0.867   7.879  11.162  1.00  0.00    -0.029 C 
HETATM   11  C19 UNL     1       1.645   8.830  12.127  1.00  0.00     0.016 C 
HETATM   12  C20 UNL     1      -2.227   8.470  14.170  1.00  0.00    -0.015 C 
HETATM   13  C21 UNL     1      -1.253   9.279  15.083  1.00  0.00     0.020 C 
HETATM   14  C22 UNL     1      -3.373   9.448  13.777  1.00  0.00     0.021 C 
HETATM   15  C23 UNL     1      -4.425   9.592  14.861  1.00  0.00     0.080 C 
HETATM   16  C24 UNL     1      -5.131   8.279  15.072  1.00  0.00     0.135 C 
HETATM   17  O2  UNL     1      -6.309   8.269  15.439  1.00  0.00    -0.297 OA
HETATM   18  C25 UNL     1      -4.337   6.985  14.830  1.00  0.00     0.018 C 
HETATM   19  C26 UNL     1      -4.819   5.962  15.888  1.00  0.00     0.023 C 
HETATM   20  C27 UNL     1      -4.719   6.450  13.437  1.00  0.00     0.023 C 
HETATM   21  C28 UNL     1      -2.796   7.258  15.010  1.00  0.00     0.016 C 
HETATM   22  C29 UNL     1      -1.979   5.955  14.871  1.00  0.00     0.043 C 
HETATM   23  C30 UNL     1      -0.575   6.085  14.292  1.00  0.00     0.148 C 
ENDROOT
BRANCH   1  24
HETATM   24  C7  UNL     1       2.890   8.237   9.415  1.00  0.00    -0.014 C 
HETATM   25  C8  UNL     1       2.728   8.277   7.892  1.00  0.00     0.010 C 
BRANCH  24  26
HETATM   26  C6  UNL     1       4.359   7.890   9.775  1.00  0.00     0.008 C 
BRANCH  26  27
HETATM   27  C5  UNL     1       5.208   9.069  10.263  1.00  0.00     0.028 C 
BRANCH  27  28
HETATM   28  C4  UNL     1       5.760   8.802  11.636  1.00  0.00    -0.017 C 
HETATM   29  C2  UNL     1       6.489   7.741  12.028  1.00  0.00    -0.028 C 
HETATM   30  C1  UNL     1       6.957   6.605  11.175  1.00  0.00     0.051 C 
BRANCH  29  31
HETATM   31  C3  UNL     1       6.912   7.675  13.461  1.00  0.00     0.265 C 
HETATM   32  O1  UNL     1       6.315   7.044  14.325  1.00  0.00    -0.302 OA
ENDBRANCH  29  31
ENDBRANCH  27  28
ENDBRANCH  26  27
ENDBRANCH  24  26
ENDBRANCH   1  24
BRANCH  23  33
HETATM   33  O3  UNL     1      -0.129   4.760  14.025  1.00  0.00    -0.391 OA
HETATM   34  H46 UNL     1      -0.077   4.294  14.875  1.00  0.00     0.210 HD
ENDBRANCH  23  33
TORSDOF 6
ENDMDL
MODEL 7
REMARK minimizedAffinity -8.32227039
REMARK  6 active torsions:
REMARK  status: ('A' for Active; 'I' for Inactive)
REMARK    1  A    between atoms: C2_2  and  C3_3 
REMARK    2  A    between atoms: C4_5  and  C5_6 
REMARK    3  A    between atoms: C5_6  and  C6_7 
REMARK    4  A    between atoms: C6_7  and  C7_8 
REMARK    5  A    between atoms: C7_8  and  C9_10 
REMARK    6  A    between atoms: C30_32  and  O3_33 
ROOT
HETATM    1  C9  UNL     1      -1.339   4.697  12.492  1.00  0.00    -0.002 C 
HETATM    2  C10 UNL     1      -0.649   5.424  11.305  1.00  0.00     0.007 C 
HETATM    3  C11 UNL     1      -0.481   6.903  11.703  1.00  0.00     0.015 C 
HETATM    4  C12 UNL     1      -0.764   6.953  13.216  1.00  0.00    -0.010 C 
HETATM    5  C13 UNL     1       0.555   6.552  13.949  1.00  0.00     0.021 C 
HETATM    6  C14 UNL     1      -1.198   8.265  13.873  1.00  0.00    -0.039 C 
HETATM    7  C15 UNL     1      -2.007   8.241  14.968  1.00  0.00    -0.066 C 
HETATM    8  C16 UNL     1      -2.538   6.926  15.547  1.00  0.00     0.036 C 
HETATM    9  C17 UNL     1      -2.191   5.625  14.799  1.00  0.00     0.015 C 
HETATM   10  C18 UNL     1      -1.928   5.884  13.312  1.00  0.00    -0.029 C 
HETATM   11  C19 UNL     1      -3.259   6.358  12.644  1.00  0.00     0.016 C 
HETATM   12  C20 UNL     1      -2.553   9.553  15.574  1.00  0.00    -0.015 C 
HETATM   13  C21 UNL     1      -3.783   9.943  14.695  1.00  0.00     0.020 C 
HETATM   14  C22 UNL     1      -3.089   9.371  17.024  1.00  0.00     0.021 C 
HETATM   15  C23 UNL     1      -3.266  10.686  17.760  1.00  0.00     0.080 C 
HETATM   16  C24 UNL     1      -1.929  11.351  17.954  1.00  0.00     0.135 C 
HETATM   17  O2  UNL     1      -1.739  12.067  18.940  1.00  0.00    -0.297 OA
HETATM   18  C25 UNL     1      -0.843  11.114  16.892  1.00  0.00     0.018 C 
HETATM   19  C26 UNL     1      -0.057  12.441  16.755  1.00  0.00     0.023 C 
HETATM   20  C27 UNL     1       0.119  10.039  17.431  1.00  0.00     0.023 C 
HETATM   21  C28 UNL     1      -1.511  10.741  15.515  1.00  0.00     0.016 C 
HETATM   22  C29 UNL     1      -0.450  10.594  14.401  1.00  0.00     0.043 C 
HETATM   23  C30 UNL     1      -0.748   9.586  13.298  1.00  0.00     0.148 C 
ENDROOT
BRANCH   1  24
HETATM   24  C7  UNL     1      -2.274   3.551  12.006  1.00  0.00    -0.014 C 
HETATM   25  C8  UNL     1      -2.549   3.608  10.499  1.00  0.00     0.010 C 
BRANCH  24  26
HETATM   26  C6  UNL     1      -3.617   3.498  12.781  1.00  0.00     0.008 C 
BRANCH  26  27
HETATM   27  C5  UNL     1      -4.843   3.128  11.938  1.00  0.00     0.028 C 
BRANCH  27  28
HETATM   28  C4  UNL     1      -6.007   4.024  12.261  1.00  0.00    -0.017 C 
HETATM   29  C2  UNL     1      -7.242   3.649  12.641  1.00  0.00    -0.028 C 
HETATM   30  C1  UNL     1      -7.729   2.254  12.873  1.00  0.00     0.051 C 
BRANCH  29  31
HETATM   31  C3  UNL     1      -8.254   4.723  12.888  1.00  0.00     0.265 C 
HETATM   32  O1  UNL     1      -7.994   5.920  12.903  1.00  0.00    -0.302 OA
ENDBRANCH  29  31
ENDBRANCH  27  28
ENDBRANCH  26  27
ENDBRANCH  24  26
ENDBRANCH   1  24
BRANCH  23  33
HETATM   33  O3  UNL     1       0.455   9.442  12.552  1.00  0.00    -0.391 OA
HETATM   34  H46 UNL     1       0.651  10.303  12.148  1.00  0.00     0.210 HD
ENDBRANCH  23  33
TORSDOF 6
ENDMDL
MODEL 8
REMARK minimizedAffinity -8.26240826
REMARK  6 active torsions:
REMARK  status: ('A' for Active; 'I' for Inactive)
REMARK    1  A    between atoms: C2_2  and  C3_3 
REMARK    2  A    between atoms: C4_5  and  C5_6 
REMARK    3  A    between atoms: C5_6  and  C6_7 
REMARK    4  A    between atoms: C6_7  and  C7_8 
REMARK    5  A    between atoms: C7_8  and  C9_10 
REMARK    6  A    between atoms: C30_32  and  O3_33 
ROOT
HETATM    1  C9  UNL     1      -1.120   5.812  12.088  1.00  0.00    -0.002 C 
HETATM    2  C10 UNL     1      -2.004   4.919  13.000  1.00  0.00     0.007 C 
HETATM    3  C11 UNL     1      -2.409   5.764  14.223  1.00  0.00     0.015 C 
HETATM    4  C12 UNL     1      -2.044   7.215  13.855  1.00  0.00    -0.010 C 
HETATM    5  C13 UNL     1      -3.220   7.788  13.004  1.00  0.00     0.021 C 
HETATM    6  C14 UNL     1      -1.812   8.251  14.958  1.00  0.00    -0.039 C 
HETATM    7  C15 UNL     1      -0.944   9.279  14.750  1.00  0.00    -0.066 C 
HETATM    8  C16 UNL     1      -0.150   9.411  13.449  1.00  0.00     0.036 C 
HETATM    9  C17 UNL     1      -0.303   8.292  12.401  1.00  0.00     0.015 C 
HETATM   10  C18 UNL     1      -0.703   6.964  13.053  1.00  0.00    -0.029 C 
HETATM   11  C19 UNL     1       0.476   6.475  13.954  1.00  0.00     0.016 C 
HETATM   12  C20 UNL     1      -0.606  10.266  15.891  1.00  0.00    -0.015 C 
HETATM   13  C21 UNL     1       0.476   9.551  16.760  1.00  0.00     0.020 C 
HETATM   14  C22 UNL     1       0.046  11.582  15.374  1.00  0.00     0.021 C 
HETATM   15  C23 UNL     1       0.030  12.695  16.406  1.00  0.00     0.080 C 
HETATM   16  C24 UNL     1      -1.390  13.095  16.710  1.00  0.00     0.135 C 
HETATM   17  O2  UNL     1      -1.643  14.257  17.036  1.00  0.00    -0.297 OA
HETATM   18  C25 UNL     1      -2.481  12.016  16.610  1.00  0.00     0.018 C 
HETATM   19  C26 UNL     1      -3.500  12.308  17.739  1.00  0.00     0.023 C 
HETATM   20  C27 UNL     1      -3.198  12.191  15.258  1.00  0.00     0.023 C 
HETATM   21  C28 UNL     1      -1.846  10.589  16.816  1.00  0.00     0.016 C 
HETATM   22  C29 UNL     1      -2.932   9.490  16.822  1.00  0.00     0.043 C 
HETATM   23  C30 UNL     1      -2.528   8.124  16.280  1.00  0.00     0.148 C 
ENDROOT
BRANCH   1  24
HETATM   24  C7  UNL     1      -0.027   4.986  11.349  1.00  0.00    -0.014 C 
HETATM   25  C8  UNL     1      -0.028   3.507  11.750  1.00  0.00     0.010 C 
BRANCH  24  26
HETATM   26  C6  UNL     1       1.398   5.574  11.527  1.00  0.00     0.008 C 
BRANCH  26  27
HETATM   27  C5  UNL     1       2.376   5.274  10.384  1.00  0.00     0.028 C 
BRANCH  27  28
HETATM   28  C4  UNL     1       2.228   6.278   9.275  1.00  0.00    -0.017 C 
HETATM   29  C2  UNL     1       2.955   7.394   9.084  1.00  0.00    -0.028 C 
HETATM   30  C1  UNL     1       4.108   7.870   9.909  1.00  0.00     0.051 C 
BRANCH  29  31
HETATM   31  C3  UNL     1       2.611   8.262   7.915  1.00  0.00     0.265 C 
HETATM   32  O1  UNL     1       3.287   9.214   7.545  1.00  0.00    -0.302 OA
ENDBRANCH  29  31
ENDBRANCH  27  28
ENDBRANCH  26  27
ENDBRANCH  24  26
ENDBRANCH   1  24
BRANCH  23  33
HETATM   33  O3  UNL     1      -3.731   7.375  16.147  1.00  0.00    -0.391 OA
HETATM   34  H46 UNL     1      -4.104   7.264  17.037  1.00  0.00     0.210 HD
ENDBRANCH  23  33
TORSDOF 6
ENDMDL
MODEL 9
REMARK minimizedAffinity -8.12640953
REMARK  6 active torsions:
REMARK  status: ('A' for Active; 'I' for Inactive)
REMARK    1  A    between atoms: C2_2  and  C3_3 
REMARK    2  A    between atoms: C4_5  and  C5_6 
REMARK    3  A    between atoms: C5_6  and  C6_7 
REMARK    4  A    between atoms: C6_7  and  C7_8 
REMARK    5  A    between atoms: C7_8  and  C9_10 
REMARK    6  A    between atoms: C30_32  and  O3_33 
ROOT
HETATM    1  C9  UNL     1      -0.527  11.892  18.675  1.00  0.00    -0.002 C 
HETATM    2  C10 UNL     1      -1.716  12.887  18.565  1.00  0.00     0.007 C 
HETATM    3  C11 UNL     1      -2.689  12.331  17.509  1.00  0.00     0.015 C 
HETATM    4  C12 UNL     1      -2.236  10.880  17.261  1.00  0.00    -0.010 C 
HETATM    5  C13 UNL     1      -2.868   9.998  18.384  1.00  0.00     0.021 C 
HETATM    6  C14 UNL     1      -2.601  10.175  15.953  1.00  0.00    -0.039 C 
HETATM    7  C15 UNL     1      -1.775   9.221  15.442  1.00  0.00    -0.066 C 
HETATM    8  C16 UNL     1      -0.453   8.855  16.122  1.00  0.00     0.036 C 
HETATM    9  C17 UNL     1      -0.043   9.662  17.369  1.00  0.00     0.015 C 
HETATM   10  C18 UNL     1      -0.668  11.061  17.363  1.00  0.00    -0.029 C 
HETATM   11  C19 UNL     1      -0.061  11.874  16.175  1.00  0.00     0.016 C 
HETATM   12  C20 UNL     1      -2.063   8.584  14.064  1.00  0.00    -0.015 C 
HETATM   13  C21 UNL     1      -1.518   9.597  13.009  1.00  0.00     0.020 C 
HETATM   14  C22 UNL     1      -1.284   7.255  13.840  1.00  0.00     0.021 C 
HETATM   15  C23 UNL     1      -1.833   6.434  12.688  1.00  0.00     0.080 C 
HETATM   16  C24 UNL     1      -3.234   5.978  13.003  1.00  0.00     0.135 C 
HETATM   17  O2  UNL     1      -3.649   4.912  12.543  1.00  0.00    -0.297 OA
HETATM   18  C25 UNL     1      -4.105   6.882  13.890  1.00  0.00     0.018 C 
HETATM   19  C26 UNL     1      -5.553   6.774  13.351  1.00  0.00     0.023 C 
HETATM   20  C27 UNL     1      -4.081   6.308  15.320  1.00  0.00     0.023 C 
HETATM   21  C28 UNL     1      -3.606   8.373  13.792  1.00  0.00     0.016 C 
HETATM   22  C29 UNL     1      -4.524   9.323  14.594  1.00  0.00     0.043 C 
HETATM   23  C30 UNL     1      -3.865  10.548  15.217  1.00  0.00     0.148 C 
ENDROOT
BRANCH   1  24
HETATM   24  C7  UNL     1       0.812  12.619  18.993  1.00  0.00    -0.014 C 
HETATM   25  C8  UNL     1       1.952  12.200  18.059  1.00  0.00     0.010 C 
BRANCH  24  26
HETATM   26  C6  UNL     1       1.256  12.447  20.470  1.00  0.00     0.008 C 
BRANCH  26  27
HETATM   27  C5  UNL     1       2.536  11.629  20.676  1.00  0.00     0.028 C 
BRANCH  27  28
HETATM   28  C4  UNL     1       2.237  10.330  21.372  1.00  0.00    -0.017 C 
HETATM   29  C2  UNL     1       2.935   9.763  22.374  1.00  0.00    -0.028 C 
HETATM   30  C1  UNL     1       4.145  10.318  23.055  1.00  0.00     0.051 C 
BRANCH  29  31
HETATM   31  C3  UNL     1       2.460   8.446  22.899  1.00  0.00     0.265 C 
HETATM   32  O1  UNL     1       1.617   7.750  22.345  1.00  0.00    -0.302 OA
ENDBRANCH  29  31
ENDBRANCH  27  28
ENDBRANCH  26  27
ENDBRANCH  24  26
ENDBRANCH   1  24
BRANCH  23  33
HETATM   33  O3  UNL     1      -4.828  11.115  16.098  1.00  0.00    -0.391 OA
HETATM   34  H46 UNL     1      -5.582  11.402  15.559  1.00  0.00     0.210 HD
ENDBRANCH  23  33
TORSDOF 6
ENDMDL
