MODEL 1
REMARK minimizedAffinity -9.64392948
REMARK  7 active torsions:
REMARK  status: ('A' for Active; 'I' for Inactive)
REMARK    1  A    between atoms: C2_2  and  C30_32 
REMARK    2  A    between atoms: C3_3  and  C4_4 
REMARK    3  A    between atoms: C4_4  and  O1_5 
REMARK    4  A    between atoms: C4_4  and  C5_6 
REMARK    5  A    between atoms: C5_6  and  C6_7 
REMARK    6  A    between atoms: C6_7  and  C8_9 
REMARK    7  A    between atoms: C30_32  and  O4_34 
ROOT
HETATM    1  C8  UNL     1      -0.848  50.558 -22.487  1.00  0.00    -0.002 C 
HETATM    2  C9  UNL     1      -0.519  50.271 -20.990  1.00  0.00     0.007 C 
HETATM    3  C10 UNL     1      -1.770  49.641 -20.352  1.00  0.00     0.015 C 
HETATM    4  C11 UNL     1      -2.673  49.269 -21.543  1.00  0.00    -0.013 C 
HETATM    5  C12 UNL     1      -2.163  47.886 -22.055  1.00  0.00     0.021 C 
HETATM    6  C13 UNL     1      -4.164  49.102 -21.289  1.00  0.00    -0.070 C 
HETATM    7  C14 UNL     1      -4.690  48.832 -20.080  1.00  0.00    -0.022 C 
HETATM    8  C15 UNL     1      -6.157  48.579 -19.902  1.00  0.00     0.034 C 
HETATM    9  C16 UNL     1      -6.658  47.756 -21.098  1.00  0.00     0.013 C 
HETATM   10  C17 UNL     1      -8.063  47.104 -20.905  1.00  0.00     0.018 C 
HETATM   11  C18 UNL     1      -7.937  45.821 -20.055  1.00  0.00     0.023 C 
HETATM   12  C19 UNL     1      -9.080  48.025 -20.205  1.00  0.00     0.023 C 
HETATM   13  C20 UNL     1      -8.613  46.664 -22.269  1.00  0.00     0.135 C 
HETATM   14  O2  UNL     1      -9.817  46.481 -22.458  1.00  0.00    -0.297 OA
HETATM   15  C21 UNL     1      -7.614  46.354 -23.365  1.00  0.00     0.080 C 
HETATM   16  C22 UNL     1      -6.521  47.411 -23.555  1.00  0.00     0.017 C 
HETATM   17  C23 UNL     1      -6.461  48.511 -22.461  1.00  0.00    -0.031 C 
HETATM   18  C24 UNL     1      -7.582  49.544 -22.759  1.00  0.00     0.016 C 
HETATM   19  C25 UNL     1      -5.099  49.347 -22.476  1.00  0.00     0.024 C 
HETATM   20  C26 UNL     1      -4.373  49.387 -23.843  1.00  0.00     0.010 C 
HETATM   21  C27 UNL     1      -3.052  50.190 -23.887  1.00  0.00     0.011 C 
HETATM   22  C28 UNL     1      -2.413  50.480 -22.511  1.00  0.00    -0.029 C 
HETATM   23  C29 UNL     1      -2.981  51.833 -21.974  1.00  0.00     0.016 C 
ENDROOT
BRANCH   1  24
HETATM   24  C6  UNL     1      -0.119  51.835 -23.014  1.00  0.00    -0.011 C 
HETATM   25  C7  UNL     1       0.474  52.666 -21.872  1.00  0.00     0.010 C 
BRANCH  24  26
HETATM   26  C5  UNL     1      -1.102  52.706 -23.853  1.00  0.00     0.040 C 
BRANCH  26  27
HETATM   27  C4  UNL     1      -0.597  53.097 -25.253  1.00  0.00     0.142 C 
BRANCH  27  28
HETATM   28  C3  UNL     1       0.738  52.469 -25.539  1.00  0.00     0.018 C 
HETATM   29  C2  UNL     1       1.234  52.075 -26.731  1.00  0.00     0.010 C 
HETATM   30  C1  UNL     1       0.553  52.187 -28.061  1.00  0.00     0.055 C 
BRANCH  29  31
HETATM   31  C30 UNL     1       2.595  51.477 -26.705  1.00  0.00     0.171 C 
HETATM   32  O3  UNL     1       2.964  50.536 -26.025  1.00  0.00    -0.646 OA
BRANCH  31  33
HETATM   33  O4  UNL     1       3.438  52.087 -27.552  1.00  0.00    -0.773 OA
HETATM   34  H46 UNL     1       4.278  51.600 -27.430  1.00  0.00     0.167 HD
ENDBRANCH  31  33
ENDBRANCH  29  31
ENDBRANCH  27  28
BRANCH  27  35
HETATM   35  O1  UNL     1      -0.434  54.508 -25.337  1.00  0.00    -0.392 OA
HETATM   36  H6  UNL     1       0.231  54.771 -24.678  1.00  0.00     0.210 HD
ENDBRANCH  27  35
ENDBRANCH  26  27
ENDBRANCH  24  26
ENDBRANCH   1  24
TORSDOF 7
ENDMDL
MODEL 2
REMARK minimizedAffinity -9.50082111
REMARK  7 active torsions:
REMARK  status: ('A' for Active; 'I' for Inactive)
REMARK    1  A    between atoms: C2_2  and  C30_32 
REMARK    2  A    between atoms: C3_3  and  C4_4 
REMARK    3  A    between atoms: C4_4  and  O1_5 
REMARK    4  A    between atoms: C4_4  and  C5_6 
REMARK    5  A    between atoms: C5_6  and  C6_7 
REMARK    6  A    between atoms: C6_7  and  C8_9 
REMARK    7  A    between atoms: C30_32  and  O4_34 
ROOT
HETATM    1  C8  UNL     1       0.270  51.746 -23.217  1.00  0.00    -0.002 C 
HETATM    2  C9  UNL     1       0.441  52.560 -21.898  1.00  0.00     0.007 C 
HETATM    3  C10 UNL     1      -0.714  52.171 -20.957  1.00  0.00     0.015 C 
HETATM    4  C11 UNL     1      -1.336  50.916 -21.598  1.00  0.00    -0.013 C 
HETATM    5  C12 UNL     1      -0.464  49.712 -21.123  1.00  0.00     0.021 C 
HETATM    6  C13 UNL     1      -2.773  50.565 -21.241  1.00  0.00    -0.070 C 
HETATM    7  C14 UNL     1      -3.389  50.987 -20.123  1.00  0.00    -0.022 C 
HETATM    8  C15 UNL     1      -4.773  50.531 -19.769  1.00  0.00     0.034 C 
HETATM    9  C16 UNL     1      -4.906  49.046 -20.139  1.00  0.00     0.013 C 
HETATM   10  C17 UNL     1      -6.143  48.323 -19.522  1.00  0.00     0.018 C 
HETATM   11  C18 UNL     1      -5.854  47.947 -18.052  1.00  0.00     0.023 C 
HETATM   12  C19 UNL     1      -7.427  49.173 -19.538  1.00  0.00     0.023 C 
HETATM   13  C20 UNL     1      -6.385  47.001 -20.265  1.00  0.00     0.135 C 
HETATM   14  O2  UNL     1      -7.479  46.434 -20.247  1.00  0.00    -0.297 OA
HETATM   15  C21 UNL     1      -5.199  46.347 -20.942  1.00  0.00     0.080 C 
HETATM   16  C22 UNL     1      -4.353  47.289 -21.806  1.00  0.00     0.017 C 
HETATM   17  C23 UNL     1      -4.693  48.797 -21.676  1.00  0.00    -0.031 C 
HETATM   18  C24 UNL     1      -5.963  49.077 -22.525  1.00  0.00     0.016 C 
HETATM   19  C25 UNL     1      -3.563  49.757 -22.274  1.00  0.00     0.024 C 
HETATM   20  C26 UNL     1      -2.681  49.119 -23.374  1.00  0.00     0.010 C 
HETATM   21  C27 UNL     1      -1.580  50.024 -23.971  1.00  0.00     0.011 C 
HETATM   22  C28 UNL     1      -1.220  51.266 -23.127  1.00  0.00    -0.029 C 
HETATM   23  C29 UNL     1      -2.144  52.448 -23.562  1.00  0.00     0.016 C 
ENDROOT
BRANCH   1  24
HETATM   24  C6  UNL     1       0.761  52.543 -24.466  1.00  0.00    -0.011 C 
HETATM   25  C7  UNL     1      -0.096  53.786 -24.725  1.00  0.00     0.010 C 
BRANCH  24  26
HETATM   26  C5  UNL     1       0.759  51.624 -25.724  1.00  0.00     0.040 C 
BRANCH  26  27
HETATM   27  C4  UNL     1       0.015  52.191 -26.947  1.00  0.00     0.142 C 
BRANCH  27  28
HETATM   28  C3  UNL     1      -1.020  51.221 -27.444  1.00  0.00     0.018 C 
HETATM   29  C2  UNL     1      -2.354  51.251 -27.239  1.00  0.00     0.010 C 
HETATM   30  C1  UNL     1      -3.114  52.282 -26.463  1.00  0.00     0.055 C 
BRANCH  29  31
HETATM   31  C30 UNL     1      -3.133  50.146 -27.857  1.00  0.00     0.171 C 
HETATM   32  O3  UNL     1      -3.393  49.068 -27.353  1.00  0.00    -0.646 OA
BRANCH  31  33
HETATM   33  O4  UNL     1      -3.565  50.451 -29.090  1.00  0.00    -0.773 OA
HETATM   34  H46 UNL     1      -4.051  49.648 -29.369  1.00  0.00     0.167 HD
ENDBRANCH  31  33
ENDBRANCH  29  31
ENDBRANCH  27  28
BRANCH  27  35
HETATM   35  O1  UNL     1       0.931  52.423 -28.010  1.00  0.00    -0.392 OA
HETATM   36  H6  UNL     1       1.330  51.570 -28.253  1.00  0.00     0.210 HD
ENDBRANCH  27  35
ENDBRANCH  26  27
ENDBRANCH  24  26
ENDBRANCH   1  24
TORSDOF 7
ENDMDL
MODEL 3
REMARK minimizedAffinity -9.47138786
REMARK  7 active torsions:
REMARK  status: ('A' for Active; 'I' for Inactive)
REMARK    1  A    between atoms: C2_2  and  C30_32 
REMARK    2  A    between atoms: C3_3  and  C4_4 
REMARK    3  A    between atoms: C4_4  and  O1_5 
REMARK    4  A    between atoms: C4_4  and  C5_6 
REMARK    5  A    between atoms: C5_6  and  C6_7 
REMARK    6  A    between atoms: C6_7  and  C8_9 
REMARK    7  A    between atoms: C30_32  and  O4_34 
ROOT
HETATM    1  C8  UNL     1      -0.302  51.250 -21.509  1.00  0.00    -0.002 C 
HETATM    2  C9  UNL     1      -0.457  51.969 -20.135  1.00  0.00     0.007 C 
HETATM    3  C10 UNL     1      -1.630  51.305 -19.391  1.00  0.00     0.015 C 
HETATM    4  C11 UNL     1      -1.918  50.016 -20.185  1.00  0.00    -0.013 C 
HETATM    5  C12 UNL     1      -0.904  48.952 -19.661  1.00  0.00     0.021 C 
HETATM    6  C13 UNL     1      -3.297  49.386 -20.056  1.00  0.00    -0.070 C 
HETATM    7  C14 UNL     1      -4.120  49.598 -19.013  1.00  0.00    -0.022 C 
HETATM    8  C15 UNL     1      -5.427  48.875 -18.886  1.00  0.00     0.034 C 
HETATM    9  C16 UNL     1      -5.231  47.426 -19.356  1.00  0.00     0.013 C 
HETATM   10  C17 UNL     1      -6.379  46.445 -18.962  1.00  0.00     0.018 C 
HETATM   11  C18 UNL     1      -6.216  46.007 -17.490  1.00  0.00     0.023 C 
HETATM   12  C19 UNL     1      -7.787  47.052 -19.111  1.00  0.00     0.023 C 
HETATM   13  C20 UNL     1      -6.271  45.168 -19.807  1.00  0.00     0.135 C 
HETATM   14  O2  UNL     1      -7.233  44.416 -19.977  1.00  0.00    -0.297 OA
HETATM   15  C21 UNL     1      -4.906  44.793 -20.346  1.00  0.00     0.080 C 
HETATM   16  C22 UNL     1      -4.148  45.939 -21.026  1.00  0.00     0.017 C 
HETATM   17  C23 UNL     1      -4.779  47.347 -20.858  1.00  0.00    -0.031 C 
HETATM   18  C24 UNL     1      -5.959  47.465 -21.861  1.00  0.00     0.016 C 
HETATM   19  C25 UNL     1      -3.782  48.538 -21.235  1.00  0.00     0.024 C 
HETATM   20  C26 UNL     1      -2.662  48.161 -22.234  1.00  0.00     0.010 C 
HETATM   21  C27 UNL     1      -1.683  49.294 -22.616  1.00  0.00     0.011 C 
HETATM   22  C28 UNL     1      -1.674  50.507 -21.659  1.00  0.00    -0.029 C 
HETATM   23  C29 UNL     1      -2.740  51.537 -22.152  1.00  0.00     0.016 C 
ENDROOT
BRANCH   1  24
HETATM   24  C6  UNL     1       0.188  52.222 -22.629  1.00  0.00    -0.011 C 
HETATM   25  C7  UNL     1       0.874  53.463 -22.048  1.00  0.00     0.010 C 
BRANCH  24  26
HETATM   26  C5  UNL     1      -1.008  52.648 -23.531  1.00  0.00     0.040 C 
BRANCH  26  27
HETATM   27  C4  UNL     1      -0.652  52.921 -25.003  1.00  0.00     0.142 C 
BRANCH  27  28
HETATM   28  C3  UNL     1       0.678  52.317 -25.356  1.00  0.00     0.018 C 
HETATM   29  C2  UNL     1       1.195  52.102 -26.585  1.00  0.00     0.010 C 
HETATM   30  C1  UNL     1       0.547  52.432 -27.894  1.00  0.00     0.055 C 
BRANCH  29  31
HETATM   31  C30 UNL     1       2.543  51.479 -26.625  1.00  0.00     0.171 C 
HETATM   32  O3  UNL     1       2.924  50.522 -25.973  1.00  0.00    -0.646 OA
BRANCH  31  33
HETATM   33  O4  UNL     1       3.361  52.085 -27.500  1.00  0.00    -0.773 OA
HETATM   34  H46 UNL     1       4.197  51.581 -27.420  1.00  0.00     0.167 HD
ENDBRANCH  31  33
ENDBRANCH  29  31
ENDBRANCH  27  28
BRANCH  27  35
HETATM   35  O1  UNL     1      -0.560  54.323 -25.231  1.00  0.00    -0.392 OA
HETATM   36  H6  UNL     1       0.150  54.672 -24.666  1.00  0.00     0.210 HD
ENDBRANCH  27  35
ENDBRANCH  26  27
ENDBRANCH  24  26
ENDBRANCH   1  24
TORSDOF 7
ENDMDL
MODEL 4
REMARK minimizedAffinity -9.40063667
REMARK  7 active torsions:
REMARK  status: ('A' for Active; 'I' for Inactive)
REMARK    1  A    between atoms: C2_2  and  C30_32 
REMARK    2  A    between atoms: C3_3  and  C4_4 
REMARK    3  A    between atoms: C4_4  and  O1_5 
REMARK    4  A    between atoms: C4_4  and  C5_6 
REMARK    5  A    between atoms: C5_6  and  C6_7 
REMARK    6  A    between atoms: C6_7  and  C8_9 
REMARK    7  A    between atoms: C30_32  and  O4_34 
ROOT
HETATM    1  C8  UNL     1      -2.488  48.399 -18.578  1.00  0.00    -0.002 C 
HETATM    2  C9  UNL     1      -2.673  47.034 -19.309  1.00  0.00     0.007 C 
HETATM    3  C10 UNL     1      -2.566  47.298 -20.822  1.00  0.00     0.015 C 
HETATM    4  C11 UNL     1      -1.997  48.725 -20.932  1.00  0.00    -0.013 C 
HETATM    5  C12 UNL     1      -0.450  48.586 -20.785  1.00  0.00     0.021 C 
HETATM    6  C13 UNL     1      -2.232  49.495 -22.224  1.00  0.00    -0.070 C 
HETATM    7  C14 UNL     1      -2.505  48.908 -23.403  1.00  0.00    -0.022 C 
HETATM    8  C15 UNL     1      -2.630  49.706 -24.666  1.00  0.00     0.034 C 
HETATM    9  C16 UNL     1      -1.565  50.812 -24.650  1.00  0.00     0.013 C 
HETATM   10  C17 UNL     1      -1.316  51.506 -26.027  1.00  0.00     0.018 C 
HETATM   11  C18 UNL     1      -0.406  50.620 -26.905  1.00  0.00     0.023 C 
HETATM   12  C19 UNL     1      -2.606  51.777 -26.823  1.00  0.00     0.023 C 
HETATM   13  C20 UNL     1      -0.555  52.820 -25.805  1.00  0.00     0.135 C 
HETATM   14  O2  UNL     1      -0.564  53.727 -26.640  1.00  0.00    -0.297 OA
HETATM   15  C21 UNL     1       0.308  52.935 -24.565  1.00  0.00     0.080 C 
HETATM   16  C22 UNL     1      -0.377  52.498 -23.265  1.00  0.00     0.017 C 
HETATM   17  C23 UNL     1      -1.749  51.795 -23.439  1.00  0.00    -0.031 C 
HETATM   18  C24 UNL     1      -2.820  52.891 -23.694  1.00  0.00     0.016 C 
HETATM   19  C25 UNL     1      -2.237  51.023 -22.127  1.00  0.00     0.024 C 
HETATM   20  C26 UNL     1      -1.659  51.565 -20.798  1.00  0.00     0.010 C 
HETATM   21  C27 UNL     1      -2.114  50.837 -19.512  1.00  0.00     0.011 C 
HETATM   22  C28 UNL     1      -2.723  49.435 -19.731  1.00  0.00    -0.029 C 
HETATM   23  C29 UNL     1      -4.263  49.590 -19.945  1.00  0.00     0.016 C 
ENDROOT
BRANCH   1  24
HETATM   24  C6  UNL     1      -3.331  48.482 -17.267  1.00  0.00    -0.011 C 
HETATM   25  C7  UNL     1      -4.727  47.876 -17.446  1.00  0.00     0.010 C 
BRANCH  24  26
HETATM   26  C5  UNL     1      -3.450  49.963 -16.798  1.00  0.00     0.040 C 
BRANCH  26  27
HETATM   27  C4  UNL     1      -2.575  50.337 -15.588  1.00  0.00     0.142 C 
BRANCH  27  28
HETATM   28  C3  UNL     1      -3.287  51.308 -14.688  1.00  0.00     0.018 C 
HETATM   29  C2  UNL     1      -2.805  51.936 -13.595  1.00  0.00     0.010 C 
HETATM   30  C1  UNL     1      -1.424  51.809 -13.031  1.00  0.00     0.055 C 
BRANCH  29  31
HETATM   31  C30 UNL     1      -3.751  52.845 -12.896  1.00  0.00     0.171 C 
HETATM   32  O3  UNL     1      -4.047  52.820 -11.715  1.00  0.00    -0.646 OA
BRANCH  31  33
HETATM   33  O4  UNL     1      -4.280  53.764 -13.719  1.00  0.00    -0.773 OA
HETATM   34  H46 UNL     1      -4.872  54.281 -13.135  1.00  0.00     0.167 HD
ENDBRANCH  31  33
ENDBRANCH  29  31
ENDBRANCH  27  28
BRANCH  27  35
HETATM   35  O1  UNL     1      -1.376  50.962 -16.029  1.00  0.00    -0.392 OA
HETATM   36  H6  UNL     1      -1.619  51.775 -16.504  1.00  0.00     0.210 HD
ENDBRANCH  27  35
ENDBRANCH  26  27
ENDBRANCH  24  26
ENDBRANCH   1  24
TORSDOF 7
ENDMDL
MODEL 5
REMARK minimizedAffinity -9.3341608
REMARK  7 active torsions:
REMARK  status: ('A' for Active; 'I' for Inactive)
REMARK    1  A    between atoms: C2_2  and  C30_32 
REMARK    2  A    between atoms: C3_3  and  C4_4 
REMARK    3  A    between atoms: C4_4  and  O1_5 
REMARK    4  A    between atoms: C4_4  and  C5_6 
REMARK    5  A    between atoms: C5_6  and  C6_7 
REMARK    6  A    between atoms: C6_7  and  C8_9 
REMARK    7  A    between atoms: C30_32  and  O4_34 
ROOT
HETATM    1  C8  UNL     1       0.082  51.341 -18.527  1.00  0.00    -0.002 C 
HETATM    2  C9  UNL     1      -1.321  50.692 -18.322  1.00  0.00     0.007 C 
HETATM    3  C10 UNL     1      -1.998  50.603 -19.701  1.00  0.00     0.015 C 
HETATM    4  C11 UNL     1      -0.870  50.885 -20.711  1.00  0.00    -0.013 C 
HETATM    5  C12 UNL     1      -0.128  49.528 -20.920  1.00  0.00     0.021 C 
HETATM    6  C13 UNL     1      -1.255  51.375 -22.100  1.00  0.00    -0.070 C 
HETATM    7  C14 UNL     1      -2.466  51.177 -22.652  1.00  0.00    -0.022 C 
HETATM    8  C15 UNL     1      -2.762  51.593 -24.062  1.00  0.00     0.034 C 
HETATM    9  C16 UNL     1      -1.527  51.298 -24.926  1.00  0.00     0.013 C 
HETATM   10  C17 UNL     1      -1.779  51.335 -26.466  1.00  0.00     0.018 C 
HETATM   11  C18 UNL     1      -2.434  50.014 -26.924  1.00  0.00     0.023 C 
HETATM   12  C19 UNL     1      -2.698  52.486 -26.915  1.00  0.00     0.023 C 
HETATM   13  C20 UNL     1      -0.434  51.427 -27.201  1.00  0.00     0.135 C 
HETATM   14  O2  UNL     1      -0.350  51.844 -28.357  1.00  0.00    -0.297 OA
HETATM   15  C21 UNL     1       0.792  50.883 -26.497  1.00  0.00     0.080 C 
HETATM   16  C22 UNL     1       0.954  51.342 -25.043  1.00  0.00     0.017 C 
HETATM   17  C23 UNL     1      -0.263  52.096 -24.444  1.00  0.00    -0.031 C 
HETATM   18  C24 UNL     1      -0.224  53.559 -24.964  1.00  0.00     0.016 C 
HETATM   19  C25 UNL     1      -0.215  52.211 -22.850  1.00  0.00     0.024 C 
HETATM   20  C26 UNL     1       1.202  52.144 -22.233  1.00  0.00     0.010 C 
HETATM   21  C27 UNL     1       1.278  52.253 -20.693  1.00  0.00     0.011 C 
HETATM   22  C28 UNL     1      -0.049  51.988 -19.948  1.00  0.00    -0.029 C 
HETATM   23  C29 UNL     1      -0.817  53.341 -19.804  1.00  0.00     0.016 C 
ENDROOT
BRANCH   1  24
HETATM   24  C6  UNL     1       0.509  52.215 -17.305  1.00  0.00    -0.011 C 
HETATM   25  C7  UNL     1       1.943  52.737 -17.450  1.00  0.00     0.010 C 
BRANCH  24  26
HETATM   26  C5  UNL     1       0.370  51.398 -15.986  1.00  0.00     0.040 C 
BRANCH  26  27
HETATM   27  C4  UNL     1       1.029  52.037 -14.749  1.00  0.00     0.142 C 
BRANCH  27  28
HETATM   28  C3  UNL     1       1.953  51.066 -14.070  1.00  0.00     0.018 C 
HETATM   29  C2  UNL     1       3.287  50.939 -14.227  1.00  0.00     0.010 C 
HETATM   30  C1  UNL     1       4.161  51.759 -15.126  1.00  0.00     0.055 C 
BRANCH  29  31
HETATM   31  C30 UNL     1       3.941  49.877 -13.417  1.00  0.00     0.171 C 
HETATM   32  O3  UNL     1       5.125  49.590 -13.411  1.00  0.00    -0.646 OA
BRANCH  31  33
HETATM   33  O4  UNL     1       3.070  49.222 -12.634  1.00  0.00    -0.773 OA
HETATM   34  H46 UNL     1       3.628  48.565 -12.169  1.00  0.00     0.167 HD
ENDBRANCH  31  33
ENDBRANCH  29  31
ENDBRANCH  27  28
BRANCH  27  35
HETATM   35  O1  UNL     1       0.032  52.412 -13.806  1.00  0.00    -0.392 OA
HETATM   36  H6  UNL     1      -0.438  51.607 -13.530  1.00  0.00     0.210 HD
ENDBRANCH  27  35
ENDBRANCH  26  27
ENDBRANCH  24  26
ENDBRANCH   1  24
TORSDOF 7
ENDMDL
MODEL 6
REMARK minimizedAffinity -9.33351135
REMARK  7 active torsions:
REMARK  status: ('A' for Active; 'I' for Inactive)
REMARK    1  A    between atoms: C2_2  and  C30_32 
REMARK    2  A    between atoms: C3_3  and  C4_4 
REMARK    3  A    between atoms: C4_4  and  O1_5 
REMARK    4  A    between atoms: C4_4  and  C5_6 
REMARK    5  A    between atoms: C5_6  and  C6_7 
REMARK    6  A    between atoms: C6_7  and  C8_9 
REMARK    7  A    between atoms: C30_32  and  O4_34 
ROOT
HETATM    1  C8  UNL     1      -2.866  50.640 -24.874  1.00  0.00    -0.002 C 
HETATM    2  C9  UNL     1      -3.881  51.814 -25.021  1.00  0.00     0.007 C 
HETATM    3  C10 UNL     1      -5.041  51.551 -24.044  1.00  0.00     0.015 C 
HETATM    4  C11 UNL     1      -4.531  50.428 -23.122  1.00  0.00    -0.013 C 
HETATM    5  C12 UNL     1      -3.680  51.129 -22.017  1.00  0.00     0.021 C 
HETATM    6  C13 UNL     1      -5.558  49.578 -22.388  1.00  0.00    -0.070 C 
HETATM    7  C14 UNL     1      -6.818  49.980 -22.138  1.00  0.00    -0.022 C 
HETATM    8  C15 UNL     1      -7.760  49.145 -21.324  1.00  0.00     0.034 C 
HETATM    9  C16 UNL     1      -6.973  48.506 -20.170  1.00  0.00     0.013 C 
HETATM   10  C17 UNL     1      -7.851  47.901 -19.031  1.00  0.00     0.018 C 
HETATM   11  C18 UNL     1      -8.345  49.024 -18.093  1.00  0.00     0.023 C 
HETATM   12  C19 UNL     1      -9.093  47.147 -19.543  1.00  0.00     0.023 C 
HETATM   13  C20 UNL     1      -6.993  46.965 -18.167  1.00  0.00     0.135 C 
HETATM   14  O2  UNL     1      -7.494  46.087 -17.462  1.00  0.00    -0.297 OA
HETATM   15  C21 UNL     1      -5.501  47.220 -18.121  1.00  0.00     0.080 C 
HETATM   16  C22 UNL     1      -4.842  47.425 -19.490  1.00  0.00     0.017 C 
HETATM   17  C23 UNL     1      -5.821  47.571 -20.685  1.00  0.00    -0.031 C 
HETATM   18  C24 UNL     1      -6.313  46.150 -21.078  1.00  0.00     0.016 C 
HETATM   19  C25 UNL     1      -5.132  48.159 -22.002  1.00  0.00     0.024 C 
HETATM   20  C26 UNL     1      -3.607  47.916 -22.105  1.00  0.00     0.010 C 
HETATM   21  C27 UNL     1      -2.914  48.475 -23.368  1.00  0.00     0.011 C 
HETATM   22  C28 UNL     1      -3.716  49.548 -24.139  1.00  0.00    -0.029 C 
HETATM   23  C29 UNL     1      -4.616  48.831 -25.195  1.00  0.00     0.016 C 
ENDROOT
BRANCH   1  24
HETATM   24  C6  UNL     1      -2.158  50.304 -26.224  1.00  0.00    -0.011 C 
HETATM   25  C7  UNL     1      -2.405  48.853 -26.653  1.00  0.00     0.010 C 
BRANCH  24  26
HETATM   26  C5  UNL     1      -0.627  50.571 -26.109  1.00  0.00     0.040 C 
BRANCH  26  27
HETATM   27  C4  UNL     1      -0.049  51.526 -27.169  1.00  0.00     0.142 C 
BRANCH  27  28
HETATM   28  C3  UNL     1       0.194  52.891 -26.589  1.00  0.00     0.018 C 
HETATM   29  C2  UNL     1       0.383  53.223 -25.295  1.00  0.00     0.010 C 
HETATM   30  C1  UNL     1       0.402  52.285 -24.127  1.00  0.00     0.055 C 
BRANCH  29  31
HETATM   31  C30 UNL     1       0.598  54.667 -25.018  1.00  0.00     0.171 C 
HETATM   32  O3  UNL     1       0.129  55.606 -25.637  1.00  0.00    -0.646 OA
BRANCH  31  33
HETATM   33  O4  UNL     1       1.392  54.872 -23.955  1.00  0.00    -0.773 OA
HETATM   34  H46 UNL     1       1.446  55.848 -23.893  1.00  0.00     0.167 HD
ENDBRANCH  31  33
ENDBRANCH  29  31
ENDBRANCH  27  28
BRANCH  27  35
HETATM   35  O1  UNL     1      -0.969  51.675 -28.245  1.00  0.00    -0.392 OA
HETATM   36  H6  UNL     1      -1.787  52.060 -27.888  1.00  0.00     0.210 HD
ENDBRANCH  27  35
ENDBRANCH  26  27
ENDBRANCH  24  26
ENDBRANCH   1  24
TORSDOF 7
ENDMDL
MODEL 7
REMARK minimizedAffinity -9.33135319
REMARK  7 active torsions:
REMARK  status: ('A' for Active; 'I' for Inactive)
REMARK    1  A    between atoms: C2_2  and  C30_32 
REMARK    2  A    between atoms: C3_3  and  C4_4 
REMARK    3  A    between atoms: C4_4  and  O1_5 
REMARK    4  A    between atoms: C4_4  and  C5_6 
REMARK    5  A    between atoms: C5_6  and  C6_7 
REMARK    6  A    between atoms: C6_7  and  C8_9 
REMARK    7  A    between atoms: C30_32  and  O4_34 
ROOT
HETATM    1  C8  UNL     1      -2.545  48.130 -18.755  1.00  0.00    -0.002 C 
HETATM    2  C9  UNL     1      -2.746  46.804 -19.548  1.00  0.00     0.007 C 
HETATM    3  C10 UNL     1      -2.637  47.135 -21.047  1.00  0.00     0.015 C 
HETATM    4  C11 UNL     1      -2.051  48.559 -21.091  1.00  0.00    -0.013 C 
HETATM    5  C12 UNL     1      -0.505  48.394 -20.953  1.00  0.00     0.021 C 
HETATM    6  C13 UNL     1      -2.277  49.390 -22.346  1.00  0.00    -0.070 C 
HETATM    7  C14 UNL     1      -2.558  48.861 -23.551  1.00  0.00    -0.022 C 
HETATM    8  C15 UNL     1      -2.674  49.718 -24.776  1.00  0.00     0.034 C 
HETATM    9  C16 UNL     1      -1.595  50.810 -24.710  1.00  0.00     0.013 C 
HETATM   10  C17 UNL     1      -1.339  51.563 -26.053  1.00  0.00     0.018 C 
HETATM   11  C18 UNL     1      -0.440  50.708 -26.973  1.00  0.00     0.023 C 
HETATM   12  C19 UNL     1      -2.626  51.886 -26.835  1.00  0.00     0.023 C 
HETATM   13  C20 UNL     1      -0.562  52.857 -25.772  1.00  0.00     0.135 C 
HETATM   14  O2  UNL     1      -0.560  53.801 -26.565  1.00  0.00    -0.297 OA
HETATM   15  C21 UNL     1       0.303  52.904 -24.530  1.00  0.00     0.080 C 
HETATM   16  C22 UNL     1      -0.386  52.416 -23.250  1.00  0.00     0.017 C 
HETATM   17  C23 UNL     1      -1.767  51.738 -23.454  1.00  0.00    -0.031 C 
HETATM   18  C24 UNL     1      -2.825  52.857 -23.657  1.00  0.00     0.016 C 
HETATM   19  C25 UNL     1      -2.263  50.912 -22.179  1.00  0.00     0.024 C 
HETATM   20  C26 UNL     1      -1.678  51.385 -20.827  1.00  0.00     0.010 C 
HETATM   21  C27 UNL     1      -2.141  50.604 -19.576  1.00  0.00     0.011 C 
HETATM   22  C28 UNL     1      -2.768  49.221 -19.858  1.00  0.00    -0.029 C 
HETATM   23  C29 UNL     1      -4.306  49.405 -20.063  1.00  0.00     0.016 C 
ENDROOT
BRANCH   1  24
HETATM   24  C6  UNL     1      -3.386  48.163 -17.440  1.00  0.00    -0.011 C 
HETATM   25  C7  UNL     1      -4.892  48.142 -17.725  1.00  0.00     0.010 C 
BRANCH  24  26
HETATM   26  C5  UNL     1      -3.021  49.423 -16.600  1.00  0.00     0.040 C 
BRANCH  26  27
HETATM   27  C4  UNL     1      -1.591  49.437 -16.030  1.00  0.00     0.142 C 
BRANCH  27  28
HETATM   28  C3  UNL     1      -0.795  50.577 -16.601  1.00  0.00     0.018 C 
HETATM   29  C2  UNL     1       0.384  51.068 -16.165  1.00  0.00     0.010 C 
HETATM   30  C1  UNL     1       1.180  50.571 -14.997  1.00  0.00     0.055 C 
BRANCH  29  31
HETATM   31  C30 UNL     1       0.937  52.214 -16.934  1.00  0.00     0.171 C 
HETATM   32  O3  UNL     1       0.927  52.351 -18.144  1.00  0.00    -0.646 OA
BRANCH  31  33
HETATM   33  O4  UNL     1       1.473  53.153 -16.139  1.00  0.00    -0.773 OA
HETATM   34  H46 UNL     1       1.793  53.831 -16.769  1.00  0.00     0.167 HD
ENDBRANCH  31  33
ENDBRANCH  29  31
ENDBRANCH  27  28
BRANCH  27  35
HETATM   35  O1  UNL     1      -0.919  48.231 -16.371  1.00  0.00    -0.392 OA
HETATM   36  H6  UNL     1      -0.869  48.179 -17.340  1.00  0.00     0.210 HD
ENDBRANCH  27  35
ENDBRANCH  26  27
ENDBRANCH  24  26
ENDBRANCH   1  24
TORSDOF 7
ENDMDL
MODEL 8
REMARK minimizedAffinity -9.24920559
REMARK  7 active torsions:
REMARK  status: ('A' for Active; 'I' for Inactive)
REMARK    1  A    between atoms: C2_2  and  C30_32 
REMARK    2  A    between atoms: C3_3  and  C4_4 
REMARK    3  A    between atoms: C4_4  and  O1_5 
REMARK    4  A    between atoms: C4_4  and  C5_6 
REMARK    5  A    between atoms: C5_6  and  C6_7 
REMARK    6  A    between atoms: C6_7  and  C8_9 
REMARK    7  A    between atoms: C30_32  and  O4_34 
ROOT
HETATM    1  C8  UNL     1      -3.946  50.483 -24.613  1.00  0.00    -0.002 C 
HETATM    2  C9  UNL     1      -5.435  50.431 -24.154  1.00  0.00     0.007 C 
HETATM    3  C10 UNL     1      -5.444  50.283 -22.622  1.00  0.00     0.015 C 
HETATM    4  C11 UNL     1      -3.996  50.584 -22.190  1.00  0.00    -0.013 C 
HETATM    5  C12 UNL     1      -3.887  52.138 -22.100  1.00  0.00     0.021 C 
HETATM    6  C13 UNL     1      -3.522  50.048 -20.847  1.00  0.00    -0.070 C 
HETATM    7  C14 UNL     1      -4.350  49.717 -19.840  1.00  0.00    -0.022 C 
HETATM    8  C15 UNL     1      -3.826  49.288 -18.502  1.00  0.00     0.034 C 
HETATM    9  C16 UNL     1      -2.597  50.144 -18.163  1.00  0.00     0.013 C 
HETATM   10  C17 UNL     1      -2.143  50.081 -16.671  1.00  0.00     0.018 C 
HETATM   11  C18 UNL     1      -3.040  50.997 -15.809  1.00  0.00     0.023 C 
HETATM   12  C19 UNL     1      -2.210  48.667 -16.065  1.00  0.00     0.023 C 
HETATM   13  C20 UNL     1      -0.717  50.634 -16.547  1.00  0.00     0.135 C 
HETATM   14  O2  UNL     1       0.009  50.358 -15.590  1.00  0.00    -0.297 OA
HETATM   15  C21 UNL     1      -0.253  51.627 -17.593  1.00  0.00     0.080 C 
HETATM   16  C22 UNL     1      -0.533  51.211 -19.041  1.00  0.00     0.017 C 
HETATM   17  C23 UNL     1      -1.443  49.966 -19.213  1.00  0.00    -0.031 C 
HETATM   18  C24 UNL     1      -0.575  48.701 -18.964  1.00  0.00     0.016 C 
HETATM   19  C25 UNL     1      -2.018  49.800 -20.695  1.00  0.00     0.024 C 
HETATM   20  C26 UNL     1      -1.163  50.456 -21.805  1.00  0.00     0.010 C 
HETATM   21  C27 UNL     1      -1.696  50.311 -23.248  1.00  0.00     0.011 C 
HETATM   22  C28 UNL     1      -3.186  49.921 -23.363  1.00  0.00    -0.029 C 
HETATM   23  C29 UNL     1      -3.291  48.362 -23.384  1.00  0.00     0.016 C 
ENDROOT
BRANCH   1  24
HETATM   24  C6  UNL     1      -3.741  49.826 -26.015  1.00  0.00    -0.011 C 
HETATM   25  C7  UNL     1      -4.289  48.396 -26.061  1.00  0.00     0.010 C 
BRANCH  24  26
HETATM   26  C5  UNL     1      -2.229  49.830 -26.394  1.00  0.00     0.040 C 
BRANCH  26  27
HETATM   27  C4  UNL     1      -1.869  50.661 -27.638  1.00  0.00     0.142 C 
BRANCH  27  28
HETATM   28  C3  UNL     1      -1.397  52.034 -27.251  1.00  0.00     0.018 C 
HETATM   29  C2  UNL     1      -0.172  52.574 -27.431  1.00  0.00     0.010 C 
HETATM   30  C1  UNL     1       1.007  51.913 -28.077  1.00  0.00     0.055 C 
BRANCH  29  31
HETATM   31  C30 UNL     1       0.005  53.964 -26.937  1.00  0.00     0.171 C 
HETATM   32  O3  UNL     1      -0.355  54.987 -27.494  1.00  0.00    -0.646 OA
BRANCH  31  33
HETATM   33  O4  UNL     1       0.624  54.010 -25.748  1.00  0.00    -0.773 OA
HETATM   34  H46 UNL     1       0.674  54.968 -25.551  1.00  0.00     0.167 HD
ENDBRANCH  31  33
ENDBRANCH  29  31
ENDBRANCH  27  28
BRANCH  27  35
HETATM   35  O1  UNL     1      -3.015  50.820 -28.467  1.00  0.00    -0.392 OA
HETATM   36  H6  UNL     1      -3.690  51.297 -27.955  1.00  0.00     0.210 HD
ENDBRANCH  27  35
ENDBRANCH  26  27
ENDBRANCH  24  26
ENDBRANCH   1  24
TORSDOF 7
ENDMDL
MODEL 9
REMARK minimizedAffinity -9.21755791
REMARK  7 active torsions:
REMARK  status: ('A' for Active; 'I' for Inactive)
REMARK    1  A    between atoms: C2_2  and  C30_32 
REMARK    2  A    between atoms: C3_3  and  C4_4 
REMARK    3  A    between atoms: C4_4  and  O1_5 
REMARK    4  A    between atoms: C4_4  and  C5_6 
REMARK    5  A    between atoms: C5_6  and  C6_7 
REMARK    6  A    between atoms: C6_7  and  C8_9 
REMARK    7  A    between atoms: C30_32  and  O4_34 
ROOT
HETATM    1  C8  UNL     1      -1.564  51.600 -21.722  1.00  0.00    -0.002 C 
HETATM    2  C9  UNL     1      -2.788  50.713 -22.102  1.00  0.00     0.007 C 
HETATM    3  C10 UNL     1      -3.096  49.805 -20.897  1.00  0.00     0.015 C 
HETATM    4  C11 UNL     1      -2.276  50.401 -19.737  1.00  0.00    -0.013 C 
HETATM    5  C12 UNL     1      -3.136  51.566 -19.155  1.00  0.00     0.021 C 
HETATM    6  C13 UNL     1      -1.936  49.498 -18.560  1.00  0.00    -0.070 C 
HETATM    7  C14 UNL     1      -2.628  48.389 -18.246  1.00  0.00    -0.022 C 
HETATM    8  C15 UNL     1      -2.312  47.589 -17.017  1.00  0.00     0.034 C 
HETATM    9  C16 UNL     1      -1.966  48.560 -15.879  1.00  0.00     0.013 C 
HETATM   10  C17 UNL     1      -1.959  47.926 -14.453  1.00  0.00     0.018 C 
HETATM   11  C18 UNL     1      -3.406  47.800 -13.926  1.00  0.00     0.023 C 
HETATM   12  C19 UNL     1      -1.325  46.524 -14.403  1.00  0.00     0.023 C 
HETATM   13  C20 UNL     1      -1.227  48.863 -13.481  1.00  0.00     0.135 C 
HETATM   14  O2  UNL     1      -0.751  48.458 -12.419  1.00  0.00    -0.297 OA
HETATM   15  C21 UNL     1      -1.196  50.340 -13.816  1.00  0.00     0.080 C 
HETATM   16  C22 UNL     1      -0.797  50.663 -15.260  1.00  0.00     0.017 C 
HETATM   17  C23 UNL     1      -0.711  49.444 -16.216  1.00  0.00    -0.031 C 
HETATM   18  C24 UNL     1       0.638  48.721 -15.951  1.00  0.00     0.016 C 
HETATM   19  C25 UNL     1      -0.678  49.850 -17.761  1.00  0.00     0.024 C 
HETATM   20  C26 UNL     1      -0.131  51.268 -18.052  1.00  0.00     0.010 C 
HETATM   21  C27 UNL     1      -0.088  51.688 -19.539  1.00  0.00     0.011 C 
HETATM   22  C28 UNL     1      -0.967  50.843 -20.487  1.00  0.00    -0.029 C 
HETATM   23  C29 UNL     1      -0.118  49.640 -21.011  1.00  0.00     0.016 C 
ENDROOT
BRANCH   1  24
HETATM   24  C6  UNL     1      -0.663  51.917 -22.957  1.00  0.00    -0.011 C 
HETATM   25  C7  UNL     1       0.490  52.860 -22.596  1.00  0.00     0.010 C 
BRANCH  24  26
HETATM   26  C5  UNL     1      -1.519  52.537 -24.102  1.00  0.00     0.040 C 
BRANCH  26  27
HETATM   27  C4  UNL     1      -1.179  52.035 -25.517  1.00  0.00     0.142 C 
BRANCH  27  28
HETATM   28  C3  UNL     1       0.292  51.761 -25.652  1.00  0.00     0.018 C 
HETATM   29  C2  UNL     1       1.021  51.669 -26.785  1.00  0.00     0.010 C 
HETATM   30  C1  UNL     1       0.515  51.832 -28.186  1.00  0.00     0.055 C 
BRANCH  29  31
HETATM   31  C30 UNL     1       2.468  51.381 -26.607  1.00  0.00     0.171 C 
HETATM   32  O3  UNL     1       2.965  50.614 -25.801  1.00  0.00    -0.646 OA
BRANCH  31  33
HETATM   33  O4  UNL     1       3.236  52.068 -27.466  1.00  0.00    -0.773 OA
HETATM   34  H46 UNL     1       4.145  51.787 -27.238  1.00  0.00     0.167 HD
ENDBRANCH  31  33
ENDBRANCH  29  31
ENDBRANCH  27  28
BRANCH  27  35
HETATM   35  O1  UNL     1      -1.520  53.026 -26.480  1.00  0.00    -0.392 OA
HETATM   36  H6  UNL     1      -0.992  53.820 -26.293  1.00  0.00     0.210 HD
ENDBRANCH  27  35
ENDBRANCH  26  27
ENDBRANCH  24  26
ENDBRANCH   1  24
TORSDOF 7
ENDMDL
