MODEL 1
REMARK minimizedAffinity -8.14779568
REMARK CNNscore 0.443288326
REMARK CNNaffinity 6.55075598
REMARK  9 active torsions:
REMARK  status: ('A' for Active; 'I' for Inactive)
REMARK    1  A    between atoms: C2_2  and  C3_3 
REMARK    2  A    between atoms: C2_2  and  C9_11 
REMARK    3  A    between atoms: C3_3  and  C4_4 
REMARK    4  A    between atoms: C4_4  and  C5_5 
REMARK    5  A    between atoms: C5_5  and  O1_6 
REMARK    6  A    between atoms: C5_5  and  C6_7 
REMARK    7  A    between atoms: C6_7  and  O2_10 
REMARK    8  A    between atoms: C12_14  and  C13_15 
REMARK    9  A    between atoms: C13_15  and  O4_17 
ROOT
HETATM    1  C9  UNL     1      -1.856  48.784 -17.818  1.00  0.00    -0.001 C 
HETATM    2  C10 UNL     1      -0.550  49.529 -17.452  1.00  0.00     0.007 C 
HETATM    3  C11 UNL     1       0.018  50.088 -18.766  1.00  0.00     0.022 C 
HETATM    4  C12 UNL     1      -1.240  50.379 -19.614  1.00  0.00     0.057 C 
HETATM    5  C14 UNL     1      -0.973  50.516 -21.132  1.00  0.00     0.014 C 
HETATM    6  C15 UNL     1      -0.234  51.810 -21.510  1.00  0.00     0.007 C 
HETATM    7  C16 UNL     1       0.034  51.865 -23.012  1.00  0.00     0.007 C 
HETATM    8  C17 UNL     1      -1.288  52.024 -23.777  1.00  0.00     0.010 C 
HETATM    9  C18 UNL     1      -1.136  52.114 -25.330  1.00  0.00     0.018 C 
HETATM   10  C19 UNL     1      -0.376  50.926 -25.945  1.00  0.00     0.023 C 
HETATM   11  C20 UNL     1      -0.422  53.419 -25.723  1.00  0.00     0.023 C 
HETATM   12  C21 UNL     1      -2.531  52.154 -25.975  1.00  0.00     0.135 C 
HETATM   13  O5  UNL     1      -2.690  52.088 -27.195  1.00  0.00    -0.297 OA
HETATM   14  C22 UNL     1      -3.710  52.356 -25.058  1.00  0.00     0.080 C 
HETATM   15  C23 UNL     1      -3.728  51.288 -23.973  1.00  0.00     0.018 C 
HETATM   16  C24 UNL     1      -2.348  50.987 -23.382  1.00  0.00    -0.026 A 
HETATM   17  C25 UNL     1      -1.977  49.528 -23.293  1.00  0.00     0.021 A 
HETATM   18  C26 UNL     1      -2.240  50.277 -21.999  1.00  0.00    -0.027 A 
HETATM   19  C27 UNL     1      -3.557  49.929 -21.276  1.00  0.00     0.011 C 
HETATM   20  C28 UNL     1      -3.492  49.253 -19.892  1.00  0.00     0.012 C 
HETATM   21  C29 UNL     1      -2.076  49.084 -19.344  1.00  0.00    -0.022 C 
HETATM   22  C30 UNL     1      -1.507  47.810 -20.078  1.00  0.00     0.017 C 
ENDROOT
BRANCH   1  23
HETATM   23  C2  UNL     1      -3.031  48.940 -16.807  1.00  0.00    -0.014 C 
HETATM   24  C1  UNL     1      -4.438  48.838 -17.401  1.00  0.00     0.010 C 
BRANCH  23  25
HETATM   25  C3  UNL     1      -2.878  50.286 -16.044  1.00  0.00     0.007 C 
BRANCH  25  26
HETATM   26  C4  UNL     1      -2.182  50.147 -14.680  1.00  0.00     0.035 C 
BRANCH  26  27
HETATM   27  C5  UNL     1      -3.111  50.545 -13.524  1.00  0.00     0.151 C 
BRANCH  27  28
HETATM   28  O1  UNL     1      -3.879  49.392 -13.145  1.00  0.00    -0.393 OA
HETATM   29  H10 UNL     1      -4.641  49.739 -12.645  1.00  0.00     0.210 HD
ENDBRANCH  27  28
BRANCH  27  30
HETATM   30  C6  UNL     1      -2.386  51.098 -12.266  1.00  0.00     0.076 C 
HETATM   31  C7  UNL     1      -3.380  51.635 -11.234  1.00  0.00     0.048 C 
HETATM   32  C8  UNL     1      -1.339  52.169 -12.591  1.00  0.00     0.048 C 
BRANCH  30  33
HETATM   33  O2  UNL     1      -1.705  49.989 -11.644  1.00  0.00    -0.388 OA
HETATM   34  H17 UNL     1      -0.882  49.847 -12.148  1.00  0.00     0.210 HD
ENDBRANCH  30  33
ENDBRANCH  27  30
ENDBRANCH  26  27
ENDBRANCH  25  26
ENDBRANCH  23  25
ENDBRANCH   1  23
BRANCH   4  35
HETATM   35  C13 UNL     1      -1.905  51.693 -19.129  1.00  0.00     0.149 C 
HETATM   36  O3  UNL     1      -3.099  51.944 -19.075  1.00  0.00    -0.649 OA
BRANCH  35  37
HETATM   37  O4  UNL     1      -1.047  52.672 -18.787  1.00  0.00    -0.776 OA
HETATM   38  H23 UNL     1      -1.635  53.413 -18.529  1.00  0.00     0.167 HD
ENDBRANCH  35  37
ENDBRANCH   4  35
TORSDOF 9
ENDMDL
MODEL 2
REMARK minimizedAffinity -7.57472754
REMARK CNNscore 0.405694485
REMARK CNNaffinity 5.94675064
REMARK  9 active torsions:
REMARK  status: ('A' for Active; 'I' for Inactive)
REMARK    1  A    between atoms: C2_2  and  C3_3 
REMARK    2  A    between atoms: C2_2  and  C9_11 
REMARK    3  A    between atoms: C3_3  and  C4_4 
REMARK    4  A    between atoms: C4_4  and  C5_5 
REMARK    5  A    between atoms: C5_5  and  O1_6 
REMARK    6  A    between atoms: C5_5  and  C6_7 
REMARK    7  A    between atoms: C6_7  and  O2_10 
REMARK    8  A    between atoms: C12_14  and  C13_15 
REMARK    9  A    between atoms: C13_15  and  O4_17 
ROOT
HETATM    1  C9  UNL     1      -7.826  47.466 -31.122  1.00  0.00    -0.001 C 
HETATM    2  C10 UNL     1      -8.260  48.939 -30.922  1.00  0.00     0.007 C 
HETATM    3  C11 UNL     1      -9.680  48.900 -30.336  1.00  0.00     0.022 C 
HETATM    4  C12 UNL     1      -9.698  47.602 -29.501  1.00  0.00     0.057 C 
HETATM    5  C14 UNL     1     -11.113  47.069 -29.173  1.00  0.00     0.014 C 
HETATM    6  C15 UNL     1     -11.865  47.923 -28.139  1.00  0.00     0.007 C 
HETATM    7  C16 UNL     1     -13.265  47.369 -27.889  1.00  0.00     0.007 C 
HETATM    8  C17 UNL     1     -13.175  46.014 -27.171  1.00  0.00     0.010 C 
HETATM    9  C18 UNL     1     -14.555  45.357 -26.843  1.00  0.00     0.018 C 
HETATM   10  C19 UNL     1     -15.461  45.179 -28.073  1.00  0.00     0.023 C 
HETATM   11  C20 UNL     1     -15.305  46.189 -25.788  1.00  0.00     0.023 C 
HETATM   12  C21 UNL     1     -14.322  43.966 -26.235  1.00  0.00     0.135 C 
HETATM   13  O5  UNL     1     -15.249  43.184 -26.014  1.00  0.00    -0.297 OA
HETATM   14  C22 UNL     1     -12.911  43.611 -25.842  1.00  0.00     0.080 C 
HETATM   15  C23 UNL     1     -11.974  43.762 -27.032  1.00  0.00     0.018 C 
HETATM   16  C24 UNL     1     -12.238  45.018 -27.867  1.00  0.00    -0.026 A 
HETATM   17  C25 UNL     1     -12.337  44.806 -29.357  1.00  0.00     0.021 A 
HETATM   18  C26 UNL     1     -11.130  45.555 -28.823  1.00  0.00    -0.027 A 
HETATM   19  C27 UNL     1      -9.792  44.788 -28.858  1.00  0.00     0.011 C 
HETATM   20  C28 UNL     1      -8.660  45.306 -29.768  1.00  0.00     0.012 C 
HETATM   21  C29 UNL     1      -8.983  46.616 -30.484  1.00  0.00    -0.022 C 
HETATM   22  C30 UNL     1      -9.881  46.197 -31.710  1.00  0.00     0.017 C 
ENDROOT
BRANCH   1  23
HETATM   23  C2  UNL     1      -6.338  47.147 -30.791  1.00  0.00    -0.014 C 
HETATM   24  C1  UNL     1      -6.105  45.947 -29.870  1.00  0.00     0.010 C 
BRANCH  23  25
HETATM   25  C3  UNL     1      -5.662  48.412 -30.190  1.00  0.00     0.007 C 
BRANCH  25  26
HETATM   26  C4  UNL     1      -5.257  48.255 -28.715  1.00  0.00     0.035 C 
BRANCH  26  27
HETATM   27  C5  UNL     1      -3.921  48.950 -28.415  1.00  0.00     0.151 C 
BRANCH  27  28
HETATM   28  O1  UNL     1      -3.849  50.150 -29.202  1.00  0.00    -0.393 OA
HETATM   29  H10 UNL     1      -2.905  50.392 -29.222  1.00  0.00     0.210 HD
ENDBRANCH  27  28
BRANCH  27  30
HETATM   30  C6  UNL     1      -3.700  49.317 -26.922  1.00  0.00     0.076 C 
HETATM   31  C7  UNL     1      -3.319  50.790 -26.756  1.00  0.00     0.048 C 
HETATM   32  C8  UNL     1      -2.664  48.428 -26.225  1.00  0.00     0.048 C 
BRANCH  30  33
HETATM   33  O2  UNL     1      -4.961  49.139 -26.246  1.00  0.00    -0.388 OA
HETATM   34  H17 UNL     1      -5.054  48.183 -26.075  1.00  0.00     0.210 HD
ENDBRANCH  30  33
ENDBRANCH  27  30
ENDBRANCH  26  27
ENDBRANCH  25  26
ENDBRANCH  23  25
ENDBRANCH   1  23
BRANCH   4  35
HETATM   35  C13 UNL     1      -8.955  47.832 -28.160  1.00  0.00     0.149 C 
HETATM   36  O3  UNL     1      -8.481  46.985 -27.420  1.00  0.00    -0.649 OA
BRANCH  35  37
HETATM   37  O4  UNL     1      -8.887  49.116 -27.761  1.00  0.00    -0.776 OA
HETATM   38  H23 UNL     1      -8.409  49.066 -26.906  1.00  0.00     0.167 HD
ENDBRANCH  35  37
ENDBRANCH   4  35
TORSDOF 9
ENDMDL
MODEL 3
REMARK minimizedAffinity -7.62685728
REMARK CNNscore 0.382420301
REMARK CNNaffinity 5.57667017
REMARK  9 active torsions:
REMARK  status: ('A' for Active; 'I' for Inactive)
REMARK    1  A    between atoms: C2_2  and  C3_3 
REMARK    2  A    between atoms: C2_2  and  C9_11 
REMARK    3  A    between atoms: C3_3  and  C4_4 
REMARK    4  A    between atoms: C4_4  and  C5_5 
REMARK    5  A    between atoms: C5_5  and  O1_6 
REMARK    6  A    between atoms: C5_5  and  C6_7 
REMARK    7  A    between atoms: C6_7  and  O2_10 
REMARK    8  A    between atoms: C12_14  and  C13_15 
REMARK    9  A    between atoms: C13_15  and  O4_17 
ROOT
HETATM    1  C9  UNL     1     -13.788  46.638 -27.555  1.00  0.00    -0.001 C 
HETATM    2  C10 UNL     1     -14.029  45.232 -28.156  1.00  0.00     0.007 C 
HETATM    3  C11 UNL     1     -12.890  44.985 -29.159  1.00  0.00     0.022 C 
HETATM    4  C12 UNL     1     -11.698  45.758 -28.558  1.00  0.00     0.057 C 
HETATM    5  C14 UNL     1     -10.562  46.069 -29.562  1.00  0.00     0.014 C 
HETATM    6  C15 UNL     1      -9.748  44.829 -29.968  1.00  0.00     0.007 C 
HETATM    7  C16 UNL     1      -8.672  45.195 -30.988  1.00  0.00     0.007 C 
HETATM    8  C17 UNL     1      -7.598  46.074 -30.330  1.00  0.00     0.010 C 
HETATM    9  C18 UNL     1      -6.429  46.494 -31.278  1.00  0.00     0.018 C 
HETATM   10  C19 UNL     1      -6.898  47.205 -32.558  1.00  0.00     0.023 C 
HETATM   11  C20 UNL     1      -5.589  45.265 -31.669  1.00  0.00     0.023 C 
HETATM   12  C21 UNL     1      -5.493  47.458 -30.531  1.00  0.00     0.135 C 
HETATM   13  O5  UNL     1      -4.568  48.043 -31.097  1.00  0.00    -0.297 OA
HETATM   14  C22 UNL     1      -5.699  47.608 -29.045  1.00  0.00     0.080 C 
HETATM   15  C23 UNL     1      -7.131  48.026 -28.747  1.00  0.00     0.018 C 
HETATM   16  C24 UNL     1      -8.176  47.287 -29.588  1.00  0.00    -0.026 A 
HETATM   17  C25 UNL     1      -9.212  48.154 -30.258  1.00  0.00     0.021 A 
HETATM   18  C26 UNL     1      -9.662  47.256 -29.119  1.00  0.00    -0.027 A 
HETATM   19  C27 UNL     1     -10.002  47.968 -27.794  1.00  0.00     0.011 C 
HETATM   20  C28 UNL     1     -11.455  47.933 -27.281  1.00  0.00     0.012 C 
HETATM   21  C29 UNL     1     -12.401  47.091 -28.135  1.00  0.00    -0.022 C 
HETATM   22  C30 UNL     1     -12.773  48.015 -29.358  1.00  0.00     0.017 C 
ENDROOT
BRANCH   1  23
HETATM   23  C2  UNL     1     -14.093  46.785 -26.034  1.00  0.00    -0.014 C 
HETATM   24  C1  UNL     1     -12.989  46.311 -25.086  1.00  0.00     0.010 C 
BRANCH  23  25
HETATM   25  C3  UNL     1     -15.424  46.054 -25.703  1.00  0.00     0.007 C 
BRANCH  25  26
HETATM   26  C4  UNL     1     -16.337  46.837 -24.746  1.00  0.00     0.035 C 
BRANCH  26  27
HETATM   27  C5  UNL     1     -17.374  45.924 -24.074  1.00  0.00     0.151 C 
BRANCH  27  28
HETATM   28  O1  UNL     1     -17.420  46.247 -22.674  1.00  0.00    -0.393 OA
HETATM   29  H10 UNL     1     -17.838  45.479 -22.244  1.00  0.00     0.210 HD
ENDBRANCH  27  28
BRANCH  27  30
HETATM   30  C6  UNL     1     -18.809  46.029 -24.658  1.00  0.00     0.076 C 
HETATM   31  C7  UNL     1     -19.857  45.505 -23.674  1.00  0.00     0.048 C 
HETATM   32  C8  UNL     1     -18.967  45.327 -26.012  1.00  0.00     0.048 C 
BRANCH  30  33
HETATM   33  O2  UNL     1     -19.091  47.430 -24.852  1.00  0.00    -0.388 OA
HETATM   34  H17 UNL     1     -18.653  47.692 -25.683  1.00  0.00     0.210 HD
ENDBRANCH  30  33
ENDBRANCH  27  30
ENDBRANCH  26  27
ENDBRANCH  25  26
ENDBRANCH  23  25
ENDBRANCH   1  23
BRANCH   4  35
HETATM   35  C13 UNL     1     -11.086  44.949 -27.385  1.00  0.00     0.149 C 
HETATM   36  O3  UNL     1     -10.173  45.286 -26.649  1.00  0.00    -0.649 OA
BRANCH  35  37
HETATM   37  O4  UNL     1     -11.600  43.716 -27.217  1.00  0.00    -0.776 OA
HETATM   38  H23 UNL     1     -11.091  43.357 -26.459  1.00  0.00     0.167 HD
ENDBRANCH  35  37
ENDBRANCH   4  35
TORSDOF 9
ENDMDL
MODEL 4
REMARK minimizedAffinity -7.84322786
REMARK CNNscore 0.332551211
REMARK CNNaffinity 5.63235855
REMARK  9 active torsions:
REMARK  status: ('A' for Active; 'I' for Inactive)
REMARK    1  A    between atoms: C2_2  and  C3_3 
REMARK    2  A    between atoms: C2_2  and  C9_11 
REMARK    3  A    between atoms: C3_3  and  C4_4 
REMARK    4  A    between atoms: C4_4  and  C5_5 
REMARK    5  A    between atoms: C5_5  and  O1_6 
REMARK    6  A    between atoms: C5_5  and  C6_7 
REMARK    7  A    between atoms: C6_7  and  O2_10 
REMARK    8  A    between atoms: C12_14  and  C13_15 
REMARK    9  A    between atoms: C13_15  and  O4_17 
ROOT
HETATM    1  C9  UNL     1     -13.780  45.327 -26.356  1.00  0.00    -0.001 C 
HETATM    2  C10 UNL     1     -12.947  45.030 -25.086  1.00  0.00     0.007 C 
HETATM    3  C11 UNL     1     -11.472  45.049 -25.516  1.00  0.00     0.022 C 
HETATM    4  C12 UNL     1     -11.438  46.080 -26.664  1.00  0.00     0.057 C 
HETATM    5  C14 UNL     1     -10.198  45.976 -27.585  1.00  0.00     0.014 C 
HETATM    6  C15 UNL     1      -8.897  46.452 -26.917  1.00  0.00     0.007 C 
HETATM    7  C16 UNL     1      -7.709  46.286 -27.861  1.00  0.00     0.007 C 
HETATM    8  C17 UNL     1      -7.832  47.263 -29.040  1.00  0.00     0.010 C 
HETATM    9  C18 UNL     1      -6.654  47.198 -30.065  1.00  0.00     0.018 C 
HETATM   10  C19 UNL     1      -6.416  45.793 -30.642  1.00  0.00     0.023 C 
HETATM   11  C20 UNL     1      -5.352  47.699 -29.416  1.00  0.00     0.023 C 
HETATM   12  C21 UNL     1      -6.958  48.137 -31.244  1.00  0.00     0.135 C 
HETATM   13  O5  UNL     1      -6.252  48.168 -32.254  1.00  0.00    -0.297 OA
HETATM   14  C22 UNL     1      -8.119  49.086 -31.091  1.00  0.00     0.080 C 
HETATM   15  C23 UNL     1      -9.392  48.318 -30.767  1.00  0.00     0.018 C 
HETATM   16  C24 UNL     1      -9.191  47.192 -29.749  1.00  0.00    -0.026 A 
HETATM   17  C25 UNL     1      -9.774  45.854 -30.127  1.00  0.00     0.021 A 
HETATM   18  C26 UNL     1     -10.420  46.616 -28.983  1.00  0.00    -0.027 A 
HETATM   19  C27 UNL     1     -11.799  47.240 -29.284  1.00  0.00     0.011 C 
HETATM   20  C28 UNL     1     -13.035  46.718 -28.525  1.00  0.00     0.012 C 
HETATM   21  C29 UNL     1     -12.719  45.666 -27.463  1.00  0.00    -0.022 C 
HETATM   22  C30 UNL     1     -12.546  44.320 -28.264  1.00  0.00     0.017 C 
ENDROOT
BRANCH   1  23
HETATM   23  C2  UNL     1     -15.025  46.240 -26.151  1.00  0.00    -0.014 C 
HETATM   24  C1  UNL     1     -15.131  46.925 -24.786  1.00  0.00     0.010 C 
BRANCH  23  25
HETATM   25  C3  UNL     1     -16.316  45.421 -26.432  1.00  0.00     0.007 C 
BRANCH  25  26
HETATM   26  C4  UNL     1     -17.002  44.893 -25.161  1.00  0.00     0.035 C 
BRANCH  26  27
HETATM   27  C5  UNL     1     -18.521  44.762 -25.345  1.00  0.00     0.151 C 
BRANCH  27  28
HETATM   28  O1  UNL     1     -18.878  43.380 -25.175  1.00  0.00    -0.393 OA
HETATM   29  H10 UNL     1     -19.758  43.287 -25.585  1.00  0.00     0.210 HD
ENDBRANCH  27  28
BRANCH  27  30
HETATM   30  C6  UNL     1     -19.372  45.622 -24.372  1.00  0.00     0.076 C 
HETATM   31  C7  UNL     1     -18.490  46.409 -23.399  1.00  0.00     0.048 C 
HETATM   32  C8  UNL     1     -20.413  44.809 -23.594  1.00  0.00     0.048 C 
BRANCH  30  33
HETATM   33  O2  UNL     1     -20.077  46.596 -25.168  1.00  0.00    -0.388 OA
HETATM   34  H17 UNL     1     -20.846  46.138 -25.554  1.00  0.00     0.210 HD
ENDBRANCH  30  33
ENDBRANCH  27  30
ENDBRANCH  26  27
ENDBRANCH  25  26
ENDBRANCH  23  25
ENDBRANCH   1  23
BRANCH   4  35
HETATM   35  C13 UNL     1     -11.475  47.515 -26.079  1.00  0.00     0.149 C 
HETATM   36  O3  UNL     1     -11.961  48.512 -26.590  1.00  0.00    -0.649 OA
BRANCH  35  37
HETATM   37  O4  UNL     1     -10.844  47.665 -24.900  1.00  0.00    -0.776 OA
HETATM   38  H23 UNL     1     -10.955  48.619 -24.699  1.00  0.00     0.167 HD
ENDBRANCH  35  37
ENDBRANCH   4  35
TORSDOF 9
ENDMDL
MODEL 5
REMARK minimizedAffinity -8.5081501
REMARK CNNscore 0.313636839
REMARK CNNaffinity 6.47369957
REMARK  9 active torsions:
REMARK  status: ('A' for Active; 'I' for Inactive)
REMARK    1  A    between atoms: C2_2  and  C3_3 
REMARK    2  A    between atoms: C2_2  and  C9_11 
REMARK    3  A    between atoms: C3_3  and  C4_4 
REMARK    4  A    between atoms: C4_4  and  C5_5 
REMARK    5  A    between atoms: C5_5  and  O1_6 
REMARK    6  A    between atoms: C5_5  and  C6_7 
REMARK    7  A    between atoms: C6_7  and  O2_10 
REMARK    8  A    between atoms: C12_14  and  C13_15 
REMARK    9  A    between atoms: C13_15  and  O4_17 
ROOT
HETATM    1  C9  UNL     1      -1.543  51.255 -22.737  1.00  0.00    -0.001 C 
HETATM    2  C10 UNL     1      -2.685  52.279 -22.535  1.00  0.00     0.007 C 
HETATM    3  C11 UNL     1      -3.876  51.497 -21.958  1.00  0.00     0.022 C 
HETATM    4  C12 UNL     1      -3.213  50.379 -21.127  1.00  0.00     0.057 C 
HETATM    5  C14 UNL     1      -4.139  49.180 -20.809  1.00  0.00     0.014 C 
HETATM    6  C15 UNL     1      -5.231  49.507 -19.777  1.00  0.00     0.007 C 
HETATM    7  C16 UNL     1      -6.133  48.298 -19.537  1.00  0.00     0.007 C 
HETATM    8  C17 UNL     1      -5.348  47.188 -18.823  1.00  0.00     0.010 C 
HETATM    9  C18 UNL     1      -6.179  45.903 -18.505  1.00  0.00     0.018 C 
HETATM   10  C19 UNL     1      -6.852  45.283 -19.741  1.00  0.00     0.023 C 
HETATM   11  C20 UNL     1      -7.258  46.212 -17.452  1.00  0.00     0.023 C 
HETATM   12  C21 UNL     1      -5.252  44.837 -17.900  1.00  0.00     0.135 C 
HETATM   13  O5  UNL     1      -5.632  43.685 -17.686  1.00  0.00    -0.297 OA
HETATM   14  C22 UNL     1      -3.866  45.274 -17.499  1.00  0.00     0.080 C 
HETATM   15  C23 UNL     1      -3.144  45.901 -18.682  1.00  0.00     0.018 C 
HETATM   16  C24 UNL     1      -4.025  46.836 -19.516  1.00  0.00    -0.026 A 
HETATM   17  C25 UNL     1      -3.992  46.612 -21.007  1.00  0.00     0.021 A 
HETATM   18  C26 UNL     1      -3.360  47.881 -20.463  1.00  0.00    -0.027 A 
HETATM   19  C27 UNL     1      -1.818  47.931 -20.493  1.00  0.00     0.011 C 
HETATM   20  C28 UNL     1      -1.123  48.970 -21.394  1.00  0.00     0.012 C 
HETATM   21  C29 UNL     1      -2.083  49.921 -22.108  1.00  0.00    -0.022 C 
HETATM   22  C30 UNL     1      -2.623  49.099 -23.341  1.00  0.00     0.017 C 
ENDROOT
BRANCH   1  23
HETATM   23  C2  UNL     1      -0.110  51.762 -22.397  1.00  0.00    -0.014 C 
HETATM   24  C1  UNL     1      -0.018  52.782 -21.259  1.00  0.00     0.010 C 
BRANCH  23  25
HETATM   25  C3  UNL     1       0.548  52.343 -23.680  1.00  0.00     0.007 C 
BRANCH  25  26
HETATM   26  C4  UNL     1      -0.034  51.775 -24.985  1.00  0.00     0.035 C 
BRANCH  26  27
HETATM   27  C5  UNL     1      -0.517  52.889 -25.925  1.00  0.00     0.151 C 
BRANCH  27  28
HETATM   28  O1  UNL     1       0.540  53.852 -26.064  1.00  0.00    -0.393 OA
HETATM   29  H10 UNL     1       0.112  54.662 -26.400  1.00  0.00     0.210 HD
ENDBRANCH  27  28
BRANCH  27  30
HETATM   30  C6  UNL     1      -0.944  52.408 -27.339  1.00  0.00     0.076 C 
HETATM   31  C7  UNL     1      -1.984  51.288 -27.263  1.00  0.00     0.048 C 
HETATM   32  C8  UNL     1       0.236  51.966 -28.212  1.00  0.00     0.048 C 
BRANCH  30  33
HETATM   33  O2  UNL     1      -1.585  53.521 -27.994  1.00  0.00    -0.388 OA
HETATM   34  H17 UNL     1      -0.873  54.100 -28.324  1.00  0.00     0.210 HD
ENDBRANCH  30  33
ENDBRANCH  27  30
ENDBRANCH  26  27
ENDBRANCH  25  26
ENDBRANCH  23  25
ENDBRANCH   1  23
BRANCH   4  35
HETATM   35  C13 UNL     1      -2.706  50.957 -19.781  1.00  0.00     0.149 C 
HETATM   36  O3  UNL     1      -3.222  51.839 -19.112  1.00  0.00    -0.649 OA
BRANCH  35  37
HETATM   37  O4  UNL     1      -1.534  50.454 -19.352  1.00  0.00    -0.776 OA
HETATM   38  H23 UNL     1      -1.368  50.939 -18.515  1.00  0.00     0.167 HD
ENDBRANCH  35  37
ENDBRANCH   4  35
TORSDOF 9
ENDMDL
MODEL 6
REMARK minimizedAffinity -7.43315411
REMARK CNNscore 0.273553669
REMARK CNNaffinity 6.52903175
REMARK  9 active torsions:
REMARK  status: ('A' for Active; 'I' for Inactive)
REMARK    1  A    between atoms: C2_2  and  C3_3 
REMARK    2  A    between atoms: C2_2  and  C9_11 
REMARK    3  A    between atoms: C3_3  and  C4_4 
REMARK    4  A    between atoms: C4_4  and  C5_5 
REMARK    5  A    between atoms: C5_5  and  O1_6 
REMARK    6  A    between atoms: C5_5  and  C6_7 
REMARK    7  A    between atoms: C6_7  and  O2_10 
REMARK    8  A    between atoms: C12_14  and  C13_15 
REMARK    9  A    between atoms: C13_15  and  O4_17 
ROOT
HETATM    1  C9  UNL     1      -3.110  47.664 -19.531  1.00  0.00    -0.001 C 
HETATM    2  C10 UNL     1      -2.118  48.408 -18.604  1.00  0.00     0.007 C 
HETATM    3  C11 UNL     1      -1.238  49.277 -19.515  1.00  0.00     0.022 C 
HETATM    4  C12 UNL     1      -2.174  49.649 -20.684  1.00  0.00     0.057 C 
HETATM    5  C14 UNL     1      -1.445  50.128 -21.963  1.00  0.00     0.014 C 
HETATM    6  C15 UNL     1      -0.818  51.525 -21.823  1.00  0.00     0.007 C 
HETATM    7  C16 UNL     1      -0.082  51.922 -23.101  1.00  0.00     0.007 C 
HETATM    8  C17 UNL     1      -1.088  52.142 -24.241  1.00  0.00     0.010 C 
HETATM    9  C18 UNL     1      -0.448  52.575 -25.600  1.00  0.00     0.018 C 
HETATM   10  C19 UNL     1       0.635  51.607 -26.107  1.00  0.00     0.023 C 
HETATM   11  C20 UNL     1       0.160  53.984 -25.480  1.00  0.00     0.023 C 
HETATM   12  C21 UNL     1      -1.543  52.648 -26.675  1.00  0.00     0.135 C 
HETATM   13  O5  UNL     1      -1.281  52.834 -27.865  1.00  0.00    -0.297 OA
HETATM   14  C22 UNL     1      -2.974  52.560 -26.210  1.00  0.00     0.080 C 
HETATM   15  C23 UNL     1      -3.194  51.285 -25.408  1.00  0.00     0.018 C 
HETATM   16  C24 UNL     1      -2.057  50.968 -24.433  1.00  0.00    -0.026 A 
HETATM   17  C25 UNL     1      -1.529  49.556 -24.477  1.00  0.00     0.021 A 
HETATM   18  C26 UNL     1      -2.309  49.987 -23.248  1.00  0.00    -0.027 A 
HETATM   19  C27 UNL     1      -3.726  49.395 -23.107  1.00  0.00     0.011 C 
HETATM   20  C28 UNL     1      -4.023  48.444 -21.930  1.00  0.00     0.012 C 
HETATM   21  C29 UNL     1      -2.857  48.268 -20.958  1.00  0.00    -0.022 C 
HETATM   22  C30 UNL     1      -1.901  47.227 -21.658  1.00  0.00     0.017 C 
ENDROOT
BRANCH   1  23
HETATM   23  C2  UNL     1      -4.562  47.511 -18.986  1.00  0.00    -0.014 C 
HETATM   24  C1  UNL     1      -4.934  48.426 -17.818  1.00  0.00     0.010 C 
BRANCH  23  25
HETATM   25  C3  UNL     1      -4.810  46.027 -18.594  1.00  0.00     0.007 C 
BRANCH  25  26
HETATM   26  C4  UNL     1      -4.508  45.030 -19.724  1.00  0.00     0.035 C 
BRANCH  26  27
HETATM   27  C5  UNL     1      -5.627  43.990 -19.882  1.00  0.00     0.151 C 
BRANCH  27  28
HETATM   28  O1  UNL     1      -6.508  44.101 -18.752  1.00  0.00    -0.393 OA
HETATM   29  H10 UNL     1      -7.005  43.263 -18.726  1.00  0.00     0.210 HD
ENDBRANCH  27  28
BRANCH  27  30
HETATM   30  C6  UNL     1      -6.464  44.127 -21.183  1.00  0.00     0.076 C 
HETATM   31  C7  UNL     1      -6.262  45.494 -21.841  1.00  0.00     0.048 C 
HETATM   32  C8  UNL     1      -7.960  43.864 -20.974  1.00  0.00     0.048 C 
BRANCH  30  33
HETATM   33  O2  UNL     1      -5.969  43.144 -22.115  1.00  0.00    -0.388 OA
HETATM   34  H17 UNL     1      -6.367  42.291 -21.860  1.00  0.00     0.210 HD
ENDBRANCH  30  33
ENDBRANCH  27  30
ENDBRANCH  26  27
ENDBRANCH  25  26
ENDBRANCH  23  25
ENDBRANCH   1  23
BRANCH   4  35
HETATM   35  C13 UNL     1      -3.144  50.774 -20.241  1.00  0.00     0.149 C 
HETATM   36  O3  UNL     1      -4.225  51.058 -20.733  1.00  0.00    -0.649 OA
BRANCH  35  37
HETATM   37  O4  UNL     1      -2.695  51.548 -19.235  1.00  0.00    -0.776 OA
HETATM   38  H23 UNL     1      -3.417  52.199 -19.106  1.00  0.00     0.167 HD
ENDBRANCH  35  37
ENDBRANCH   4  35
TORSDOF 9
ENDMDL
MODEL 7
REMARK minimizedAffinity -7.48327017
REMARK CNNscore 0.262989968
REMARK CNNaffinity 5.99663401
REMARK  9 active torsions:
REMARK  status: ('A' for Active; 'I' for Inactive)
REMARK    1  A    between atoms: C2_2  and  C3_3 
REMARK    2  A    between atoms: C2_2  and  C9_11 
REMARK    3  A    between atoms: C3_3  and  C4_4 
REMARK    4  A    between atoms: C4_4  and  C5_5 
REMARK    5  A    between atoms: C5_5  and  O1_6 
REMARK    6  A    between atoms: C5_5  and  C6_7 
REMARK    7  A    between atoms: C6_7  and  O2_10 
REMARK    8  A    between atoms: C12_14  and  C13_15 
REMARK    9  A    between atoms: C13_15  and  O4_17 
ROOT
HETATM    1  C9  UNL     1      -5.240  49.404 -23.992  1.00  0.00    -0.001 C 
HETATM    2  C10 UNL     1      -4.909  50.621 -23.095  1.00  0.00     0.007 C 
HETATM    3  C11 UNL     1      -5.928  50.606 -21.944  1.00  0.00     0.022 C 
HETATM    4  C12 UNL     1      -6.222  49.105 -21.735  1.00  0.00     0.057 C 
HETATM    5  C14 UNL     1      -7.532  48.808 -20.967  1.00  0.00     0.014 C 
HETATM    6  C15 UNL     1      -7.458  49.157 -19.471  1.00  0.00     0.007 C 
HETATM    7  C16 UNL     1      -8.792  48.880 -18.781  1.00  0.00     0.007 C 
HETATM    8  C17 UNL     1      -9.058  47.368 -18.738  1.00  0.00     0.010 C 
HETATM    9  C18 UNL     1     -10.392  46.961 -18.032  1.00  0.00     0.018 C 
HETATM   10  C19 UNL     1     -11.637  47.642 -18.626  1.00  0.00     0.023 C 
HETATM   11  C20 UNL     1     -10.319  47.280 -16.528  1.00  0.00     0.023 C 
HETATM   12  C21 UNL     1     -10.590  45.442 -18.159  1.00  0.00     0.135 C 
HETATM   13  O5  UNL     1     -11.631  44.886 -17.806  1.00  0.00    -0.297 OA
HETATM   14  C22 UNL     1      -9.424  44.634 -18.668  1.00  0.00     0.080 C 
HETATM   15  C23 UNL     1      -8.964  45.159 -20.020  1.00  0.00     0.018 C 
HETATM   16  C24 UNL     1      -8.925  46.687 -20.107  1.00  0.00    -0.026 A 
HETATM   17  C25 UNL     1      -9.591  47.293 -21.317  1.00  0.00     0.021 A 
HETATM   18  C26 UNL     1      -8.078  47.375 -21.220  1.00  0.00    -0.027 A 
HETATM   19  C27 UNL     1      -7.291  46.459 -22.180  1.00  0.00     0.011 C 
HETATM   20  C28 UNL     1      -6.418  47.102 -23.275  1.00  0.00     0.012 C 
HETATM   21  C29 UNL     1      -6.365  48.628 -23.219  1.00  0.00    -0.022 C 
HETATM   22  C30 UNL     1      -7.705  49.105 -23.900  1.00  0.00     0.017 C 
ENDROOT
BRANCH   1  23
HETATM   23  C2  UNL     1      -4.014  48.639 -24.575  1.00  0.00    -0.014 C 
HETATM   24  C1  UNL     1      -2.700  48.806 -23.809  1.00  0.00     0.010 C 
BRANCH  23  25
HETATM   25  C3  UNL     1      -3.813  49.046 -26.062  1.00  0.00     0.007 C 
BRANCH  25  26
HETATM   26  C4  UNL     1      -3.427  50.522 -26.252  1.00  0.00     0.035 C 
BRANCH  26  27
HETATM   27  C5  UNL     1      -2.359  50.695 -27.343  1.00  0.00     0.151 C 
BRANCH  27  28
HETATM   28  O1  UNL     1      -3.022  50.751 -28.617  1.00  0.00    -0.393 OA
HETATM   29  H10 UNL     1      -2.331  50.558 -29.277  1.00  0.00     0.210 HD
ENDBRANCH  27  28
BRANCH  27  30
HETATM   30  C6  UNL     1      -1.468  51.958 -27.187  1.00  0.00     0.076 C 
HETATM   31  C7  UNL     1      -0.157  51.820 -27.964  1.00  0.00     0.048 C 
HETATM   32  C8  UNL     1      -1.174  52.317 -25.726  1.00  0.00     0.048 C 
BRANCH  30  33
HETATM   33  O2  UNL     1      -2.184  53.062 -27.778  1.00  0.00    -0.388 OA
HETATM   34  H17 UNL     1      -2.842  53.354 -27.120  1.00  0.00     0.210 HD
ENDBRANCH  30  33
ENDBRANCH  27  30
ENDBRANCH  26  27
ENDBRANCH  25  26
ENDBRANCH  23  25
ENDBRANCH   1  23
BRANCH   4  35
HETATM   35  C13 UNL     1      -5.055  48.447 -20.954  1.00  0.00     0.149 C 
HETATM   36  O3  UNL     1      -4.792  47.257 -20.877  1.00  0.00    -0.649 OA
BRANCH  35  37
HETATM   37  O4  UNL     1      -4.295  49.300 -20.242  1.00  0.00    -0.776 OA
HETATM   38  H23 UNL     1      -3.635  48.716 -19.812  1.00  0.00     0.167 HD
ENDBRANCH  35  37
ENDBRANCH   4  35
TORSDOF 9
ENDMDL
MODEL 8
REMARK minimizedAffinity -7.86991835
REMARK CNNscore 0.260829777
REMARK CNNaffinity 5.51240158
REMARK  9 active torsions:
REMARK  status: ('A' for Active; 'I' for Inactive)
REMARK    1  A    between atoms: C2_2  and  C3_3 
REMARK    2  A    between atoms: C2_2  and  C9_11 
REMARK    3  A    between atoms: C3_3  and  C4_4 
REMARK    4  A    between atoms: C4_4  and  C5_5 
REMARK    5  A    between atoms: C5_5  and  O1_6 
REMARK    6  A    between atoms: C5_5  and  C6_7 
REMARK    7  A    between atoms: C6_7  and  O2_10 
REMARK    8  A    between atoms: C12_14  and  C13_15 
REMARK    9  A    between atoms: C13_15  and  O4_17 
ROOT
HETATM    1  C9  UNL     1     -13.821  45.368 -26.145  1.00  0.00    -0.001 C 
HETATM    2  C10 UNL     1     -12.942  45.028 -24.917  1.00  0.00     0.007 C 
HETATM    3  C11 UNL     1     -11.487  45.015 -25.412  1.00  0.00     0.022 C 
HETATM    4  C12 UNL     1     -11.475  46.064 -26.544  1.00  0.00     0.057 C 
HETATM    5  C14 UNL     1     -10.280  45.942 -27.520  1.00  0.00     0.014 C 
HETATM    6  C15 UNL     1      -8.939  46.372 -26.903  1.00  0.00     0.007 C 
HETATM    7  C16 UNL     1      -7.797  46.191 -27.900  1.00  0.00     0.007 C 
HETATM    8  C17 UNL     1      -7.945  47.190 -29.057  1.00  0.00     0.010 C 
HETATM    9  C18 UNL     1      -6.815  47.111 -30.135  1.00  0.00     0.018 C 
HETATM   10  C19 UNL     1      -6.640  45.709 -30.743  1.00  0.00     0.023 C 
HETATM   11  C20 UNL     1      -5.473  47.566 -29.535  1.00  0.00     0.023 C 
HETATM   12  C21 UNL     1      -7.144  48.076 -31.285  1.00  0.00     0.135 C 
HETATM   13  O5  UNL     1      -6.482  48.105 -32.324  1.00  0.00    -0.297 OA
HETATM   14  C22 UNL     1      -8.271  49.053 -31.066  1.00  0.00     0.080 C 
HETATM   15  C23 UNL     1      -9.550  48.314 -30.699  1.00  0.00     0.018 C 
HETATM   16  C24 UNL     1      -9.335  47.167 -29.708  1.00  0.00    -0.026 A 
HETATM   17  C25 UNL     1      -9.970  45.851 -30.080  1.00  0.00     0.021 A 
HETATM   18  C26 UNL     1     -10.545  46.611 -28.898  1.00  0.00    -0.027 A 
HETATM   19  C27 UNL     1     -11.918  47.275 -29.128  1.00  0.00     0.011 C 
HETATM   20  C28 UNL     1     -13.133  46.774 -28.324  1.00  0.00     0.012 C 
HETATM   21  C29 UNL     1     -12.800  45.697 -27.292  1.00  0.00    -0.022 C 
HETATM   22  C30 UNL     1     -12.699  44.360 -28.121  1.00  0.00     0.017 C 
ENDROOT
BRANCH   1  23
HETATM   23  C2  UNL     1     -15.031  46.311 -25.872  1.00  0.00    -0.014 C 
HETATM   24  C1  UNL     1     -14.970  47.110 -24.568  1.00  0.00     0.010 C 
BRANCH  23  25
HETATM   25  C3  UNL     1     -16.348  45.486 -25.924  1.00  0.00     0.007 C 
BRANCH  25  26
HETATM   26  C4  UNL     1     -16.572  44.763 -27.262  1.00  0.00     0.035 C 
BRANCH  26  27
HETATM   27  C5  UNL     1     -18.012  44.245 -27.396  1.00  0.00     0.151 C 
BRANCH  27  28
HETATM   28  O1  UNL     1     -18.894  45.377 -27.465  1.00  0.00    -0.393 OA
HETATM   29  H10 UNL     1     -19.779  45.031 -27.246  1.00  0.00     0.210 HD
ENDBRANCH  27  28
BRANCH  27  30
HETATM   30  C6  UNL     1     -18.265  43.338 -28.630  1.00  0.00     0.076 C 
HETATM   31  C7  UNL     1     -19.759  43.084 -28.845  1.00  0.00     0.048 C 
HETATM   32  C8  UNL     1     -17.512  42.004 -28.569  1.00  0.00     0.048 C 
BRANCH  30  33
HETATM   33  O2  UNL     1     -17.799  44.055 -29.791  1.00  0.00    -0.388 OA
HETATM   34  H17 UNL     1     -16.830  43.947 -29.817  1.00  0.00     0.210 HD
ENDBRANCH  30  33
ENDBRANCH  27  30
ENDBRANCH  26  27
ENDBRANCH  25  26
ENDBRANCH  23  25
ENDBRANCH   1  23
BRANCH   4  35
HETATM   35  C13 UNL     1     -11.448  47.490 -25.936  1.00  0.00     0.149 C 
HETATM   36  O3  UNL     1     -11.754  48.536 -26.486  1.00  0.00    -0.649 OA
BRANCH  35  37
HETATM   37  O4  UNL     1     -10.975  47.562 -24.678  1.00  0.00    -0.776 OA
HETATM   38  H23 UNL     1     -11.015  48.520 -24.472  1.00  0.00     0.167 HD
ENDBRANCH  35  37
ENDBRANCH   4  35
TORSDOF 9
ENDMDL
MODEL 9
REMARK minimizedAffinity -8.67201805
REMARK CNNscore 0.257165253
REMARK CNNaffinity 6.64936686
REMARK  9 active torsions:
REMARK  status: ('A' for Active; 'I' for Inactive)
REMARK    1  A    between atoms: C2_2  and  C3_3 
REMARK    2  A    between atoms: C2_2  and  C9_11 
REMARK    3  A    between atoms: C3_3  and  C4_4 
REMARK    4  A    between atoms: C4_4  and  C5_5 
REMARK    5  A    between atoms: C5_5  and  O1_6 
REMARK    6  A    between atoms: C5_5  and  C6_7 
REMARK    7  A    between atoms: C6_7  and  O2_10 
REMARK    8  A    between atoms: C12_14  and  C13_15 
REMARK    9  A    between atoms: C13_15  and  O4_17 
ROOT
HETATM    1  C9  UNL     1      -1.938  49.934 -22.197  1.00  0.00    -0.001 C 
HETATM    2  C10 UNL     1      -3.374  49.372 -22.065  1.00  0.00     0.007 C 
HETATM    3  C11 UNL     1      -3.524  48.895 -20.612  1.00  0.00     0.022 C 
HETATM    4  C12 UNL     1      -2.619  49.857 -19.814  1.00  0.00     0.057 C 
HETATM    5  C14 UNL     1      -2.215  49.343 -18.411  1.00  0.00     0.014 C 
HETATM    6  C15 UNL     1      -3.373  49.353 -17.399  1.00  0.00     0.007 C 
HETATM    7  C16 UNL     1      -2.921  48.800 -16.049  1.00  0.00     0.007 C 
HETATM    8  C17 UNL     1      -1.922  49.763 -15.392  1.00  0.00     0.010 C 
HETATM    9  C18 UNL     1      -1.404  49.308 -13.989  1.00  0.00     0.018 C 
HETATM   10  C19 UNL     1      -0.774  47.905 -13.990  1.00  0.00     0.023 C 
HETATM   11  C20 UNL     1      -2.549  49.341 -12.961  1.00  0.00     0.023 C 
HETATM   12  C21 UNL     1      -0.333  50.296 -13.500  1.00  0.00     0.135 C 
HETATM   13  O5  UNL     1       0.331  50.090 -12.483  1.00  0.00    -0.297 OA
HETATM   14  C22 UNL     1      -0.172  51.580 -14.274  1.00  0.00     0.080 C 
HETATM   15  C23 UNL     1       0.102  51.284 -15.741  1.00  0.00     0.018 C 
HETATM   16  C24 UNL     1      -0.759  50.155 -16.313  1.00  0.00    -0.026 A 
HETATM   17  C25 UNL     1      -0.018  49.091 -17.083  1.00  0.00     0.021 A 
HETATM   18  C26 UNL     1      -0.932  50.024 -17.857  1.00  0.00    -0.027 A 
HETATM   19  C27 UNL     1      -0.230  51.075 -18.741  1.00  0.00     0.011 C 
HETATM   20  C28 UNL     1      -0.403  50.997 -20.271  1.00  0.00     0.012 C 
HETATM   21  C29 UNL     1      -1.357  49.899 -20.738  1.00  0.00    -0.022 C 
HETATM   22  C30 UNL     1      -0.503  48.574 -20.690  1.00  0.00     0.017 C 
ENDROOT
BRANCH   1  23
HETATM   23  C2  UNL     1      -1.789  51.213 -23.074  1.00  0.00    -0.014 C 
HETATM   24  C1  UNL     1      -3.076  52.002 -23.323  1.00  0.00     0.010 C 
BRANCH  23  25
HETATM   25  C3  UNL     1      -1.133  50.832 -24.431  1.00  0.00     0.007 C 
BRANCH  25  26
HETATM   26  C4  UNL     1      -1.405  51.845 -25.555  1.00  0.00     0.035 C 
BRANCH  26  27
HETATM   27  C5  UNL     1      -0.686  51.458 -26.857  1.00  0.00     0.151 C 
BRANCH  27  28
HETATM   28  O1  UNL     1      -1.673  51.315 -27.891  1.00  0.00    -0.393 OA
HETATM   29  H10 UNL     1      -1.242  50.793 -28.592  1.00  0.00     0.210 HD
ENDBRANCH  27  28
BRANCH  27  30
HETATM   30  C6  UNL     1       0.392  52.471 -27.331  1.00  0.00     0.076 C 
HETATM   31  C7  UNL     1      -0.233  53.643 -28.090  1.00  0.00     0.048 C 
HETATM   32  C8  UNL     1       1.497  51.829 -28.178  1.00  0.00     0.048 C 
BRANCH  30  33
HETATM   33  O2  UNL     1       1.006  53.025 -26.150  1.00  0.00    -0.388 OA
HETATM   34  H17 UNL     1       1.655  52.367 -25.836  1.00  0.00     0.210 HD
ENDBRANCH  30  33
ENDBRANCH  27  30
ENDBRANCH  26  27
ENDBRANCH  25  26
ENDBRANCH  23  25
ENDBRANCH   1  23
BRANCH   4  35
HETATM   35  C13 UNL     1      -3.335  51.220 -19.633  1.00  0.00     0.149 C 
HETATM   36  O3  UNL     1      -4.255  51.669 -20.298  1.00  0.00    -0.649 OA
BRANCH  35  37
HETATM   37  O4  UNL     1      -2.829  52.003 -18.662  1.00  0.00    -0.776 OA
HETATM   38  H23 UNL     1      -3.384  52.811 -18.705  1.00  0.00     0.167 HD
ENDBRANCH  35  37
ENDBRANCH   4  35
TORSDOF 9
ENDMDL
