MODEL 1
REMARK minimizedAffinity -8.37202835
REMARK CNNscore 0.675964773
REMARK CNNaffinity 7.38650894
REMARK  7 active torsions:
REMARK  status: ('A' for Active; 'I' for Inactive)
REMARK    1  A    between atoms: C2_2  and  C4_4 
REMARK    2  A    between atoms: C4_4  and  O2_6 
REMARK    3  A    between atoms: O2_6  and  C5_7 
REMARK    4  A    between atoms: C5_7  and  C6_8 
REMARK    5  A    between atoms: C6_8  and  C7_10 
REMARK    6  A    between atoms: C8_12  and  C9_13 
REMARK    7  A    between atoms: C29_35  and  O7_36 
ROOT
HETATM    1  C7  UNL     1      -2.992  49.935 -20.451  1.00  0.00     0.160 C 
HETATM    2  O4  UNL     1      -3.229  50.434 -21.768  1.00  0.00    -0.339 OA
HETATM    3  C8  UNL     1      -2.041  50.162 -22.517  1.00  0.00     0.266 C 
HETATM    4  O5  UNL     1      -1.357  49.057 -21.937  1.00  0.00    -0.352 OA
HETATM    5  C15 UNL     1      -1.937  48.833 -20.653  1.00  0.00     0.168 C 
HETATM    6  C16 UNL     1      -2.685  47.484 -20.656  1.00  0.00     0.041 C 
HETATM    7  C17 UNL     1      -4.153  47.886 -20.777  1.00  0.00     0.004 C 
HETATM    8  C18 UNL     1      -5.237  46.849 -20.453  1.00  0.00    -0.001 C 
HETATM    9  C19 UNL     1      -5.028  45.572 -21.290  1.00  0.00     0.010 C 
HETATM   10  C20 UNL     1      -6.162  44.570 -21.116  1.00  0.00     0.036 C 
HETATM   11  C21 UNL     1      -7.485  45.232 -21.404  1.00  0.00    -0.064 A 
HETATM   12  C22 UNL     1      -8.267  44.783 -22.402  1.00  0.00     0.058 A 
HETATM   13  C23 UNL     1      -9.541  45.445 -22.750  1.00  0.00     0.172 A 
HETATM   14  O6  UNL     1     -10.248  45.030 -23.660  1.00  0.00    -0.289 OA
HETATM   15  C24 UNL     1      -9.922  46.631 -21.962  1.00  0.00     0.052 A 
HETATM   16  C25 UNL     1      -9.143  47.082 -20.971  1.00  0.00    -0.009 A 
HETATM   17  C26 UNL     1      -7.817  46.459 -20.542  1.00  0.00     0.004 A 
HETATM   18  C27 UNL     1      -8.015  45.988 -19.084  1.00  0.00     0.025 C 
HETATM   19  C28 UNL     1      -6.640  47.491 -20.736  1.00  0.00     0.035 C 
HETATM   20  C29 UNL     1      -6.808  48.862 -20.015  1.00  0.00     0.124 C 
HETATM   21  C30 UNL     1      -5.612  49.821 -20.226  1.00  0.00     0.045 C 
HETATM   22  C31 UNL     1      -4.245  49.172 -19.919  1.00  0.00     0.004 C 
HETATM   23  C32 UNL     1      -4.091  48.903 -18.398  1.00  0.00     0.019 C 
ENDROOT
BRANCH   1  24
HETATM   24  C6  UNL     1      -2.494  51.064 -19.536  1.00  0.00     0.188 C 
HETATM   25  O3  UNL     1      -3.274  51.797 -18.921  1.00  0.00    -0.292 OA
BRANCH  24  26
HETATM   26  C5  UNL     1      -0.982  51.295 -19.487  1.00  0.00     0.260 C 
BRANCH  26  27
HETATM   27  O2  UNL     1      -0.580  52.401 -20.297  1.00  0.00    -0.314 OA
BRANCH  27  28
HETATM   28  C4  UNL     1       0.694  52.824 -20.056  1.00  0.00     0.262 C 
HETATM   29  O1  UNL     1       1.179  52.953 -18.937  1.00  0.00    -0.265 OA
BRANCH  28  30
HETATM   30  C2  UNL     1       1.466  53.051 -21.341  1.00  0.00     0.077 C 
HETATM   31  C1  UNL     1       1.726  54.532 -21.602  1.00  0.00     0.020 C 
HETATM   32  C3  UNL     1       0.730  52.397 -22.503  1.00  0.00     0.020 C 
ENDBRANCH  28  30
ENDBRANCH  27  28
ENDBRANCH  26  27
ENDBRANCH  24  26
ENDBRANCH   1  24
BRANCH   3  33
HETATM   33  C9  UNL     1      -2.417  49.854 -23.972  1.00  0.00     0.041 C 
HETATM   34  C10 UNL     1      -3.264  48.570 -24.073  1.00  0.00     0.009 C 
HETATM   35  C11 UNL     1      -4.120  48.496 -25.340  1.00  0.00     0.001 C 
HETATM   36  C12 UNL     1      -3.501  49.277 -26.489  1.00  0.00     0.000 C 
HETATM   37  C13 UNL     1      -3.358  50.761 -26.148  1.00  0.00     0.001 C 
HETATM   38  C14 UNL     1      -3.122  51.029 -24.658  1.00  0.00     0.009 C 
ENDBRANCH   3  33
BRANCH  20  39
HETATM   39  O7  UNL     1      -7.030  48.683 -18.624  1.00  0.00    -0.395 OA
HETATM   40  H39 UNL     1      -7.193  49.558 -18.227  1.00  0.00     0.210 HD
ENDBRANCH  20  39
TORSDOF 7
ENDMDL
MODEL 2
REMARK minimizedAffinity -7.00118876
REMARK CNNscore 0.38332212
REMARK CNNaffinity 6.67872858
REMARK  7 active torsions:
REMARK  status: ('A' for Active; 'I' for Inactive)
REMARK    1  A    between atoms: C2_2  and  C4_4 
REMARK    2  A    between atoms: C4_4  and  O2_6 
REMARK    3  A    between atoms: O2_6  and  C5_7 
REMARK    4  A    between atoms: C5_7  and  C6_8 
REMARK    5  A    between atoms: C6_8  and  C7_10 
REMARK    6  A    between atoms: C8_12  and  C9_13 
REMARK    7  A    between atoms: C29_35  and  O7_36 
ROOT
HETATM    1  C7  UNL     1      -3.092  49.408 -20.894  1.00  0.00     0.160 C 
HETATM    2  O4  UNL     1      -4.454  49.731 -21.178  1.00  0.00    -0.339 OA
HETATM    3  C8  UNL     1      -4.621  49.549 -22.587  1.00  0.00     0.266 C 
HETATM    4  O5  UNL     1      -3.659  48.613 -23.062  1.00  0.00    -0.352 OA
HETATM    5  C15 UNL     1      -2.692  48.445 -22.026  1.00  0.00     0.168 C 
HETATM    6  C16 UNL     1      -2.789  47.014 -21.460  1.00  0.00     0.041 C 
HETATM    7  C17 UNL     1      -3.540  47.197 -20.144  1.00  0.00     0.004 C 
HETATM    8  C18 UNL     1      -3.522  46.061 -19.112  1.00  0.00    -0.001 C 
HETATM    9  C19 UNL     1      -4.005  44.745 -19.751  1.00  0.00     0.010 C 
HETATM   10  C20 UNL     1      -4.147  43.621 -18.733  1.00  0.00     0.036 C 
HETATM   11  C21 UNL     1      -5.032  44.063 -17.595  1.00  0.00    -0.064 A 
HETATM   12  C22 UNL     1      -6.178  43.411 -17.333  1.00  0.00     0.058 A 
HETATM   13  C23 UNL     1      -7.097  43.853 -16.264  1.00  0.00     0.172 A 
HETATM   14  O6  UNL     1      -8.139  43.254 -16.031  1.00  0.00    -0.289 OA
HETATM   15  C24 UNL     1      -6.712  45.050 -15.496  1.00  0.00     0.052 A 
HETATM   16  C25 UNL     1      -5.573  45.703 -15.759  1.00  0.00    -0.009 A 
HETATM   17  C26 UNL     1      -4.566  45.315 -16.838  1.00  0.00     0.004 A 
HETATM   18  C27 UNL     1      -3.253  44.974 -16.098  1.00  0.00     0.025 C 
HETATM   19  C28 UNL     1      -4.430  46.473 -17.901  1.00  0.00     0.035 C 
HETATM   20  C29 UNL     1      -4.048  47.874 -17.339  1.00  0.00     0.124 C 
HETATM   21  C30 UNL     1      -3.909  48.961 -18.431  1.00  0.00     0.045 C 
HETATM   22  C31 UNL     1      -2.992  48.540 -19.601  1.00  0.00     0.004 C 
HETATM   23  C32 UNL     1      -1.513  48.453 -19.137  1.00  0.00     0.019 C 
ENDROOT
BRANCH   1  24
HETATM   24  C6  UNL     1      -2.234  50.683 -20.877  1.00  0.00     0.188 C 
HETATM   25  O3  UNL     1      -2.483  51.625 -20.119  1.00  0.00    -0.292 OA
BRANCH  24  26
HETATM   26  C5  UNL     1      -1.105  50.768 -21.904  1.00  0.00     0.260 C 
BRANCH  26  27
HETATM   27  O2  UNL     1       0.126  51.197 -21.318  1.00  0.00    -0.314 OA
BRANCH  27  28
HETATM   28  C4  UNL     1       0.724  52.224 -21.986  1.00  0.00     0.262 C 
HETATM   29  O1  UNL     1       0.736  52.340 -23.207  1.00  0.00    -0.265 OA
BRANCH  28  30
HETATM   30  C2  UNL     1       1.315  53.247 -21.036  1.00  0.00     0.077 C 
HETATM   31  C1  UNL     1       0.408  53.510 -19.837  1.00  0.00     0.020 C 
HETATM   32  C3  UNL     1       1.627  54.530 -21.796  1.00  0.00     0.020 C 
ENDBRANCH  28  30
ENDBRANCH  27  28
ENDBRANCH  26  27
ENDBRANCH  24  26
ENDBRANCH   1  24
BRANCH   3  33
HETATM   33  C9  UNL     1      -6.042  49.044 -22.869  1.00  0.00     0.041 C 
HETATM   34  C10 UNL     1      -6.047  47.977 -23.982  1.00  0.00     0.009 C 
HETATM   35  C11 UNL     1      -7.267  47.053 -23.941  1.00  0.00     0.001 C 
HETATM   36  C12 UNL     1      -8.476  47.737 -23.323  1.00  0.00     0.000 C 
HETATM   37  C13 UNL     1      -8.205  48.161 -21.879  1.00  0.00     0.001 C 
HETATM   38  C14 UNL     1      -6.741  48.523 -21.609  1.00  0.00     0.009 C 
ENDBRANCH   3  33
BRANCH  20  39
HETATM   39  O7  UNL     1      -2.849  47.812 -16.580  1.00  0.00    -0.395 OA
HETATM   40  H39 UNL     1      -2.685  48.692 -16.197  1.00  0.00     0.210 HD
ENDBRANCH  20  39
TORSDOF 7
ENDMDL
MODEL 3
REMARK minimizedAffinity -7.7169652
REMARK CNNscore 0.306300104
REMARK CNNaffinity 6.63497972
REMARK  7 active torsions:
REMARK  status: ('A' for Active; 'I' for Inactive)
REMARK    1  A    between atoms: C2_2  and  C4_4 
REMARK    2  A    between atoms: C4_4  and  O2_6 
REMARK    3  A    between atoms: O2_6  and  C5_7 
REMARK    4  A    between atoms: C5_7  and  C6_8 
REMARK    5  A    between atoms: C6_8  and  C7_10 
REMARK    6  A    between atoms: C8_12  and  C9_13 
REMARK    7  A    between atoms: C29_35  and  O7_36 
ROOT
HETATM    1  C7  UNL     1      -3.004  48.520 -20.051  1.00  0.00     0.160 C 
HETATM    2  O4  UNL     1      -3.297  49.103 -21.321  1.00  0.00    -0.339 OA
HETATM    3  C8  UNL     1      -2.383  48.512 -22.251  1.00  0.00     0.266 C 
HETATM    4  O5  UNL     1      -1.972  47.238 -21.767  1.00  0.00    -0.352 OA
HETATM    5  C15 UNL     1      -2.372  47.161 -20.400  1.00  0.00     0.168 C 
HETATM    6  C16 UNL     1      -3.477  46.095 -20.247  1.00  0.00     0.041 C 
HETATM    7  C17 UNL     1      -4.757  46.917 -20.132  1.00  0.00     0.004 C 
HETATM    8  C18 UNL     1      -6.032  46.240 -19.609  1.00  0.00    -0.001 C 
HETATM    9  C19 UNL     1      -6.352  44.982 -20.439  1.00  0.00     0.010 C 
HETATM   10  C20 UNL     1      -7.688  44.357 -20.057  1.00  0.00     0.036 C 
HETATM   11  C21 UNL     1      -8.783  45.389 -20.136  1.00  0.00    -0.064 A 
HETATM   12  C22 UNL     1      -9.816  45.219 -20.980  1.00  0.00     0.058 A 
HETATM   13  C23 UNL     1     -10.876  46.238 -21.127  1.00  0.00     0.172 A 
HETATM   14  O6  UNL     1     -11.814  46.077 -21.897  1.00  0.00    -0.289 OA
HETATM   15  C24 UNL     1     -10.753  47.462 -20.314  1.00  0.00     0.052 A 
HETATM   16  C25 UNL     1      -9.722  47.634 -19.477  1.00  0.00    -0.009 A 
HETATM   17  C26 UNL     1      -8.589  46.635 -19.260  1.00  0.00     0.004 A 
HETATM   18  C27 UNL     1      -8.674  46.204 -17.778  1.00  0.00     0.025 C 
HETATM   19  C28 UNL     1      -7.208  47.277 -19.671  1.00  0.00     0.035 C 
HETATM   20  C29 UNL     1      -6.839  48.615 -18.963  1.00  0.00     0.124 C 
HETATM   21  C30 UNL     1      -5.465  49.182 -19.391  1.00  0.00     0.045 C 
HETATM   22  C31 UNL     1      -4.321  48.149 -19.301  1.00  0.00     0.004 C 
HETATM   23  C32 UNL     1      -4.005  47.804 -17.820  1.00  0.00     0.019 C 
ENDROOT
BRANCH   1  24
HETATM   24  C6  UNL     1      -2.049  49.425 -19.257  1.00  0.00     0.188 C 
HETATM   25  O3  UNL     1      -1.027  48.985 -18.723  1.00  0.00    -0.292 OA
BRANCH  24  26
HETATM   26  C5  UNL     1      -2.467  50.887 -19.087  1.00  0.00     0.260 C 
BRANCH  26  27
HETATM   27  O2  UNL     1      -1.954  51.718 -20.130  1.00  0.00    -0.314 OA
BRANCH  27  28
HETATM   28  C4  UNL     1      -0.680  52.151 -19.911  1.00  0.00     0.262 C 
HETATM   29  O1  UNL     1      -0.292  52.659 -18.864  1.00  0.00    -0.265 OA
BRANCH  28  30
HETATM   30  C2  UNL     1       0.224  51.867 -21.095  1.00  0.00     0.077 C 
HETATM   31  C1  UNL     1       1.359  52.882 -21.208  1.00  0.00     0.020 C 
HETATM   32  C3  UNL     1      -0.607  51.811 -22.371  1.00  0.00     0.020 C 
ENDBRANCH  28  30
ENDBRANCH  27  28
ENDBRANCH  26  27
ENDBRANCH  24  26
ENDBRANCH   1  24
BRANCH   3  33
HETATM   33  C9  UNL     1      -3.069  48.369 -23.616  1.00  0.00     0.041 C 
HETATM   34  C10 UNL     1      -4.597  48.237 -23.465  1.00  0.00     0.009 C 
HETATM   35  C11 UNL     1      -5.376  48.642 -24.719  1.00  0.00     0.001 C 
HETATM   36  C12 UNL     1      -4.560  48.434 -25.985  1.00  0.00     0.000 C 
HETATM   37  C13 UNL     1      -3.284  49.277 -25.976  1.00  0.00     0.001 C 
HETATM   38  C14 UNL     1      -2.711  49.511 -24.575  1.00  0.00     0.009 C 
ENDBRANCH   3  33
BRANCH  20  39
HETATM   39  O7  UNL     1      -6.872  48.472 -17.550  1.00  0.00    -0.395 OA
HETATM   40  H39 UNL     1      -6.699  49.344 -17.153  1.00  0.00     0.210 HD
ENDBRANCH  20  39
TORSDOF 7
ENDMDL
MODEL 4
REMARK minimizedAffinity -9.10787296
REMARK CNNscore 0.304356575
REMARK CNNaffinity 7.06202555
REMARK  7 active torsions:
REMARK  status: ('A' for Active; 'I' for Inactive)
REMARK    1  A    between atoms: C2_2  and  C4_4 
REMARK    2  A    between atoms: C4_4  and  O2_6 
REMARK    3  A    between atoms: O2_6  and  C5_7 
REMARK    4  A    between atoms: C5_7  and  C6_8 
REMARK    5  A    between atoms: C6_8  and  C7_10 
REMARK    6  A    between atoms: C8_12  and  C9_13 
REMARK    7  A    between atoms: C29_35  and  O7_36 
ROOT
HETATM    1  C7  UNL     1      -2.478  50.747 -23.426  1.00  0.00     0.160 C 
HETATM    2  O4  UNL     1      -1.538  50.013 -22.639  1.00  0.00    -0.339 OA
HETATM    3  C8  UNL     1      -0.850  50.979 -21.838  1.00  0.00     0.266 C 
HETATM    4  O5  UNL     1      -1.675  52.124 -21.662  1.00  0.00    -0.352 OA
HETATM    5  C15 UNL     1      -2.744  52.018 -22.600  1.00  0.00     0.168 C 
HETATM    6  C16 UNL     1      -4.071  51.799 -21.846  1.00  0.00     0.041 C 
HETATM    7  C17 UNL     1      -4.340  50.306 -22.017  1.00  0.00     0.004 C 
HETATM    8  C18 UNL     1      -5.745  49.765 -21.716  1.00  0.00    -0.001 C 
HETATM    9  C19 UNL     1      -6.183  50.162 -20.294  1.00  0.00     0.010 C 
HETATM   10  C20 UNL     1      -7.507  49.524 -19.893  1.00  0.00     0.036 C 
HETATM   11  C21 UNL     1      -7.435  48.029 -20.072  1.00  0.00    -0.064 A 
HETATM   12  C22 UNL     1      -7.599  47.210 -19.018  1.00  0.00     0.058 A 
HETATM   13  C23 UNL     1      -7.476  45.743 -19.146  1.00  0.00     0.172 A 
HETATM   14  O6  UNL     1      -7.626  45.003 -18.183  1.00  0.00    -0.289 OA
HETATM   15  C24 UNL     1      -7.155  45.207 -20.482  1.00  0.00     0.052 A 
HETATM   16  C25 UNL     1      -6.987  46.022 -21.531  1.00  0.00    -0.009 A 
HETATM   17  C26 UNL     1      -7.099  47.543 -21.490  1.00  0.00     0.004 A 
HETATM   18  C27 UNL     1      -8.277  47.913 -22.420  1.00  0.00     0.025 C 
HETATM   19  C28 UNL     1      -5.725  48.205 -21.890  1.00  0.00     0.035 C 
HETATM   20  C29 UNL     1      -5.140  47.782 -23.271  1.00  0.00     0.124 C 
HETATM   21  C30 UNL     1      -3.803  48.481 -23.616  1.00  0.00     0.045 C 
HETATM   22  C31 UNL     1      -3.856  50.016 -23.459  1.00  0.00     0.004 C 
HETATM   23  C32 UNL     1      -4.764  50.651 -24.546  1.00  0.00     0.019 C 
ENDROOT
BRANCH   1  24
HETATM   24  C6  UNL     1      -1.886  51.059 -24.809  1.00  0.00     0.188 C 
HETATM   25  O3  UNL     1      -1.592  50.165 -25.609  1.00  0.00    -0.292 OA
BRANCH  24  26
HETATM   26  C5  UNL     1      -1.596  52.528 -25.120  1.00  0.00     0.260 C 
BRANCH  26  27
HETATM   27  O2  UNL     1      -0.839  52.685 -26.322  1.00  0.00    -0.314 OA
BRANCH  27  28
HETATM   28  C4  UNL     1       0.511  52.669 -26.126  1.00  0.00     0.262 C 
HETATM   29  O1  UNL     1       1.110  53.430 -25.374  1.00  0.00    -0.265 OA
BRANCH  28  30
HETATM   30  C2  UNL     1       1.179  51.548 -26.898  1.00  0.00     0.077 C 
HETATM   31  C1  UNL     1       2.655  51.402 -26.537  1.00  0.00     0.020 C 
HETATM   32  C3  UNL     1       0.986  51.770 -28.393  1.00  0.00     0.020 C 
ENDBRANCH  28  30
ENDBRANCH  27  28
ENDBRANCH  26  27
ENDBRANCH  24  26
ENDBRANCH   1  24
BRANCH   3  33
HETATM   33  C9  UNL     1      -0.502  50.356 -20.480  1.00  0.00     0.041 C 
HETATM   34  C10 UNL     1      -0.099  51.435 -19.455  1.00  0.00     0.009 C 
HETATM   35  C11 UNL     1      -0.278  50.997 -18.000  1.00  0.00     0.001 C 
HETATM   36  C12 UNL     1      -0.148  49.491 -17.841  1.00  0.00     0.000 C 
HETATM   37  C13 UNL     1      -1.210  48.746 -18.651  1.00  0.00     0.001 C 
HETATM   38  C14 UNL     1      -1.630  49.475 -19.931  1.00  0.00     0.009 C 
ENDBRANCH   3  33
BRANCH  20  39
HETATM   39  O7  UNL     1      -6.076  48.013 -24.314  1.00  0.00    -0.395 OA
HETATM   40  H39 UNL     1      -5.694  47.676 -25.145  1.00  0.00     0.210 HD
ENDBRANCH  20  39
TORSDOF 7
ENDMDL
MODEL 5
REMARK minimizedAffinity -8.00020218
REMARK CNNscore 0.302124232
REMARK CNNaffinity 5.81574392
REMARK  7 active torsions:
REMARK  status: ('A' for Active; 'I' for Inactive)
REMARK    1  A    between atoms: C2_2  and  C4_4 
REMARK    2  A    between atoms: C4_4  and  O2_6 
REMARK    3  A    between atoms: O2_6  and  C5_7 
REMARK    4  A    between atoms: C5_7  and  C6_8 
REMARK    5  A    between atoms: C6_8  and  C7_10 
REMARK    6  A    between atoms: C8_12  and  C9_13 
REMARK    7  A    between atoms: C29_35  and  O7_36 
ROOT
HETATM    1  C7  UNL     1       6.815  66.556 -36.314  1.00  0.00     0.160 C 
HETATM    2  O4  UNL     1       6.922  67.859 -35.739  1.00  0.00    -0.339 OA
HETATM    3  C8  UNL     1       8.150  68.409 -36.225  1.00  0.00     0.266 C 
HETATM    4  O5  UNL     1       8.489  67.793 -37.462  1.00  0.00    -0.352 OA
HETATM    5  C15 UNL     1       7.653  66.645 -37.601  1.00  0.00     0.168 C 
HETATM    6  C16 UNL     1       6.670  66.863 -38.768  1.00  0.00     0.041 C 
HETATM    7  C17 UNL     1       5.355  67.208 -38.073  1.00  0.00     0.004 C 
HETATM    8  C18 UNL     1       4.049  67.143 -38.876  1.00  0.00    -0.001 C 
HETATM    9  C19 UNL     1       4.153  68.011 -40.144  1.00  0.00     0.010 C 
HETATM   10  C20 UNL     1       2.833  68.100 -40.899  1.00  0.00     0.036 C 
HETATM   11  C21 UNL     1       1.739  68.567 -39.974  1.00  0.00    -0.064 A 
HETATM   12  C22 UNL     1       1.078  69.711 -40.225  1.00  0.00     0.058 A 
HETATM   13  C23 UNL     1       0.042  70.229 -39.309  1.00  0.00     0.172 A 
HETATM   14  O6  UNL     1      -0.555  71.272 -39.544  1.00  0.00    -0.289 OA
HETATM   15  C24 UNL     1      -0.237  69.443 -38.093  1.00  0.00     0.052 A 
HETATM   16  C25 UNL     1       0.423  68.307 -37.839  1.00  0.00    -0.009 A 
HETATM   17  C26 UNL     1       1.502  67.698 -38.730  1.00  0.00     0.004 A 
HETATM   18  C27 UNL     1       0.955  66.328 -39.193  1.00  0.00     0.025 C 
HETATM   19  C28 UNL     1       2.873  67.620 -37.954  1.00  0.00     0.035 C 
HETATM   20  C29 UNL     1       2.848  66.851 -36.600  1.00  0.00     0.124 C 
HETATM   21  C30 UNL     1       4.226  66.791 -35.898  1.00  0.00     0.045 C 
HETATM   22  C31 UNL     1       5.362  66.297 -36.820  1.00  0.00     0.004 C 
HETATM   23  C32 UNL     1       5.182  64.793 -37.159  1.00  0.00     0.019 C 
ENDROOT
BRANCH   1  24
HETATM   24  C6  UNL     1       7.350  65.498 -35.336  1.00  0.00     0.188 C 
HETATM   25  O3  UNL     1       8.169  64.643 -35.685  1.00  0.00    -0.292 OA
BRANCH  24  26
HETATM   26  C5  UNL     1       6.756  65.499 -33.926  1.00  0.00     0.260 C 
BRANCH  26  27
HETATM   27  O2  UNL     1       6.694  64.185 -33.367  1.00  0.00    -0.314 OA
BRANCH  27  28
HETATM   28  C4  UNL     1       5.639  63.447 -33.817  1.00  0.00     0.262 C 
HETATM   29  O1  UNL     1       5.725  62.565 -34.665  1.00  0.00    -0.265 OA
BRANCH  28  30
HETATM   30  C2  UNL     1       4.355  63.797 -33.092  1.00  0.00     0.077 C 
HETATM   31  C1  UNL     1       4.581  64.823 -31.985  1.00  0.00     0.020 C 
HETATM   32  C3  UNL     1       3.708  62.526 -32.555  1.00  0.00     0.020 C 
ENDBRANCH  28  30
ENDBRANCH  27  28
ENDBRANCH  26  27
ENDBRANCH  24  26
ENDBRANCH   1  24
BRANCH   3  33
HETATM   33  C9  UNL     1       7.991  69.924 -36.408  1.00  0.00     0.041 C 
HETATM   34  C10 UNL     1       8.540  70.696 -35.192  1.00  0.00     0.009 C 
HETATM   35  C11 UNL     1       8.928  72.143 -35.507  1.00  0.00     0.001 C 
HETATM   36  C12 UNL     1       8.115  72.710 -36.660  1.00  0.00     0.000 C 
HETATM   37  C13 UNL     1       8.333  71.913 -37.947  1.00  0.00     0.001 C 
HETATM   38  C14 UNL     1       8.627  70.429 -37.709  1.00  0.00     0.009 C 
ENDBRANCH   3  33
BRANCH  20  39
HETATM   39  O7  UNL     1       2.348  65.533 -36.769  1.00  0.00    -0.395 OA
HETATM   40  H39 UNL     1       2.290  65.115 -35.891  1.00  0.00     0.210 HD
ENDBRANCH  20  39
TORSDOF 7
ENDMDL
MODEL 6
REMARK minimizedAffinity -7.46399498
REMARK CNNscore 0.294343144
REMARK CNNaffinity 5.6702137
REMARK  7 active torsions:
REMARK  status: ('A' for Active; 'I' for Inactive)
REMARK    1  A    between atoms: C2_2  and  C4_4 
REMARK    2  A    between atoms: C4_4  and  O2_6 
REMARK    3  A    between atoms: O2_6  and  C5_7 
REMARK    4  A    between atoms: C5_7  and  C6_8 
REMARK    5  A    between atoms: C6_8  and  C7_10 
REMARK    6  A    between atoms: C8_12  and  C9_13 
REMARK    7  A    between atoms: C29_35  and  O7_36 
ROOT
HETATM    1  C7  UNL     1      -9.675  46.898 -30.872  1.00  0.00     0.160 C 
HETATM    2  O4  UNL     1     -10.276  46.614 -32.137  1.00  0.00    -0.339 OA
HETATM    3  C8  UNL     1      -9.323  45.832 -32.864  1.00  0.00     0.266 C 
HETATM    4  O5  UNL     1      -8.468  45.155 -31.950  1.00  0.00    -0.352 OA
HETATM    5  C15 UNL     1      -8.673  45.748 -30.668  1.00  0.00     0.168 C 
HETATM    6  C16 UNL     1      -9.344  44.724 -29.730  1.00  0.00     0.041 C 
HETATM    7  C17 UNL     1     -10.803  45.168 -29.696  1.00  0.00     0.004 C 
HETATM    8  C18 UNL     1     -11.721  44.622 -28.594  1.00  0.00    -0.001 C 
HETATM    9  C19 UNL     1     -11.698  43.081 -28.587  1.00  0.00     0.010 C 
HETATM   10  C20 UNL     1     -12.706  42.487 -27.611  1.00  0.00     0.036 C 
HETATM   11  C21 UNL     1     -14.081  43.037 -27.891  1.00  0.00    -0.064 A 
HETATM   12  C22 UNL     1     -15.085  42.212 -28.237  1.00  0.00     0.058 A 
HETATM   13  C23 UNL     1     -16.429  42.722 -28.575  1.00  0.00     0.172 A 
HETATM   14  O6  UNL     1     -17.339  41.965 -28.890  1.00  0.00    -0.289 OA
HETATM   15  C24 UNL     1     -16.629  44.182 -28.527  1.00  0.00     0.052 A 
HETATM   16  C25 UNL     1     -15.629  45.005 -28.187  1.00  0.00    -0.009 A 
HETATM   17  C26 UNL     1     -14.215  44.565 -27.819  1.00  0.00     0.004 A 
HETATM   18  C27 UNL     1     -13.995  45.003 -26.353  1.00  0.00     0.025 C 
HETATM   19  C28 UNL     1     -13.172  45.167 -28.839  1.00  0.00     0.035 C 
HETATM   20  C29 UNL     1     -13.190  46.717 -28.999  1.00  0.00     0.124 C 
HETATM   21  C30 UNL     1     -12.132  47.247 -29.995  1.00  0.00     0.045 C 
HETATM   22  C31 UNL     1     -10.710  46.714 -29.719  1.00  0.00     0.004 C 
HETATM   23  C32 UNL     1     -10.143  47.310 -28.402  1.00  0.00     0.019 C 
ENDROOT
BRANCH   1  24
HETATM   24  C6  UNL     1      -8.991  48.273 -30.905  1.00  0.00     0.188 C 
HETATM   25  O3  UNL     1      -9.519  49.276 -30.415  1.00  0.00    -0.292 OA
BRANCH  24  26
HETATM   26  C5  UNL     1      -7.659  48.363 -31.651  1.00  0.00     0.260 C 
BRANCH  26  27
HETATM   27  O2  UNL     1      -6.551  48.010 -30.820  1.00  0.00    -0.314 OA
BRANCH  27  28
HETATM   28  C4  UNL     1      -5.337  48.257 -31.389  1.00  0.00     0.262 C 
HETATM   29  O1  UNL     1      -4.561  49.129 -31.012  1.00  0.00    -0.265 OA
BRANCH  28  30
HETATM   30  C2  UNL     1      -5.026  47.278 -32.504  1.00  0.00     0.077 C 
HETATM   31  C1  UNL     1      -4.303  46.035 -31.992  1.00  0.00     0.020 C 
HETATM   32  C3  UNL     1      -4.229  47.980 -33.595  1.00  0.00     0.020 C 
ENDBRANCH  28  30
ENDBRANCH  27  28
ENDBRANCH  26  27
ENDBRANCH  24  26
ENDBRANCH   1  24
BRANCH   3  33
HETATM   33  C9  UNL     1     -10.065  44.823 -33.750  1.00  0.00     0.041 C 
HETATM   34  C10 UNL     1     -10.176  43.448 -33.061  1.00  0.00     0.009 C 
HETATM   35  C11 UNL     1     -11.328  42.588 -33.587  1.00  0.00     0.001 C 
HETATM   36  C12 UNL     1     -11.668  42.918 -35.032  1.00  0.00     0.000 C 
HETATM   37  C13 UNL     1     -12.108  44.375 -35.188  1.00  0.00     0.001 C 
HETATM   38  C14 UNL     1     -11.444  45.327 -34.188  1.00  0.00     0.009 C 
ENDBRANCH   3  33
BRANCH  20  39
HETATM   39  O7  UNL     1     -13.024  47.362 -27.745  1.00  0.00    -0.395 OA
HETATM   40  H39 UNL     1     -13.106  48.323 -27.884  1.00  0.00     0.210 HD
ENDBRANCH  20  39
TORSDOF 7
ENDMDL
MODEL 7
REMARK minimizedAffinity -8.64332676
REMARK CNNscore 0.284276664
REMARK CNNaffinity 6.71152639
REMARK  7 active torsions:
REMARK  status: ('A' for Active; 'I' for Inactive)
REMARK    1  A    between atoms: C2_2  and  C4_4 
REMARK    2  A    between atoms: C4_4  and  O2_6 
REMARK    3  A    between atoms: O2_6  and  C5_7 
REMARK    4  A    between atoms: C5_7  and  C6_8 
REMARK    5  A    between atoms: C6_8  and  C7_10 
REMARK    6  A    between atoms: C8_12  and  C9_13 
REMARK    7  A    between atoms: C29_35  and  O7_36 
ROOT
HETATM    1  C7  UNL     1      -2.807  49.971 -23.743  1.00  0.00     0.160 C 
HETATM    2  O4  UNL     1      -1.443  50.125 -23.349  1.00  0.00    -0.339 OA
HETATM    3  C8  UNL     1      -1.181  51.531 -23.363  1.00  0.00     0.266 C 
HETATM    4  O5  UNL     1      -2.399  52.243 -23.176  1.00  0.00    -0.352 OA
HETATM    5  C15 UNL     1      -3.461  51.309 -23.357  1.00  0.00     0.168 C 
HETATM    6  C16 UNL     1      -4.186  51.088 -22.013  1.00  0.00     0.041 C 
HETATM    7  C17 UNL     1      -3.653  49.740 -21.534  1.00  0.00     0.004 C 
HETATM    8  C18 UNL     1      -4.397  49.003 -20.412  1.00  0.00    -0.001 C 
HETATM    9  C19 UNL     1      -4.553  49.913 -19.180  1.00  0.00     0.010 C 
HETATM   10  C20 UNL     1      -5.152  49.180 -17.986  1.00  0.00     0.036 C 
HETATM   11  C21 UNL     1      -4.349  47.941 -17.684  1.00  0.00    -0.064 A 
HETATM   12  C22 UNL     1      -3.742  47.798 -16.493  1.00  0.00     0.058 A 
HETATM   13  C23 UNL     1      -2.899  46.625 -16.185  1.00  0.00     0.172 A 
HETATM   14  O6  UNL     1      -2.349  46.501 -15.098  1.00  0.00    -0.289 OA
HETATM   15  C24 UNL     1      -2.738  45.613 -17.244  1.00  0.00     0.052 A 
HETATM   16  C25 UNL     1      -3.338  45.756 -18.433  1.00  0.00    -0.009 A 
HETATM   17  C26 UNL     1      -4.227  46.929 -18.834  1.00  0.00     0.004 A 
HETATM   18  C27 UNL     1      -5.628  46.335 -19.106  1.00  0.00     0.025 C 
HETATM   19  C28 UNL     1      -3.599  47.698 -20.059  1.00  0.00     0.035 C 
HETATM   20  C29 UNL     1      -3.302  46.839 -21.325  1.00  0.00     0.124 C 
HETATM   21  C30 UNL     1      -2.708  47.653 -22.498  1.00  0.00     0.045 C 
HETATM   22  C31 UNL     1      -3.524  48.919 -22.841  1.00  0.00     0.004 C 
HETATM   23  C32 UNL     1      -4.896  48.540 -23.461  1.00  0.00     0.019 C 
ENDROOT
BRANCH   1  24
HETATM   24  C6  UNL     1      -2.896  49.687 -25.251  1.00  0.00     0.188 C 
HETATM   25  O3  UNL     1      -2.427  48.660 -25.750  1.00  0.00    -0.292 OA
BRANCH  24  26
HETATM   26  C5  UNL     1      -3.520  50.778 -26.122  1.00  0.00     0.260 C 
BRANCH  26  27
HETATM   27  O2  UNL     1      -2.792  50.982 -27.334  1.00  0.00    -0.314 OA
BRANCH  27  28
HETATM   28  C4  UNL     1      -1.959  52.061 -27.300  1.00  0.00     0.262 C 
HETATM   29  O1  UNL     1      -2.282  53.172 -26.892  1.00  0.00    -0.265 OA
BRANCH  28  30
HETATM   30  C2  UNL     1      -0.558  51.708 -27.761  1.00  0.00     0.077 C 
HETATM   31  C1  UNL     1       0.220  50.938 -26.697  1.00  0.00     0.020 C 
HETATM   32  C3  UNL     1       0.175  52.974 -28.186  1.00  0.00     0.020 C 
ENDBRANCH  28  30
ENDBRANCH  27  28
ENDBRANCH  26  27
ENDBRANCH  24  26
ENDBRANCH   1  24
BRANCH   3  33
HETATM   33  C9  UNL     1      -0.184  51.874 -22.249  1.00  0.00     0.041 C 
HETATM   34  C10 UNL     1       0.670  53.102 -22.619  1.00  0.00     0.009 C 
HETATM   35  C11 UNL     1       1.261  53.828 -21.408  1.00  0.00     0.001 C 
HETATM   36  C12 UNL     1       1.471  52.889 -20.230  1.00  0.00     0.000 C 
HETATM   37  C13 UNL     1       0.153  52.269 -19.764  1.00  0.00     0.001 C 
HETATM   38  C14 UNL     1      -0.867  52.073 -20.891  1.00  0.00     0.009 C 
ENDBRANCH   3  33
BRANCH  20  39
HETATM   39  O7  UNL     1      -4.468  46.157 -21.765  1.00  0.00    -0.395 OA
HETATM   40  H39 UNL     1      -4.221  45.586 -22.514  1.00  0.00     0.210 HD
ENDBRANCH  20  39
TORSDOF 7
ENDMDL
MODEL 8
REMARK minimizedAffinity -7.29629469
REMARK CNNscore 0.278112859
REMARK CNNaffinity 5.89775515
REMARK  7 active torsions:
REMARK  status: ('A' for Active; 'I' for Inactive)
REMARK    1  A    between atoms: C2_2  and  C4_4 
REMARK    2  A    between atoms: C4_4  and  O2_6 
REMARK    3  A    between atoms: O2_6  and  C5_7 
REMARK    4  A    between atoms: C5_7  and  C6_8 
REMARK    5  A    between atoms: C6_8  and  C7_10 
REMARK    6  A    between atoms: C8_12  and  C9_13 
REMARK    7  A    between atoms: C29_35  and  O7_36 
ROOT
HETATM    1  C7  UNL     1     -12.314  46.069 -26.828  1.00  0.00     0.160 C 
HETATM    2  O4  UNL     1     -11.654  44.843 -26.509  1.00  0.00    -0.339 OA
HETATM    3  C8  UNL     1     -12.597  43.801 -26.779  1.00  0.00     0.266 C 
HETATM    4  O5  UNL     1     -13.533  44.249 -27.753  1.00  0.00    -0.352 OA
HETATM    5  C15 UNL     1     -13.376  45.663 -27.865  1.00  0.00     0.168 C 
HETATM    6  C16 UNL     1     -12.806  46.009 -29.256  1.00  0.00     0.041 C 
HETATM    7  C17 UNL     1     -11.333  46.296 -28.981  1.00  0.00     0.004 C 
HETATM    8  C18 UNL     1     -10.505  47.023 -30.049  1.00  0.00    -0.001 C 
HETATM    9  C19 UNL     1     -10.597  46.284 -31.398  1.00  0.00     0.010 C 
HETATM   10  C20 UNL     1      -9.674  46.880 -32.453  1.00  0.00     0.036 C 
HETATM   11  C21 UNL     1      -8.262  46.941 -31.930  1.00  0.00    -0.064 A 
HETATM   12  C22 UNL     1      -7.278  46.268 -32.552  1.00  0.00     0.058 A 
HETATM   13  C23 UNL     1      -5.894  46.257 -32.033  1.00  0.00     0.172 A 
HETATM   14  O6  UNL     1      -5.003  45.643 -32.604  1.00  0.00    -0.289 OA
HETATM   15  C24 UNL     1      -5.634  47.011 -30.793  1.00  0.00     0.052 A 
HETATM   16  C25 UNL     1      -6.614  47.677 -30.170  1.00  0.00    -0.009 A 
HETATM   17  C26 UNL     1      -8.065  47.745 -30.637  1.00  0.00     0.004 A 
HETATM   18  C27 UNL     1      -8.349  49.233 -30.944  1.00  0.00     0.025 C 
HETATM   19  C28 UNL     1      -9.019  47.114 -29.551  1.00  0.00     0.035 C 
HETATM   20  C29 UNL     1      -8.923  47.723 -28.121  1.00  0.00     0.124 C 
HETATM   21  C30 UNL     1      -9.898  47.077 -27.108  1.00  0.00     0.045 C 
HETATM   22  C31 UNL     1     -11.356  47.019 -27.612  1.00  0.00     0.004 C 
HETATM   23  C32 UNL     1     -11.971  48.443 -27.686  1.00  0.00     0.019 C 
ENDROOT
BRANCH   1  24
HETATM   24  C6  UNL     1     -12.933  46.685 -25.564  1.00  0.00     0.188 C 
HETATM   25  O3  UNL     1     -12.247  46.986 -24.583  1.00  0.00    -0.292 OA
BRANCH  24  26
HETATM   26  C5  UNL     1     -14.455  46.831 -25.542  1.00  0.00     0.260 C 
BRANCH  26  27
HETATM   27  O2  UNL     1     -15.061  46.009 -24.542  1.00  0.00    -0.314 OA
BRANCH  27  28
HETATM   28  C4  UNL     1     -15.782  46.708 -23.620  1.00  0.00     0.262 C 
HETATM   29  O1  UNL     1     -15.339  47.640 -22.957  1.00  0.00    -0.265 OA
BRANCH  28  30
HETATM   30  C2  UNL     1     -17.224  46.242 -23.559  1.00  0.00     0.077 C 
HETATM   31  C1  UNL     1     -18.126  47.043 -24.494  1.00  0.00     0.020 C 
HETATM   32  C3  UNL     1     -17.719  46.295 -22.120  1.00  0.00     0.020 C 
ENDBRANCH  28  30
ENDBRANCH  27  28
ENDBRANCH  26  27
ENDBRANCH  24  26
ENDBRANCH   1  24
BRANCH   3  33
HETATM   33  C9  UNL     1     -11.852  42.560 -27.286  1.00  0.00     0.041 C 
HETATM   34  C10 UNL     1     -11.886  41.422 -26.246  1.00  0.00     0.009 C 
HETATM   35  C11 UNL     1     -11.678  40.031 -26.850  1.00  0.00     0.001 C 
HETATM   36  C12 UNL     1     -10.846  40.084 -28.121  1.00  0.00     0.000 C 
HETATM   37  C13 UNL     1     -11.523  40.928 -29.202  1.00  0.00     0.001 C 
HETATM   38  C14 UNL     1     -12.372  42.075 -28.644  1.00  0.00     0.009 C 
ENDBRANCH   3  33
BRANCH  20  39
HETATM   39  O7  UNL     1      -9.133  49.127 -28.148  1.00  0.00    -0.395 OA
HETATM   40  H39 UNL     1      -9.000  49.472 -27.246  1.00  0.00     0.210 HD
ENDBRANCH  20  39
TORSDOF 7
ENDMDL
MODEL 9
REMARK minimizedAffinity -7.79280186
REMARK CNNscore 0.270079285
REMARK CNNaffinity 6.47713041
REMARK  7 active torsions:
REMARK  status: ('A' for Active; 'I' for Inactive)
REMARK    1  A    between atoms: C2_2  and  C4_4 
REMARK    2  A    between atoms: C4_4  and  O2_6 
REMARK    3  A    between atoms: O2_6  and  C5_7 
REMARK    4  A    between atoms: C5_7  and  C6_8 
REMARK    5  A    between atoms: C6_8  and  C7_10 
REMARK    6  A    between atoms: C8_12  and  C9_13 
REMARK    7  A    between atoms: C29_35  and  O7_36 
ROOT
HETATM    1  C7  UNL     1      -3.294  50.365 -22.152  1.00  0.00     0.160 C 
HETATM    2  O4  UNL     1      -2.617  49.234 -21.600  1.00  0.00    -0.339 OA
HETATM    3  C8  UNL     1      -2.300  49.580 -20.249  1.00  0.00     0.266 C 
HETATM    4  O5  UNL     1      -3.215  50.566 -19.784  1.00  0.00    -0.352 OA
HETATM    5  C15 UNL     1      -3.905  51.068 -20.928  1.00  0.00     0.168 C 
HETATM    6  C16 UNL     1      -5.388  50.650 -20.857  1.00  0.00     0.041 C 
HETATM    7  C17 UNL     1      -5.481  49.488 -21.842  1.00  0.00     0.004 C 
HETATM    8  C18 UNL     1      -6.865  49.031 -22.324  1.00  0.00    -0.001 C 
HETATM    9  C19 UNL     1      -7.774  48.706 -21.123  1.00  0.00     0.010 C 
HETATM   10  C20 UNL     1      -9.109  48.106 -21.548  1.00  0.00     0.036 C 
HETATM   11  C21 UNL     1      -8.878  46.908 -22.432  1.00  0.00    -0.064 A 
HETATM   12  C22 UNL     1      -9.323  45.694 -22.061  1.00  0.00     0.058 A 
HETATM   13  C23 UNL     1      -9.063  44.488 -22.874  1.00  0.00     0.172 A 
HETATM   14  O6  UNL     1      -9.471  43.386 -22.529  1.00  0.00    -0.289 OA
HETATM   15  C24 UNL     1      -8.284  44.665 -24.113  1.00  0.00     0.052 A 
HETATM   16  C25 UNL     1      -7.836  45.871 -24.481  1.00  0.00    -0.009 A 
HETATM   17  C26 UNL     1      -8.061  47.167 -23.707  1.00  0.00     0.004 A 
HETATM   18  C27 UNL     1      -8.890  48.084 -24.635  1.00  0.00     0.025 C 
HETATM   19  C28 UNL     1      -6.681  47.780 -23.253  1.00  0.00     0.035 C 
HETATM   20  C29 UNL     1      -5.646  48.047 -24.387  1.00  0.00     0.124 C 
HETATM   21  C30 UNL     1      -4.322  48.667 -23.882  1.00  0.00     0.045 C 
HETATM   22  C31 UNL     1      -4.530  49.910 -22.989  1.00  0.00     0.004 C 
HETATM   23  C32 UNL     1      -5.071  51.104 -23.821  1.00  0.00     0.019 C 
ENDROOT
BRANCH   1  24
HETATM   24  C6  UNL     1      -2.303  51.260 -22.910  1.00  0.00     0.188 C 
HETATM   25  O3  UNL     1      -2.131  52.445 -22.607  1.00  0.00    -0.292 OA
BRANCH  24  26
HETATM   26  C5  UNL     1      -1.597  50.640 -24.117  1.00  0.00     0.260 C 
BRANCH  26  27
HETATM   27  O2  UNL     1      -0.278  51.161 -24.297  1.00  0.00    -0.314 OA
BRANCH  27  28
HETATM   28  C4  UNL     1      -0.119  51.866 -25.454  1.00  0.00     0.262 C 
HETATM   29  O1  UNL     1      -0.559  52.996 -25.641  1.00  0.00    -0.265 OA
BRANCH  28  30
HETATM   30  C2  UNL     1       0.728  51.114 -26.461  1.00  0.00     0.077 C 
HETATM   31  C1  UNL     1       2.222  51.314 -26.218  1.00  0.00     0.020 C 
HETATM   32  C3  UNL     1       0.329  51.523 -27.873  1.00  0.00     0.020 C 
ENDBRANCH  28  30
ENDBRANCH  27  28
ENDBRANCH  26  27
ENDBRANCH  24  26
ENDBRANCH   1  24
BRANCH   3  33
HETATM   33  C9  UNL     1      -2.376  48.324 -19.371  1.00  0.00     0.041 C 
HETATM   34  C10 UNL     1      -2.538  48.690 -17.882  1.00  0.00     0.009 C 
HETATM   35  C11 UNL     1      -3.162  47.574 -17.040  1.00  0.00     0.001 C 
HETATM   36  C12 UNL     1      -2.874  46.198 -17.618  1.00  0.00     0.000 C 
HETATM   37  C13 UNL     1      -3.447  46.049 -19.028  1.00  0.00     0.001 C 
HETATM   38  C14 UNL     1      -3.480  47.360 -19.820  1.00  0.00     0.009 C 
ENDBRANCH   3  33
BRANCH  20  39
HETATM   39  O7  UNL     1      -6.200  48.874 -25.400  1.00  0.00    -0.395 OA
HETATM   40  H39 UNL     1      -5.543  48.960 -26.115  1.00  0.00     0.210 HD
ENDBRANCH  20  39
TORSDOF 7
ENDMDL
