MODEL 1
REMARK minimizedAffinity -10.038393
REMARK  8 active torsions:
REMARK  status: ('A' for Active; 'I' for Inactive)
REMARK    1  A    between atoms: C2_2  and  C3_3 
REMARK    2  A    between atoms: C2_2  and  C11_14 
REMARK    3  A    between atoms: C3_3  and  C4_4 
REMARK    4  A    between atoms: C4_4  and  C5_5 
REMARK       I    between atoms: C5_5  and  N1_7 
REMARK    5  A    between atoms: N1_7  and  C6_8 
REMARK    6  A    between atoms: C6_8  and  C7_9 
REMARK    7  A    between atoms: C16_19  and  O3_20 
REMARK    8  A    between atoms: C20_24  and  O4_25 
ROOT
HETATM    1  C11 UNL     1      -0.641  51.249 -20.891  1.00  0.00    -0.002 C 
HETATM    2  C12 UNL     1      -0.089  52.703 -20.774  1.00  0.00     0.006 C 
HETATM    3  C13 UNL     1       0.382  52.901 -19.329  1.00  0.00     0.006 C 
HETATM    4  C14 UNL     1       0.336  51.503 -18.735  1.00  0.00     0.001 C 
HETATM    5  C15 UNL     1       0.374  51.370 -17.202  1.00  0.00     0.024 C 
HETATM    6  C16 UNL     1       1.664  52.013 -16.636  1.00  0.00     0.123 C 
HETATM    7  C17 UNL     1       2.129  51.398 -15.310  1.00  0.00     0.037 C 
HETATM    8  C18 UNL     1       0.932  50.889 -14.499  1.00  0.00    -0.001 C 
HETATM    9  C19 UNL     1       1.303  50.608 -13.027  1.00  0.00     0.037 C 
HETATM   10  C20 UNL     1       1.976  49.265 -12.777  1.00  0.00     0.118 C 
HETATM   11  C21 UNL     1       1.183  48.121 -13.393  1.00  0.00     0.032 C 
HETATM   12  C22 UNL     1       0.935  48.343 -14.884  1.00  0.00     0.012 C 
HETATM   13  C23 UNL     1       0.231  49.689 -15.225  1.00  0.00    -0.036 C 
HETATM   14  C24 UNL     1      -1.231  49.630 -14.710  1.00  0.00     0.016 C 
HETATM   15  C25 UNL     1       0.292  49.874 -16.801  1.00  0.00     0.001 C 
HETATM   16  C26 UNL     1      -0.805  49.092 -17.568  1.00  0.00     0.007 C 
HETATM   17  C27 UNL     1      -0.821  49.354 -19.082  1.00  0.00     0.010 C 
HETATM   18  C28 UNL     1      -0.905  50.858 -19.401  1.00  0.00    -0.036 C 
HETATM   19  C29 UNL     1      -2.245  51.452 -18.902  1.00  0.00     0.016 C 
ENDROOT
BRANCH   1  20
HETATM   20  C2  UNL     1      -1.795  51.157 -21.936  1.00  0.00    -0.013 C 
HETATM   21  C1  UNL     1      -1.893  49.774 -22.583  1.00  0.00     0.010 C 
BRANCH  20  22
HETATM   22  C3  UNL     1      -1.616  52.258 -23.022  1.00  0.00     0.014 C 
BRANCH  22  23
HETATM   23  C4  UNL     1      -2.885  52.583 -23.817  1.00  0.00     0.103 C 
BRANCH  23  24
HETATM   24  C5  UNL     1      -2.811  52.255 -25.297  1.00  0.00     0.217 C 
HETATM   25  O1  UNL     1      -3.490  51.400 -25.851  1.00  0.00    -0.274 OA
HETATM   26  N1  UNL     1      -1.878  53.027 -25.960  1.00  0.00    -0.359 N 
HETATM   27  H9  UNL     1      -1.145  53.461 -25.411  1.00  0.00     0.162 HD
BRANCH  26  28
HETATM   28  C6  UNL     1      -1.557  52.774 -27.353  1.00  0.00     0.154 C 
BRANCH  28  29
HETATM   29  C7  UNL     1      -0.051  52.927 -27.601  1.00  0.00     0.139 C 
HETATM   30  C8  UNL     1       0.619  51.630 -28.021  1.00  0.00     0.035 C 
HETATM   31  C9  UNL     1       1.027  51.025 -26.701  1.00  0.00     0.029 C 
HETATM   32  C10 UNL     1       1.401  52.248 -25.893  1.00  0.00     0.168 C 
HETATM   33  O2  UNL     1       0.578  53.326 -26.361  1.00  0.00    -0.384 OA
ENDBRANCH  28  29
ENDBRANCH  26  28
ENDBRANCH  23  24
ENDBRANCH  22  23
ENDBRANCH  20  22
ENDBRANCH   1  20
BRANCH   6  34
HETATM   34  O3  UNL     1       1.410  53.407 -16.442  1.00  0.00    -0.395 OA
HETATM   35  H27 UNL     1       2.235  53.811 -16.122  1.00  0.00     0.210 HD
ENDBRANCH   6  34
BRANCH  10  36
HETATM   36  O4  UNL     1       3.297  49.283 -13.312  1.00  0.00    -0.396 OA
HETATM   37  H34 UNL     1       3.732  48.466 -13.013  1.00  0.00     0.210 HD
ENDBRANCH  10  36
TORSDOF 8
ENDMDL
MODEL 2
REMARK minimizedAffinity -9.80387115
REMARK  8 active torsions:
REMARK  status: ('A' for Active; 'I' for Inactive)
REMARK    1  A    between atoms: C2_2  and  C3_3 
REMARK    2  A    between atoms: C2_2  and  C11_14 
REMARK    3  A    between atoms: C3_3  and  C4_4 
REMARK    4  A    between atoms: C4_4  and  C5_5 
REMARK       I    between atoms: C5_5  and  N1_7 
REMARK    5  A    between atoms: N1_7  and  C6_8 
REMARK    6  A    between atoms: C6_8  and  C7_9 
REMARK    7  A    between atoms: C16_19  and  O3_20 
REMARK    8  A    between atoms: C20_24  and  O4_25 
ROOT
HETATM    1  C11 UNL     1      -0.249  51.713 -21.084  1.00  0.00    -0.002 C 
HETATM    2  C12 UNL     1       0.325  53.133 -20.792  1.00  0.00     0.006 C 
HETATM    3  C13 UNL     1       0.663  53.193 -19.298  1.00  0.00     0.006 C 
HETATM    4  C14 UNL     1       0.529  51.752 -18.835  1.00  0.00     0.001 C 
HETATM    5  C15 UNL     1       0.421  51.489 -17.323  1.00  0.00     0.024 C 
HETATM    6  C16 UNL     1       1.668  52.040 -16.588  1.00  0.00     0.123 C 
HETATM    7  C17 UNL     1       1.994  51.300 -15.285  1.00  0.00     0.037 C 
HETATM    8  C18 UNL     1       0.715  50.762 -14.632  1.00  0.00    -0.001 C 
HETATM    9  C19 UNL     1       0.941  50.346 -13.164  1.00  0.00     0.037 C 
HETATM   10  C20 UNL     1       1.555  48.966 -12.972  1.00  0.00     0.118 C 
HETATM   11  C21 UNL     1       0.796  47.904 -13.754  1.00  0.00     0.032 C 
HETATM   12  C22 UNL     1       0.693  48.259 -15.236  1.00  0.00     0.012 C 
HETATM   13  C23 UNL     1       0.056  49.651 -15.521  1.00  0.00    -0.036 C 
HETATM   14  C24 UNL     1      -1.448  49.595 -15.148  1.00  0.00     0.016 C 
HETATM   15  C25 UNL     1       0.267  49.967 -17.063  1.00  0.00     0.001 C 
HETATM   16  C26 UNL     1      -0.772  49.288 -17.992  1.00  0.00     0.007 C 
HETATM   17  C27 UNL     1      -0.641  49.677 -19.472  1.00  0.00     0.010 C 
HETATM   18  C28 UNL     1      -0.660  51.205 -19.665  1.00  0.00    -0.036 C 
HETATM   19  C29 UNL     1      -2.025  51.797 -19.239  1.00  0.00     0.016 C 
ENDROOT
BRANCH   1  20
HETATM   20  C2  UNL     1      -1.302  51.747 -22.234  1.00  0.00    -0.013 C 
HETATM   21  C1  UNL     1      -1.639  50.351 -22.763  1.00  0.00     0.010 C 
BRANCH  20  22
HETATM   22  C3  UNL     1      -0.801  52.663 -23.387  1.00  0.00     0.014 C 
BRANCH  22  23
HETATM   23  C4  UNL     1       0.186  51.996 -24.352  1.00  0.00     0.103 C 
BRANCH  23  24
HETATM   24  C5  UNL     1      -0.235  52.021 -25.810  1.00  0.00     0.217 C 
HETATM   25  O1  UNL     1       0.141  52.855 -26.624  1.00  0.00    -0.274 OA
HETATM   26  N1  UNL     1      -1.102  50.996 -26.125  1.00  0.00    -0.359 N 
HETATM   27  H9  UNL     1      -1.616  50.559 -25.368  1.00  0.00     0.162 HD
BRANCH  26  28
HETATM   28  C6  UNL     1      -1.728  50.925 -27.434  1.00  0.00     0.154 C 
BRANCH  28  29
HETATM   29  C7  UNL     1      -3.225  50.615 -27.305  1.00  0.00     0.139 C 
HETATM   30  C8  UNL     1      -3.580  49.925 -25.999  1.00  0.00     0.035 C 
HETATM   31  C9  UNL     1      -3.437  48.464 -26.346  1.00  0.00     0.029 C 
HETATM   32  C10 UNL     1      -3.921  48.429 -27.779  1.00  0.00     0.168 C 
HETATM   33  O2  UNL     1      -3.595  49.698 -28.362  1.00  0.00    -0.384 OA
ENDBRANCH  28  29
ENDBRANCH  26  28
ENDBRANCH  23  24
ENDBRANCH  22  23
ENDBRANCH  20  22
ENDBRANCH   1  20
BRANCH   6  34
HETATM   34  O3  UNL     1       1.430  53.420 -16.297  1.00  0.00    -0.395 OA
HETATM   35  H27 UNL     1       2.231  53.769 -15.870  1.00  0.00     0.210 HD
ENDBRANCH   6  34
BRANCH  10  36
HETATM   36  O4  UNL     1       2.920  48.988 -13.381  1.00  0.00    -0.396 OA
HETATM   37  H34 UNL     1       3.306  48.134 -13.117  1.00  0.00     0.210 HD
ENDBRANCH  10  36
TORSDOF 8
ENDMDL
MODEL 3
REMARK minimizedAffinity -9.24254894
REMARK  8 active torsions:
REMARK  status: ('A' for Active; 'I' for Inactive)
REMARK    1  A    between atoms: C2_2  and  C3_3 
REMARK    2  A    between atoms: C2_2  and  C11_14 
REMARK    3  A    between atoms: C3_3  and  C4_4 
REMARK    4  A    between atoms: C4_4  and  C5_5 
REMARK       I    between atoms: C5_5  and  N1_7 
REMARK    5  A    between atoms: N1_7  and  C6_8 
REMARK    6  A    between atoms: C6_8  and  C7_9 
REMARK    7  A    between atoms: C16_19  and  O3_20 
REMARK    8  A    between atoms: C20_24  and  O4_25 
ROOT
HETATM    1  C11 UNL     1      -0.194  51.938 -25.635  1.00  0.00    -0.002 C 
HETATM    2  C12 UNL     1       0.587  53.241 -25.284  1.00  0.00     0.006 C 
HETATM    3  C13 UNL     1       0.533  53.414 -23.762  1.00  0.00     0.006 C 
HETATM    4  C14 UNL     1      -0.035  52.095 -23.265  1.00  0.00     0.001 C 
HETATM    5  C15 UNL     1      -0.586  52.044 -21.829  1.00  0.00     0.024 C 
HETATM    6  C16 UNL     1       0.519  52.422 -20.813  1.00  0.00     0.123 C 
HETATM    7  C17 UNL     1       0.324  51.796 -19.426  1.00  0.00     0.037 C 
HETATM    8  C18 UNL     1      -1.167  51.605 -19.123  1.00  0.00    -0.001 C 
HETATM    9  C19 UNL     1      -1.427  51.335 -17.626  1.00  0.00     0.037 C 
HETATM   10  C20 UNL     1      -1.207  49.894 -17.184  1.00  0.00     0.118 C 
HETATM   11  C21 UNL     1      -1.957  48.916 -18.078  1.00  0.00     0.032 C 
HETATM   12  C22 UNL     1      -1.591  49.102 -19.550  1.00  0.00     0.012 C 
HETATM   13  C23 UNL     1      -1.805  50.547 -20.088  1.00  0.00    -0.036 C 
HETATM   14  C24 UNL     1      -3.328  50.836 -20.145  1.00  0.00     0.016 C 
HETATM   15  C25 UNL     1      -1.138  50.625 -21.527  1.00  0.00     0.001 C 
HETATM   16  C26 UNL     1      -2.026  50.058 -22.663  1.00  0.00     0.007 C 
HETATM   17  C27 UNL     1      -1.434  50.231 -24.070  1.00  0.00     0.010 C 
HETATM   18  C28 UNL     1      -1.060  51.697 -24.357  1.00  0.00    -0.036 C 
HETATM   19  C29 UNL     1      -2.321  52.595 -24.366  1.00  0.00     0.016 C 
ENDROOT
BRANCH   1  20
HETATM   20  C2  UNL     1      -0.880  52.039 -27.031  1.00  0.00    -0.013 C 
HETATM   21  C1  UNL     1      -0.469  53.298 -27.798  1.00  0.00     0.010 C 
BRANCH  20  22
HETATM   22  C3  UNL     1      -2.427  51.978 -26.869  1.00  0.00     0.014 C 
BRANCH  22  23
HETATM   23  C4  UNL     1      -3.125  50.962 -27.779  1.00  0.00     0.103 C 
BRANCH  23  24
HETATM   24  C5  UNL     1      -3.441  49.630 -27.122  1.00  0.00     0.217 C 
HETATM   25  O1  UNL     1      -3.034  48.547 -27.524  1.00  0.00    -0.274 OA
HETATM   26  N1  UNL     1      -4.250  49.770 -26.014  1.00  0.00    -0.359 N 
HETATM   27  H9  UNL     1      -4.803  50.616 -25.933  1.00  0.00     0.162 HD
BRANCH  26  28
HETATM   28  C6  UNL     1      -4.778  48.605 -25.325  1.00  0.00     0.154 C 
BRANCH  28  29
HETATM   29  C7  UNL     1      -5.230  48.971 -23.906  1.00  0.00     0.139 C 
HETATM   30  C8  UNL     1      -5.410  47.759 -23.007  1.00  0.00     0.035 C 
HETATM   31  C9  UNL     1      -6.855  47.390 -23.235  1.00  0.00     0.029 C 
HETATM   32  C10 UNL     1      -7.506  48.745 -23.403  1.00  0.00     0.168 C 
HETATM   33  O2  UNL     1      -6.524  49.612 -23.988  1.00  0.00    -0.384 OA
ENDBRANCH  28  29
ENDBRANCH  26  28
ENDBRANCH  23  24
ENDBRANCH  22  23
ENDBRANCH  20  22
ENDBRANCH   1  20
BRANCH   6  34
HETATM   34  O3  UNL     1       0.530  53.847 -20.687  1.00  0.00    -0.395 OA
HETATM   35  H27 UNL     1       1.250  54.079 -20.077  1.00  0.00     0.210 HD
ENDBRANCH   6  34
BRANCH  10  36
HETATM   36  O4  UNL     1       0.186  49.595 -17.198  1.00  0.00    -0.396 OA
HETATM   37  H34 UNL     1       0.290  48.720 -16.783  1.00  0.00     0.210 HD
ENDBRANCH  10  36
TORSDOF 8
ENDMDL
MODEL 4
REMARK minimizedAffinity -9.23203468
REMARK  8 active torsions:
REMARK  status: ('A' for Active; 'I' for Inactive)
REMARK    1  A    between atoms: C2_2  and  C3_3 
REMARK    2  A    between atoms: C2_2  and  C11_14 
REMARK    3  A    between atoms: C3_3  and  C4_4 
REMARK    4  A    between atoms: C4_4  and  C5_5 
REMARK       I    between atoms: C5_5  and  N1_7 
REMARK    5  A    between atoms: N1_7  and  C6_8 
REMARK    6  A    between atoms: C6_8  and  C7_9 
REMARK    7  A    between atoms: C16_19  and  O3_20 
REMARK    8  A    between atoms: C20_24  and  O4_25 
ROOT
HETATM    1  C11 UNL     1      -0.348  51.350 -18.569  1.00  0.00    -0.002 C 
HETATM    2  C12 UNL     1      -1.873  51.379 -18.246  1.00  0.00     0.006 C 
HETATM    3  C13 UNL     1      -2.621  51.549 -19.573  1.00  0.00     0.006 C 
HETATM    4  C14 UNL     1      -1.545  51.350 -20.627  1.00  0.00     0.001 C 
HETATM    5  C15 UNL     1      -1.843  51.824 -22.060  1.00  0.00     0.024 C 
HETATM    6  C16 UNL     1      -3.098  51.106 -22.616  1.00  0.00     0.123 C 
HETATM    7  C17 UNL     1      -3.108  50.975 -24.144  1.00  0.00     0.037 C 
HETATM    8  C18 UNL     1      -2.366  52.149 -24.794  1.00  0.00    -0.001 C 
HETATM    9  C19 UNL     1      -2.664  52.262 -26.304  1.00  0.00     0.037 C 
HETATM   10  C20 UNL     1      -1.852  51.327 -27.192  1.00  0.00     0.118 C 
HETATM   11  C21 UNL     1      -0.363  51.430 -26.895  1.00  0.00     0.032 C 
HETATM   12  C22 UNL     1      -0.062  51.184 -25.418  1.00  0.00     0.012 C 
HETATM   13  C23 UNL     1      -0.839  52.114 -24.440  1.00  0.00    -0.036 C 
HETATM   14  C24 UNL     1      -0.298  53.559 -24.593  1.00  0.00     0.016 C 
HETATM   15  C25 UNL     1      -0.616  51.555 -22.970  1.00  0.00     0.001 C 
HETATM   16  C26 UNL     1       0.728  51.987 -22.331  1.00  0.00     0.007 C 
HETATM   17  C27 UNL     1       0.902  51.542 -20.871  1.00  0.00     0.010 C 
HETATM   18  C28 UNL     1      -0.283  51.989 -19.993  1.00  0.00    -0.036 C 
HETATM   19  C29 UNL     1      -0.355  53.533 -19.911  1.00  0.00     0.016 C 
ENDROOT
BRANCH   1  20
HETATM   20  C2  UNL     1       0.495  51.955 -17.405  1.00  0.00    -0.013 C 
HETATM   21  C1  UNL     1       1.857  52.472 -17.873  1.00  0.00     0.010 C 
BRANCH  20  22
HETATM   22  C3  UNL     1       0.670  50.902 -16.273  1.00  0.00     0.014 C 
BRANCH  22  23
HETATM   23  C4  UNL     1       0.374  51.424 -14.863  1.00  0.00     0.103 C 
BRANCH  23  24
HETATM   24  C5  UNL     1      -1.049  51.194 -14.385  1.00  0.00     0.217 C 
HETATM   25  O1  UNL     1      -1.747  50.246 -14.722  1.00  0.00    -0.274 OA
HETATM   26  N1  UNL     1      -1.481  52.183 -13.526  1.00  0.00    -0.359 N 
HETATM   27  H9  UNL     1      -1.001  53.075 -13.549  1.00  0.00     0.162 HD
BRANCH  26  28
HETATM   28  C6  UNL     1      -2.858  52.220 -13.066  1.00  0.00     0.154 C 
BRANCH  28  29
HETATM   29  C7  UNL     1      -2.934  51.953 -11.557  1.00  0.00     0.139 C 
HETATM   30  C8  UNL     1      -4.212  52.476 -10.923  1.00  0.00     0.035 C 
HETATM   31  C9  UNL     1      -3.835  53.882 -10.526  1.00  0.00     0.029 C 
HETATM   32  C10 UNL     1      -2.388  53.718 -10.117  1.00  0.00     0.168 C 
HETATM   33  O2  UNL     1      -1.845  52.655 -10.912  1.00  0.00    -0.384 OA
ENDBRANCH  28  29
ENDBRANCH  26  28
ENDBRANCH  23  24
ENDBRANCH  22  23
ENDBRANCH  20  22
ENDBRANCH   1  20
BRANCH   6  34
HETATM   34  O3  UNL     1      -4.247  51.849 -22.202  1.00  0.00    -0.395 OA
HETATM   35  H27 UNL     1      -5.032  51.373 -22.522  1.00  0.00     0.210 HD
ENDBRANCH   6  34
BRANCH  10  36
HETATM   36  O4  UNL     1      -2.293  49.985 -27.005  1.00  0.00    -0.396 OA
HETATM   37  H34 UNL     1      -1.848  49.446 -27.683  1.00  0.00     0.210 HD
ENDBRANCH  10  36
TORSDOF 8
ENDMDL
MODEL 5
REMARK minimizedAffinity -9.12260437
REMARK  8 active torsions:
REMARK  status: ('A' for Active; 'I' for Inactive)
REMARK    1  A    between atoms: C2_2  and  C3_3 
REMARK    2  A    between atoms: C2_2  and  C11_14 
REMARK    3  A    between atoms: C3_3  and  C4_4 
REMARK    4  A    between atoms: C4_4  and  C5_5 
REMARK       I    between atoms: C5_5  and  N1_7 
REMARK    5  A    between atoms: N1_7  and  C6_8 
REMARK    6  A    between atoms: C6_8  and  C7_9 
REMARK    7  A    between atoms: C16_19  and  O3_20 
REMARK    8  A    between atoms: C20_24  and  O4_25 
ROOT
HETATM    1  C11 UNL     1      -0.539  51.287 -25.540  1.00  0.00    -0.002 C 
HETATM    2  C12 UNL     1       0.577  52.297 -25.133  1.00  0.00     0.006 C 
HETATM    3  C13 UNL     1       0.509  52.470 -23.612  1.00  0.00     0.006 C 
HETATM    4  C14 UNL     1      -0.448  51.377 -23.163  1.00  0.00     0.001 C 
HETATM    5  C15 UNL     1      -1.053  51.485 -21.753  1.00  0.00     0.024 C 
HETATM    6  C16 UNL     1       0.067  51.512 -20.684  1.00  0.00     0.123 C 
HETATM    7  C17 UNL     1      -0.368  50.965 -19.319  1.00  0.00     0.037 C 
HETATM    8  C18 UNL     1      -1.861  51.226 -19.082  1.00  0.00    -0.001 C 
HETATM    9  C19 UNL     1      -2.257  51.037 -17.602  1.00  0.00     0.037 C 
HETATM   10  C20 UNL     1      -2.496  49.593 -17.179  1.00  0.00     0.118 C 
HETATM   11  C21 UNL     1      -3.461  48.888 -18.121  1.00  0.00     0.032 C 
HETATM   12  C22 UNL     1      -2.990  48.965 -19.573  1.00  0.00     0.012 C 
HETATM   13  C23 UNL     1      -2.740  50.411 -20.092  1.00  0.00    -0.036 C 
HETATM   14  C24 UNL     1      -4.104  51.141 -20.207  1.00  0.00     0.016 C 
HETATM   15  C25 UNL     1      -2.016  50.294 -21.501  1.00  0.00     0.001 C 
HETATM   16  C26 UNL     1      -2.980  50.024 -22.683  1.00  0.00     0.007 C 
HETATM   17  C27 UNL     1      -2.300  50.020 -24.061  1.00  0.00     0.010 C 
HETATM   18  C28 UNL     1      -1.494  51.309 -24.304  1.00  0.00    -0.036 C 
HETATM   19  C29 UNL     1      -2.429  52.542 -24.349  1.00  0.00     0.016 C 
ENDROOT
BRANCH   1  20
HETATM   20  C2  UNL     1      -1.100  51.596 -26.962  1.00  0.00    -0.013 C 
HETATM   21  C1  UNL     1      -0.750  53.007 -27.439  1.00  0.00     0.010 C 
BRANCH  20  22
HETATM   22  C3  UNL     1      -2.641  51.378 -26.985  1.00  0.00     0.014 C 
BRANCH  22  23
HETATM   23  C4  UNL     1      -3.144  50.486 -28.125  1.00  0.00     0.103 C 
BRANCH  23  24
HETATM   24  C5  UNL     1      -3.729  49.157 -27.683  1.00  0.00     0.217 C 
HETATM   25  O1  UNL     1      -3.171  48.374 -26.924  1.00  0.00    -0.274 OA
HETATM   26  N1  UNL     1      -4.968  48.917 -28.239  1.00  0.00    -0.359 N 
HETATM   27  H9  UNL     1      -5.216  49.423 -29.082  1.00  0.00     0.162 HD
BRANCH  26  28
HETATM   28  C6  UNL     1      -5.635  47.641 -28.051  1.00  0.00     0.154 C 
BRANCH  28  29
HETATM   29  C7  UNL     1      -6.981  47.617 -28.787  1.00  0.00     0.139 C 
HETATM   30  C8  UNL     1      -7.587  46.226 -28.874  1.00  0.00     0.035 C 
HETATM   31  C9  UNL     1      -7.015  45.696 -30.165  1.00  0.00     0.029 C 
HETATM   32  C10 UNL     1      -6.975  46.937 -31.028  1.00  0.00     0.168 C 
HETATM   33  O2  UNL     1      -6.765  48.051 -30.150  1.00  0.00    -0.384 OA
ENDBRANCH  28  29
ENDBRANCH  26  28
ENDBRANCH  23  24
ENDBRANCH  22  23
ENDBRANCH  20  22
ENDBRANCH   1  20
BRANCH   6  34
HETATM   34  O3  UNL     1       0.495  52.868 -20.532  1.00  0.00    -0.395 OA
HETATM   35  H27 UNL     1       1.224  52.872 -19.888  1.00  0.00     0.210 HD
ENDBRANCH   6  34
BRANCH  10  36
HETATM   36  O4  UNL     1      -1.255  48.893 -17.140  1.00  0.00    -0.396 OA
HETATM   37  H34 UNL     1      -1.435  48.025 -16.737  1.00  0.00     0.210 HD
ENDBRANCH  10  36
TORSDOF 8
ENDMDL
MODEL 6
REMARK minimizedAffinity -9.05270576
REMARK  8 active torsions:
REMARK  status: ('A' for Active; 'I' for Inactive)
REMARK    1  A    between atoms: C2_2  and  C3_3 
REMARK    2  A    between atoms: C2_2  and  C11_14 
REMARK    3  A    between atoms: C3_3  and  C4_4 
REMARK    4  A    between atoms: C4_4  and  C5_5 
REMARK       I    between atoms: C5_5  and  N1_7 
REMARK    5  A    between atoms: N1_7  and  C6_8 
REMARK    6  A    between atoms: C6_8  and  C7_9 
REMARK    7  A    between atoms: C16_19  and  O3_20 
REMARK    8  A    between atoms: C20_24  and  O4_25 
ROOT
HETATM    1  C11 UNL     1      -0.563  51.324 -25.172  1.00  0.00    -0.002 C 
HETATM    2  C12 UNL     1       0.193  52.669 -25.394  1.00  0.00     0.006 C 
HETATM    3  C13 UNL     1       0.513  53.250 -24.013  1.00  0.00     0.006 C 
HETATM    4  C14 UNL     1       0.178  52.120 -23.055  1.00  0.00     0.001 C 
HETATM    5  C15 UNL     1       0.011  52.465 -21.564  1.00  0.00     0.024 C 
HETATM    6  C16 UNL     1       1.309  53.100 -21.008  1.00  0.00     0.123 C 
HETATM    7  C17 UNL     1       1.512  52.876 -19.504  1.00  0.00     0.037 C 
HETATM    8  C18 UNL     1       0.161  52.783 -18.784  1.00  0.00    -0.001 C 
HETATM    9  C19 UNL     1       0.306  52.932 -17.255  1.00  0.00     0.037 C 
HETATM   10  C20 UNL     1       0.725  51.664 -16.521  1.00  0.00     0.118 C 
HETATM   11  C21 UNL     1      -0.160  50.484 -16.897  1.00  0.00     0.032 C 
HETATM   12  C22 UNL     1      -0.190  50.260 -18.408  1.00  0.00     0.012 C 
HETATM   13  C23 UNL     1      -0.628  51.505 -19.234  1.00  0.00    -0.036 C 
HETATM   14  C24 UNL     1      -2.132  51.776 -18.967  1.00  0.00     0.016 C 
HETATM   15  C25 UNL     1      -0.352  51.185 -20.765  1.00  0.00     0.001 C 
HETATM   16  C26 UNL     1      -1.458  50.335 -21.439  1.00  0.00     0.007 C 
HETATM   17  C27 UNL     1      -1.253  50.115 -22.945  1.00  0.00     0.010 C 
HETATM   18  C28 UNL     1      -1.061  51.445 -23.696  1.00  0.00    -0.036 C 
HETATM   19  C29 UNL     1      -2.341  52.314 -23.613  1.00  0.00     0.016 C 
ENDROOT
BRANCH   1  20
HETATM   20  C2  UNL     1      -1.584  51.045 -26.317  1.00  0.00    -0.013 C 
HETATM   21  C1  UNL     1      -2.608  52.171 -26.480  1.00  0.00     0.010 C 
BRANCH  20  22
HETATM   22  C3  UNL     1      -2.301  49.686 -26.070  1.00  0.00     0.014 C 
BRANCH  22  23
HETATM   23  C4  UNL     1      -3.275  49.266 -27.175  1.00  0.00     0.103 C 
BRANCH  23  24
HETATM   24  C5  UNL     1      -4.510  48.527 -26.689  1.00  0.00     0.217 C 
HETATM   25  O1  UNL     1      -4.706  48.199 -25.526  1.00  0.00    -0.274 OA
HETATM   26  N1  UNL     1      -5.395  48.254 -27.712  1.00  0.00    -0.359 N 
HETATM   27  H9  UNL     1      -5.038  48.252 -28.661  1.00  0.00     0.162 HD
BRANCH  26  28
HETATM   28  C6  UNL     1      -6.571  47.435 -27.479  1.00  0.00     0.154 C 
BRANCH  28  29
HETATM   29  C7  UNL     1      -7.057  46.797 -28.787  1.00  0.00     0.139 C 
HETATM   30  C8  UNL     1      -6.668  47.595 -30.020  1.00  0.00     0.035 C 
HETATM   31  C9  UNL     1      -7.838  48.531 -30.191  1.00  0.00     0.029 C 
HETATM   32  C10 UNL     1      -9.002  47.667 -29.758  1.00  0.00     0.168 C 
HETATM   33  O2  UNL     1      -8.503  46.758 -28.768  1.00  0.00    -0.384 OA
ENDBRANCH  28  29
ENDBRANCH  26  28
ENDBRANCH  23  24
ENDBRANCH  22  23
ENDBRANCH  20  22
ENDBRANCH   1  20
BRANCH   6  34
HETATM   34  O3  UNL     1       1.257  54.505 -21.270  1.00  0.00    -0.395 OA
HETATM   35  H27 UNL     1       2.091  54.891 -20.953  1.00  0.00     0.210 HD
ENDBRANCH   6  34
BRANCH  10  36
HETATM   36  O4  UNL     1       2.086  51.366 -16.817  1.00  0.00    -0.396 OA
HETATM   37  H34 UNL     1       2.349  50.637 -16.229  1.00  0.00     0.210 HD
ENDBRANCH  10  36
TORSDOF 8
ENDMDL
MODEL 7
REMARK minimizedAffinity -8.86351204
REMARK  8 active torsions:
REMARK  status: ('A' for Active; 'I' for Inactive)
REMARK    1  A    between atoms: C2_2  and  C3_3 
REMARK    2  A    between atoms: C2_2  and  C11_14 
REMARK    3  A    between atoms: C3_3  and  C4_4 
REMARK    4  A    between atoms: C4_4  and  C5_5 
REMARK       I    between atoms: C5_5  and  N1_7 
REMARK    5  A    between atoms: N1_7  and  C6_8 
REMARK    6  A    between atoms: C6_8  and  C7_9 
REMARK    7  A    between atoms: C16_19  and  O3_20 
REMARK    8  A    between atoms: C20_24  and  O4_25 
ROOT
HETATM    1  C11 UNL     1      -1.595  51.822 -21.987  1.00  0.00    -0.002 C 
HETATM    2  C12 UNL     1      -2.659  52.387 -22.977  1.00  0.00     0.006 C 
HETATM    3  C13 UNL     1      -3.982  51.671 -22.688  1.00  0.00     0.006 C 
HETATM    4  C14 UNL     1      -3.717  50.923 -21.392  1.00  0.00     0.001 C 
HETATM    5  C15 UNL     1      -4.688  49.795 -21.000  1.00  0.00     0.024 C 
HETATM    6  C16 UNL     1      -6.129  50.344 -20.867  1.00  0.00     0.123 C 
HETATM    7  C17 UNL     1      -7.006  49.549 -19.892  1.00  0.00     0.037 C 
HETATM    8  C18 UNL     1      -6.586  48.074 -19.865  1.00  0.00    -0.001 C 
HETATM    9  C19 UNL     1      -7.652  47.178 -19.200  1.00  0.00     0.037 C 
HETATM   10  C20 UNL     1      -7.620  47.159 -17.678  1.00  0.00     0.118 C 
HETATM   11  C21 UNL     1      -6.222  46.867 -17.152  1.00  0.00     0.032 C 
HETATM   12  C22 UNL     1      -5.192  47.846 -17.713  1.00  0.00     0.012 C 
HETATM   13  C23 UNL     1      -5.146  47.911 -19.267  1.00  0.00    -0.036 C 
HETATM   14  C24 UNL     1      -4.573  46.574 -19.805  1.00  0.00     0.016 C 
HETATM   15  C25 UNL     1      -4.229  49.146 -19.667  1.00  0.00     0.001 C 
HETATM   16  C26 UNL     1      -2.711  48.841 -19.623  1.00  0.00     0.007 C 
HETATM   17  C27 UNL     1      -1.823  49.995 -20.114  1.00  0.00     0.010 C 
HETATM   18  C28 UNL     1      -2.238  50.478 -21.516  1.00  0.00    -0.036 C 
HETATM   19  C29 UNL     1      -2.022  49.363 -22.569  1.00  0.00     0.016 C 
ENDROOT
BRANCH   1  20
HETATM   20  C2  UNL     1      -0.169  51.823 -22.617  1.00  0.00    -0.013 C 
HETATM   21  C1  UNL     1       0.928  52.113 -21.589  1.00  0.00     0.010 C 
BRANCH  20  22
HETATM   22  C3  UNL     1      -0.106  52.847 -23.787  1.00  0.00     0.014 C 
BRANCH  22  23
HETATM   23  C4  UNL     1       0.711  52.385 -24.998  1.00  0.00     0.103 C 
BRANCH  23  24
HETATM   24  C5  UNL     1      -0.038  52.410 -26.319  1.00  0.00     0.217 C 
HETATM   25  O1  UNL     1      -0.119  53.388 -27.050  1.00  0.00    -0.274 OA
HETATM   26  N1  UNL     1      -0.634  51.199 -26.607  1.00  0.00    -0.359 N 
HETATM   27  H9  UNL     1      -0.806  50.560 -25.840  1.00  0.00     0.162 HD
BRANCH  26  28
HETATM   28  C6  UNL     1      -1.511  51.056 -27.756  1.00  0.00     0.154 C 
BRANCH  28  29
HETATM   29  C7  UNL     1      -2.954  50.792 -27.308  1.00  0.00     0.139 C 
HETATM   30  C8  UNL     1      -3.042  50.087 -25.965  1.00  0.00     0.035 C 
HETATM   31  C9  UNL     1      -3.031  48.630 -26.354  1.00  0.00     0.029 C 
HETATM   32  C10 UNL     1      -3.816  48.641 -27.647  1.00  0.00     0.168 C 
HETATM   33  O2  UNL     1      -3.578  49.910 -28.271  1.00  0.00    -0.384 OA
ENDBRANCH  28  29
ENDBRANCH  26  28
ENDBRANCH  23  24
ENDBRANCH  22  23
ENDBRANCH  20  22
ENDBRANCH   1  20
BRANCH   6  34
HETATM   34  O3  UNL     1      -6.729  50.319 -22.165  1.00  0.00    -0.395 OA
HETATM   35  H27 UNL     1      -7.620  50.700 -22.081  1.00  0.00     0.210 HD
ENDBRANCH   6  34
BRANCH  10  36
HETATM   36  O4  UNL     1      -8.077  48.411 -17.173  1.00  0.00    -0.396 OA
HETATM   37  H34 UNL     1      -8.169  48.309 -16.210  1.00  0.00     0.210 HD
ENDBRANCH  10  36
TORSDOF 8
ENDMDL
MODEL 8
REMARK minimizedAffinity -8.85851192
REMARK  8 active torsions:
REMARK  status: ('A' for Active; 'I' for Inactive)
REMARK    1  A    between atoms: C2_2  and  C3_3 
REMARK    2  A    between atoms: C2_2  and  C11_14 
REMARK    3  A    between atoms: C3_3  and  C4_4 
REMARK    4  A    between atoms: C4_4  and  C5_5 
REMARK       I    between atoms: C5_5  and  N1_7 
REMARK    5  A    between atoms: N1_7  and  C6_8 
REMARK    6  A    between atoms: C6_8  and  C7_9 
REMARK    7  A    between atoms: C16_19  and  O3_20 
REMARK    8  A    between atoms: C20_24  and  O4_25 
ROOT
HETATM    1  C11 UNL     1      -1.120  50.790 -22.708  1.00  0.00    -0.002 C 
HETATM    2  C12 UNL     1      -0.635  52.270 -22.787  1.00  0.00     0.006 C 
HETATM    3  C13 UNL     1      -0.268  52.711 -21.366  1.00  0.00     0.006 C 
HETATM    4  C14 UNL     1      -0.297  51.420 -20.565  1.00  0.00     0.001 C 
HETATM    5  C15 UNL     1      -0.355  51.526 -19.031  1.00  0.00     0.024 C 
HETATM    6  C16 UNL     1       0.868  52.311 -18.497  1.00  0.00     0.123 C 
HETATM    7  C17 UNL     1       1.270  51.930 -17.066  1.00  0.00     0.037 C 
HETATM    8  C18 UNL     1       0.043  51.493 -16.257  1.00  0.00    -0.001 C 
HETATM    9  C19 UNL     1       0.328  51.460 -14.740  1.00  0.00     0.037 C 
HETATM   10  C20 UNL     1       1.036  50.206 -14.244  1.00  0.00     0.118 C 
HETATM   11  C21 UNL     1       0.332  48.943 -14.719  1.00  0.00     0.032 C 
HETATM   12  C22 UNL     1       0.173  48.921 -16.238  1.00  0.00     0.012 C 
HETATM   13  C23 UNL     1      -0.560  50.162 -16.826  1.00  0.00    -0.036 C 
HETATM   14  C24 UNL     1      -2.048  50.111 -16.395  1.00  0.00     0.016 C 
HETATM   15  C25 UNL     1      -0.403  50.106 -18.406  1.00  0.00     0.001 C 
HETATM   16  C26 UNL     1      -1.415  49.163 -19.105  1.00  0.00     0.007 C 
HETATM   17  C27 UNL     1      -1.342  49.188 -20.639  1.00  0.00     0.010 C 
HETATM   18  C28 UNL     1      -1.465  50.619 -21.193  1.00  0.00    -0.036 C 
HETATM   19  C29 UNL     1      -2.857  51.216 -20.873  1.00  0.00     0.016 C 
ENDROOT
BRANCH   1  20
HETATM   20  C2  UNL     1      -2.197  50.482 -23.791  1.00  0.00    -0.013 C 
HETATM   21  C1  UNL     1      -3.393  51.433 -23.719  1.00  0.00     0.010 C 
BRANCH  20  22
HETATM   22  C3  UNL     1      -2.667  49.003 -23.667  1.00  0.00     0.014 C 
BRANCH  22  23
HETATM   23  C4  UNL     1      -3.922  48.660 -24.478  1.00  0.00     0.103 C 
BRANCH  23  24
HETATM   24  C5  UNL     1      -3.681  48.446 -25.962  1.00  0.00     0.217 C 
HETATM   25  O1  UNL     1      -2.585  48.221 -26.459  1.00  0.00    -0.274 OA
HETATM   26  N1  UNL     1      -4.842  48.541 -26.702  1.00  0.00    -0.359 N 
HETATM   27  H9  UNL     1      -5.625  49.039 -26.294  1.00  0.00     0.162 HD
BRANCH  26  28
HETATM   28  C6  UNL     1      -4.805  48.504 -28.153  1.00  0.00     0.154 C 
BRANCH  28  29
HETATM   29  C7  UNL     1      -5.732  47.406 -28.692  1.00  0.00     0.139 C 
HETATM   30  C8  UNL     1      -6.094  47.598 -30.155  1.00  0.00     0.035 C 
HETATM   31  C9  UNL     1      -7.344  48.438 -30.080  1.00  0.00     0.029 C 
HETATM   32  C10 UNL     1      -8.017  47.896 -28.839  1.00  0.00     0.168 C 
HETATM   33  O2  UNL     1      -6.977  47.455 -27.956  1.00  0.00    -0.384 OA
ENDBRANCH  28  29
ENDBRANCH  26  28
ENDBRANCH  23  24
ENDBRANCH  22  23
ENDBRANCH  20  22
ENDBRANCH   1  20
BRANCH   6  34
HETATM   34  O3  UNL     1       0.547  53.704 -18.538  1.00  0.00    -0.395 OA
HETATM   35  H27 UNL     1       1.332  54.193 -18.238  1.00  0.00     0.210 HD
ENDBRANCH   6  34
BRANCH  10  36
HETATM   36  O4  UNL     1       2.388  50.208 -14.697  1.00  0.00    -0.396 OA
HETATM   37  H34 UNL     1       2.835  49.469 -14.249  1.00  0.00     0.210 HD
ENDBRANCH  10  36
TORSDOF 8
ENDMDL
MODEL 9
REMARK minimizedAffinity -8.75750637
REMARK  8 active torsions:
REMARK  status: ('A' for Active; 'I' for Inactive)
REMARK    1  A    between atoms: C2_2  and  C3_3 
REMARK    2  A    between atoms: C2_2  and  C11_14 
REMARK    3  A    between atoms: C3_3  and  C4_4 
REMARK    4  A    between atoms: C4_4  and  C5_5 
REMARK       I    between atoms: C5_5  and  N1_7 
REMARK    5  A    between atoms: N1_7  and  C6_8 
REMARK    6  A    between atoms: C6_8  and  C7_9 
REMARK    7  A    between atoms: C16_19  and  O3_20 
REMARK    8  A    between atoms: C20_24  and  O4_25 
ROOT
HETATM    1  C11 UNL     1      -0.914  49.472 -21.241  1.00  0.00    -0.002 C 
HETATM    2  C12 UNL     1      -1.106  48.696 -19.902  1.00  0.00     0.006 C 
HETATM    3  C13 UNL     1      -2.498  48.055 -19.938  1.00  0.00     0.006 C 
HETATM    4  C14 UNL     1      -2.954  48.252 -21.374  1.00  0.00     0.001 C 
HETATM    5  C15 UNL     1      -4.451  48.078 -21.684  1.00  0.00     0.024 C 
HETATM    6  C16 UNL     1      -4.921  46.654 -21.297  1.00  0.00     0.123 C 
HETATM    7  C17 UNL     1      -6.116  46.154 -22.118  1.00  0.00     0.037 C 
HETATM    8  C18 UNL     1      -7.010  47.325 -22.544  1.00  0.00    -0.001 C 
HETATM    9  C19 UNL     1      -8.393  46.852 -23.039  1.00  0.00     0.037 C 
HETATM   10  C20 UNL     1      -8.429  46.369 -24.483  1.00  0.00     0.118 C 
HETATM   11  C21 UNL     1      -7.804  47.386 -25.427  1.00  0.00     0.032 C 
HETATM   12  C22 UNL     1      -6.381  47.749 -25.004  1.00  0.00     0.012 C 
HETATM   13  C23 UNL     1      -6.258  48.271 -23.543  1.00  0.00    -0.036 C 
HETATM   14  C24 UNL     1      -6.934  49.664 -23.454  1.00  0.00     0.016 C 
HETATM   15  C25 UNL     1      -4.711  48.345 -23.190  1.00  0.00     0.001 C 
HETATM   16  C26 UNL     1      -4.007  49.620 -23.718  1.00  0.00     0.007 C 
HETATM   17  C27 UNL     1      -2.538  49.752 -23.286  1.00  0.00     0.010 C 
HETATM   18  C28 UNL     1      -2.379  49.639 -21.758  1.00  0.00    -0.036 C 
HETATM   19  C29 UNL     1      -3.089  50.814 -21.042  1.00  0.00     0.016 C 
ENDROOT
BRANCH   1  20
HETATM   20  C2  UNL     1      -0.009  50.727 -21.051  1.00  0.00    -0.013 C 
HETATM   21  C1  UNL     1      -0.311  51.479 -19.753  1.00  0.00     0.010 C 
BRANCH  20  22
HETATM   22  C3  UNL     1      -0.151  51.675 -22.277  1.00  0.00     0.014 C 
BRANCH  22  23
HETATM   23  C4  UNL     1       0.781  52.891 -22.257  1.00  0.00     0.103 C 
BRANCH  23  24
HETATM   24  C5  UNL     1       0.849  53.664 -23.562  1.00  0.00     0.217 C 
HETATM   25  O1  UNL     1       1.530  54.666 -23.738  1.00  0.00    -0.274 OA
HETATM   26  N1  UNL     1       0.045  53.114 -24.540  1.00  0.00    -0.359 N 
HETATM   27  H9  UNL     1      -0.716  52.512 -24.246  1.00  0.00     0.162 HD
BRANCH  26  28
HETATM   28  C6  UNL     1      -0.136  53.781 -25.817  1.00  0.00     0.154 C 
BRANCH  28  29
HETATM   29  C7  UNL     1      -0.687  52.807 -26.866  1.00  0.00     0.139 C 
HETATM   30  C8  UNL     1      -0.597  51.353 -26.434  1.00  0.00     0.035 C 
HETATM   31  C9  UNL     1       0.760  50.939 -26.948  1.00  0.00     0.029 C 
HETATM   32  C10 UNL     1       0.859  51.713 -28.243  1.00  0.00     0.168 C 
HETATM   33  O2  UNL     1       0.114  52.925 -28.065  1.00  0.00    -0.384 OA
ENDBRANCH  28  29
ENDBRANCH  26  28
ENDBRANCH  23  24
ENDBRANCH  22  23
ENDBRANCH  20  22
ENDBRANCH   1  20
BRANCH   6  34
HETATM   34  O3  UNL     1      -5.278  46.672 -19.912  1.00  0.00    -0.395 OA
HETATM   35  H27 UNL     1      -5.536  45.766 -19.667  1.00  0.00     0.210 HD
ENDBRANCH   6  34
BRANCH  10  36
HETATM   36  O4  UNL     1      -7.747  45.122 -24.589  1.00  0.00    -0.396 OA
HETATM   37  H34 UNL     1      -7.911  44.788 -25.489  1.00  0.00     0.210 HD
ENDBRANCH  10  36
TORSDOF 8
ENDMDL
