MODEL 1
REMARK minimizedAffinity -8.39173603
REMARK CNNscore 0.483871222
REMARK CNNaffinity 7.45403099
REMARK  9 active torsions:
REMARK  status: ('A' for Active; 'I' for Inactive)
REMARK    1  A    between atoms: O1_2  and  C2_3 
REMARK    2  A    between atoms: C2_3  and  C3_4 
REMARK    3  A    between atoms: C3_4  and  N1_5 
REMARK       I    between atoms: N1_5  and  C4_6 
REMARK    4  A    between atoms: C4_6  and  C5_8 
REMARK    5  A    between atoms: C5_8  and  C7_10 
REMARK    6  A    between atoms: C15_20  and  C16_21 
REMARK    7  A    between atoms: C16_21  and  O3_22 
REMARK    8  A    between atoms: O3_22  and  C17_23 
REMARK    9  A    between atoms: C26_34  and  O4_35 
ROOT
HETATM    1  C7  UNL     1      -1.681  51.097 -23.684  1.00  0.00     0.027 C 
HETATM    2  C8  UNL     1      -2.602  50.069 -23.014  1.00  0.00     0.009 C 
HETATM    3  C9  UNL     1      -1.967  49.466 -21.766  1.00  0.00     0.010 C 
HETATM    4  C10 UNL     1      -1.546  50.522 -20.721  1.00  0.00    -0.033 C 
HETATM    5  C11 UNL     1      -2.817  51.197 -20.144  1.00  0.00     0.016 C 
HETATM    6  C12 UNL     1      -0.804  49.770 -19.571  1.00  0.00     0.058 C 
HETATM    7  C13 UNL     1      -0.125  50.744 -18.677  1.00  0.00     0.008 A 
HETATM    8  C14 UNL     1       0.222  52.031 -19.017  1.00  0.00     0.027 A 
HETATM    9  N2  UNL     1       0.794  52.764 -17.995  1.00  0.00    -0.354 N 
ATOM     10  H2  UNL     1       1.061  53.746 -18.056  1.00  0.00     0.166 HD
HETATM   11  C15 UNL     1       0.942  52.002 -16.926  1.00  0.00     0.076 A 
HETATM   12  S1  UNL     1       0.322  50.401 -17.073  1.00  0.00    -0.077 SA
HETATM   13  C23 UNL     1      -0.050  52.652 -20.370  1.00  0.00     0.040 C 
HETATM   14  C24 UNL     1       1.207  53.389 -20.855  1.00  0.00     0.017 C 
HETATM   15  C25 UNL     1      -0.570  51.563 -21.394  1.00  0.00     0.033 C 
HETATM   16  C26 UNL     1      -1.207  52.177 -22.674  1.00  0.00     0.128 C 
ENDROOT
BRANCH   1  17
HETATM   17  C5  UNL     1      -2.286  51.711 -24.982  1.00  0.00     0.080 C 
HETATM   18  C6  UNL     1      -3.625  51.111 -25.416  1.00  0.00     0.020 C 
BRANCH  17  19
HETATM   19  C4  UNL     1      -1.254  51.752 -26.113  1.00  0.00     0.222 C 
HETATM   20  N1  UNL     1      -0.828  52.996 -26.509  1.00  0.00    -0.359 N 
HETATM   21  H8  UNL     1      -1.056  53.818 -25.969  1.00  0.00     0.162 HD
HETATM   22  O2  UNL     1      -0.880  50.722 -26.671  1.00  0.00    -0.273 OA
BRANCH  20  23
HETATM   23  C3  UNL     1       0.093  53.168 -27.621  1.00  0.00     0.148 C 
BRANCH  23  24
HETATM   24  C2  UNL     1       0.625  51.849 -28.187  1.00  0.00     0.186 C 
BRANCH  24  25
HETATM   25  O1  UNL     1       2.057  51.814 -28.129  1.00  0.00    -0.394 OA
HETATM   26  C1  UNL     1       2.544  51.580 -26.815  1.00  0.00     0.201 C 
ENDBRANCH  24  25
ENDBRANCH  23  24
ENDBRANCH  20  23
ENDBRANCH  17  19
ENDBRANCH   1  17
BRANCH  16  27
HETATM   27  O4  UNL     1      -0.241  52.991 -23.327  1.00  0.00    -0.395 OA
HETATM   28  H35 UNL     1      -0.704  53.652 -23.870  1.00  0.00     0.210 HD
ENDBRANCH  16  27
BRANCH  11  29
HETATM   29  C16 UNL     1       1.574  52.458 -15.646  1.00  0.00     0.240 C 
BRANCH  29  30
HETATM   30  O3  UNL     1       2.733  51.665 -15.361  1.00  0.00    -0.345 OA
BRANCH  30  31
HETATM   31  C17 UNL     1       2.825  51.042 -14.146  1.00  0.00     0.070 A 
HETATM   32  C18 UNL     1       2.856  49.665 -13.921  1.00  0.00     0.037 A 
HETATM   33  C19 UNL     1       2.947  49.167 -12.616  1.00  0.00     0.004 A 
HETATM   34  C20 UNL     1       3.000  50.042 -11.532  1.00  0.00     0.024 A 
HETATM   35  C21 UNL     1       2.960  51.415 -11.757  1.00  0.00     0.036 A 
HETATM   36 CL1  UNL     1       3.020  52.501 -10.422  1.00  0.00    -0.084 Cl
HETATM   37  C22 UNL     1       2.871  51.915 -13.054  1.00  0.00     0.060 A 
ENDBRANCH  30  31
ENDBRANCH  29  30
ENDBRANCH  11  29
TORSDOF 9
ENDMDL
MODEL 2
REMARK minimizedAffinity -8.51846695
REMARK CNNscore 0.438275397
REMARK CNNaffinity 7.16400003
REMARK  9 active torsions:
REMARK  status: ('A' for Active; 'I' for Inactive)
REMARK    1  A    between atoms: O1_2  and  C2_3 
REMARK    2  A    between atoms: C2_3  and  C3_4 
REMARK    3  A    between atoms: C3_4  and  N1_5 
REMARK       I    between atoms: N1_5  and  C4_6 
REMARK    4  A    between atoms: C4_6  and  C5_8 
REMARK    5  A    between atoms: C5_8  and  C7_10 
REMARK    6  A    between atoms: C15_20  and  C16_21 
REMARK    7  A    between atoms: C16_21  and  O3_22 
REMARK    8  A    between atoms: O3_22  and  C17_23 
REMARK    9  A    between atoms: C26_34  and  O4_35 
ROOT
HETATM    1  C7  UNL     1      -0.226  51.226 -19.585  1.00  0.00     0.027 C 
HETATM    2  C8  UNL     1      -1.185  50.145 -19.069  1.00  0.00     0.009 C 
HETATM    3  C9  UNL     1      -0.576  49.347 -17.921  1.00  0.00     0.010 C 
HETATM    4  C10 UNL     1      -0.123  50.226 -16.736  1.00  0.00    -0.033 C 
HETATM    5  C11 UNL     1      -1.373  50.856 -16.066  1.00  0.00     0.016 C 
HETATM    6  C12 UNL     1       0.586  49.291 -15.707  1.00  0.00     0.058 C 
HETATM    7  C13 UNL     1       1.295  50.102 -14.682  1.00  0.00     0.008 A 
HETATM    8  C14 UNL     1       1.689  51.412 -14.834  1.00  0.00     0.027 A 
HETATM    9  N2  UNL     1       2.281  51.970 -13.717  1.00  0.00    -0.354 N 
ATOM     10  H2  UNL     1       2.583  52.941 -13.637  1.00  0.00     0.166 HD
HETATM   11  C15 UNL     1       2.398  51.057 -12.769  1.00  0.00     0.076 A 
HETATM   12  S1  UNL     1       1.723  49.517 -13.145  1.00  0.00    -0.077 SA
HETATM   13  C23 UNL     1       1.444  52.230 -16.083  1.00  0.00     0.040 C 
HETATM   14  C24 UNL     1       2.728  52.985 -16.459  1.00  0.00     0.017 C 
HETATM   15  C25 UNL     1       0.891  51.319 -17.252  1.00  0.00     0.033 C 
HETATM   16  C26 UNL     1       0.282  52.132 -18.430  1.00  0.00     0.128 C 
ENDROOT
BRANCH   1  17
HETATM   17  C5  UNL     1      -0.803  52.041 -20.781  1.00  0.00     0.080 C 
HETATM   18  C6  UNL     1      -2.142  51.533 -21.321  1.00  0.00     0.020 C 
BRANCH  17  19
HETATM   19  C4  UNL     1       0.247  52.242 -21.878  1.00  0.00     0.222 C 
HETATM   20  N1  UNL     1      -0.216  52.665 -23.100  1.00  0.00    -0.359 N 
HETATM   21  H8  UNL     1      -1.168  52.984 -23.211  1.00  0.00     0.162 HD
HETATM   22  O2  UNL     1       1.431  51.978 -21.681  1.00  0.00    -0.273 OA
BRANCH  20  23
HETATM   23  C3  UNL     1       0.673  52.820 -24.240  1.00  0.00     0.148 C 
BRANCH  23  24
HETATM   24  C2  UNL     1       0.057  53.614 -25.394  1.00  0.00     0.186 C 
BRANCH  24  25
HETATM   25  O1  UNL     1       0.767  53.368 -26.614  1.00  0.00    -0.394 OA
HETATM   26  C1  UNL     1       0.730  52.000 -26.999  1.00  0.00     0.201 C 
ENDBRANCH  24  25
ENDBRANCH  23  24
ENDBRANCH  20  23
ENDBRANCH  17  19
ENDBRANCH   1  17
BRANCH  16  27
HETATM   27  O4  UNL     1       1.279  52.997 -18.960  1.00  0.00    -0.395 OA
HETATM   28  H35 UNL     1       0.841  53.745 -19.402  1.00  0.00     0.210 HD
ENDBRANCH  16  27
BRANCH  11  29
HETATM   29  C16 UNL     1       3.040  51.302 -11.437  1.00  0.00     0.240 C 
BRANCH  29  30
HETATM   30  O3  UNL     1       2.286  52.273 -10.701  1.00  0.00    -0.345 OA
BRANCH  30  31
HETATM   31  C17 UNL     1       2.801  53.531 -10.548  1.00  0.00     0.070 A 
HETATM   32  C18 UNL     1       2.117  54.734 -10.726  1.00  0.00     0.037 A 
HETATM   33  C19 UNL     1       2.776  55.954 -10.539  1.00  0.00     0.004 A 
HETATM   34  C20 UNL     1       4.123  55.977 -10.180  1.00  0.00     0.024 A 
HETATM   35  C21 UNL     1       4.808  54.777 -10.011  1.00  0.00     0.036 A 
HETATM   36 CL1  UNL     1       6.473  54.798  -9.572  1.00  0.00    -0.084 Cl
HETATM   37  C22 UNL     1       4.155  53.560 -10.194  1.00  0.00     0.060 A 
ENDBRANCH  30  31
ENDBRANCH  29  30
ENDBRANCH  11  29
TORSDOF 9
ENDMDL
MODEL 3
REMARK minimizedAffinity -7.08649635
REMARK CNNscore 0.356749922
REMARK CNNaffinity 6.26335287
REMARK  9 active torsions:
REMARK  status: ('A' for Active; 'I' for Inactive)
REMARK    1  A    between atoms: O1_2  and  C2_3 
REMARK    2  A    between atoms: C2_3  and  C3_4 
REMARK    3  A    between atoms: C3_4  and  N1_5 
REMARK       I    between atoms: N1_5  and  C4_6 
REMARK    4  A    between atoms: C4_6  and  C5_8 
REMARK    5  A    between atoms: C5_8  and  C7_10 
REMARK    6  A    between atoms: C15_20  and  C16_21 
REMARK    7  A    between atoms: C16_21  and  O3_22 
REMARK    8  A    between atoms: O3_22  and  C17_23 
REMARK    9  A    between atoms: C26_34  and  O4_35 
ROOT
HETATM    1  C7  UNL     1      -3.353  49.634 -21.248  1.00  0.00     0.027 C 
HETATM    2  C8  UNL     1      -4.538  49.278 -20.340  1.00  0.00     0.009 C 
HETATM    3  C9  UNL     1      -5.874  49.478 -21.046  1.00  0.00     0.010 C 
HETATM    4  C10 UNL     1      -5.995  48.686 -22.366  1.00  0.00    -0.033 C 
HETATM    5  C11 UNL     1      -6.022  47.169 -22.045  1.00  0.00     0.016 C 
HETATM    6  C12 UNL     1      -7.350  49.089 -23.028  1.00  0.00     0.058 C 
HETATM    7  C13 UNL     1      -7.405  48.589 -24.427  1.00  0.00     0.008 A 
HETATM    8  C14 UNL     1      -6.315  48.255 -25.197  1.00  0.00     0.027 A 
HETATM    9  N2  UNL     1      -6.623  47.759 -26.450  1.00  0.00    -0.354 N 
ATOM     10  H2  UNL     1      -5.944  47.414 -27.127  1.00  0.00     0.166 HD
HETATM   11  C15 UNL     1      -7.930  47.799 -26.638  1.00  0.00     0.076 A 
HETATM   12  S1  UNL     1      -8.850  48.349 -25.289  1.00  0.00    -0.077 SA
HETATM   13  C23 UNL     1      -4.882  48.340 -24.719  1.00  0.00     0.040 C 
HETATM   14  C24 UNL     1      -4.021  49.006 -25.804  1.00  0.00     0.017 C 
HETATM   15  C25 UNL     1      -4.799  49.073 -23.319  1.00  0.00     0.033 C 
HETATM   16  C26 UNL     1      -3.432  48.881 -22.604  1.00  0.00     0.128 C 
ENDROOT
BRANCH   1  17
HETATM   17  C5  UNL     1      -1.971  49.471 -20.547  1.00  0.00     0.080 C 
HETATM   18  C6  UNL     1      -1.892  48.327 -19.535  1.00  0.00     0.020 C 
BRANCH  17  19
HETATM   19  C4  UNL     1      -1.470  50.805 -19.984  1.00  0.00     0.222 C 
HETATM   20  N1  UNL     1      -0.299  51.292 -20.509  1.00  0.00    -0.359 N 
HETATM   21  H8  UNL     1       0.111  50.877 -21.334  1.00  0.00     0.162 HD
HETATM   22  O2  UNL     1      -2.064  51.370 -19.067  1.00  0.00    -0.273 OA
BRANCH  20  23
HETATM   23  C3  UNL     1       0.315  52.509 -20.004  1.00  0.00     0.148 C 
BRANCH  23  24
HETATM   24  C2  UNL     1       1.514  52.979 -20.831  1.00  0.00     0.186 C 
BRANCH  24  25
HETATM   25  O1  UNL     1       1.494  54.404 -20.988  1.00  0.00    -0.394 OA
HETATM   26  C1  UNL     1       1.644  54.805 -22.342  1.00  0.00     0.201 C 
ENDBRANCH  24  25
ENDBRANCH  23  24
ENDBRANCH  20  23
ENDBRANCH  17  19
ENDBRANCH   1  17
BRANCH  16  27
HETATM   27  O4  UNL     1      -2.397  49.382 -23.441  1.00  0.00    -0.395 OA
HETATM   28  H35 UNL     1      -1.562  48.941 -23.204  1.00  0.00     0.210 HD
ENDBRANCH  16  27
BRANCH  11  29
HETATM   29  C16 UNL     1      -8.613  47.383 -27.905  1.00  0.00     0.240 C 
BRANCH  29  30
HETATM   30  O3  UNL     1      -7.695  46.675 -28.747  1.00  0.00    -0.345 OA
BRANCH  30  31
HETATM   31  C17 UNL     1      -7.556  47.068 -30.050  1.00  0.00     0.070 A 
HETATM   32  C18 UNL     1      -8.488  47.783 -30.804  1.00  0.00     0.037 A 
HETATM   33  C19 UNL     1      -8.213  48.114 -32.136  1.00  0.00     0.004 A 
HETATM   34  C20 UNL     1      -7.008  47.728 -32.721  1.00  0.00     0.024 A 
HETATM   35  C21 UNL     1      -6.082  47.007 -31.972  1.00  0.00     0.036 A 
HETATM   36 CL1  UNL     1      -4.595  46.522 -32.689  1.00  0.00    -0.084 Cl
HETATM   37  C22 UNL     1      -6.352  46.677 -30.645  1.00  0.00     0.060 A 
ENDBRANCH  30  31
ENDBRANCH  29  30
ENDBRANCH  11  29
TORSDOF 9
ENDMDL
MODEL 4
REMARK minimizedAffinity -7.91367483
REMARK CNNscore 0.331046671
REMARK CNNaffinity 6.88096189
REMARK  9 active torsions:
REMARK  status: ('A' for Active; 'I' for Inactive)
REMARK    1  A    between atoms: O1_2  and  C2_3 
REMARK    2  A    between atoms: C2_3  and  C3_4 
REMARK    3  A    between atoms: C3_4  and  N1_5 
REMARK       I    between atoms: N1_5  and  C4_6 
REMARK    4  A    between atoms: C4_6  and  C5_8 
REMARK    5  A    between atoms: C5_8  and  C7_10 
REMARK    6  A    between atoms: C15_20  and  C16_21 
REMARK    7  A    between atoms: C16_21  and  O3_22 
REMARK    8  A    between atoms: O3_22  and  C17_23 
REMARK    9  A    between atoms: C26_34  and  O4_35 
ROOT
HETATM    1  C7  UNL     1      -0.554  50.937 -20.178  1.00  0.00     0.027 C 
HETATM    2  C8  UNL     1      -0.272  52.268 -20.888  1.00  0.00     0.009 C 
HETATM    3  C9  UNL     1      -0.100  52.082 -22.392  1.00  0.00     0.010 C 
HETATM    4  C10 UNL     1      -1.306  51.396 -23.068  1.00  0.00    -0.033 C 
HETATM    5  C11 UNL     1      -2.532  52.343 -22.996  1.00  0.00     0.016 C 
HETATM    6  C12 UNL     1      -0.932  51.164 -24.565  1.00  0.00     0.058 C 
HETATM    7  C13 UNL     1      -1.922  50.259 -25.207  1.00  0.00     0.008 A 
HETATM    8  C14 UNL     1      -2.749  49.383 -24.541  1.00  0.00     0.027 A 
HETATM    9  N2  UNL     1      -3.625  48.688 -25.353  1.00  0.00    -0.354 N 
ATOM     10  H2  UNL     1      -4.341  48.041 -25.024  1.00  0.00     0.166 HD
HETATM   11  C15 UNL     1      -3.397  48.988 -26.619  1.00  0.00     0.076 A 
HETATM   12  S1  UNL     1      -2.183  50.182 -26.884  1.00  0.00    -0.077 SA
HETATM   13  C23 UNL     1      -2.775  49.219 -23.038  1.00  0.00     0.040 C 
HETATM   14  C24 UNL     1      -2.783  47.723 -22.688  1.00  0.00     0.017 C 
HETATM   15  C25 UNL     1      -1.581  50.011 -22.365  1.00  0.00     0.033 C 
HETATM   16  C26 UNL     1      -1.749  50.188 -20.829  1.00  0.00     0.128 C 
ENDROOT
BRANCH   1  17
HETATM   17  C5  UNL     1      -0.704  51.084 -18.634  1.00  0.00     0.080 C 
HETATM   18  C6  UNL     1      -2.140  51.286 -18.143  1.00  0.00     0.020 C 
BRANCH  17  19
HETATM   19  C4  UNL     1       0.272  52.124 -18.075  1.00  0.00     0.222 C 
HETATM   20  N1  UNL     1       1.048  51.729 -17.014  1.00  0.00    -0.359 N 
HETATM   21  H8  UNL     1       1.088  50.759 -16.735  1.00  0.00     0.162 HD
HETATM   22  O2  UNL     1       0.306  53.269 -18.523  1.00  0.00    -0.273 OA
BRANCH  20  23
HETATM   23  C3  UNL     1       1.958  52.648 -16.350  1.00  0.00     0.148 C 
BRANCH  23  24
HETATM   24  C2  UNL     1       3.434  52.294 -16.541  1.00  0.00     0.186 C 
BRANCH  24  25
HETATM   25  O1  UNL     1       4.023  51.891 -15.298  1.00  0.00    -0.394 OA
HETATM   26  C1  UNL     1       3.054  51.659 -14.286  1.00  0.00     0.201 C 
ENDBRANCH  24  25
ENDBRANCH  23  24
ENDBRANCH  20  23
ENDBRANCH  17  19
ENDBRANCH   1  17
BRANCH  16  27
HETATM   27  O4  UNL     1      -1.843  48.906 -20.222  1.00  0.00    -0.395 OA
HETATM   28  H35 UNL     1      -2.314  48.994 -19.375  1.00  0.00     0.210 HD
ENDBRANCH  16  27
BRANCH  11  29
HETATM   29  C16 UNL     1      -4.133  48.381 -27.776  1.00  0.00     0.240 C 
BRANCH  29  30
HETATM   30  O3  UNL     1      -5.479  48.073 -27.393  1.00  0.00    -0.345 OA
BRANCH  30  31
HETATM   31  C17 UNL     1      -6.251  47.327 -28.241  1.00  0.00     0.070 A 
HETATM   32  C18 UNL     1      -6.044  47.146 -29.609  1.00  0.00     0.037 A 
HETATM   33  C19 UNL     1      -6.924  46.355 -30.357  1.00  0.00     0.004 A 
HETATM   34  C20 UNL     1      -8.017  45.745 -29.741  1.00  0.00     0.024 A 
HETATM   35  C21 UNL     1      -8.228  45.933 -28.378  1.00  0.00     0.036 A 
HETATM   36 CL1  UNL     1      -9.578  45.188 -27.613  1.00  0.00    -0.084 Cl
HETATM   37  C22 UNL     1      -7.353  46.718 -27.630  1.00  0.00     0.060 A 
ENDBRANCH  30  31
ENDBRANCH  29  30
ENDBRANCH  11  29
TORSDOF 9
ENDMDL
MODEL 5
REMARK minimizedAffinity -8.9731636
REMARK CNNscore 0.305098593
REMARK CNNaffinity 7.28397036
REMARK  9 active torsions:
REMARK  status: ('A' for Active; 'I' for Inactive)
REMARK    1  A    between atoms: O1_2  and  C2_3 
REMARK    2  A    between atoms: C2_3  and  C3_4 
REMARK    3  A    between atoms: C3_4  and  N1_5 
REMARK       I    between atoms: N1_5  and  C4_6 
REMARK    4  A    between atoms: C4_6  and  C5_8 
REMARK    5  A    between atoms: C5_8  and  C7_10 
REMARK    6  A    between atoms: C15_20  and  C16_21 
REMARK    7  A    between atoms: C16_21  and  O3_22 
REMARK    8  A    between atoms: O3_22  and  C17_23 
REMARK    9  A    between atoms: C26_34  and  O4_35 
ROOT
HETATM    1  C7  UNL     1      -2.591  49.213 -25.953  1.00  0.00     0.027 C 
HETATM    2  C8  UNL     1      -3.601  48.590 -24.980  1.00  0.00     0.009 C 
HETATM    3  C9  UNL     1      -3.012  48.415 -23.585  1.00  0.00     0.010 C 
HETATM    4  C10 UNL     1      -2.471  49.727 -22.978  1.00  0.00    -0.033 C 
HETATM    5  C11 UNL     1      -3.658  50.688 -22.709  1.00  0.00     0.016 C 
HETATM    6  C12 UNL     1      -1.793  49.367 -21.619  1.00  0.00     0.058 C 
HETATM    7  C13 UNL     1      -1.005  50.524 -21.117  1.00  0.00     0.008 A 
HETATM    8  C14 UNL     1      -0.535  51.562 -21.888  1.00  0.00     0.027 A 
HETATM    9  N2  UNL     1       0.123  52.552 -21.183  1.00  0.00    -0.354 N 
ATOM     10  H2  UNL     1       0.488  53.416 -21.586  1.00  0.00     0.166 HD
HETATM   11  C15 UNL     1       0.209  52.213 -19.909  1.00  0.00     0.076 A 
HETATM   12  S1  UNL     1      -0.572  50.736 -19.487  1.00  0.00    -0.077 SA
HETATM   13  C23 UNL     1      -0.763  51.681 -23.379  1.00  0.00     0.040 C 
HETATM   14  C24 UNL     1       0.556  52.066 -24.068  1.00  0.00     0.017 C 
HETATM   15  C25 UNL     1      -1.405  50.356 -23.957  1.00  0.00     0.033 C 
HETATM   16  C26 UNL     1      -1.995  50.530 -25.385  1.00  0.00     0.128 C 
ENDROOT
BRANCH   1  17
HETATM   17  C5  UNL     1      -3.150  49.378 -27.398  1.00  0.00     0.080 C 
HETATM   18  C6  UNL     1      -3.269  50.825 -27.881  1.00  0.00     0.020 C 
BRANCH  17  19
HETATM   19  C4  UNL     1      -4.439  48.574 -27.592  1.00  0.00     0.222 C 
HETATM   20  N1  UNL     1      -4.938  48.515 -28.870  1.00  0.00    -0.359 N 
HETATM   21  H8  UNL     1      -4.392  48.841 -29.655  1.00  0.00     0.162 HD
HETATM   22  O2  UNL     1      -5.020  48.062 -26.637  1.00  0.00    -0.273 OA
BRANCH  20  23
HETATM   23  C3  UNL     1      -6.194  47.845 -29.169  1.00  0.00     0.148 C 
BRANCH  23  24
HETATM   24  C2  UNL     1      -6.951  48.458 -30.348  1.00  0.00     0.186 C 
BRANCH  24  25
HETATM   25  O1  UNL     1      -8.327  48.676 -30.007  1.00  0.00    -0.394 OA
HETATM   26  C1  UNL     1      -8.877  47.607 -29.251  1.00  0.00     0.201 C 
ENDBRANCH  24  25
ENDBRANCH  23  24
ENDBRANCH  20  23
ENDBRANCH  17  19
ENDBRANCH   1  17
BRANCH  16  27
HETATM   27  O4  UNL     1      -0.961  50.955 -26.264  1.00  0.00    -0.395 OA
HETATM   28  H35 UNL     1      -1.363  51.420 -27.019  1.00  0.00     0.210 HD
ENDBRANCH  16  27
BRANCH  11  29
HETATM   29  C16 UNL     1       0.903  53.032 -18.863  1.00  0.00     0.240 C 
BRANCH  29  30
HETATM   30  O3  UNL     1       0.634  52.496 -17.562  1.00  0.00    -0.345 OA
BRANCH  30  31
HETATM   31  C17 UNL     1       1.682  52.268 -16.712  1.00  0.00     0.070 A 
HETATM   32  C18 UNL     1       2.971  52.790 -16.827  1.00  0.00     0.037 A 
HETATM   33  C19 UNL     1       3.950  52.464 -15.881  1.00  0.00     0.004 A 
HETATM   34  C20 UNL     1       3.647  51.611 -14.821  1.00  0.00     0.024 A 
HETATM   35  C21 UNL     1       2.364  51.083 -14.712  1.00  0.00     0.036 A 
HETATM   36 CL1  UNL     1       1.983  50.024 -13.409  1.00  0.00    -0.084 Cl
HETATM   37  C22 UNL     1       1.385  51.406 -15.650  1.00  0.00     0.060 A 
ENDBRANCH  30  31
ENDBRANCH  29  30
ENDBRANCH  11  29
TORSDOF 9
ENDMDL
MODEL 6
REMARK minimizedAffinity -8.18103981
REMARK CNNscore 0.301010072
REMARK CNNaffinity 6.94806051
REMARK  9 active torsions:
REMARK  status: ('A' for Active; 'I' for Inactive)
REMARK    1  A    between atoms: O1_2  and  C2_3 
REMARK    2  A    between atoms: C2_3  and  C3_4 
REMARK    3  A    between atoms: C3_4  and  N1_5 
REMARK       I    between atoms: N1_5  and  C4_6 
REMARK    4  A    between atoms: C4_6  and  C5_8 
REMARK    5  A    between atoms: C5_8  and  C7_10 
REMARK    6  A    between atoms: C15_20  and  C16_21 
REMARK    7  A    between atoms: C16_21  and  O3_22 
REMARK    8  A    between atoms: O3_22  and  C17_23 
REMARK    9  A    between atoms: C26_34  and  O4_35 
ROOT
HETATM    1  C7  UNL     1      -1.950  51.928 -23.144  1.00  0.00     0.027 C 
HETATM    2  C8  UNL     1      -0.466  52.153 -23.461  1.00  0.00     0.009 C 
HETATM    3  C9  UNL     1       0.269  52.810 -22.297  1.00  0.00     0.010 C 
HETATM    4  C10 UNL     1       0.149  52.024 -20.974  1.00  0.00    -0.033 C 
HETATM    5  C11 UNL     1       0.905  50.678 -21.115  1.00  0.00     0.016 C 
HETATM    6  C12 UNL     1       0.836  52.877 -19.862  1.00  0.00     0.058 C 
HETATM    7  C13 UNL     1       0.514  52.325 -18.520  1.00  0.00     0.008 A 
HETATM    8  C14 UNL     1      -0.563  51.519 -18.227  1.00  0.00     0.027 A 
HETATM    9  N2  UNL     1      -0.618  51.084 -16.917  1.00  0.00    -0.354 N 
ATOM     10  H2  UNL     1      -1.315  50.439 -16.542  1.00  0.00     0.166 HD
HETATM   11  C15 UNL     1       0.365  51.627 -16.222  1.00  0.00     0.076 A 
HETATM   12  S1  UNL     1       1.450  52.611 -17.130  1.00  0.00    -0.077 SA
HETATM   13  C23 UNL     1      -1.582  51.065 -19.248  1.00  0.00     0.040 C 
HETATM   14  C24 UNL     1      -2.995  51.237 -18.669  1.00  0.00     0.017 C 
HETATM   15  C25 UNL     1      -1.375  51.819 -20.624  1.00  0.00     0.033 C 
HETATM   16  C26 UNL     1      -2.135  51.158 -21.809  1.00  0.00     0.128 C 
ENDROOT
BRANCH   1  17
HETATM   17  C5  UNL     1      -2.740  51.286 -24.325  1.00  0.00     0.080 C 
HETATM   18  C6  UNL     1      -2.671  49.759 -24.391  1.00  0.00     0.020 C 
BRANCH  17  19
HETATM   19  C4  UNL     1      -2.397  51.960 -25.657  1.00  0.00     0.222 C 
HETATM   20  N1  UNL     1      -1.405  51.372 -26.403  1.00  0.00    -0.359 N 
HETATM   21  H8  UNL     1      -1.048  50.459 -26.163  1.00  0.00     0.162 HD
HETATM   22  O2  UNL     1      -2.946  53.005 -26.001  1.00  0.00    -0.273 OA
BRANCH  20  23
HETATM   23  C3  UNL     1      -0.940  51.959 -27.649  1.00  0.00     0.148 C 
BRANCH  23  24
HETATM   24  C2  UNL     1       0.505  52.459 -27.590  1.00  0.00     0.186 C 
BRANCH  24  25
HETATM   25  O1  UNL     1       1.178  51.927 -26.442  1.00  0.00    -0.394 OA
HETATM   26  C1  UNL     1       2.512  51.528 -26.728  1.00  0.00     0.201 C 
ENDBRANCH  24  25
ENDBRANCH  23  24
ENDBRANCH  20  23
ENDBRANCH  17  19
ENDBRANCH   1  17
BRANCH  16  27
HETATM   27  O4  UNL     1      -3.525  51.130 -21.510  1.00  0.00    -0.395 OA
HETATM   28  H35 UNL     1      -3.941  50.414 -22.021  1.00  0.00     0.210 HD
ENDBRANCH  16  27
BRANCH  11  29
HETATM   29  C16 UNL     1       0.580  51.412 -14.754  1.00  0.00     0.240 C 
BRANCH  29  30
HETATM   30  O3  UNL     1      -0.682  51.336 -14.080  1.00  0.00    -0.345 OA
BRANCH  30  31
HETATM   31  C17 UNL     1      -0.897  52.134 -12.990  1.00  0.00     0.070 A 
HETATM   32  C18 UNL     1       0.067  52.865 -12.295  1.00  0.00     0.037 A 
HETATM   33  C19 UNL     1      -0.298  53.639 -11.187  1.00  0.00     0.004 A 
HETATM   34  C20 UNL     1      -1.627  53.680 -10.766  1.00  0.00     0.024 A 
HETATM   35  C21 UNL     1      -2.587  52.943 -11.454  1.00  0.00     0.036 A 
HETATM   36 CL1  UNL     1      -4.228  52.984 -10.936  1.00  0.00    -0.084 Cl
HETATM   37  C22 UNL     1      -2.228  52.173 -12.558  1.00  0.00     0.060 A 
ENDBRANCH  30  31
ENDBRANCH  29  30
ENDBRANCH  11  29
TORSDOF 9
ENDMDL
MODEL 7
REMARK minimizedAffinity -8.58898544
REMARK CNNscore 0.300441027
REMARK CNNaffinity 7.14629173
REMARK  9 active torsions:
REMARK  status: ('A' for Active; 'I' for Inactive)
REMARK    1  A    between atoms: O1_2  and  C2_3 
REMARK    2  A    between atoms: C2_3  and  C3_4 
REMARK    3  A    between atoms: C3_4  and  N1_5 
REMARK       I    between atoms: N1_5  and  C4_6 
REMARK    4  A    between atoms: C4_6  and  C5_8 
REMARK    5  A    between atoms: C5_8  and  C7_10 
REMARK    6  A    between atoms: C15_20  and  C16_21 
REMARK    7  A    between atoms: C16_21  and  O3_22 
REMARK    8  A    between atoms: O3_22  and  C17_23 
REMARK    9  A    between atoms: C26_34  and  O4_35 
ROOT
HETATM    1  C7  UNL     1      -0.470  51.593 -24.356  1.00  0.00     0.027 C 
HETATM    2  C8  UNL     1      -1.635  50.622 -24.122  1.00  0.00     0.009 C 
HETATM    3  C9  UNL     1      -1.448  49.809 -22.845  1.00  0.00     0.010 C 
HETATM    4  C10 UNL     1      -1.256  50.680 -21.585  1.00  0.00    -0.033 C 
HETATM    5  C11 UNL     1      -2.574  51.443 -21.293  1.00  0.00     0.016 C 
HETATM    6  C12 UNL     1      -0.953  49.717 -20.395  1.00  0.00     0.058 C 
HETATM    7  C13 UNL     1      -0.480  50.491 -19.217  1.00  0.00     0.008 A 
HETATM    8  C14 UNL     1       0.067  51.754 -19.261  1.00  0.00     0.027 A 
HETATM    9  N2  UNL     1       0.379  52.290 -18.026  1.00  0.00    -0.354 N 
ATOM     10  H2  UNL     1       0.740  53.231 -17.870  1.00  0.00     0.166 HD
HETATM   11  C15 UNL     1       0.140  51.401 -17.079  1.00  0.00     0.076 A 
HETATM   12  S1  UNL     1      -0.552  49.918 -17.619  1.00  0.00    -0.077 SA
HETATM   13  C23 UNL     1       0.257  52.550 -20.533  1.00  0.00     0.040 C 
HETATM   14  C24 UNL     1       1.663  53.171 -20.540  1.00  0.00     0.017 C 
HETATM   15  C25 UNL     1      -0.038  51.657 -21.805  1.00  0.00     0.033 C 
HETATM   16  C26 UNL     1      -0.215  52.485 -23.110  1.00  0.00     0.128 C 
ENDROOT
BRANCH   1  17
HETATM   17  C5  UNL     1      -0.613  52.419 -25.669  1.00  0.00     0.080 C 
HETATM   18  C6  UNL     1      -0.346  53.919 -25.520  1.00  0.00     0.020 C 
BRANCH  17  19
HETATM   19  C4  UNL     1      -1.936  52.114 -26.379  1.00  0.00     0.222 C 
HETATM   20  N1  UNL     1      -1.969  50.982 -27.155  1.00  0.00    -0.359 N 
HETATM   21  H8  UNL     1      -1.218  50.307 -27.118  1.00  0.00     0.162 HD
HETATM   22  O2  UNL     1      -2.892  52.883 -26.299  1.00  0.00    -0.273 OA
BRANCH  20  23
HETATM   23  C3  UNL     1      -3.142  50.626 -27.935  1.00  0.00     0.148 C 
BRANCH  23  24
HETATM   24  C2  UNL     1      -3.701  49.240 -27.606  1.00  0.00     0.186 C 
BRANCH  24  25
HETATM   25  O1  UNL     1      -4.389  48.690 -28.737  1.00  0.00    -0.394 OA
HETATM   26  C1  UNL     1      -5.491  47.877 -28.361  1.00  0.00     0.201 C 
ENDBRANCH  24  25
ENDBRANCH  23  24
ENDBRANCH  20  23
ENDBRANCH  17  19
ENDBRANCH   1  17
BRANCH  16  27
HETATM   27  O4  UNL     1       0.969  53.237 -23.347  1.00  0.00    -0.395 OA
HETATM   28  H35 UNL     1       0.745  54.008 -23.897  1.00  0.00     0.210 HD
ENDBRANCH  16  27
BRANCH  11  29
HETATM   29  C16 UNL     1       0.410  51.628 -15.622  1.00  0.00     0.240 C 
BRANCH  29  30
HETATM   30  O3  UNL     1      -0.602  50.993 -14.831  1.00  0.00    -0.345 OA
BRANCH  30  31
HETATM   31  C17 UNL     1      -1.003  51.592 -13.668  1.00  0.00     0.070 A 
HETATM   32  C18 UNL     1      -2.254  51.470 -13.061  1.00  0.00     0.037 A 
HETATM   33  C19 UNL     1      -2.528  52.149 -11.869  1.00  0.00     0.004 A 
HETATM   34  C20 UNL     1      -1.556  52.957 -11.280  1.00  0.00     0.024 A 
HETATM   35  C21 UNL     1      -0.311  53.085 -11.890  1.00  0.00     0.036 A 
HETATM   36 CL1  UNL     1       0.893  54.084 -11.172  1.00  0.00    -0.084 Cl
HETATM   37  C22 UNL     1      -0.033  52.409 -13.077  1.00  0.00     0.060 A 
ENDBRANCH  30  31
ENDBRANCH  29  30
ENDBRANCH  11  29
TORSDOF 9
ENDMDL
MODEL 8
REMARK minimizedAffinity -7.92198896
REMARK CNNscore 0.253561765
REMARK CNNaffinity 6.78710508
REMARK  9 active torsions:
REMARK  status: ('A' for Active; 'I' for Inactive)
REMARK    1  A    between atoms: O1_2  and  C2_3 
REMARK    2  A    between atoms: C2_3  and  C3_4 
REMARK    3  A    between atoms: C3_4  and  N1_5 
REMARK       I    between atoms: N1_5  and  C4_6 
REMARK    4  A    between atoms: C4_6  and  C5_8 
REMARK    5  A    between atoms: C5_8  and  C7_10 
REMARK    6  A    between atoms: C15_20  and  C16_21 
REMARK    7  A    between atoms: C16_21  and  O3_22 
REMARK    8  A    between atoms: O3_22  and  C17_23 
REMARK    9  A    between atoms: C26_34  and  O4_35 
ROOT
HETATM    1  C7  UNL     1      -0.135  51.438 -22.944  1.00  0.00     0.027 C 
HETATM    2  C8  UNL     1      -1.276  50.423 -23.100  1.00  0.00     0.009 C 
HETATM    3  C9  UNL     1      -1.357  49.473 -21.911  1.00  0.00     0.010 C 
HETATM    4  C10 UNL     1      -1.509  50.197 -20.556  1.00  0.00    -0.033 C 
HETATM    5  C11 UNL     1      -2.893  50.894 -20.508  1.00  0.00     0.016 C 
HETATM    6  C12 UNL     1      -1.450  49.110 -19.437  1.00  0.00     0.058 C 
HETATM    7  C13 UNL     1      -1.304  49.753 -18.105  1.00  0.00     0.008 A 
HETATM    8  C14 UNL     1      -0.823  51.023 -17.881  1.00  0.00     0.027 A 
HETATM    9  N2  UNL     1      -0.836  51.420 -16.558  1.00  0.00    -0.354 N 
ATOM     10  H2  UNL     1      -0.567  52.344 -16.220  1.00  0.00     0.166 HD
HETATM   11  C15 UNL     1      -1.250  50.424 -15.795  1.00  0.00     0.076 A 
HETATM   12  S1  UNL     1      -1.724  48.999 -16.641  1.00  0.00    -0.077 SA
HETATM   13  C23 UNL     1      -0.376  51.964 -18.978  1.00  0.00     0.040 C 
HETATM   14  C24 UNL     1       0.961  52.610 -18.582  1.00  0.00     0.017 C 
HETATM   15  C25 UNL     1      -0.320  51.218 -20.372  1.00  0.00     0.033 C 
HETATM   16  C26 UNL     1      -0.224  52.186 -21.585  1.00  0.00     0.128 C 
ENDROOT
BRANCH   1  17
HETATM   17  C5  UNL     1      -0.003  52.407 -24.157  1.00  0.00     0.080 C 
HETATM   18  C6  UNL     1       0.634  53.760 -23.835  1.00  0.00     0.020 C 
BRANCH  17  19
HETATM   19  C4  UNL     1      -1.327  52.533 -24.916  1.00  0.00     0.222 C 
HETATM   20  N1  UNL     1      -1.355  52.023 -26.190  1.00  0.00    -0.359 N 
HETATM   21  H8  UNL     1      -0.598  51.450 -26.535  1.00  0.00     0.162 HD
HETATM   22  O2  UNL     1      -2.290  53.118 -24.422  1.00  0.00    -0.273 OA
BRANCH  20  23
HETATM   23  C3  UNL     1      -2.530  52.148 -27.037  1.00  0.00     0.148 C 
BRANCH  23  24
HETATM   24  C2  UNL     1      -3.005  50.819 -27.629  1.00  0.00     0.186 C 
BRANCH  24  25
HETATM   25  O1  UNL     1      -3.467  49.941 -26.595  1.00  0.00    -0.394 OA
HETATM   26  C1  UNL     1      -3.259  48.571 -26.910  1.00  0.00     0.201 C 
ENDBRANCH  24  25
ENDBRANCH  23  24
ENDBRANCH  20  23
ENDBRANCH  17  19
ENDBRANCH   1  17
BRANCH  16  27
HETATM   27  O4  UNL     1       0.946  52.984 -21.449  1.00  0.00    -0.395 OA
HETATM   28  H35 UNL     1       0.822  53.808 -21.952  1.00  0.00     0.210 HD
ENDBRANCH  16  27
BRANCH  11  29
HETATM   29  C16 UNL     1      -1.342  50.488 -14.301  1.00  0.00     0.240 C 
BRANCH  29  30
HETATM   30  O3  UNL     1      -0.358  51.394 -13.787  1.00  0.00    -0.345 OA
BRANCH  30  31
HETATM   31  C17 UNL     1      -0.705  52.234 -12.764  1.00  0.00     0.070 A 
HETATM   32  C18 UNL     1       0.151  53.089 -12.067  1.00  0.00     0.037 A 
HETATM   33  C19 UNL     1      -0.344  53.892 -11.034  1.00  0.00     0.004 A 
HETATM   34  C20 UNL     1      -1.694  53.841 -10.689  1.00  0.00     0.024 A 
HETATM   35  C21 UNL     1      -2.545  52.982 -11.378  1.00  0.00     0.036 A 
HETATM   36 CL1  UNL     1      -4.213  52.910 -10.955  1.00  0.00    -0.084 Cl
HETATM   37  C22 UNL     1      -2.057  52.182 -12.409  1.00  0.00     0.060 A 
ENDBRANCH  30  31
ENDBRANCH  29  30
ENDBRANCH  11  29
TORSDOF 9
ENDMDL
MODEL 9
REMARK minimizedAffinity -7.96547222
REMARK CNNscore 0.250237644
REMARK CNNaffinity 6.74375868
REMARK  9 active torsions:
REMARK  status: ('A' for Active; 'I' for Inactive)
REMARK    1  A    between atoms: O1_2  and  C2_3 
REMARK    2  A    between atoms: C2_3  and  C3_4 
REMARK    3  A    between atoms: C3_4  and  N1_5 
REMARK       I    between atoms: N1_5  and  C4_6 
REMARK    4  A    between atoms: C4_6  and  C5_8 
REMARK    5  A    between atoms: C5_8  and  C7_10 
REMARK    6  A    between atoms: C15_20  and  C16_21 
REMARK    7  A    between atoms: C16_21  and  O3_22 
REMARK    8  A    between atoms: O3_22  and  C17_23 
REMARK    9  A    between atoms: C26_34  and  O4_35 
ROOT
HETATM    1  C7  UNL     1      -0.473  52.920 -24.589  1.00  0.00     0.027 C 
HETATM    2  C8  UNL     1       0.708  53.798 -24.154  1.00  0.00     0.009 C 
HETATM    3  C9  UNL     1       0.671  54.101 -22.660  1.00  0.00     0.010 C 
HETATM    4  C10 UNL     1       0.634  52.834 -21.779  1.00  0.00    -0.033 C 
HETATM    5  C11 UNL     1       1.980  52.078 -21.922  1.00  0.00     0.016 C 
HETATM    6  C12 UNL     1       0.470  53.301 -20.298  1.00  0.00     0.058 C 
HETATM    7  C13 UNL     1       0.143  52.141 -19.428  1.00  0.00     0.008 A 
HETATM    8  C14 UNL     1      -0.400  50.952 -19.857  1.00  0.00     0.027 A 
HETATM    9  N2  UNL     1      -0.562  50.001 -18.867  1.00  0.00    -0.354 N 
ATOM     10  H2  UNL     1      -0.899  49.050 -19.016  1.00  0.00     0.166 HD
HETATM   11  C15 UNL     1      -0.216  50.509 -17.698  1.00  0.00     0.076 A 
HETATM   12  S1  UNL     1       0.402  52.117 -17.749  1.00  0.00    -0.077 SA
HETATM   13  C23 UNL     1      -0.738  50.646 -21.299  1.00  0.00     0.040 C 
HETATM   14  C24 UNL     1      -2.132  50.005 -21.373  1.00  0.00     0.017 C 
HETATM   15  C25 UNL     1      -0.599  51.943 -22.196  1.00  0.00     0.033 C 
HETATM   16  C26 UNL     1      -0.575  51.637 -23.721  1.00  0.00     0.128 C 
ENDROOT
BRANCH   1  17
HETATM   17  C5  UNL     1      -0.484  52.617 -26.117  1.00  0.00     0.080 C 
HETATM   18  C6  UNL     1       0.124  53.712 -26.997  1.00  0.00     0.020 C 
BRANCH  17  19
HETATM   19  C4  UNL     1      -1.873  52.174 -26.588  1.00  0.00     0.222 C 
HETATM   20  N1  UNL     1      -1.923  51.056 -27.384  1.00  0.00    -0.359 N 
HETATM   21  H8  UNL     1      -1.109  50.471 -27.507  1.00  0.00     0.162 HD
HETATM   22  O2  UNL     1      -2.877  52.827 -26.310  1.00  0.00    -0.273 OA
BRANCH  20  23
HETATM   23  C3  UNL     1      -3.174  50.581 -27.953  1.00  0.00     0.148 C 
BRANCH  23  24
HETATM   24  C2  UNL     1      -3.688  49.290 -27.311  1.00  0.00     0.186 C 
BRANCH  24  25
HETATM   25  O1  UNL     1      -3.928  48.289 -28.309  1.00  0.00    -0.394 OA
HETATM   26  C1  UNL     1      -5.299  47.929 -28.400  1.00  0.00     0.201 C 
ENDBRANCH  24  25
ENDBRANCH  23  24
ENDBRANCH  20  23
ENDBRANCH  17  19
ENDBRANCH   1  17
BRANCH  16  27
HETATM   27  O4  UNL     1      -1.776  50.963 -24.077  1.00  0.00    -0.395 OA
HETATM   28  H35 UNL     1      -1.616  50.446 -24.887  1.00  0.00     0.210 HD
ENDBRANCH  16  27
BRANCH  11  29
HETATM   29  C16 UNL     1      -0.310  49.772 -16.396  1.00  0.00     0.240 C 
BRANCH  29  30
HETATM   30  O3  UNL     1       0.188  50.591 -15.331  1.00  0.00    -0.345 OA
BRANCH  30  31
HETATM   31  C17 UNL     1       1.401  50.287 -14.776  1.00  0.00     0.070 A 
HETATM   32  C18 UNL     1       2.492  51.148 -14.645  1.00  0.00     0.037 A 
HETATM   33  C19 UNL     1       3.679  50.697 -14.058  1.00  0.00     0.004 A 
HETATM   34  C20 UNL     1       3.784  49.382 -13.606  1.00  0.00     0.024 A 
HETATM   35  C21 UNL     1       2.699  48.521 -13.746  1.00  0.00     0.036 A 
HETATM   36 CL1  UNL     1       2.823  46.894 -13.195  1.00  0.00    -0.084 Cl
HETATM   37  C22 UNL     1       1.514  48.967 -14.327  1.00  0.00     0.060 A 
ENDBRANCH  30  31
ENDBRANCH  29  30
ENDBRANCH  11  29
TORSDOF 9
ENDMDL
