MODEL 1
REMARK minimizedAffinity -8.27390289
REMARK CNNscore 0.731850147
REMARK CNNaffinity 7.29945183
REMARK  9 active torsions:
REMARK  status: ('A' for Active; 'I' for Inactive)
REMARK    1  A    between atoms: C11_11  and  C13_13 
REMARK    2  A    between atoms: C13_13  and  O2_15 
REMARK    3  A    between atoms: C15_17  and  C16_18 
REMARK    4  A    between atoms: C16_18  and  C17_19 
REMARK    5  A    between atoms: C17_19  and  C18_20 
REMARK    6  A    between atoms: C19_21  and  C20_22 
REMARK    7  A    between atoms: C20_22  and  O3_23 
REMARK    8  A    between atoms: O3_23  and  C21_24 
REMARK    9  A    between atoms: C21_24  and  C22_26 
ROOT
HETATM    1  C16 UNL     1      -4.823   6.348  15.734  1.00  0.00     0.014 C 
ENDROOT
BRANCH   1   2
HETATM    2  C15 UNL     1      -4.172   6.906  14.434  1.00  0.00     0.022 C 
HETATM    3  C2  UNL     1      -4.606   8.320  14.041  1.00  0.00    -0.084 C 
HETATM    4  C1  UNL     1      -5.280   9.193  14.810  1.00  0.00     0.014 C 
HETATM    5  C3  UNL     1      -4.158   8.722  12.660  1.00  0.00     0.034 C 
HETATM    6  C4  UNL     1      -2.636   8.637  12.549  1.00  0.00     0.011 C 
HETATM    7  C5  UNL     1      -2.105   7.241  12.951  1.00  0.00     0.012 C 
HETATM    8  C6  UNL     1      -2.583   6.817  14.402  1.00  0.00    -0.032 C 
HETATM    9  C11 UNL     1      -0.583   6.995  12.643  1.00  0.00     0.049 C 
HETATM   10  C7  UNL     1      -1.987   7.715  15.513  1.00  0.00     0.016 C 
HETATM   11  C8  UNL     1      -2.131   5.352  14.653  1.00  0.00     0.010 C 
HETATM   12  C9  UNL     1      -0.654   5.095  14.376  1.00  0.00     0.002 C 
HETATM   13  C10 UNL     1      -0.256   5.514  12.968  1.00  0.00     0.020 C 
HETATM   14  C12 UNL     1      -0.289   7.189  11.135  1.00  0.00     0.026 C 
BRANCH   9  15
HETATM   15  C13 UNL     1       0.354   7.996  13.349  1.00  0.00     0.267 C 
HETATM   16  O1  UNL     1       0.121   9.193  13.465  1.00  0.00    -0.264 OA
BRANCH  15  17
HETATM   17  O2  UNL     1       1.507   7.413  13.776  1.00  0.00    -0.326 OA
HETATM   18  C14 UNL     1       2.392   8.292  14.473  1.00  0.00     0.213 C 
ENDBRANCH  15  17
ENDBRANCH   9  15
ENDBRANCH   1   2
BRANCH   1  19
HETATM   19  C17 UNL     1      -6.106   5.525  15.513  1.00  0.00     0.042 C 
BRANCH  19  20
HETATM   20  C18 UNL     1      -7.360   6.327  15.659  1.00  0.00    -0.024 A 
HETATM   21  C19 UNL     1      -8.406   6.434  14.756  1.00  0.00     0.083 A 
HETATM   22  O5  UNL     1      -9.380   7.249  15.257  1.00  0.00    -0.324 OA
HETATM   23  C28 UNL     1      -8.958   7.677  16.472  1.00  0.00     0.143 A 
HETATM   24  C29 UNL     1      -7.727   7.145  16.766  1.00  0.00     0.034 A 
BRANCH  21  25
HETATM   25  C20 UNL     1      -8.664   5.856  13.412  1.00  0.00     0.244 C 
BRANCH  25  26
HETATM   26  O3  UNL     1      -7.454   5.228  12.967  1.00  0.00    -0.311 OA
BRANCH  26  27
HETATM   27  C21 UNL     1      -7.531   3.897  12.743  1.00  0.00     0.293 C 
HETATM   28  O4  UNL     1      -8.535   3.205  12.811  1.00  0.00    -0.259 OA
BRANCH  27  29
HETATM   29  C22 UNL     1      -6.193   3.360  12.372  1.00  0.00     0.039 A 
HETATM   30  C23 UNL     1      -6.121   2.057  11.857  1.00  0.00     0.019 A 
HETATM   31  C24 UNL     1      -4.888   1.509  11.493  1.00  0.00     0.025 A 
HETATM   32  C25 UNL     1      -3.723   2.260  11.645  1.00  0.00     0.034 A 
HETATM   33 CL1  UNL     1      -2.205   1.586  11.198  1.00  0.00    -0.084 Cl
HETATM   34  C26 UNL     1      -3.781   3.555  12.160  1.00  0.00     0.025 A 
HETATM   35  C27 UNL     1      -5.014   4.105  12.524  1.00  0.00     0.019 A 
ENDBRANCH  27  29
ENDBRANCH  26  27
ENDBRANCH  25  26
ENDBRANCH  21  25
ENDBRANCH  19  20
ENDBRANCH   1  19
TORSDOF 9
ENDMDL
MODEL 2
REMARK minimizedAffinity -8.40385628
REMARK CNNscore 0.56961298
REMARK CNNaffinity 7.06056738
REMARK  9 active torsions:
REMARK  status: ('A' for Active; 'I' for Inactive)
REMARK    1  A    between atoms: C11_11  and  C13_13 
REMARK    2  A    between atoms: C13_13  and  O2_15 
REMARK    3  A    between atoms: C15_17  and  C16_18 
REMARK    4  A    between atoms: C16_18  and  C17_19 
REMARK    5  A    between atoms: C17_19  and  C18_20 
REMARK    6  A    between atoms: C19_21  and  C20_22 
REMARK    7  A    between atoms: C20_22  and  O3_23 
REMARK    8  A    between atoms: O3_23  and  C21_24 
REMARK    9  A    between atoms: C21_24  and  C22_26 
ROOT
HETATM    1  C16 UNL     1      -4.693   8.356  13.530  1.00  0.00     0.014 C 
ENDROOT
BRANCH   1   2
HETATM    2  C15 UNL     1      -3.304   8.214  14.217  1.00  0.00     0.022 C 
HETATM    3  C2  UNL     1      -3.268   7.287  15.435  1.00  0.00    -0.084 C 
HETATM    4  C1  UNL     1      -4.226   6.422  15.810  1.00  0.00     0.014 C 
HETATM    5  C3  UNL     1      -1.982   7.373  16.215  1.00  0.00     0.034 C 
HETATM    6  C4  UNL     1      -0.792   7.035  15.319  1.00  0.00     0.011 C 
HETATM    7  C5  UNL     1      -0.760   7.913  14.046  1.00  0.00     0.012 C 
HETATM    8  C6  UNL     1      -2.116   7.827  13.229  1.00  0.00    -0.032 C 
HETATM    9  C11 UNL     1       0.553   7.795  13.189  1.00  0.00     0.049 C 
HETATM   10  C7  UNL     1      -2.367   6.419  12.636  1.00  0.00     0.016 C 
HETATM   11  C8  UNL     1      -2.046   8.850  12.062  1.00  0.00     0.010 C 
HETATM   12  C9  UNL     1      -0.788   8.743  11.208  1.00  0.00     0.002 C 
HETATM   13  C10 UNL     1       0.480   8.839  12.045  1.00  0.00     0.020 C 
HETATM   14  C12 UNL     1       1.797   8.158  14.037  1.00  0.00     0.026 C 
BRANCH   9  15
HETATM   15  C13 UNL     1       0.832   6.362  12.692  1.00  0.00     0.267 C 
HETATM   16  O1  UNL     1       0.885   5.379  13.419  1.00  0.00    -0.264 OA
BRANCH  15  17
HETATM   17  O2  UNL     1       1.077   6.318  11.353  1.00  0.00    -0.326 OA
HETATM   18  C14 UNL     1       2.361   5.798  11.005  1.00  0.00     0.213 C 
ENDBRANCH  15  17
ENDBRANCH   9  15
ENDBRANCH   1   2
BRANCH   1  19
HETATM   19  C17 UNL     1      -5.651   7.172  13.757  1.00  0.00     0.042 C 
BRANCH  19  20
HETATM   20  C18 UNL     1      -6.978   7.579  14.313  1.00  0.00    -0.024 A 
HETATM   21  C19 UNL     1      -8.184   6.901  14.209  1.00  0.00     0.083 A 
HETATM   22  O5  UNL     1      -9.167   7.585  14.864  1.00  0.00    -0.324 OA
HETATM   23  C28 UNL     1      -8.603   8.706  15.376  1.00  0.00     0.143 A 
HETATM   24  C29 UNL     1      -7.266   8.753  15.067  1.00  0.00     0.034 A 
BRANCH  21  25
HETATM   25  C20 UNL     1      -8.592   5.630  13.559  1.00  0.00     0.244 C 
BRANCH  25  26
HETATM   26  O3  UNL     1      -7.438   4.780  13.496  1.00  0.00    -0.311 OA
BRANCH  26  27
HETATM   27  C21 UNL     1      -7.623   3.581  12.900  1.00  0.00     0.293 C 
HETATM   28  O4  UNL     1      -8.690   3.012  12.726  1.00  0.00    -0.259 OA
BRANCH  27  29
HETATM   29  C22 UNL     1      -6.318   3.025  12.448  1.00  0.00     0.039 A 
HETATM   30  C23 UNL     1      -5.153   3.752  12.734  1.00  0.00     0.019 A 
HETATM   31  C24 UNL     1      -3.904   3.270  12.331  1.00  0.00     0.025 A 
HETATM   32  C25 UNL     1      -3.817   2.063  11.639  1.00  0.00     0.034 A 
HETATM   33 CL1  UNL     1      -2.280   1.470  11.143  1.00  0.00    -0.084 Cl
HETATM   34  C26 UNL     1      -4.969   1.334  11.344  1.00  0.00     0.025 A 
HETATM   35  C27 UNL     1      -6.219   1.814  11.747  1.00  0.00     0.019 A 
ENDBRANCH  27  29
ENDBRANCH  26  27
ENDBRANCH  25  26
ENDBRANCH  21  25
ENDBRANCH  19  20
ENDBRANCH   1  19
TORSDOF 9
ENDMDL
MODEL 3
REMARK minimizedAffinity -7.58302689
REMARK CNNscore 0.566237748
REMARK CNNaffinity 6.91006851
REMARK  9 active torsions:
REMARK  status: ('A' for Active; 'I' for Inactive)
REMARK    1  A    between atoms: C11_11  and  C13_13 
REMARK    2  A    between atoms: C13_13  and  O2_15 
REMARK    3  A    between atoms: C15_17  and  C16_18 
REMARK    4  A    between atoms: C16_18  and  C17_19 
REMARK    5  A    between atoms: C17_19  and  C18_20 
REMARK    6  A    between atoms: C19_21  and  C20_22 
REMARK    7  A    between atoms: C20_22  and  O3_23 
REMARK    8  A    between atoms: O3_23  and  C21_24 
REMARK    9  A    between atoms: C21_24  and  C22_26 
ROOT
HETATM    1  C16 UNL     1      -4.705   8.329  13.935  1.00  0.00     0.014 C 
ENDROOT
BRANCH   1   2
HETATM    2  C15 UNL     1      -3.597   8.360  15.027  1.00  0.00     0.022 C 
HETATM    3  C2  UNL     1      -2.343   7.540  14.710  1.00  0.00    -0.084 C 
HETATM    4  C1  UNL     1      -2.011   7.015  13.519  1.00  0.00     0.014 C 
HETATM    5  C3  UNL     1      -1.414   7.390  15.886  1.00  0.00     0.034 C 
HETATM    6  C4  UNL     1      -0.976   8.762  16.397  1.00  0.00     0.011 C 
HETATM    7  C5  UNL     1      -2.185   9.669  16.724  1.00  0.00     0.012 C 
HETATM    8  C6  UNL     1      -3.165   9.822  15.488  1.00  0.00    -0.032 C 
HETATM    9  C11 UNL     1      -1.831  11.006  17.473  1.00  0.00     0.049 C 
HETATM   10  C7  UNL     1      -2.517  10.573  14.300  1.00  0.00     0.016 C 
HETATM   11  C8  UNL     1      -4.416  10.618  15.954  1.00  0.00     0.010 C 
HETATM   12  C9  UNL     1      -4.095  11.926  16.669  1.00  0.00     0.002 C 
HETATM   13  C10 UNL     1      -3.157  11.716  17.849  1.00  0.00     0.020 C 
HETATM   14  C12 UNL     1      -1.096  10.711  18.804  1.00  0.00     0.026 C 
BRANCH   9  15
HETATM   15  C13 UNL     1      -0.856  11.907  16.688  1.00  0.00     0.267 C 
HETATM   16  O1  UNL     1       0.200  11.521  16.204  1.00  0.00    -0.264 OA
BRANCH  15  17
HETATM   17  O2  UNL     1      -1.270  13.203  16.647  1.00  0.00    -0.326 OA
HETATM   18  C14 UNL     1      -0.357  14.134  17.232  1.00  0.00     0.213 C 
ENDBRANCH  15  17
ENDBRANCH   9  15
ENDBRANCH   1   2
BRANCH   1  19
HETATM   19  C17 UNL     1      -5.716   7.175  14.071  1.00  0.00     0.042 C 
BRANCH  19  20
HETATM   20  C18 UNL     1      -7.075   7.622  14.506  1.00  0.00    -0.024 A 
HETATM   21  C19 UNL     1      -8.273   6.934  14.384  1.00  0.00     0.083 A 
HETATM   22  O5  UNL     1      -9.294   7.668  14.915  1.00  0.00    -0.324 OA
HETATM   23  C28 UNL     1      -8.761   8.830  15.365  1.00  0.00     0.143 A 
HETATM   24  C29 UNL     1      -7.407   8.855  15.138  1.00  0.00     0.034 A 
BRANCH  21  25
HETATM   25  C20 UNL     1      -8.641   5.611  13.819  1.00  0.00     0.244 C 
BRANCH  25  26
HETATM   26  O3  UNL     1      -7.435   4.851  13.663  1.00  0.00    -0.311 OA
BRANCH  26  27
HETATM   27  C21 UNL     1      -7.554   3.699  12.965  1.00  0.00     0.293 C 
HETATM   28  O4  UNL     1      -8.591   3.110  12.704  1.00  0.00    -0.259 OA
BRANCH  27  29
HETATM   29  C22 UNL     1      -6.213   3.228  12.520  1.00  0.00     0.039 A 
HETATM   30  C23 UNL     1      -5.095   4.013  12.838  1.00  0.00     0.019 A 
HETATM   31  C24 UNL     1      -3.816   3.612  12.443  1.00  0.00     0.025 A 
HETATM   32  C25 UNL     1      -3.651   2.428  11.726  1.00  0.00     0.034 A 
HETATM   33 CL1  UNL     1      -2.076   1.934  11.240  1.00  0.00    -0.084 Cl
HETATM   34  C26 UNL     1      -4.755   1.641  11.400  1.00  0.00     0.025 A 
HETATM   35  C27 UNL     1      -6.036   2.040  11.795  1.00  0.00     0.019 A 
ENDBRANCH  27  29
ENDBRANCH  26  27
ENDBRANCH  25  26
ENDBRANCH  21  25
ENDBRANCH  19  20
ENDBRANCH   1  19
TORSDOF 9
ENDMDL
MODEL 4
REMARK minimizedAffinity -8.94278717
REMARK CNNscore 0.355228335
REMARK CNNaffinity 6.76201248
REMARK  9 active torsions:
REMARK  status: ('A' for Active; 'I' for Inactive)
REMARK    1  A    between atoms: C11_11  and  C13_13 
REMARK    2  A    between atoms: C13_13  and  O2_15 
REMARK    3  A    between atoms: C15_17  and  C16_18 
REMARK    4  A    between atoms: C16_18  and  C17_19 
REMARK    5  A    between atoms: C17_19  and  C18_20 
REMARK    6  A    between atoms: C19_21  and  C20_22 
REMARK    7  A    between atoms: C20_22  and  O3_23 
REMARK    8  A    between atoms: O3_23  and  C21_24 
REMARK    9  A    between atoms: C21_24  and  C22_26 
ROOT
HETATM    1  C16 UNL     1      -0.144   6.397  12.840  1.00  0.00     0.014 C 
ENDROOT
BRANCH   1   2
HETATM    2  C15 UNL     1      -0.139   6.918  11.373  1.00  0.00     0.022 C 
HETATM    3  C2  UNL     1      -0.810   8.277  11.159  1.00  0.00    -0.084 C 
HETATM    4  C1  UNL     1      -1.172   9.149  12.115  1.00  0.00     0.014 C 
HETATM    5  C3  UNL     1      -1.009   8.624   9.707  1.00  0.00     0.034 C 
HETATM    6  C4  UNL     1       0.332   8.628   8.972  1.00  0.00     0.011 C 
HETATM    7  C5  UNL     1       1.092   7.294   9.153  1.00  0.00     0.012 C 
HETATM    8  C6  UNL     1       1.296   6.927  10.681  1.00  0.00    -0.032 C 
HETATM    9  C11 UNL     1       2.365   7.126   8.244  1.00  0.00     0.049 C 
HETATM   10  C7  UNL     1       2.224   7.923  11.416  1.00  0.00     0.016 C 
HETATM   11  C8  UNL     1       1.928   5.510  10.761  1.00  0.00     0.010 C 
HETATM   12  C9  UNL     1       3.173   5.329   9.899  1.00  0.00     0.002 C 
HETATM   13  C10 UNL     1       2.915   5.690   8.442  1.00  0.00     0.020 C 
HETATM   14  C12 UNL     1       1.989   7.250   6.746  1.00  0.00     0.026 C 
BRANCH   9  15
HETATM   15  C13 UNL     1       3.425   8.223   8.466  1.00  0.00     0.267 C 
HETATM   16  O1  UNL     1       3.469   9.275   7.840  1.00  0.00    -0.264 OA
BRANCH  15  17
HETATM   17  O2  UNL     1       4.352   7.865   9.396  1.00  0.00    -0.326 OA
HETATM   18  C14 UNL     1       5.080   8.959   9.956  1.00  0.00     0.213 C 
ENDBRANCH  15  17
ENDBRANCH   9  15
ENDBRANCH   1   2
BRANCH   1  19
HETATM   19  C17 UNL     1       0.010   7.490  13.914  1.00  0.00     0.042 C 
BRANCH  19  20
HETATM   20  C18 UNL     1      -1.120   7.525  14.893  1.00  0.00    -0.024 A 
HETATM   21  C19 UNL     1      -2.148   6.606  15.033  1.00  0.00     0.083 A 
HETATM   22  O5  UNL     1      -2.978   6.978  16.052  1.00  0.00    -0.324 OA
HETATM   23  C28 UNL     1      -2.496   8.139  16.557  1.00  0.00     0.143 A 
HETATM   24  C29 UNL     1      -1.361   8.520  15.884  1.00  0.00     0.034 A 
BRANCH  21  25
HETATM   25  C20 UNL     1      -2.502   5.348  14.327  1.00  0.00     0.244 C 
BRANCH  25  26
HETATM   26  O3  UNL     1      -3.529   5.656  13.375  1.00  0.00    -0.311 OA
BRANCH  26  27
HETATM   27  C21 UNL     1      -4.415   4.665  13.127  1.00  0.00     0.293 C 
HETATM   28  O4  UNL     1      -4.152   3.510  12.831  1.00  0.00    -0.259 OA
BRANCH  27  29
HETATM   29  C22 UNL     1      -5.808   5.171  13.283  1.00  0.00     0.039 A 
HETATM   30  C23 UNL     1      -6.837   4.497  12.609  1.00  0.00     0.019 A 
HETATM   31  C24 UNL     1      -8.159   4.933  12.726  1.00  0.00     0.025 A 
HETATM   32  C25 UNL     1      -8.457   6.045  13.513  1.00  0.00     0.034 A 
HETATM   33 CL1  UNL     1     -10.085   6.582  13.656  1.00  0.00    -0.084 Cl
HETATM   34  C26 UNL     1      -7.441   6.726  14.184  1.00  0.00     0.025 A 
HETATM   35  C27 UNL     1      -6.117   6.291  14.069  1.00  0.00     0.019 A 
ENDBRANCH  27  29
ENDBRANCH  26  27
ENDBRANCH  25  26
ENDBRANCH  21  25
ENDBRANCH  19  20
ENDBRANCH   1  19
TORSDOF 9
ENDMDL
MODEL 5
REMARK minimizedAffinity -8.12613869
REMARK CNNscore 0.341177434
REMARK CNNaffinity 6.81051111
REMARK  9 active torsions:
REMARK  status: ('A' for Active; 'I' for Inactive)
REMARK    1  A    between atoms: C11_11  and  C13_13 
REMARK    2  A    between atoms: C13_13  and  O2_15 
REMARK    3  A    between atoms: C15_17  and  C16_18 
REMARK    4  A    between atoms: C16_18  and  C17_19 
REMARK    5  A    between atoms: C17_19  and  C18_20 
REMARK    6  A    between atoms: C19_21  and  C20_22 
REMARK    7  A    between atoms: C20_22  and  O3_23 
REMARK    8  A    between atoms: O3_23  and  C21_24 
REMARK    9  A    between atoms: C21_24  and  C22_26 
ROOT
HETATM    1  C16 UNL     1      -4.749   6.184  14.292  1.00  0.00     0.014 C 
ENDROOT
BRANCH   1   2
HETATM    2  C15 UNL     1      -3.729   7.070  13.519  1.00  0.00     0.022 C 
HETATM    3  C2  UNL     1      -3.492   8.462  14.111  1.00  0.00    -0.084 C 
HETATM    4  C1  UNL     1      -3.875   8.890  15.326  1.00  0.00     0.014 C 
HETATM    5  C3  UNL     1      -2.704   9.371  13.205  1.00  0.00     0.034 C 
HETATM    6  C4  UNL     1      -1.346   8.750  12.877  1.00  0.00     0.011 C 
HETATM    7  C5  UNL     1      -1.491   7.326  12.290  1.00  0.00     0.012 C 
HETATM    8  C6  UNL     1      -2.325   6.372  13.242  1.00  0.00    -0.032 C 
HETATM    9  C11 UNL     1      -0.166   6.709  11.710  1.00  0.00     0.049 C 
HETATM   10  C7  UNL     1      -1.608   6.090  14.584  1.00  0.00     0.016 C 
HETATM   11  C8  UNL     1      -2.544   5.021  12.505  1.00  0.00     0.010 C 
HETATM   12  C9  UNL     1      -1.270   4.397  11.947  1.00  0.00     0.002 C 
HETATM   13  C10 UNL     1      -0.516   5.356  11.037  1.00  0.00     0.020 C 
HETATM   14  C12 UNL     1       0.421   7.614  10.598  1.00  0.00     0.026 C 
BRANCH   9  15
HETATM   15  C13 UNL     1       0.966   6.598  12.752  1.00  0.00     0.267 C 
HETATM   16  O1  UNL     1       1.126   5.639  13.495  1.00  0.00    -0.264 OA
BRANCH  15  17
HETATM   17  O2  UNL     1       1.736   7.720  12.799  1.00  0.00    -0.326 OA
HETATM   18  C14 UNL     1       3.120   7.499  12.526  1.00  0.00     0.213 C 
ENDBRANCH  15  17
ENDBRANCH   9  15
ENDBRANCH   1   2
BRANCH   1  19
HETATM   19  C17 UNL     1      -6.226   6.434  13.933  1.00  0.00     0.042 C 
BRANCH  19  20
HETATM   20  C18 UNL     1      -6.925   5.221  13.409  1.00  0.00    -0.024 A 
HETATM   21  C19 UNL     1      -8.233   5.126  12.958  1.00  0.00     0.083 A 
HETATM   22  O5  UNL     1      -8.498   3.852  12.544  1.00  0.00    -0.324 OA
HETATM   23  C28 UNL     1      -7.371   3.125  12.740  1.00  0.00     0.143 A 
HETATM   24  C29 UNL     1      -6.378   3.913  13.269  1.00  0.00     0.034 A 
BRANCH  21  25
HETATM   25  C20 UNL     1      -9.349   6.098  12.838  1.00  0.00     0.244 C 
BRANCH  25  26
HETATM   26  O3  UNL     1      -9.775   6.441  14.164  1.00  0.00    -0.311 OA
BRANCH  26  27
HETATM   27  C21 UNL     1     -10.490   7.583  14.274  1.00  0.00     0.293 C 
HETATM   28  O4  UNL     1     -10.062   8.682  14.593  1.00  0.00    -0.259 OA
BRANCH  27  29
HETATM   29  C22 UNL     1     -11.917   7.332  13.927  1.00  0.00     0.039 A 
HETATM   30  C23 UNL     1     -12.540   8.198  13.016  1.00  0.00     0.019 A 
HETATM   31  C24 UNL     1     -13.877   8.002  12.659  1.00  0.00     0.025 A 
HETATM   32  C25 UNL     1     -14.595   6.944  13.213  1.00  0.00     0.034 A 
HETATM   33 CL1  UNL     1     -16.241   6.704  12.774  1.00  0.00    -0.084 Cl
HETATM   34  C26 UNL     1     -13.988   6.080  14.124  1.00  0.00     0.025 A 
HETATM   35  C27 UNL     1     -12.650   6.273  14.482  1.00  0.00     0.019 A 
ENDBRANCH  27  29
ENDBRANCH  26  27
ENDBRANCH  25  26
ENDBRANCH  21  25
ENDBRANCH  19  20
ENDBRANCH   1  19
TORSDOF 9
ENDMDL
MODEL 6
REMARK minimizedAffinity -8.34924221
REMARK CNNscore 0.325456738
REMARK CNNaffinity 6.52717781
REMARK  9 active torsions:
REMARK  status: ('A' for Active; 'I' for Inactive)
REMARK    1  A    between atoms: C11_11  and  C13_13 
REMARK    2  A    between atoms: C13_13  and  O2_15 
REMARK    3  A    between atoms: C15_17  and  C16_18 
REMARK    4  A    between atoms: C16_18  and  C17_19 
REMARK    5  A    between atoms: C17_19  and  C18_20 
REMARK    6  A    between atoms: C19_21  and  C20_22 
REMARK    7  A    between atoms: C20_22  and  O3_23 
REMARK    8  A    between atoms: O3_23  and  C21_24 
REMARK    9  A    between atoms: C21_24  and  C22_26 
ROOT
HETATM    1  C16 UNL     1      -1.414   5.350  12.350  1.00  0.00     0.014 C 
ENDROOT
BRANCH   1   2
HETATM    2  C15 UNL     1      -2.919   5.063  12.075  1.00  0.00     0.022 C 
HETATM    3  C2  UNL     1      -3.261   3.600  11.779  1.00  0.00    -0.084 C 
HETATM    4  C1  UNL     1      -2.462   2.537  11.970  1.00  0.00     0.014 C 
HETATM    5  C3  UNL     1      -4.667   3.405  11.273  1.00  0.00     0.034 C 
HETATM    6  C4  UNL     1      -5.677   3.941  12.287  1.00  0.00     0.011 C 
HETATM    7  C5  UNL     1      -5.392   5.414  12.661  1.00  0.00     0.012 C 
HETATM    8  C6  UNL     1      -3.912   5.619  13.189  1.00  0.00    -0.032 C 
HETATM    9  C11 UNL     1      -6.514   6.112  13.514  1.00  0.00     0.049 C 
HETATM   10  C7  UNL     1      -3.650   4.894  14.531  1.00  0.00     0.016 C 
HETATM   11  C8  UNL     1      -3.675   7.141  13.393  1.00  0.00     0.010 C 
HETATM   12  C9  UNL     1      -4.743   7.835  14.231  1.00  0.00     0.002 C 
HETATM   13  C10 UNL     1      -6.141   7.609  13.673  1.00  0.00     0.020 C 
HETATM   14  C12 UNL     1      -7.872   6.074  12.770  1.00  0.00     0.026 C 
BRANCH   9  15
HETATM   15  C13 UNL     1      -6.792   5.406  14.856  1.00  0.00     0.267 C 
HETATM   16  O1  UNL     1      -7.279   4.287  14.957  1.00  0.00    -0.264 OA
BRANCH  15  17
HETATM   17  O2  UNL     1      -6.493   6.192  15.926  1.00  0.00    -0.326 OA
HETATM   18  C14 UNL     1      -7.631   6.675  16.642  1.00  0.00     0.213 C 
ENDBRANCH  15  17
ENDBRANCH   9  15
ENDBRANCH   1   2
BRANCH   1  19
HETATM   19  C17 UNL     1      -0.598   5.770  11.113  1.00  0.00     0.042 C 
BRANCH  19  20
HETATM   20  C18 UNL     1       0.209   7.011  11.324  1.00  0.00    -0.024 A 
HETATM   21  C19 UNL     1       0.517   7.989  10.392  1.00  0.00     0.083 A 
HETATM   22  O5  UNL     1       1.261   8.976  10.972  1.00  0.00    -0.324 OA
HETATM   23  C28 UNL     1       1.444   8.629  12.269  1.00  0.00     0.143 A 
HETATM   24  C29 UNL     1       0.823   7.434  12.538  1.00  0.00     0.034 A 
BRANCH  21  25
HETATM   25  C20 UNL     1       0.203   8.167   8.951  1.00  0.00     0.244 C 
BRANCH  25  26
HETATM   26  O3  UNL     1       1.445   8.196   8.233  1.00  0.00    -0.311 OA
BRANCH  26  27
HETATM   27  C21 UNL     1       1.520   7.380   7.158  1.00  0.00     0.293 C 
HETATM   28  O4  UNL     1       0.979   7.550   6.076  1.00  0.00    -0.259 OA
BRANCH  27  29
HETATM   29  C22 UNL     1       2.393   6.212   7.460  1.00  0.00     0.039 A 
HETATM   30  C23 UNL     1       2.857   6.053   8.775  1.00  0.00     0.019 A 
HETATM   31  C24 UNL     1       3.678   4.972   9.107  1.00  0.00     0.025 A 
HETATM   32  C25 UNL     1       4.040   4.049   8.127  1.00  0.00     0.034 A 
HETATM   33 CL1  UNL     1       5.051   2.719   8.536  1.00  0.00    -0.084 Cl
HETATM   34  C26 UNL     1       3.590   4.199   6.816  1.00  0.00     0.025 A 
HETATM   35  C27 UNL     1       2.768   5.280   6.481  1.00  0.00     0.019 A 
ENDBRANCH  27  29
ENDBRANCH  26  27
ENDBRANCH  25  26
ENDBRANCH  21  25
ENDBRANCH  19  20
ENDBRANCH   1  19
TORSDOF 9
ENDMDL
MODEL 7
REMARK minimizedAffinity -7.45801163
REMARK CNNscore 0.318160504
REMARK CNNaffinity 6.60105276
REMARK  9 active torsions:
REMARK  status: ('A' for Active; 'I' for Inactive)
REMARK    1  A    between atoms: C11_11  and  C13_13 
REMARK    2  A    between atoms: C13_13  and  O2_15 
REMARK    3  A    between atoms: C15_17  and  C16_18 
REMARK    4  A    between atoms: C16_18  and  C17_19 
REMARK    5  A    between atoms: C17_19  and  C18_20 
REMARK    6  A    between atoms: C19_21  and  C20_22 
REMARK    7  A    between atoms: C20_22  and  O3_23 
REMARK    8  A    between atoms: O3_23  and  C21_24 
REMARK    9  A    between atoms: C21_24  and  C22_26 
ROOT
HETATM    1  C16 UNL     1       1.025   6.420  12.794  1.00  0.00     0.014 C 
ENDROOT
BRANCH   1   2
HETATM    2  C15 UNL     1      -0.223   7.339  12.938  1.00  0.00     0.022 C 
HETATM    3  C2  UNL     1      -0.528   8.222  11.725  1.00  0.00    -0.084 C 
HETATM    4  C1  UNL     1       0.009   8.108  10.498  1.00  0.00     0.014 C 
HETATM    5  C3  UNL     1      -1.577   9.269  11.995  1.00  0.00     0.034 C 
HETATM    6  C4  UNL     1      -2.879   8.612  12.452  1.00  0.00     0.011 C 
HETATM    7  C5  UNL     1      -2.660   7.680  13.667  1.00  0.00     0.012 C 
HETATM    8  C6  UNL     1      -1.552   6.583  13.383  1.00  0.00    -0.032 C 
HETATM    9  C11 UNL     1      -3.976   7.150  14.344  1.00  0.00     0.049 C 
HETATM   10  C7  UNL     1      -1.974   5.578  12.285  1.00  0.00     0.016 C 
HETATM   11  C8  UNL     1      -1.296   5.799  14.700  1.00  0.00     0.010 C 
HETATM   12  C9  UNL     1      -2.558   5.262  15.366  1.00  0.00     0.002 C 
HETATM   13  C10 UNL     1      -3.581   6.360  15.619  1.00  0.00     0.020 C 
HETATM   14  C12 UNL     1      -4.865   8.328  14.815  1.00  0.00     0.026 C 
BRANCH   9  15
HETATM   15  C13 UNL     1      -4.879   6.349  13.384  1.00  0.00     0.267 C 
HETATM   16  O1  UNL     1      -4.539   5.316  12.821  1.00  0.00    -0.264 OA
BRANCH  15  17
HETATM   17  O2  UNL     1      -6.081   6.953  13.179  1.00  0.00    -0.326 OA
HETATM   18  C14 UNL     1      -7.203   6.072  13.237  1.00  0.00     0.213 C 
ENDBRANCH  15  17
ENDBRANCH   9  15
ENDBRANCH   1   2
BRANCH   1  19
HETATM   19  C17 UNL     1       2.140   6.677  13.825  1.00  0.00     0.042 C 
BRANCH  19  20
HETATM   20  C18 UNL     1       2.335   8.125  14.143  1.00  0.00    -0.024 A 
HETATM   21  C19 UNL     1       3.441   8.912  13.861  1.00  0.00     0.083 A 
HETATM   22  O5  UNL     1       3.233  10.190  14.295  1.00  0.00    -0.324 OA
HETATM   23  C28 UNL     1       2.004  10.224  14.867  1.00  0.00     0.143 A 
HETATM   24  C29 UNL     1       1.412   8.987  14.802  1.00  0.00     0.034 A 
BRANCH  21  25
HETATM   25  C20 UNL     1       4.746   8.648  13.204  1.00  0.00     0.244 C 
BRANCH  25  26
HETATM   26  O3  UNL     1       4.522   8.608  11.788  1.00  0.00    -0.311 OA
BRANCH  26  27
HETATM   27  C21 UNL     1       4.688   7.401  11.202  1.00  0.00     0.293 C 
HETATM   28  O4  UNL     1       5.384   6.484  11.609  1.00  0.00    -0.259 OA
BRANCH  27  29
HETATM   29  C22 UNL     1       3.873   7.317   9.958  1.00  0.00     0.039 A 
HETATM   30  C23 UNL     1       3.711   8.480   9.191  1.00  0.00     0.019 A 
HETATM   31  C24 UNL     1       2.955   8.450   8.016  1.00  0.00     0.025 A 
HETATM   32  C25 UNL     1       2.357   7.260   7.606  1.00  0.00     0.034 A 
HETATM   33 CL1  UNL     1       1.427   7.224   6.159  1.00  0.00    -0.084 Cl
HETATM   34  C26 UNL     1       2.506   6.098   8.362  1.00  0.00     0.025 A 
HETATM   35  C27 UNL     1       3.262   6.125   9.539  1.00  0.00     0.019 A 
ENDBRANCH  27  29
ENDBRANCH  26  27
ENDBRANCH  25  26
ENDBRANCH  21  25
ENDBRANCH  19  20
ENDBRANCH   1  19
TORSDOF 9
ENDMDL
MODEL 8
REMARK minimizedAffinity -8.75647926
REMARK CNNscore 0.314403504
REMARK CNNaffinity 6.79816437
REMARK  9 active torsions:
REMARK  status: ('A' for Active; 'I' for Inactive)
REMARK    1  A    between atoms: C11_11  and  C13_13 
REMARK    2  A    between atoms: C13_13  and  O2_15 
REMARK    3  A    between atoms: C15_17  and  C16_18 
REMARK    4  A    between atoms: C16_18  and  C17_19 
REMARK    5  A    between atoms: C17_19  and  C18_20 
REMARK    6  A    between atoms: C19_21  and  C20_22 
REMARK    7  A    between atoms: C20_22  and  O3_23 
REMARK    8  A    between atoms: O3_23  and  C21_24 
REMARK    9  A    between atoms: C21_24  and  C22_26 
ROOT
HETATM    1  C16 UNL     1      -3.654   4.779  13.328  1.00  0.00     0.014 C 
ENDROOT
BRANCH   1   2
HETATM    2  C15 UNL     1      -2.880   6.016  12.786  1.00  0.00     0.022 C 
HETATM    3  C2  UNL     1      -3.214   7.346  13.466  1.00  0.00    -0.084 C 
HETATM    4  C1  UNL     1      -3.901   7.509  14.609  1.00  0.00     0.014 C 
HETATM    5  C3  UNL     1      -2.642   8.543  12.753  1.00  0.00     0.034 C 
HETATM    6  C4  UNL     1      -1.122   8.424  12.648  1.00  0.00     0.011 C 
HETATM    7  C5  UNL     1      -0.692   7.093  11.988  1.00  0.00     0.012 C 
HETATM    8  C6  UNL     1      -1.299   5.834  12.736  1.00  0.00    -0.032 C 
HETATM    9  C11 UNL     1       0.836   6.992  11.629  1.00  0.00     0.049 C 
HETATM   10  C7  UNL     1      -0.747   5.669  14.173  1.00  0.00     0.016 C 
HETATM   11  C8  UNL     1      -0.940   4.562  11.918  1.00  0.00     0.010 C 
HETATM   12  C9  UNL     1       0.540   4.436  11.573  1.00  0.00     0.002 C 
HETATM   13  C10 UNL     1       1.065   5.670  10.851  1.00  0.00     0.020 C 
HETATM   14  C12 UNL     1       1.253   8.140  10.677  1.00  0.00     0.026 C 
BRANCH   9  15
HETATM   15  C13 UNL     1       1.763   7.150  12.851  1.00  0.00     0.267 C 
HETATM   16  O1  UNL     1       1.523   6.694  13.961  1.00  0.00    -0.264 OA
BRANCH  15  17
HETATM   17  O2  UNL     1       2.857   7.912  12.575  1.00  0.00    -0.326 OA
HETATM   18  C14 UNL     1       3.553   8.387  13.728  1.00  0.00     0.213 C 
ENDBRANCH  15  17
ENDBRANCH   9  15
ENDBRANCH   1   2
BRANCH   1  19
HETATM   19  C17 UNL     1      -5.134   4.707  12.907  1.00  0.00     0.042 C 
BRANCH  19  20
HETATM   20  C18 UNL     1      -5.521   3.389  12.315  1.00  0.00    -0.024 A 
HETATM   21  C19 UNL     1      -6.763   2.774  12.357  1.00  0.00     0.083 A 
HETATM   22  O5  UNL     1      -6.723   1.585  11.685  1.00  0.00    -0.324 OA
HETATM   23  C28 UNL     1      -5.458   1.428  11.225  1.00  0.00     0.143 A 
HETATM   24  C29 UNL     1      -4.680   2.502  11.583  1.00  0.00     0.034 A 
BRANCH  21  25
HETATM   25  C20 UNL     1      -8.070   3.143  12.957  1.00  0.00     0.244 C 
BRANCH  25  26
HETATM   26  O3  UNL     1      -7.919   4.427  13.577  1.00  0.00    -0.311 OA
BRANCH  26  27
HETATM   27  C21 UNL     1      -8.533   5.456  12.951  1.00  0.00     0.293 C 
HETATM   28  O4  UNL     1      -8.729   5.565  11.750  1.00  0.00    -0.259 OA
BRANCH  27  29
HETATM   29  C22 UNL     1      -8.974   6.473  13.946  1.00  0.00     0.039 A 
HETATM   30  C23 UNL     1     -10.254   7.028  13.803  1.00  0.00     0.019 A 
HETATM   31  C24 UNL     1     -10.713   7.985  14.712  1.00  0.00     0.025 A 
HETATM   32  C25 UNL     1      -9.893   8.393  15.764  1.00  0.00     0.034 A 
HETATM   33 CL1  UNL     1     -10.459   9.571  16.882  1.00  0.00    -0.084 Cl
HETATM   34  C26 UNL     1      -8.617   7.852  15.913  1.00  0.00     0.025 A 
HETATM   35  C27 UNL     1      -8.156   6.894  15.005  1.00  0.00     0.019 A 
ENDBRANCH  27  29
ENDBRANCH  26  27
ENDBRANCH  25  26
ENDBRANCH  21  25
ENDBRANCH  19  20
ENDBRANCH   1  19
TORSDOF 9
ENDMDL
MODEL 9
REMARK minimizedAffinity -7.34821224
REMARK CNNscore 0.308151573
REMARK CNNaffinity 6.41304207
REMARK  9 active torsions:
REMARK  status: ('A' for Active; 'I' for Inactive)
REMARK    1  A    between atoms: C11_11  and  C13_13 
REMARK    2  A    between atoms: C13_13  and  O2_15 
REMARK    3  A    between atoms: C15_17  and  C16_18 
REMARK    4  A    between atoms: C16_18  and  C17_19 
REMARK    5  A    between atoms: C17_19  and  C18_20 
REMARK    6  A    between atoms: C19_21  and  C20_22 
REMARK    7  A    between atoms: C20_22  and  O3_23 
REMARK    8  A    between atoms: O3_23  and  C21_24 
REMARK    9  A    between atoms: C21_24  and  C22_26 
ROOT
HETATM    1  C16 UNL     1      -9.693   8.585  14.799  1.00  0.00     0.014 C 
ENDROOT
BRANCH   1   2
HETATM    2  C15 UNL     1     -11.070   8.639  15.522  1.00  0.00     0.022 C 
HETATM    3  C2  UNL     1     -11.255   9.809  16.491  1.00  0.00    -0.084 C 
HETATM    4  C1  UNL     1     -10.469  10.894  16.593  1.00  0.00     0.014 C 
HETATM    5  C3  UNL     1     -12.485   9.685  17.352  1.00  0.00     0.034 C 
HETATM    6  C4  UNL     1     -13.736   9.580  16.480  1.00  0.00     0.011 C 
HETATM    7  C5  UNL     1     -13.627   8.431  15.451  1.00  0.00     0.012 C 
HETATM    8  C6  UNL     1     -12.330   8.560  14.550  1.00  0.00    -0.032 C 
HETATM    9  C11 UNL     1     -14.956   8.105  14.676  1.00  0.00     0.049 C 
HETATM   10  C7  UNL     1     -12.360   9.805  13.633  1.00  0.00     0.016 C 
HETATM   11  C8  UNL     1     -12.229   7.290  13.659  1.00  0.00     0.010 C 
HETATM   12  C9  UNL     1     -13.502   6.964  12.887  1.00  0.00     0.002 C 
HETATM   13  C10 UNL     1     -14.712   6.847  13.803  1.00  0.00     0.020 C 
HETATM   14  C12 UNL     1     -16.092   7.740  15.664  1.00  0.00     0.026 C 
BRANCH   9  15
HETATM   15  C13 UNL     1     -15.511   9.303  13.880  1.00  0.00     0.267 C 
HETATM   16  O1  UNL     1     -15.207   9.559  12.722  1.00  0.00    -0.264 OA
BRANCH  15  17
HETATM   17  O2  UNL     1     -16.331  10.088  14.631  1.00  0.00    -0.326 OA
HETATM   18  C14 UNL     1     -16.277  11.478  14.309  1.00  0.00     0.213 C 
ENDBRANCH  15  17
ENDBRANCH   9  15
ENDBRANCH   1   2
BRANCH   1  19
HETATM   19  C17 UNL     1      -8.608   7.774  15.532  1.00  0.00     0.042 C 
BRANCH  19  20
HETATM   20  C18 UNL     1      -7.306   7.722  14.798  1.00  0.00    -0.024 A 
HETATM   21  C19 UNL     1      -6.966   6.898  13.736  1.00  0.00     0.083 A 
HETATM   22  O5  UNL     1      -5.690   7.160  13.327  1.00  0.00    -0.324 OA
HETATM   23  C28 UNL     1      -5.204   8.138  14.130  1.00  0.00     0.143 A 
HETATM   24  C29 UNL     1      -6.151   8.517  15.049  1.00  0.00     0.034 A 
BRANCH  21  25
HETATM   25  C20 UNL     1      -7.689   5.839  12.987  1.00  0.00     0.244 C 
BRANCH  25  26
HETATM   26  O3  UNL     1      -7.599   4.626  13.748  1.00  0.00    -0.311 OA
BRANCH  26  27
HETATM   27  C21 UNL     1      -7.396   3.498  13.032  1.00  0.00     0.293 C 
HETATM   28  O4  UNL     1      -8.185   2.576  12.887  1.00  0.00    -0.259 OA
BRANCH  27  29
HETATM   29  C22 UNL     1      -6.047   3.524  12.402  1.00  0.00     0.039 A 
HETATM   30  C23 UNL     1      -4.956   3.925  13.188  1.00  0.00     0.019 A 
HETATM   31  C24 UNL     1      -3.670   3.965  12.641  1.00  0.00     0.025 A 
HETATM   32  C25 UNL     1      -3.472   3.609  11.308  1.00  0.00     0.034 A 
HETATM   33 CL1  UNL     1      -1.889   3.658  10.636  1.00  0.00    -0.084 Cl
HETATM   34  C26 UNL     1      -4.549   3.214  10.516  1.00  0.00     0.025 A 
HETATM   35  C27 UNL     1      -5.836   3.172  11.061  1.00  0.00     0.019 A 
ENDBRANCH  27  29
ENDBRANCH  26  27
ENDBRANCH  25  26
ENDBRANCH  21  25
ENDBRANCH  19  20
ENDBRANCH   1  19
TORSDOF 9
ENDMDL
