MODEL 1
REMARK minimizedAffinity -7.16826057
REMARK CNNscore 0.485386223
REMARK CNNaffinity 6.96647644
REMARK  15 active torsions:
REMARK  status: ('A' for Active; 'I' for Inactive)
REMARK    1  A    between atoms: C2_2  and  O2_4 
REMARK    2  A    between atoms: O2_4  and  C3_5 
REMARK    3  A    between atoms: C3_5  and  C4_6 
REMARK    4  A    between atoms: C4_6  and  C5_8 
REMARK    5  A    between atoms: C5_8  and  O4_9 
REMARK    6  A    between atoms: O4_9  and  C6_10 
REMARK    7  A    between atoms: C6_10  and  C7_12 
REMARK    8  A    between atoms: C7_12  and  C8_13 
REMARK    9  A    between atoms: C8_13  and  C9_14 
REMARK       I    between atoms: C9_14  and  N1_16 
REMARK   10  A    between atoms: N1_16  and  C10_17 
REMARK   11  A    between atoms: C10_17  and  C11_18 
REMARK   12  A    between atoms: C11_18  and  C12_19 
REMARK   13  A    between atoms: C12_19  and  C13_20 
REMARK   14  A    between atoms: C13_20  and  C14_21 
REMARK   15  A    between atoms: C14_21  and  O8_23 
ROOT
HETATM    1  C3  UNL     1       0.669  52.173 -10.690  1.00  0.00     0.140 C 
HETATM    2  C15 UNL     1       1.975  51.400 -10.907  1.00  0.00     0.048 C 
HETATM    3  C16 UNL     1       3.033  52.473 -11.163  1.00  0.00     0.009 C 
HETATM    4  C17 UNL     1       2.523  53.786 -10.516  1.00  0.00     0.002 C 
HETATM    5  C18 UNL     1       3.560  54.327  -9.495  1.00  0.00    -0.004 C 
HETATM    6  C19 UNL     1       4.741  54.996 -10.195  1.00  0.00     0.010 C 
HETATM    7  C20 UNL     1       5.832  55.343  -9.188  1.00  0.00     0.035 C 
HETATM    8  C21 UNL     1       5.335  55.880  -7.864  1.00  0.00    -0.068 C 
HETATM    9  C22 UNL     1       6.232  56.034  -6.872  1.00  0.00     0.053 C 
HETATM   10  C23 UNL     1       5.882  56.675  -5.582  1.00  0.00     0.149 C 
HETATM   11  O9  UNL     1       6.744  56.796  -4.714  1.00  0.00    -0.293 OA
HETATM   12  C24 UNL     1       4.489  57.225  -5.410  1.00  0.00     0.084 C 
HETATM   13  C25 UNL     1       3.494  56.399  -6.218  1.00  0.00     0.022 C 
HETATM   14  C26 UNL     1       3.862  56.272  -7.726  1.00  0.00    -0.016 C 
HETATM   15  C27 UNL     1       3.714  57.683  -8.369  1.00  0.00     0.020 C 
HETATM   16  C28 UNL     1       2.883  55.283  -8.492  1.00  0.00     0.002 C 
HETATM   17  C29 UNL     1       1.917  54.434  -7.631  1.00  0.00     0.007 C 
HETATM   18  C30 UNL     1       1.263  53.259  -8.387  1.00  0.00     0.013 C 
HETATM   19  C31 UNL     1       1.113  53.466  -9.914  1.00  0.00    -0.001 C 
HETATM   20  C32 UNL     1       0.078  54.597 -10.130  1.00  0.00     0.019 C 
ENDROOT
BRANCH   1  21
HETATM   21  O2  UNL     1      -0.409  51.458 -10.039  1.00  0.00    -0.301 OA
BRANCH  21  22
HETATM   22  C2  UNL     1      -1.566  52.000  -9.592  1.00  0.00     0.256 C 
HETATM   23  C1  UNL     1      -1.606  51.929  -8.096  1.00  0.00     0.126 C 
HETATM   24  O1  UNL     1      -2.457  52.486 -10.268  1.00  0.00    -0.266 OA
ENDBRANCH  21  22
ENDBRANCH   1  21
BRANCH   1  25
HETATM   25  C4  UNL     1       0.103  52.519 -12.110  1.00  0.00     0.186 C 
HETATM   26  O3  UNL     1      -1.009  53.034 -12.270  1.00  0.00    -0.292 OA
BRANCH  25  27
HETATM   27  C5  UNL     1       0.927  52.146 -13.337  1.00  0.00     0.260 C 
BRANCH  27  28
HETATM   28  O4  UNL     1       0.159  52.303 -14.528  1.00  0.00    -0.314 OA
BRANCH  28  29
HETATM   29  C6  UNL     1      -0.140  51.121 -15.136  1.00  0.00     0.259 C 
HETATM   30  O5  UNL     1      -1.038  50.363 -14.789  1.00  0.00    -0.265 OA
BRANCH  29  31
HETATM   31  C7  UNL     1       0.844  50.846 -16.245  1.00  0.00     0.120 C 
BRANCH  31  32
HETATM   32  C8  UNL     1       0.892  52.006 -17.232  1.00  0.00     0.112 C 
BRANCH  32  33
HETATM   33  C9  UNL     1       0.192  51.663 -18.532  1.00  0.00     0.217 C 
HETATM   34  O6  UNL     1      -0.432  50.624 -18.707  1.00  0.00    -0.274 OA
HETATM   35  N1  UNL     1       0.291  52.668 -19.473  1.00  0.00    -0.361 N 
HETATM   36  H10 UNL     1       1.063  53.317 -19.375  1.00  0.00     0.162 HD
BRANCH  35  37
HETATM   37  C10 UNL     1      -0.289  52.500 -20.792  1.00  0.00     0.122 C 
BRANCH  37  38
HETATM   38  C11 UNL     1       0.797  52.437 -21.862  1.00  0.00     0.020 C 
BRANCH  38  39
HETATM   39  C12 UNL     1       0.206  52.392 -23.272  1.00  0.00     0.012 C 
BRANCH  39  40
HETATM   40  C13 UNL     1       0.877  53.414 -24.188  1.00  0.00     0.110 C 
BRANCH  40  41
HETATM   41  C14 UNL     1      -0.036  54.020 -25.223  1.00  0.00     0.139 C 
HETATM   42  O7  UNL     1       0.195  55.047 -25.841  1.00  0.00    -0.650 OA
BRANCH  41  43
HETATM   43  O8  UNL     1      -1.154  53.317 -25.473  1.00  0.00    -0.776 OA
HETATM   44  H19 UNL     1      -1.611  53.836 -26.167  1.00  0.00     0.167 HD
ENDBRANCH  41  43
ENDBRANCH  40  41
ENDBRANCH  39  40
ENDBRANCH  38  39
ENDBRANCH  37  38
ENDBRANCH  35  37
ENDBRANCH  32  33
ENDBRANCH  31  32
ENDBRANCH  29  31
ENDBRANCH  28  29
ENDBRANCH  27  28
ENDBRANCH  25  27
ENDBRANCH   1  25
TORSDOF 15
ENDMDL
MODEL 2
REMARK minimizedAffinity -7.85094929
REMARK CNNscore 0.428239226
REMARK CNNaffinity 6.90099287
REMARK  15 active torsions:
REMARK  status: ('A' for Active; 'I' for Inactive)
REMARK    1  A    between atoms: C2_2  and  O2_4 
REMARK    2  A    between atoms: O2_4  and  C3_5 
REMARK    3  A    between atoms: C3_5  and  C4_6 
REMARK    4  A    between atoms: C4_6  and  C5_8 
REMARK    5  A    between atoms: C5_8  and  O4_9 
REMARK    6  A    between atoms: O4_9  and  C6_10 
REMARK    7  A    between atoms: C6_10  and  C7_12 
REMARK    8  A    between atoms: C7_12  and  C8_13 
REMARK    9  A    between atoms: C8_13  and  C9_14 
REMARK       I    between atoms: C9_14  and  N1_16 
REMARK   10  A    between atoms: N1_16  and  C10_17 
REMARK   11  A    between atoms: C10_17  and  C11_18 
REMARK   12  A    between atoms: C11_18  and  C12_19 
REMARK   13  A    between atoms: C12_19  and  C13_20 
REMARK   14  A    between atoms: C13_20  and  C14_21 
REMARK   15  A    between atoms: C14_21  and  O8_23 
ROOT
HETATM    1  C3  UNL     1      -1.980  49.967 -19.831  1.00  0.00     0.140 C 
HETATM    2  C15 UNL     1      -0.732  50.342 -20.638  1.00  0.00     0.048 C 
HETATM    3  C16 UNL     1      -0.067  51.464 -19.841  1.00  0.00     0.009 C 
HETATM    4  C17 UNL     1      -0.531  51.321 -18.370  1.00  0.00     0.002 C 
HETATM    5  C18 UNL     1       0.693  51.187 -17.424  1.00  0.00    -0.004 C 
HETATM    6  C19 UNL     1       1.378  52.533 -17.197  1.00  0.00     0.010 C 
HETATM    7  C20 UNL     1       2.682  52.345 -16.429  1.00  0.00     0.035 C 
HETATM    8  C21 UNL     1       2.628  51.327 -15.312  1.00  0.00    -0.068 C 
HETATM    9  C22 UNL     1       3.786  50.985 -14.717  1.00  0.00     0.053 C 
HETATM   10  C23 UNL     1       3.833  50.101 -13.528  1.00  0.00     0.149 C 
HETATM   11  O9  UNL     1       4.920  49.828 -13.022  1.00  0.00    -0.293 OA
HETATM   12  C24 UNL     1       2.531  49.626 -12.937  1.00  0.00     0.084 C 
HETATM   13  C25 UNL     1       1.479  49.482 -14.030  1.00  0.00     0.022 C 
HETATM   14  C26 UNL     1       1.270  50.775 -14.874  1.00  0.00    -0.016 C 
HETATM   15  C27 UNL     1       0.631  51.848 -13.944  1.00  0.00     0.020 C 
HETATM   16  C28 UNL     1       0.277  50.533 -16.090  1.00  0.00     0.002 C 
HETATM   17  C29 UNL     1      -0.119  49.069 -16.402  1.00  0.00     0.007 C 
HETATM   18  C30 UNL     1      -0.778  48.872 -17.783  1.00  0.00     0.013 C 
HETATM   19  C31 UNL     1      -1.526  50.112 -18.333  1.00  0.00    -0.001 C 
HETATM   20  C32 UNL     1      -2.757  50.351 -17.425  1.00  0.00     0.019 C 
ENDROOT
BRANCH   1  21
HETATM   21  O2  UNL     1      -2.581  48.682 -20.123  1.00  0.00    -0.301 OA
BRANCH  21  22
HETATM   22  C2  UNL     1      -1.978  47.647 -20.754  1.00  0.00     0.256 C 
HETATM   23  C1  UNL     1      -3.003  46.616 -21.114  1.00  0.00     0.126 C 
HETATM   24  O1  UNL     1      -0.792  47.538 -21.014  1.00  0.00    -0.266 OA
ENDBRANCH  21  22
ENDBRANCH   1  21
BRANCH   1  25
HETATM   25  C4  UNL     1      -3.091  51.009 -20.200  1.00  0.00     0.186 C 
HETATM   26  O3  UNL     1      -3.343  51.985 -19.485  1.00  0.00    -0.292 OA
BRANCH  25  27
HETATM   27  C5  UNL     1      -3.932  50.771 -21.448  1.00  0.00     0.260 C 
BRANCH  27  28
HETATM   28  O4  UNL     1      -3.166  51.013 -22.627  1.00  0.00    -0.314 OA
BRANCH  28  29
HETATM   29  C6  UNL     1      -3.460  50.157 -23.646  1.00  0.00     0.259 C 
HETATM   30  O5  UNL     1      -3.148  48.973 -23.676  1.00  0.00    -0.265 OA
BRANCH  29  31
HETATM   31  C7  UNL     1      -4.152  50.900 -24.760  1.00  0.00     0.120 C 
BRANCH  31  32
HETATM   32  C8  UNL     1      -3.173  51.250 -25.875  1.00  0.00     0.112 C 
BRANCH  32  33
HETATM   33  C9  UNL     1      -3.355  50.351 -27.082  1.00  0.00     0.217 C 
HETATM   34  O6  UNL     1      -2.767  50.521 -28.142  1.00  0.00    -0.274 OA
HETATM   35  N1  UNL     1      -4.211  49.295 -26.837  1.00  0.00    -0.361 N 
HETATM   36  H10 UNL     1      -4.877  49.408 -26.083  1.00  0.00     0.162 HD
BRANCH  35  37
HETATM   37  C10 UNL     1      -4.532  48.351 -27.891  1.00  0.00     0.122 C 
BRANCH  37  38
HETATM   38  C11 UNL     1      -5.933  47.778 -27.701  1.00  0.00     0.020 C 
BRANCH  38  39
HETATM   39  C12 UNL     1      -6.295  46.780 -28.802  1.00  0.00     0.012 C 
BRANCH  39  40
HETATM   40  C13 UNL     1      -7.718  47.008 -29.312  1.00  0.00     0.110 C 
BRANCH  40  41
HETATM   41  C14 UNL     1      -7.927  48.325 -30.012  1.00  0.00     0.139 C 
HETATM   42  O7  UNL     1      -8.639  49.228 -29.602  1.00  0.00    -0.650 OA
BRANCH  41  43
HETATM   43  O8  UNL     1      -7.227  48.480 -31.149  1.00  0.00    -0.776 OA
HETATM   44  H19 UNL     1      -7.466  49.380 -31.455  1.00  0.00     0.167 HD
ENDBRANCH  41  43
ENDBRANCH  40  41
ENDBRANCH  39  40
ENDBRANCH  38  39
ENDBRANCH  37  38
ENDBRANCH  35  37
ENDBRANCH  32  33
ENDBRANCH  31  32
ENDBRANCH  29  31
ENDBRANCH  28  29
ENDBRANCH  27  28
ENDBRANCH  25  27
ENDBRANCH   1  25
TORSDOF 15
ENDMDL
MODEL 3
REMARK minimizedAffinity -7.26429081
REMARK CNNscore 0.40339458
REMARK CNNaffinity 7.0068984
REMARK  15 active torsions:
REMARK  status: ('A' for Active; 'I' for Inactive)
REMARK    1  A    between atoms: C2_2  and  O2_4 
REMARK    2  A    between atoms: O2_4  and  C3_5 
REMARK    3  A    between atoms: C3_5  and  C4_6 
REMARK    4  A    between atoms: C4_6  and  C5_8 
REMARK    5  A    between atoms: C5_8  and  O4_9 
REMARK    6  A    between atoms: O4_9  and  C6_10 
REMARK    7  A    between atoms: C6_10  and  C7_12 
REMARK    8  A    between atoms: C7_12  and  C8_13 
REMARK    9  A    between atoms: C8_13  and  C9_14 
REMARK       I    between atoms: C9_14  and  N1_16 
REMARK   10  A    between atoms: N1_16  and  C10_17 
REMARK   11  A    between atoms: C10_17  and  C11_18 
REMARK   12  A    between atoms: C11_18  and  C12_19 
REMARK   13  A    between atoms: C12_19  and  C13_20 
REMARK   14  A    between atoms: C13_20  and  C14_21 
REMARK   15  A    between atoms: C14_21  and  O8_23 
ROOT
HETATM    1  C3  UNL     1      -2.636  48.990 -19.710  1.00  0.00     0.140 C 
HETATM    2  C15 UNL     1      -2.165  47.686 -20.363  1.00  0.00     0.048 C 
HETATM    3  C16 UNL     1      -2.776  47.699 -21.764  1.00  0.00     0.009 C 
HETATM    4  C17 UNL     1      -3.052  49.179 -22.131  1.00  0.00     0.002 C 
HETATM    5  C18 UNL     1      -2.330  49.554 -23.454  1.00  0.00    -0.004 C 
HETATM    6  C19 UNL     1      -3.064  48.995 -24.671  1.00  0.00     0.010 C 
HETATM    7  C20 UNL     1      -2.238  49.207 -25.936  1.00  0.00     0.035 C 
HETATM    8  C21 UNL     1      -1.533  50.542 -26.025  1.00  0.00    -0.068 C 
HETATM    9  C22 UNL     1      -0.648  50.720 -27.024  1.00  0.00     0.053 C 
HETATM   10  C23 UNL     1      -0.001  52.028 -27.284  1.00  0.00     0.149 C 
HETATM   11  O9  UNL     1       0.794  52.134 -28.217  1.00  0.00    -0.293 OA
HETATM   12  C24 UNL     1      -0.403  53.207 -26.436  1.00  0.00     0.084 C 
HETATM   13  C25 UNL     1      -0.786  52.741 -25.036  1.00  0.00     0.022 C 
HETATM   14  C26 UNL     1      -1.889  51.640 -25.021  1.00  0.00    -0.016 C 
HETATM   15  C27 UNL     1      -3.212  52.291 -25.523  1.00  0.00     0.020 C 
HETATM   16  C28 UNL     1      -2.147  51.082 -23.557  1.00  0.00     0.002 C 
HETATM   17  C29 UNL     1      -1.146  51.498 -22.452  1.00  0.00     0.007 C 
HETATM   18  C30 UNL     1      -1.237  50.654 -21.164  1.00  0.00     0.013 C 
HETATM   19  C31 UNL     1      -2.628  50.033 -20.888  1.00  0.00    -0.001 C 
HETATM   20  C32 UNL     1      -3.602  51.194 -20.575  1.00  0.00     0.019 C 
ENDROOT
BRANCH   1  21
HETATM   21  O2  UNL     1      -1.899  49.439 -18.547  1.00  0.00    -0.301 OA
BRANCH  21  22
HETATM   22  C2  UNL     1      -1.783  50.719 -18.124  1.00  0.00     0.256 C 
HETATM   23  C1  UNL     1      -0.337  51.108 -18.098  1.00  0.00     0.126 C 
HETATM   24  O1  UNL     1      -2.690  51.472 -17.810  1.00  0.00    -0.266 OA
ENDBRANCH  21  22
ENDBRANCH   1  21
BRANCH   1  25
HETATM   25  C4  UNL     1      -4.087  48.734 -19.176  1.00  0.00     0.186 C 
HETATM   26  O3  UNL     1      -4.377  48.839 -17.979  1.00  0.00    -0.292 OA
BRANCH  25  27
HETATM   27  C5  UNL     1      -5.158  48.277 -20.158  1.00  0.00     0.260 C 
BRANCH  27  28
HETATM   28  O4  UNL     1      -6.390  48.030 -19.484  1.00  0.00    -0.314 OA
BRANCH  28  29
HETATM   29  C6  UNL     1      -7.390  48.875 -19.861  1.00  0.00     0.259 C 
HETATM   30  O5  UNL     1      -7.314  49.681 -20.780  1.00  0.00    -0.265 OA
BRANCH  29  31
HETATM   31  C7  UNL     1      -8.569  48.727 -18.933  1.00  0.00     0.120 C 
BRANCH  31  32
HETATM   32  C8  UNL     1      -8.931  47.259 -18.739  1.00  0.00     0.112 C 
BRANCH  32  33
HETATM   33  C9  UNL     1     -10.427  47.036 -18.829  1.00  0.00     0.217 C 
HETATM   34  O6  UNL     1     -11.255  47.845 -18.427  1.00  0.00    -0.274 OA
HETATM   35  N1  UNL     1     -10.753  45.851 -19.458  1.00  0.00    -0.361 N 
HETATM   36  H10 UNL     1     -10.049  45.123 -19.462  1.00  0.00     0.162 HD
BRANCH  35  37
HETATM   37  C10 UNL     1     -12.141  45.453 -19.602  1.00  0.00     0.122 C 
BRANCH  37  38
HETATM   38  C11 UNL     1     -12.449  44.228 -18.745  1.00  0.00     0.020 C 
BRANCH  38  39
HETATM   39  C12 UNL     1     -13.477  44.539 -17.656  1.00  0.00     0.012 C 
BRANCH  39  40
HETATM   40  C13 UNL     1     -14.245  45.823 -17.968  1.00  0.00     0.110 C 
BRANCH  40  41
HETATM   41  C14 UNL     1     -14.222  46.848 -16.864  1.00  0.00     0.139 C 
HETATM   42  O7  UNL     1     -14.315  46.594 -15.674  1.00  0.00    -0.650 OA
BRANCH  41  43
HETATM   43  O8  UNL     1     -14.046  48.116 -17.273  1.00  0.00    -0.776 OA
HETATM   44  H19 UNL     1     -14.040  48.635 -16.442  1.00  0.00     0.167 HD
ENDBRANCH  41  43
ENDBRANCH  40  41
ENDBRANCH  39  40
ENDBRANCH  38  39
ENDBRANCH  37  38
ENDBRANCH  35  37
ENDBRANCH  32  33
ENDBRANCH  31  32
ENDBRANCH  29  31
ENDBRANCH  28  29
ENDBRANCH  27  28
ENDBRANCH  25  27
ENDBRANCH   1  25
TORSDOF 15
ENDMDL
MODEL 4
REMARK minimizedAffinity -7.03947783
REMARK CNNscore 0.382930815
REMARK CNNaffinity 6.7415309
REMARK  15 active torsions:
REMARK  status: ('A' for Active; 'I' for Inactive)
REMARK    1  A    between atoms: C2_2  and  O2_4 
REMARK    2  A    between atoms: O2_4  and  C3_5 
REMARK    3  A    between atoms: C3_5  and  C4_6 
REMARK    4  A    between atoms: C4_6  and  C5_8 
REMARK    5  A    between atoms: C5_8  and  O4_9 
REMARK    6  A    between atoms: O4_9  and  C6_10 
REMARK    7  A    between atoms: C6_10  and  C7_12 
REMARK    8  A    between atoms: C7_12  and  C8_13 
REMARK    9  A    between atoms: C8_13  and  C9_14 
REMARK       I    between atoms: C9_14  and  N1_16 
REMARK   10  A    between atoms: N1_16  and  C10_17 
REMARK   11  A    between atoms: C10_17  and  C11_18 
REMARK   12  A    between atoms: C11_18  and  C12_19 
REMARK   13  A    between atoms: C12_19  and  C13_20 
REMARK   14  A    between atoms: C13_20  and  C14_21 
REMARK   15  A    between atoms: C14_21  and  O8_23 
ROOT
HETATM    1  C3  UNL     1      -2.822  48.839 -19.732  1.00  0.00     0.140 C 
HETATM    2  C15 UNL     1      -2.382  47.543 -20.423  1.00  0.00     0.048 C 
HETATM    3  C16 UNL     1      -2.943  47.640 -21.841  1.00  0.00     0.009 C 
HETATM    4  C17 UNL     1      -3.146  49.143 -22.155  1.00  0.00     0.002 C 
HETATM    5  C18 UNL     1      -2.364  49.541 -23.437  1.00  0.00    -0.004 C 
HETATM    6  C19 UNL     1      -3.077  49.064 -24.700  1.00  0.00     0.010 C 
HETATM    7  C20 UNL     1      -2.200  49.293 -25.926  1.00  0.00     0.035 C 
HETATM    8  C21 UNL     1      -1.439  50.600 -25.935  1.00  0.00    -0.068 C 
HETATM    9  C22 UNL     1      -0.513  50.781 -26.896  1.00  0.00     0.053 C 
HETATM   10  C23 UNL     1       0.194  52.071 -27.080  1.00  0.00     0.149 C 
HETATM   11  O9  UNL     1       1.025  52.181 -27.980  1.00  0.00    -0.293 OA
HETATM   12  C24 UNL     1      -0.189  53.230 -26.196  1.00  0.00     0.084 C 
HETATM   13  C25 UNL     1      -0.639  52.723 -24.831  1.00  0.00     0.022 C 
HETATM   14  C26 UNL     1      -1.785  51.670 -24.898  1.00  0.00    -0.016 C 
HETATM   15  C27 UNL     1      -3.063  52.396 -25.416  1.00  0.00     0.020 C 
HETATM   16  C28 UNL     1      -2.117  51.063 -23.468  1.00  0.00     0.002 C 
HETATM   17  C29 UNL     1      -1.138  51.392 -22.314  1.00  0.00     0.007 C 
HETATM   18  C30 UNL     1      -1.308  50.501 -21.067  1.00  0.00     0.013 C 
HETATM   19  C31 UNL     1      -2.732  49.927 -20.863  1.00  0.00    -0.001 C 
HETATM   20  C32 UNL     1      -3.668  51.114 -20.534  1.00  0.00     0.019 C 
ENDROOT
BRANCH   1  21
HETATM   21  O2  UNL     1      -2.109  49.208 -18.527  1.00  0.00    -0.301 OA
BRANCH  21  22
HETATM   22  C2  UNL     1      -2.580  49.998 -17.535  1.00  0.00     0.256 C 
HETATM   23  C1  UNL     1      -2.689  49.202 -16.271  1.00  0.00     0.126 C 
HETATM   24  O1  UNL     1      -2.874  51.179 -17.615  1.00  0.00    -0.266 OA
ENDBRANCH  21  22
ENDBRANCH   1  21
BRANCH   1  25
HETATM   25  C4  UNL     1      -4.300  48.621 -19.257  1.00  0.00     0.186 C 
HETATM   26  O3  UNL     1      -5.161  49.502 -19.358  1.00  0.00    -0.292 OA
BRANCH  25  27
HETATM   27  C5  UNL     1      -4.668  47.302 -18.590  1.00  0.00     0.260 C 
BRANCH  27  28
HETATM   28  O4  UNL     1      -5.753  47.481 -17.682  1.00  0.00    -0.314 OA
BRANCH  28  29
HETATM   29  C6  UNL     1      -6.871  46.785 -18.035  1.00  0.00     0.259 C 
HETATM   30  O5  UNL     1      -7.076  46.308 -19.144  1.00  0.00    -0.265 OA
BRANCH  29  31
HETATM   31  C7  UNL     1      -7.847  46.759 -16.886  1.00  0.00     0.120 C 
BRANCH  31  32
HETATM   32  C8  UNL     1      -7.165  46.309 -15.599  1.00  0.00     0.112 C 
BRANCH  32  33
HETATM   33  C9  UNL     1      -8.174  45.913 -14.540  1.00  0.00     0.217 C 
HETATM   34  O6  UNL     1      -8.562  44.763 -14.377  1.00  0.00    -0.274 OA
HETATM   35  N1  UNL     1      -8.566  46.976 -13.751  1.00  0.00    -0.361 N 
HETATM   36  H10 UNL     1      -8.459  47.904 -14.142  1.00  0.00     0.162 HD
BRANCH  35  37
HETATM   37  C10 UNL     1      -9.556  46.791 -12.707  1.00  0.00     0.122 C 
BRANCH  37  38
HETATM   38  C11 UNL     1      -9.574  47.982 -11.755  1.00  0.00     0.020 C 
BRANCH  38  39
HETATM   39  C12 UNL     1      -8.166  48.367 -11.297  1.00  0.00     0.012 C 
BRANCH  39  40
HETATM   40  C13 UNL     1      -8.201  49.546 -10.326  1.00  0.00     0.110 C 
BRANCH  40  41
HETATM   41  C14 UNL     1      -8.710  49.207  -8.949  1.00  0.00     0.139 C 
HETATM   42  O7  UNL     1      -9.749  48.612  -8.716  1.00  0.00    -0.650 OA
BRANCH  41  43
HETATM   43  O8  UNL     1      -7.902  49.578  -7.940  1.00  0.00    -0.776 OA
HETATM   44  H19 UNL     1      -8.371  49.271  -7.136  1.00  0.00     0.167 HD
ENDBRANCH  41  43
ENDBRANCH  40  41
ENDBRANCH  39  40
ENDBRANCH  38  39
ENDBRANCH  37  38
ENDBRANCH  35  37
ENDBRANCH  32  33
ENDBRANCH  31  32
ENDBRANCH  29  31
ENDBRANCH  28  29
ENDBRANCH  27  28
ENDBRANCH  25  27
ENDBRANCH   1  25
TORSDOF 15
ENDMDL
MODEL 5
REMARK minimizedAffinity -7.44107771
REMARK CNNscore 0.381528318
REMARK CNNaffinity 7.23622465
REMARK  15 active torsions:
REMARK  status: ('A' for Active; 'I' for Inactive)
REMARK    1  A    between atoms: C2_2  and  O2_4 
REMARK    2  A    between atoms: O2_4  and  C3_5 
REMARK    3  A    between atoms: C3_5  and  C4_6 
REMARK    4  A    between atoms: C4_6  and  C5_8 
REMARK    5  A    between atoms: C5_8  and  O4_9 
REMARK    6  A    between atoms: O4_9  and  C6_10 
REMARK    7  A    between atoms: C6_10  and  C7_12 
REMARK    8  A    between atoms: C7_12  and  C8_13 
REMARK    9  A    between atoms: C8_13  and  C9_14 
REMARK       I    between atoms: C9_14  and  N1_16 
REMARK   10  A    between atoms: N1_16  and  C10_17 
REMARK   11  A    between atoms: C10_17  and  C11_18 
REMARK   12  A    between atoms: C11_18  and  C12_19 
REMARK   13  A    between atoms: C12_19  and  C13_20 
REMARK   14  A    between atoms: C13_20  and  C14_21 
REMARK   15  A    between atoms: C14_21  and  O8_23 
ROOT
HETATM    1  C3  UNL     1      -3.792  49.341 -22.935  1.00  0.00     0.140 C 
HETATM    2  C15 UNL     1      -3.273  47.920 -22.685  1.00  0.00     0.048 C 
HETATM    3  C16 UNL     1      -3.542  47.655 -21.204  1.00  0.00     0.009 C 
HETATM    4  C17 UNL     1      -4.700  48.589 -20.772  1.00  0.00     0.002 C 
HETATM    5  C18 UNL     1      -5.872  47.763 -20.176  1.00  0.00    -0.004 C 
HETATM    6  C19 UNL     1      -5.565  47.297 -18.755  1.00  0.00     0.010 C 
HETATM    7  C20 UNL     1      -6.638  46.330 -18.266  1.00  0.00     0.035 C 
HETATM    8  C21 UNL     1      -8.054  46.696 -18.653  1.00  0.00    -0.068 C 
HETATM    9  C22 UNL     1      -9.025  45.795 -18.409  1.00  0.00     0.053 C 
HETATM   10  C23 UNL     1     -10.459  46.101 -18.624  1.00  0.00     0.149 C 
HETATM   11  O9  UNL     1     -11.303  45.241 -18.377  1.00  0.00    -0.293 OA
HETATM   12  C24 UNL     1     -10.837  47.490 -19.069  1.00  0.00     0.084 C 
HETATM   13  C25 UNL     1      -9.729  48.085 -19.931  1.00  0.00     0.022 C 
HETATM   14  C26 UNL     1      -8.329  48.079 -19.247  1.00  0.00    -0.016 C 
HETATM   15  C27 UNL     1      -8.385  49.076 -18.051  1.00  0.00     0.020 C 
HETATM   16  C28 UNL     1      -7.186  48.568 -20.235  1.00  0.00     0.002 C 
HETATM   17  C29 UNL     1      -7.559  48.726 -21.729  1.00  0.00     0.007 C 
HETATM   18  C30 UNL     1      -6.347  48.849 -22.675  1.00  0.00     0.013 C 
HETATM   19  C31 UNL     1      -5.073  49.446 -22.029  1.00  0.00    -0.001 C 
HETATM   20  C32 UNL     1      -5.370  50.929 -21.700  1.00  0.00     0.019 C 
ENDROOT
BRANCH   1  21
HETATM   21  O2  UNL     1      -4.037  49.710 -24.314  1.00  0.00    -0.301 OA
BRANCH  21  22
HETATM   22  C2  UNL     1      -4.008  48.874 -25.378  1.00  0.00     0.256 C 
HETATM   23  C1  UNL     1      -2.669  48.962 -26.045  1.00  0.00     0.126 C 
HETATM   24  O1  UNL     1      -4.905  48.143 -25.761  1.00  0.00    -0.266 OA
ENDBRANCH  21  22
ENDBRANCH   1  21
BRANCH   1  25
HETATM   25  C4  UNL     1      -2.668  50.326 -22.462  1.00  0.00     0.186 C 
HETATM   26  O3  UNL     1      -2.662  51.520 -22.780  1.00  0.00    -0.292 OA
BRANCH  25  27
HETATM   27  C5  UNL     1      -1.511  49.775 -21.638  1.00  0.00     0.260 C 
BRANCH  27  28
HETATM   28  O4  UNL     1      -1.625  50.178 -20.275  1.00  0.00    -0.314 OA
BRANCH  28  29
HETATM   29  C6  UNL     1      -0.457  50.642 -19.751  1.00  0.00     0.259 C 
HETATM   30  O5  UNL     1      -0.131  50.542 -18.574  1.00  0.00    -0.265 OA
BRANCH  29  31
HETATM   31  C7  UNL     1       0.335  51.364 -20.811  1.00  0.00     0.120 C 
BRANCH  31  32
HETATM   32  C8  UNL     1       0.666  52.786 -20.372  1.00  0.00     0.112 C 
BRANCH  32  33
HETATM   33  C9  UNL     1       1.089  53.649 -21.544  1.00  0.00     0.217 C 
HETATM   34  O6  UNL     1       1.819  54.627 -21.432  1.00  0.00    -0.274 OA
HETATM   35  N1  UNL     1       0.608  53.184 -22.751  1.00  0.00    -0.361 N 
HETATM   36  H10 UNL     1      -0.216  52.595 -22.722  1.00  0.00     0.162 HD
BRANCH  35  37
HETATM   37  C10 UNL     1       0.883  53.906 -23.979  1.00  0.00     0.122 C 
BRANCH  37  38
HETATM   38  C11 UNL     1       0.316  53.163 -25.186  1.00  0.00     0.020 C 
BRANCH  38  39
HETATM   39  C12 UNL     1       0.955  51.784 -25.357  1.00  0.00     0.012 C 
BRANCH  39  40
HETATM   40  C13 UNL     1       0.415  51.072 -26.597  1.00  0.00     0.110 C 
BRANCH  40  41
HETATM   41  C14 UNL     1       0.723  51.765 -27.900  1.00  0.00     0.139 C 
HETATM   42  O7  UNL     1       1.819  51.784 -28.437  1.00  0.00    -0.650 OA
BRANCH  41  43
HETATM   43  O8  UNL     1      -0.330  52.356 -28.489  1.00  0.00    -0.776 OA
HETATM   44  H19 UNL     1       0.041  52.734 -29.314  1.00  0.00     0.167 HD
ENDBRANCH  41  43
ENDBRANCH  40  41
ENDBRANCH  39  40
ENDBRANCH  38  39
ENDBRANCH  37  38
ENDBRANCH  35  37
ENDBRANCH  32  33
ENDBRANCH  31  32
ENDBRANCH  29  31
ENDBRANCH  28  29
ENDBRANCH  27  28
ENDBRANCH  25  27
ENDBRANCH   1  25
TORSDOF 15
ENDMDL
MODEL 6
REMARK minimizedAffinity -7.78914261
REMARK CNNscore 0.33654359
REMARK CNNaffinity 6.78468847
REMARK  15 active torsions:
REMARK  status: ('A' for Active; 'I' for Inactive)
REMARK    1  A    between atoms: C2_2  and  O2_4 
REMARK    2  A    between atoms: O2_4  and  C3_5 
REMARK    3  A    between atoms: C3_5  and  C4_6 
REMARK    4  A    between atoms: C4_6  and  C5_8 
REMARK    5  A    between atoms: C5_8  and  O4_9 
REMARK    6  A    between atoms: O4_9  and  C6_10 
REMARK    7  A    between atoms: C6_10  and  C7_12 
REMARK    8  A    between atoms: C7_12  and  C8_13 
REMARK    9  A    between atoms: C8_13  and  C9_14 
REMARK       I    between atoms: C9_14  and  N1_16 
REMARK   10  A    between atoms: N1_16  and  C10_17 
REMARK   11  A    between atoms: C10_17  and  C11_18 
REMARK   12  A    between atoms: C11_18  and  C12_19 
REMARK   13  A    between atoms: C12_19  and  C13_20 
REMARK   14  A    between atoms: C13_20  and  C14_21 
REMARK   15  A    between atoms: C14_21  and  O8_23 
ROOT
HETATM    1  C3  UNL     1      -1.385  49.481 -19.371  1.00  0.00     0.140 C 
HETATM    2  C15 UNL     1      -1.172  48.113 -20.027  1.00  0.00     0.048 C 
HETATM    3  C16 UNL     1      -2.068  48.123 -21.265  1.00  0.00     0.009 C 
HETATM    4  C17 UNL     1      -2.297  49.605 -21.656  1.00  0.00     0.002 C 
HETATM    5  C18 UNL     1      -1.849  49.855 -23.122  1.00  0.00    -0.004 C 
HETATM    6  C19 UNL     1      -2.871  49.315 -24.120  1.00  0.00     0.010 C 
HETATM    7  C20 UNL     1      -2.323  49.397 -25.541  1.00  0.00     0.035 C 
HETATM    8  C21 UNL     1      -1.549  50.657 -25.858  1.00  0.00    -0.068 C 
HETATM    9  C22 UNL     1      -0.888  50.711 -27.031  1.00  0.00     0.053 C 
HETATM   10  C23 UNL     1      -0.211  51.942 -27.501  1.00  0.00     0.149 C 
HETATM   11  O9  UNL     1       0.371  51.935 -28.585  1.00  0.00    -0.293 OA
HETATM   12  C24 UNL     1      -0.324  53.187 -26.660  1.00  0.00     0.084 C 
HETATM   13  C25 UNL     1      -0.433  52.818 -25.185  1.00  0.00     0.022 C 
HETATM   14  C26 UNL     1      -1.591  51.824 -24.870  1.00  0.00    -0.016 C 
HETATM   15  C27 UNL     1      -2.935  52.572 -25.121  1.00  0.00     0.020 C 
HETATM   16  C28 UNL     1      -1.571  51.355 -23.353  1.00  0.00     0.002 C 
HETATM   17  C29 UNL     1      -0.325  51.724 -22.513  1.00  0.00     0.007 C 
HETATM   18  C30 UNL     1      -0.204  50.947 -21.185  1.00  0.00     0.013 C 
HETATM   19  C31 UNL     1      -1.548  50.468 -20.584  1.00  0.00    -0.001 C 
HETATM   20  C32 UNL     1      -2.336  51.726 -20.144  1.00  0.00     0.019 C 
ENDROOT
BRANCH   1  21
HETATM   21  O2  UNL     1      -0.381  49.910 -18.418  1.00  0.00    -0.301 OA
BRANCH  21  22
HETATM   22  C2  UNL     1      -0.154  51.183 -18.022  1.00  0.00     0.256 C 
HETATM   23  C1  UNL     1       0.759  51.181 -16.834  1.00  0.00     0.126 C 
HETATM   24  O1  UNL     1      -0.597  52.199 -18.529  1.00  0.00    -0.266 OA
ENDBRANCH  21  22
ENDBRANCH   1  21
BRANCH   1  25
HETATM   25  C4  UNL     1      -2.703  49.382 -18.528  1.00  0.00     0.186 C 
HETATM   26  O3  UNL     1      -3.591  48.563 -18.787  1.00  0.00    -0.292 OA
BRANCH  25  27
HETATM   27  C5  UNL     1      -2.922  50.373 -17.391  1.00  0.00     0.260 C 
BRANCH  27  28
HETATM   28  O4  UNL     1      -3.259  49.692 -16.185  1.00  0.00    -0.314 OA
BRANCH  28  29
HETATM   29  C6  UNL     1      -2.420  49.978 -15.151  1.00  0.00     0.259 C 
HETATM   30  O5  UNL     1      -1.421  49.329 -14.863  1.00  0.00    -0.265 OA
BRANCH  29  31
HETATM   31  C7  UNL     1      -2.943  51.156 -14.370  1.00  0.00     0.120 C 
BRANCH  31  32
HETATM   32  C8  UNL     1      -1.870  51.719 -13.445  1.00  0.00     0.112 C 
BRANCH  32  33
HETATM   33  C9  UNL     1      -2.475  52.375 -12.220  1.00  0.00     0.217 C 
HETATM   34  O6  UNL     1      -3.559  52.053 -11.750  1.00  0.00    -0.274 OA
HETATM   35  N1  UNL     1      -1.651  53.334 -11.666  1.00  0.00    -0.361 N 
HETATM   36  H10 UNL     1      -0.956  53.751 -12.273  1.00  0.00     0.162 HD
BRANCH  35  37
HETATM   37  C10 UNL     1      -2.082  54.092 -10.507  1.00  0.00     0.122 C 
BRANCH  37  38
HETATM   38  C11 UNL     1      -1.397  53.590  -9.240  1.00  0.00     0.020 C 
BRANCH  38  39
HETATM   39  C12 UNL     1      -0.107  54.359  -8.947  1.00  0.00     0.012 C 
BRANCH  39  40
HETATM   40  C13 UNL     1       0.683  54.626 -10.227  1.00  0.00     0.110 C 
BRANCH  40  41
HETATM   41  C14 UNL     1       1.905  55.487 -10.040  1.00  0.00     0.139 C 
HETATM   42  O7  UNL     1       2.317  55.888  -8.963  1.00  0.00    -0.650 OA
BRANCH  41  43
HETATM   43  O8  UNL     1       2.574  55.774 -11.169  1.00  0.00    -0.776 OA
HETATM   44  H19 UNL     1       3.332  56.316 -10.865  1.00  0.00     0.167 HD
ENDBRANCH  41  43
ENDBRANCH  40  41
ENDBRANCH  39  40
ENDBRANCH  38  39
ENDBRANCH  37  38
ENDBRANCH  35  37
ENDBRANCH  32  33
ENDBRANCH  31  32
ENDBRANCH  29  31
ENDBRANCH  28  29
ENDBRANCH  27  28
ENDBRANCH  25  27
ENDBRANCH   1  25
TORSDOF 15
ENDMDL
MODEL 7
REMARK minimizedAffinity -7.39324999
REMARK CNNscore 0.324542582
REMARK CNNaffinity 6.50366211
REMARK  15 active torsions:
REMARK  status: ('A' for Active; 'I' for Inactive)
REMARK    1  A    between atoms: C2_2  and  O2_4 
REMARK    2  A    between atoms: O2_4  and  C3_5 
REMARK    3  A    between atoms: C3_5  and  C4_6 
REMARK    4  A    between atoms: C4_6  and  C5_8 
REMARK    5  A    between atoms: C5_8  and  O4_9 
REMARK    6  A    between atoms: O4_9  and  C6_10 
REMARK    7  A    between atoms: C6_10  and  C7_12 
REMARK    8  A    between atoms: C7_12  and  C8_13 
REMARK    9  A    between atoms: C8_13  and  C9_14 
REMARK       I    between atoms: C9_14  and  N1_16 
REMARK   10  A    between atoms: N1_16  and  C10_17 
REMARK   11  A    between atoms: C10_17  and  C11_18 
REMARK   12  A    between atoms: C11_18  and  C12_19 
REMARK   13  A    between atoms: C12_19  and  C13_20 
REMARK   14  A    between atoms: C13_20  and  C14_21 
REMARK   15  A    between atoms: C14_21  and  O8_23 
ROOT
HETATM    1  C3  UNL     1      -7.886  47.356 -29.817  1.00  0.00     0.140 C 
HETATM    2  C15 UNL     1      -8.790  48.409 -30.467  1.00  0.00     0.048 C 
HETATM    3  C16 UNL     1      -8.690  48.144 -31.970  1.00  0.00     0.009 C 
HETATM    4  C17 UNL     1      -8.274  46.663 -32.149  1.00  0.00     0.002 C 
HETATM    5  C18 UNL     1      -9.310  45.910 -33.028  1.00  0.00    -0.004 C 
HETATM    6  C19 UNL     1      -9.147  46.254 -34.506  1.00  0.00     0.010 C 
HETATM    7  C20 UNL     1     -10.290  45.660 -35.322  1.00  0.00     0.035 C 
HETATM    8  C21 UNL     1     -10.714  44.267 -34.912  1.00  0.00    -0.068 C 
HETATM    9  C22 UNL     1     -11.830  43.760 -35.470  1.00  0.00     0.053 C 
HETATM   10  C23 UNL     1     -12.262  42.361 -35.243  1.00  0.00     0.149 C 
HETATM   11  O9  UNL     1     -13.286  41.950 -35.784  1.00  0.00    -0.293 OA
HETATM   12  C24 UNL     1     -11.381  41.466 -34.409  1.00  0.00     0.084 C 
HETATM   13  C25 UNL     1     -10.650  42.285 -33.352  1.00  0.00     0.022 C 
HETATM   14  C26 UNL     1      -9.838  43.481 -33.935  1.00  0.00    -0.016 C 
HETATM   15  C27 UNL     1      -8.660  42.892 -34.766  1.00  0.00     0.020 C 
HETATM   16  C28 UNL     1      -9.219  44.389 -32.788  1.00  0.00     0.002 C 
HETATM   17  C29 UNL     1      -9.694  44.125 -31.339  1.00  0.00     0.007 C 
HETATM   18  C30 UNL     1      -9.342  45.248 -30.343  1.00  0.00     0.013 C 
HETATM   19  C31 UNL     1      -8.085  46.076 -30.709  1.00  0.00    -0.001 C 
HETATM   20  C32 UNL     1      -6.859  45.141 -30.578  1.00  0.00     0.019 C 
ENDROOT
BRANCH   1  21
HETATM   21  O2  UNL     1      -8.091  47.105 -28.405  1.00  0.00    -0.301 OA
BRANCH  21  22
HETATM   22  C2  UNL     1      -9.162  47.497 -27.676  1.00  0.00     0.256 C 
HETATM   23  C1  UNL     1      -8.727  48.498 -26.650  1.00  0.00     0.126 C 
HETATM   24  O1  UNL     1     -10.315  47.123 -27.807  1.00  0.00    -0.266 OA
ENDBRANCH  21  22
ENDBRANCH   1  21
BRANCH   1  25
HETATM   25  C4  UNL     1      -6.418  47.897 -29.906  1.00  0.00     0.186 C 
HETATM   26  O3  UNL     1      -5.955  48.380 -30.946  1.00  0.00    -0.292 OA
BRANCH  25  27
HETATM   27  C5  UNL     1      -5.513  47.763 -28.687  1.00  0.00     0.260 C 
BRANCH  27  28
HETATM   28  O4  UNL     1      -4.627  48.876 -28.591  1.00  0.00    -0.314 OA
BRANCH  28  29
HETATM   29  C6  UNL     1      -3.911  48.897 -27.433  1.00  0.00     0.259 C 
HETATM   30  O5  UNL     1      -4.088  48.137 -26.488  1.00  0.00    -0.265 OA
BRANCH  29  31
HETATM   31  C7  UNL     1      -2.927  50.039 -27.453  1.00  0.00     0.120 C 
BRANCH  31  32
HETATM   32  C8  UNL     1      -1.894  49.891 -26.342  1.00  0.00     0.112 C 
BRANCH  32  33
HETATM   33  C9  UNL     1      -0.868  51.005 -26.380  1.00  0.00     0.217 C 
HETATM   34  O6  UNL     1       0.138  50.971 -27.079  1.00  0.00    -0.274 OA
HETATM   35  N1  UNL     1      -1.216  52.079 -25.585  1.00  0.00    -0.361 N 
HETATM   36  H10 UNL     1      -1.860  51.900 -24.825  1.00  0.00     0.162 HD
BRANCH  35  37
HETATM   37  C10 UNL     1      -0.332  53.225 -25.470  1.00  0.00     0.122 C 
BRANCH  37  38
HETATM   38  C11 UNL     1       0.739  52.982 -24.411  1.00  0.00     0.020 C 
BRANCH  38  39
HETATM   39  C12 UNL     1       0.127  52.649 -23.049  1.00  0.00     0.012 C 
BRANCH  39  40
HETATM   40  C13 UNL     1       1.170  52.740 -21.935  1.00  0.00     0.110 C 
BRANCH  40  41
HETATM   41  C14 UNL     1       1.279  54.097 -21.291  1.00  0.00     0.139 C 
HETATM   42  O7  UNL     1       0.723  54.424 -20.254  1.00  0.00    -0.650 OA
BRANCH  41  43
HETATM   43  O8  UNL     1       2.091  54.961 -21.924  1.00  0.00    -0.776 OA
HETATM   44  H19 UNL     1       2.056  55.769 -21.371  1.00  0.00     0.167 HD
ENDBRANCH  41  43
ENDBRANCH  40  41
ENDBRANCH  39  40
ENDBRANCH  38  39
ENDBRANCH  37  38
ENDBRANCH  35  37
ENDBRANCH  32  33
ENDBRANCH  31  32
ENDBRANCH  29  31
ENDBRANCH  28  29
ENDBRANCH  27  28
ENDBRANCH  25  27
ENDBRANCH   1  25
TORSDOF 15
ENDMDL
MODEL 8
REMARK minimizedAffinity -7.76758194
REMARK CNNscore 0.318241388
REMARK CNNaffinity 6.4541955
REMARK  15 active torsions:
REMARK  status: ('A' for Active; 'I' for Inactive)
REMARK    1  A    between atoms: C2_2  and  O2_4 
REMARK    2  A    between atoms: O2_4  and  C3_5 
REMARK    3  A    between atoms: C3_5  and  C4_6 
REMARK    4  A    between atoms: C4_6  and  C5_8 
REMARK    5  A    between atoms: C5_8  and  O4_9 
REMARK    6  A    between atoms: O4_9  and  C6_10 
REMARK    7  A    between atoms: C6_10  and  C7_12 
REMARK    8  A    between atoms: C7_12  and  C8_13 
REMARK    9  A    between atoms: C8_13  and  C9_14 
REMARK       I    between atoms: C9_14  and  N1_16 
REMARK   10  A    between atoms: N1_16  and  C10_17 
REMARK   11  A    between atoms: C10_17  and  C11_18 
REMARK   12  A    between atoms: C11_18  and  C12_19 
REMARK   13  A    between atoms: C12_19  and  C13_20 
REMARK   14  A    between atoms: C13_20  and  C14_21 
REMARK   15  A    between atoms: C14_21  and  O8_23 
ROOT
HETATM    1  C3  UNL     1      -1.768  50.091 -19.598  1.00  0.00     0.140 C 
HETATM    2  C15 UNL     1      -0.523  50.524 -20.381  1.00  0.00     0.048 C 
HETATM    3  C16 UNL     1       0.122  51.616 -19.527  1.00  0.00     0.009 C 
HETATM    4  C17 UNL     1      -0.346  51.395 -18.067  1.00  0.00     0.002 C 
HETATM    5  C18 UNL     1       0.877  51.233 -17.123  1.00  0.00    -0.004 C 
HETATM    6  C19 UNL     1       1.540  52.576 -16.828  1.00  0.00     0.010 C 
HETATM    7  C20 UNL     1       2.844  52.371 -16.065  1.00  0.00     0.035 C 
HETATM    8  C21 UNL     1       2.801  51.299 -14.999  1.00  0.00    -0.068 C 
HETATM    9  C22 UNL     1       3.963  50.946 -14.415  1.00  0.00     0.053 C 
HETATM   10  C23 UNL     1       4.019  50.006 -13.271  1.00  0.00     0.149 C 
HETATM   11  O9  UNL     1       5.108  49.726 -12.773  1.00  0.00    -0.293 OA
HETATM   12  C24 UNL     1       2.722  49.484 -12.709  1.00  0.00     0.084 C 
HETATM   13  C25 UNL     1       1.676  49.378 -13.812  1.00  0.00     0.022 C 
HETATM   14  C26 UNL     1       1.450  50.706 -14.594  1.00  0.00    -0.016 C 
HETATM   15  C27 UNL     1       0.791  51.724 -13.615  1.00  0.00     0.020 C 
HETATM   16  C28 UNL     1       0.466  50.509 -15.824  1.00  0.00     0.002 C 
HETATM   17  C29 UNL     1       0.094  49.056 -16.209  1.00  0.00     0.007 C 
HETATM   18  C30 UNL     1      -0.557  48.917 -17.601  1.00  0.00     0.013 C 
HETATM   19  C31 UNL     1      -1.322  50.170 -18.093  1.00  0.00    -0.001 C 
HETATM   20  C32 UNL     1      -2.560  50.346 -17.180  1.00  0.00     0.019 C 
ENDROOT
BRANCH   1  21
HETATM   21  O2  UNL     1      -2.349  48.813 -19.955  1.00  0.00    -0.301 OA
BRANCH  21  22
HETATM   22  C2  UNL     1      -1.814  47.907 -20.807  1.00  0.00     0.256 C 
HETATM   23  C1  UNL     1      -2.857  47.469 -21.789  1.00  0.00     0.126 C 
HETATM   24  O1  UNL     1      -0.667  47.493 -20.812  1.00  0.00    -0.266 OA
ENDBRANCH  21  22
ENDBRANCH   1  21
BRANCH   1  25
HETATM   25  C4  UNL     1      -2.894  51.133 -19.921  1.00  0.00     0.186 C 
HETATM   26  O3  UNL     1      -3.335  51.913 -19.070  1.00  0.00    -0.292 OA
BRANCH  25  27
HETATM   27  C5  UNL     1      -3.509  51.137 -21.315  1.00  0.00     0.260 C 
BRANCH  27  28
HETATM   28  O4  UNL     1      -4.696  50.347 -21.347  1.00  0.00    -0.314 OA
BRANCH  28  29
HETATM   29  C6  UNL     1      -5.515  50.646 -22.393  1.00  0.00     0.259 C 
HETATM   30  O5  UNL     1      -5.322  51.553 -23.195  1.00  0.00    -0.265 OA
BRANCH  29  31
HETATM   31  C7  UNL     1      -6.728  49.752 -22.372  1.00  0.00     0.120 C 
BRANCH  31  32
HETATM   32  C8  UNL     1      -7.375  49.675 -23.750  1.00  0.00     0.112 C 
BRANCH  32  33
HETATM   33  C9  UNL     1      -7.853  48.272 -24.067  1.00  0.00     0.217 C 
HETATM   34  O6  UNL     1      -8.502  47.589 -23.284  1.00  0.00    -0.274 OA
HETATM   35  N1  UNL     1      -7.523  47.871 -25.346  1.00  0.00    -0.361 N 
HETATM   36  H10 UNL     1      -6.741  48.338 -25.787  1.00  0.00     0.162 HD
BRANCH  35  37
HETATM   37  C10 UNL     1      -7.869  46.540 -25.811  1.00  0.00     0.122 C 
BRANCH  37  38
HETATM   38  C11 UNL     1      -7.700  46.431 -27.323  1.00  0.00     0.020 C 
BRANCH  38  39
HETATM   39  C12 UNL     1      -6.643  47.402 -27.850  1.00  0.00     0.012 C 
BRANCH  39  40
HETATM   40  C13 UNL     1      -6.300  47.111 -29.310  1.00  0.00     0.110 C 
BRANCH  40  41
HETATM   41  C14 UNL     1      -5.253  48.021 -29.900  1.00  0.00     0.139 C 
HETATM   42  O7  UNL     1      -4.859  47.975 -31.055  1.00  0.00    -0.650 OA
BRANCH  41  43
HETATM   43  O8  UNL     1      -4.780  48.958 -29.061  1.00  0.00    -0.776 OA
HETATM   44  H19 UNL     1      -4.136  49.459 -29.604  1.00  0.00     0.167 HD
ENDBRANCH  41  43
ENDBRANCH  40  41
ENDBRANCH  39  40
ENDBRANCH  38  39
ENDBRANCH  37  38
ENDBRANCH  35  37
ENDBRANCH  32  33
ENDBRANCH  31  32
ENDBRANCH  29  31
ENDBRANCH  28  29
ENDBRANCH  27  28
ENDBRANCH  25  27
ENDBRANCH   1  25
TORSDOF 15
ENDMDL
MODEL 9
REMARK minimizedAffinity -9.0127306
REMARK CNNscore 0.296181321
REMARK CNNaffinity 7.33801985
REMARK  15 active torsions:
REMARK  status: ('A' for Active; 'I' for Inactive)
REMARK    1  A    between atoms: C2_2  and  O2_4 
REMARK    2  A    between atoms: O2_4  and  C3_5 
REMARK    3  A    between atoms: C3_5  and  C4_6 
REMARK    4  A    between atoms: C4_6  and  C5_8 
REMARK    5  A    between atoms: C5_8  and  O4_9 
REMARK    6  A    between atoms: O4_9  and  C6_10 
REMARK    7  A    between atoms: C6_10  and  C7_12 
REMARK    8  A    between atoms: C7_12  and  C8_13 
REMARK    9  A    between atoms: C8_13  and  C9_14 
REMARK       I    between atoms: C9_14  and  N1_16 
REMARK   10  A    between atoms: N1_16  and  C10_17 
REMARK   11  A    between atoms: C10_17  and  C11_18 
REMARK   12  A    between atoms: C11_18  and  C12_19 
REMARK   13  A    between atoms: C12_19  and  C13_20 
REMARK   14  A    between atoms: C13_20  and  C14_21 
REMARK   15  A    between atoms: C14_21  and  O8_23 
ROOT
HETATM    1  C3  UNL     1      -1.680  50.285 -19.792  1.00  0.00     0.140 C 
HETATM    2  C15 UNL     1      -0.437  50.801 -20.526  1.00  0.00     0.048 C 
HETATM    3  C16 UNL     1       0.166  51.851 -19.593  1.00  0.00     0.009 C 
HETATM    4  C17 UNL     1      -0.315  51.522 -18.157  1.00  0.00     0.002 C 
HETATM    5  C18 UNL     1       0.900  51.331 -17.208  1.00  0.00    -0.004 C 
HETATM    6  C19 UNL     1       1.522  52.669 -16.816  1.00  0.00     0.010 C 
HETATM    7  C20 UNL     1       2.821  52.449 -16.048  1.00  0.00     0.035 C 
HETATM    8  C21 UNL     1       2.793  51.308 -15.055  1.00  0.00    -0.068 C 
HETATM    9  C22 UNL     1       3.956  50.948 -14.479  1.00  0.00     0.053 C 
HETATM   10  C23 UNL     1       4.022  49.937 -13.397  1.00  0.00     0.149 C 
HETATM   11  O9  UNL     1       5.112  49.653 -12.903  1.00  0.00    -0.293 OA
HETATM   12  C24 UNL     1       2.733  49.344 -12.891  1.00  0.00     0.084 C 
HETATM   13  C25 UNL     1       1.705  49.283 -14.014  1.00  0.00     0.022 C 
HETATM   14  C26 UNL     1       1.453  50.654 -14.711  1.00  0.00    -0.016 C 
HETATM   15  C27 UNL     1       0.754  51.587 -13.677  1.00  0.00     0.020 C 
HETATM   16  C28 UNL     1       0.491  50.512 -15.966  1.00  0.00     0.002 C 
HETATM   17  C29 UNL     1       0.164  49.079 -16.450  1.00  0.00     0.007 C 
HETATM   18  C30 UNL     1      -0.464  49.014 -17.858  1.00  0.00     0.013 C 
HETATM   19  C31 UNL     1      -1.257  50.276 -18.278  1.00  0.00    -0.001 C 
HETATM   20  C32 UNL     1      -2.511  50.360 -17.375  1.00  0.00     0.019 C 
ENDROOT
BRANCH   1  21
HETATM   21  O2  UNL     1      -2.221  49.018 -20.241  1.00  0.00    -0.301 OA
BRANCH  21  22
HETATM   22  C2  UNL     1      -2.051  48.471 -21.467  1.00  0.00     0.256 C 
HETATM   23  C1  UNL     1      -2.280  46.992 -21.390  1.00  0.00     0.126 C 
HETATM   24  O1  UNL     1      -1.764  49.056 -22.497  1.00  0.00    -0.266 OA
ENDBRANCH  21  22
ENDBRANCH   1  21
BRANCH   1  25
HETATM   25  C4  UNL     1      -2.829  51.316 -20.063  1.00  0.00     0.186 C 
HETATM   26  O3  UNL     1      -3.453  51.864 -19.148  1.00  0.00    -0.292 OA
BRANCH  25  27
HETATM   27  C5  UNL     1      -3.234  51.599 -21.505  1.00  0.00     0.260 C 
BRANCH  27  28
HETATM   28  O4  UNL     1      -4.648  51.506 -21.661  1.00  0.00    -0.314 OA
BRANCH  28  29
HETATM   29  C6  UNL     1      -5.025  51.008 -22.872  1.00  0.00     0.259 C 
HETATM   30  O5  UNL     1      -5.473  49.883 -23.055  1.00  0.00    -0.265 OA
BRANCH  29  31
HETATM   31  C7  UNL     1      -4.738  52.014 -23.957  1.00  0.00     0.120 C 
BRANCH  31  32
HETATM   32  C8  UNL     1      -3.884  51.399 -25.060  1.00  0.00     0.112 C 
BRANCH  32  33
HETATM   33  C9  UNL     1      -2.467  51.936 -25.035  1.00  0.00     0.217 C 
HETATM   34  O6  UNL     1      -2.198  53.123 -24.901  1.00  0.00    -0.274 OA
HETATM   35  N1  UNL     1      -1.516  50.939 -25.128  1.00  0.00    -0.361 N 
HETATM   36  H10 UNL     1      -1.806  50.064 -25.549  1.00  0.00     0.162 HD
BRANCH  35  37
HETATM   37  C10 UNL     1      -0.104  51.270 -25.157  1.00  0.00     0.122 C 
BRANCH  37  38
HETATM   38  C11 UNL     1       0.519  50.884 -26.495  1.00  0.00     0.020 C 
BRANCH  38  39
HETATM   39  C12 UNL     1       1.139  52.089 -27.204  1.00  0.00     0.012 C 
BRANCH  39  40
HETATM   40  C13 UNL     1       0.201  52.648 -28.273  1.00  0.00     0.110 C 
BRANCH  40  41
HETATM   41  C14 UNL     1      -0.590  53.856 -27.842  1.00  0.00     0.139 C 
HETATM   42  O7  UNL     1      -0.161  54.755 -27.137  1.00  0.00    -0.650 OA
BRANCH  41  43
HETATM   43  O8  UNL     1      -1.841  53.917 -28.330  1.00  0.00    -0.776 OA
HETATM   44  H19 UNL     1      -2.195  54.757 -27.969  1.00  0.00     0.167 HD
ENDBRANCH  41  43
ENDBRANCH  40  41
ENDBRANCH  39  40
ENDBRANCH  38  39
ENDBRANCH  37  38
ENDBRANCH  35  37
ENDBRANCH  32  33
ENDBRANCH  31  32
ENDBRANCH  29  31
ENDBRANCH  28  29
ENDBRANCH  27  28
ENDBRANCH  25  27
ENDBRANCH   1  25
TORSDOF 15
ENDMDL
