MODEL 1
REMARK minimizedAffinity -6.17574549
REMARK CNNscore 0.512002051
REMARK CNNaffinity 5.56960297
REMARK  2 active torsions:
REMARK  status: ('A' for Active; 'I' for Inactive)
REMARK    1  A    between atoms: C4_5  and  S1_6 
REMARK    2  A    between atoms: S1_6  and  C5_7 
ROOT
HETATM    1  C5  UNL     1      -2.997  50.341 -23.091  1.00  0.00     0.029 A 
HETATM    2  C6  UNL     1      -1.922  49.908 -22.301  1.00  0.00     0.046 A 
HETATM    3  C7  UNL     1      -1.952  48.657 -21.676  1.00  0.00     0.057 A 
HETATM    4 CL2  UNL     1      -0.592  48.210 -20.711  1.00  0.00    -0.083 Cl
HETATM    5  C8  UNL     1      -3.059  47.820 -21.846  1.00  0.00     0.057 A 
HETATM    6 CL3  UNL     1      -3.166  46.264 -21.104  1.00  0.00    -0.082 Cl
HETATM    7  C9  UNL     1      -4.129  48.236 -22.641  1.00  0.00     0.051 A 
HETATM    8  C10 UNL     1      -4.100  49.488 -23.266  1.00  0.00     0.052 A 
HETATM    9 CL4  UNL     1      -5.458  49.906 -24.251  1.00  0.00    -0.083 Cl
ENDROOT
BRANCH   1  10
HETATM   10  S1  UNL     1      -2.860  51.961 -23.845  1.00  0.00    -0.089 SA
BRANCH  10  11
HETATM   11  C4  UNL     1      -1.300  51.799 -24.698  1.00  0.00     0.005 A 
HETATM   12  C3  UNL     1      -0.221  52.606 -24.322  1.00  0.00     0.020 A 
HETATM   13  C2  UNL     1       1.006  52.496 -24.981  1.00  0.00     0.025 A 
HETATM   14  C1  UNL     1       1.152  51.585 -26.025  1.00  0.00     0.034 A 
HETATM   15 CL1  UNL     1       2.661  51.448 -26.838  1.00  0.00    -0.084 Cl
HETATM   16  C12 UNL     1       0.080  50.785 -26.417  1.00  0.00     0.025 A 
HETATM   17  C11 UNL     1      -1.147  50.895 -25.756  1.00  0.00     0.020 A 
ENDBRANCH  10  11
ENDBRANCH   1  10
TORSDOF 2
ENDMDL
MODEL 2
REMARK minimizedAffinity -6.39474678
REMARK CNNscore 0.486382127
REMARK CNNaffinity 5.4857955
REMARK  2 active torsions:
REMARK  status: ('A' for Active; 'I' for Inactive)
REMARK    1  A    between atoms: C4_5  and  S1_6 
REMARK    2  A    between atoms: S1_6  and  C5_7 
ROOT
HETATM    1  C5  UNL     1      -1.565  51.471 -21.841  1.00  0.00     0.029 A 
HETATM    2  C6  UNL     1      -0.775  52.588 -21.532  1.00  0.00     0.046 A 
HETATM    3  C7  UNL     1      -0.095  52.668 -20.312  1.00  0.00     0.057 A 
HETATM    4 CL2  UNL     1       0.844  54.085 -20.008  1.00  0.00    -0.083 Cl
HETATM    5  C8  UNL     1      -0.194  51.621 -19.390  1.00  0.00     0.057 A 
HETATM    6 CL3  UNL     1       0.616  51.652 -17.864  1.00  0.00    -0.082 Cl
HETATM    7  C9  UNL     1      -0.967  50.499 -19.693  1.00  0.00     0.051 A 
HETATM    8  C10 UNL     1      -1.647  50.419 -20.913  1.00  0.00     0.052 A 
HETATM    9 CL4  UNL     1      -2.559  48.980 -21.212  1.00  0.00    -0.083 Cl
ENDROOT
BRANCH   1  10
HETATM   10  S1  UNL     1      -2.395  51.468 -23.429  1.00  0.00    -0.089 SA
BRANCH  10  11
HETATM   11  C4  UNL     1      -0.994  51.499 -24.535  1.00  0.00     0.005 A 
HETATM   12  C3  UNL     1       0.107  52.309 -24.233  1.00  0.00     0.020 A 
HETATM   13  C2  UNL     1       1.210  52.348 -25.090  1.00  0.00     0.025 A 
HETATM   14  C1  UNL     1       1.209  51.585 -26.255  1.00  0.00     0.034 A 
HETATM   15 CL1  UNL     1       2.566  51.633 -27.310  1.00  0.00    -0.084 Cl
HETATM   16  C12 UNL     1       0.113  50.785 -26.573  1.00  0.00     0.025 A 
HETATM   17  C11 UNL     1      -0.990  50.745 -25.715  1.00  0.00     0.020 A 
ENDBRANCH  10  11
ENDBRANCH   1  10
TORSDOF 2
ENDMDL
MODEL 3
REMARK minimizedAffinity -6.02011299
REMARK CNNscore 0.445763141
REMARK CNNaffinity 5.6824441
REMARK  2 active torsions:
REMARK  status: ('A' for Active; 'I' for Inactive)
REMARK    1  A    between atoms: C4_5  and  S1_6 
REMARK    2  A    between atoms: S1_6  and  C5_7 
ROOT
HETATM    1  C5  UNL     1      -2.119  51.190 -22.899  1.00  0.00     0.029 A 
HETATM    2  C6  UNL     1      -2.948  50.058 -22.857  1.00  0.00     0.046 A 
HETATM    3  C7  UNL     1      -2.700  49.023 -21.950  1.00  0.00     0.057 A 
HETATM    4 CL2  UNL     1      -3.763  47.662 -21.976  1.00  0.00    -0.083 Cl
HETATM    5  C8  UNL     1      -1.622  49.116 -21.065  1.00  0.00     0.057 A 
HETATM    6 CL3  UNL     1      -1.255  47.878 -19.918  1.00  0.00    -0.082 Cl
HETATM    7  C9  UNL     1      -0.799  50.244 -21.089  1.00  0.00     0.051 A 
HETATM    8  C10 UNL     1      -1.046  51.279 -21.997  1.00  0.00     0.052 A 
HETATM    9 CL4  UNL     1       0.011  52.647 -21.937  1.00  0.00    -0.083 Cl
ENDROOT
BRANCH   1  10
HETATM   10  S1  UNL     1      -2.523  52.457 -24.100  1.00  0.00    -0.089 SA
BRANCH  10  11
HETATM   11  C4  UNL     1      -1.180  52.255 -25.260  1.00  0.00     0.005 A 
HETATM   12  C3  UNL     1      -0.819  50.969 -25.679  1.00  0.00     0.020 A 
HETATM   13  C2  UNL     1       0.232  50.792 -26.583  1.00  0.00     0.025 A 
HETATM   14  C1  UNL     1       0.929  51.899 -27.060  1.00  0.00     0.034 A 
HETATM   15 CL1  UNL     1       2.223  51.682 -28.172  1.00  0.00    -0.084 Cl
HETATM   16  C12 UNL     1       0.587  53.183 -26.639  1.00  0.00     0.025 A 
HETATM   17  C11 UNL     1      -0.466  53.360 -25.736  1.00  0.00     0.020 A 
ENDBRANCH  10  11
ENDBRANCH   1  10
TORSDOF 2
ENDMDL
MODEL 4
REMARK minimizedAffinity -5.96344805
REMARK CNNscore 0.398766577
REMARK CNNaffinity 5.16641092
REMARK  2 active torsions:
REMARK  status: ('A' for Active; 'I' for Inactive)
REMARK    1  A    between atoms: C4_5  and  S1_6 
REMARK    2  A    between atoms: S1_6  and  C5_7 
ROOT
HETATM    1  C5  UNL     1      -0.088  51.417 -20.251  1.00  0.00     0.029 A 
HETATM    2  C6  UNL     1      -0.123  51.452 -21.653  1.00  0.00     0.046 A 
HETATM    3  C7  UNL     1       0.425  52.531 -22.356  1.00  0.00     0.057 A 
HETATM    4 CL2  UNL     1       0.326  52.499 -24.080  1.00  0.00    -0.083 Cl
HETATM    5  C8  UNL     1       1.024  53.584 -21.658  1.00  0.00     0.057 A 
HETATM    6 CL3  UNL     1       1.720  54.948 -22.458  1.00  0.00    -0.082 Cl
HETATM    7  C9  UNL     1       1.077  53.553 -20.263  1.00  0.00     0.051 A 
HETATM    8  C10 UNL     1       0.528  52.474 -19.560  1.00  0.00     0.052 A 
HETATM    9 CL4  UNL     1       0.662  52.509 -17.836  1.00  0.00    -0.083 Cl
ENDROOT
BRANCH   1  10
HETATM   10  S1  UNL     1      -0.819  49.991 -19.449  1.00  0.00    -0.089 SA
BRANCH  10  11
HETATM   11  C4  UNL     1      -2.009  49.491 -20.682  1.00  0.00     0.005 A 
HETATM   12  C3  UNL     1      -1.693  48.451 -21.565  1.00  0.00     0.020 A 
HETATM   13  C2  UNL     1      -2.610  48.049 -22.539  1.00  0.00     0.025 A 
HETATM   14  C1  UNL     1      -3.841  48.693 -22.638  1.00  0.00     0.034 A 
HETATM   15 CL1  UNL     1      -4.971  48.200 -23.837  1.00  0.00    -0.084 Cl
HETATM   16  C12 UNL     1      -4.162  49.738 -21.773  1.00  0.00     0.025 A 
HETATM   17  C11 UNL     1      -3.244  50.139 -20.798  1.00  0.00     0.020 A 
ENDBRANCH  10  11
ENDBRANCH   1  10
TORSDOF 2
ENDMDL
MODEL 5
REMARK minimizedAffinity -5.34823227
REMARK CNNscore 0.366473258
REMARK CNNaffinity 5.07808113
REMARK  2 active torsions:
REMARK  status: ('A' for Active; 'I' for Inactive)
REMARK    1  A    between atoms: C4_5  and  S1_6 
REMARK    2  A    between atoms: S1_6  and  C5_7 
ROOT
HETATM    1  C5  UNL     1      -4.409  48.367 -20.584  1.00  0.00     0.029 A 
HETATM    2  C6  UNL     1      -4.126  49.661 -20.121  1.00  0.00     0.046 A 
HETATM    3  C7  UNL     1      -3.010  49.904 -19.314  1.00  0.00     0.057 A 
HETATM    4 CL2  UNL     1      -2.745  51.524 -18.778  1.00  0.00    -0.083 Cl
HETATM    5  C8  UNL     1      -2.158  48.850 -18.968  1.00  0.00     0.057 A 
HETATM    6 CL3  UNL     1      -0.764  49.075 -17.974  1.00  0.00    -0.082 Cl
HETATM    7  C9  UNL     1      -2.423  47.561 -19.433  1.00  0.00     0.051 A 
HETATM    8  C10 UNL     1      -3.540  47.317 -20.241  1.00  0.00     0.052 A 
HETATM    9 CL4  UNL     1      -3.773  45.694 -20.791  1.00  0.00    -0.083 Cl
ENDROOT
BRANCH   1  10
HETATM   10  S1  UNL     1      -5.863  48.163 -21.610  1.00  0.00    -0.089 SA
BRANCH  10  11
HETATM   11  C4  UNL     1      -5.140  48.280 -23.238  1.00  0.00     0.005 A 
HETATM   12  C3  UNL     1      -5.956  48.143 -24.367  1.00  0.00     0.020 A 
HETATM   13  C2  UNL     1      -5.405  48.227 -25.649  1.00  0.00     0.025 A 
HETATM   14  C1  UNL     1      -4.037  48.440 -25.802  1.00  0.00     0.034 A 
HETATM   15 CL1  UNL     1      -3.359  48.544 -27.379  1.00  0.00    -0.084 Cl
HETATM   16  C12 UNL     1      -3.213  48.565 -24.685  1.00  0.00     0.025 A 
HETATM   17  C11 UNL     1      -3.765  48.482 -23.403  1.00  0.00     0.020 A 
ENDBRANCH  10  11
ENDBRANCH   1  10
TORSDOF 2
ENDMDL
MODEL 6
REMARK minimizedAffinity -6.50268555
REMARK CNNscore 0.314711422
REMARK CNNaffinity 5.23828554
REMARK  2 active torsions:
REMARK  status: ('A' for Active; 'I' for Inactive)
REMARK    1  A    between atoms: C4_5  and  S1_6 
REMARK    2  A    between atoms: S1_6  and  C5_7 
ROOT
HETATM    1  C5  UNL     1      -3.338  50.716 -24.324  1.00  0.00     0.029 A 
HETATM    2  C6  UNL     1      -3.530  51.302 -23.065  1.00  0.00     0.046 A 
HETATM    3  C7  UNL     1      -3.587  50.515 -21.910  1.00  0.00     0.057 A 
HETATM    4 CL2  UNL     1      -3.839  51.319 -20.402  1.00  0.00    -0.083 Cl
HETATM    5  C8  UNL     1      -3.442  49.127 -22.006  1.00  0.00     0.057 A 
HETATM    6 CL3  UNL     1      -3.502  48.093 -20.624  1.00  0.00    -0.082 Cl
HETATM    7  C9  UNL     1      -3.237  48.534 -23.253  1.00  0.00     0.051 A 
HETATM    8  C10 UNL     1      -3.181  49.322 -24.408  1.00  0.00     0.052 A 
HETATM    9 CL4  UNL     1      -2.899  48.503 -25.905  1.00  0.00    -0.083 Cl
ENDROOT
BRANCH   1  10
HETATM   10  S1  UNL     1      -3.282  51.814 -25.740  1.00  0.00    -0.089 SA
BRANCH  10  11
HETATM   11  C4  UNL     1      -1.539  51.776 -26.121  1.00  0.00     0.005 A 
HETATM   12  C3  UNL     1      -1.125  51.507 -27.430  1.00  0.00     0.020 A 
HETATM   13  C2  UNL     1       0.236  51.469 -27.746  1.00  0.00     0.025 A 
HETATM   14  C1  UNL     1       1.184  51.691 -26.750  1.00  0.00     0.034 A 
HETATM   15 CL1  UNL     1       2.859  51.644 -27.136  1.00  0.00    -0.084 Cl
HETATM   16  C12 UNL     1       0.783  51.947 -25.439  1.00  0.00     0.025 A 
HETATM   17  C11 UNL     1      -0.578  51.986 -25.125  1.00  0.00     0.020 A 
ENDBRANCH  10  11
ENDBRANCH   1  10
TORSDOF 2
ENDMDL
MODEL 7
REMARK minimizedAffinity -5.37434387
REMARK CNNscore 0.285989076
REMARK CNNaffinity 4.97048998
REMARK  2 active torsions:
REMARK  status: ('A' for Active; 'I' for Inactive)
REMARK    1  A    between atoms: C4_5  and  S1_6 
REMARK    2  A    between atoms: S1_6  and  C5_7 
ROOT
HETATM    1  C5  UNL     1      -0.802  50.490 -22.065  1.00  0.00     0.029 A 
HETATM    2  C6  UNL     1       0.050  51.253 -21.253  1.00  0.00     0.046 A 
HETATM    3  C7  UNL     1       0.640  52.425 -21.738  1.00  0.00     0.057 A 
HETATM    4 CL2  UNL     1       1.686  53.296 -20.675  1.00  0.00    -0.083 Cl
HETATM    5  C8  UNL     1       0.372  52.851 -23.042  1.00  0.00     0.057 A 
HETATM    6 CL3  UNL     1       1.064  54.287 -23.708  1.00  0.00    -0.082 Cl
HETATM    7  C9  UNL     1      -0.486  52.106 -23.854  1.00  0.00     0.051 A 
HETATM    8  C10 UNL     1      -1.075  50.933 -23.370  1.00  0.00     0.052 A 
HETATM    9 CL4  UNL     1      -2.142  50.090 -24.438  1.00  0.00    -0.083 Cl
ENDROOT
BRANCH   1  10
HETATM   10  S1  UNL     1      -1.503  49.004 -21.348  1.00  0.00    -0.089 SA
BRANCH  10  11
HETATM   11  C4  UNL     1      -1.784  49.546 -19.670  1.00  0.00     0.005 A 
HETATM   12  C3  UNL     1      -2.799  50.473 -19.406  1.00  0.00     0.020 A 
HETATM   13  C2  UNL     1      -3.030  50.911 -18.099  1.00  0.00     0.025 A 
HETATM   14  C1  UNL     1      -2.240  50.430 -17.058  1.00  0.00     0.034 A 
HETATM   15 CL1  UNL     1      -2.523  50.969 -15.449  1.00  0.00    -0.084 Cl
HETATM   16  C12 UNL     1      -1.218  49.517 -17.311  1.00  0.00     0.025 A 
HETATM   17  C11 UNL     1      -0.988  49.078 -18.619  1.00  0.00     0.020 A 
ENDBRANCH  10  11
ENDBRANCH   1  10
TORSDOF 2
ENDMDL
MODEL 8
REMARK minimizedAffinity -6.96265316
REMARK CNNscore 0.271675467
REMARK CNNaffinity 4.94700336
REMARK  2 active torsions:
REMARK  status: ('A' for Active; 'I' for Inactive)
REMARK    1  A    between atoms: C4_5  and  S1_6 
REMARK    2  A    between atoms: S1_6  and  C5_7 
ROOT
HETATM    1  C5  UNL     1      -0.172  52.534 -25.045  1.00  0.00     0.029 A 
HETATM    2  C6  UNL     1      -1.557  52.567 -24.823  1.00  0.00     0.046 A 
HETATM    3  C7  UNL     1      -2.394  51.594 -25.377  1.00  0.00     0.057 A 
HETATM    4 CL2  UNL     1      -4.088  51.719 -25.064  1.00  0.00    -0.083 Cl
HETATM    5  C8  UNL     1      -1.849  50.567 -26.155  1.00  0.00     0.057 A 
HETATM    6 CL3  UNL     1      -2.821  49.333 -26.872  1.00  0.00    -0.082 Cl
HETATM    7  C9  UNL     1      -0.470  50.517 -26.372  1.00  0.00     0.051 A 
HETATM    8  C10 UNL     1       0.367  51.491 -25.817  1.00  0.00     0.052 A 
HETATM    9 CL4  UNL     1       2.063  51.333 -26.118  1.00  0.00    -0.083 Cl
ENDROOT
BRANCH   1  10
HETATM   10  S1  UNL     1       0.810  53.829 -24.291  1.00  0.00    -0.089 SA
BRANCH  10  11
HETATM   11  C4  UNL     1       0.765  53.326 -22.579  1.00  0.00     0.005 A 
HETATM   12  C3  UNL     1       0.246  52.071 -22.243  1.00  0.00     0.020 A 
HETATM   13  C2  UNL     1       0.199  51.662 -20.907  1.00  0.00     0.025 A 
HETATM   14  C1  UNL     1       0.662  52.513 -19.906  1.00  0.00     0.034 A 
HETATM   15 CL1  UNL     1       0.605  52.012 -18.262  1.00  0.00    -0.084 Cl
HETATM   16  C12 UNL     1       1.169  53.771 -20.228  1.00  0.00     0.025 A 
HETATM   17  C11 UNL     1       1.217  54.178 -21.565  1.00  0.00     0.020 A 
ENDBRANCH  10  11
ENDBRANCH   1  10
TORSDOF 2
ENDMDL
MODEL 9
REMARK minimizedAffinity -5.35619116
REMARK CNNscore 0.266355634
REMARK CNNaffinity 5.19479132
REMARK  2 active torsions:
REMARK  status: ('A' for Active; 'I' for Inactive)
REMARK    1  A    between atoms: C4_5  and  S1_6 
REMARK    2  A    between atoms: S1_6  and  C5_7 
ROOT
HETATM    1  C5  UNL     1      -1.555  49.899 -22.653  1.00  0.00     0.029 A 
HETATM    2  C6  UNL     1      -1.182  51.013 -23.419  1.00  0.00     0.046 A 
HETATM    3  C7  UNL     1      -0.259  51.943 -22.928  1.00  0.00     0.057 A 
HETATM    4 CL2  UNL     1       0.133  53.292 -23.932  1.00  0.00    -0.083 Cl
HETATM    5  C8  UNL     1       0.307  51.759 -21.663  1.00  0.00     0.057 A 
HETATM    6 CL3  UNL     1       1.451  52.865 -20.991  1.00  0.00    -0.082 Cl
HETATM    7  C9  UNL     1      -0.047  50.646 -20.897  1.00  0.00     0.051 A 
HETATM    8  C10 UNL     1      -0.970  49.717 -21.389  1.00  0.00     0.052 A 
HETATM    9 CL4  UNL     1      -1.330  48.358 -20.382  1.00  0.00    -0.083 Cl
ENDROOT
BRANCH   1  10
HETATM   10  S1  UNL     1      -2.745  48.770 -23.375  1.00  0.00    -0.089 SA
BRANCH  10  11
HETATM   11  C4  UNL     1      -4.110  48.956 -22.240  1.00  0.00     0.005 A 
HETATM   12  C3  UNL     1      -4.797  47.821 -21.794  1.00  0.00     0.020 A 
HETATM   13  C2  UNL     1      -5.870  47.948 -20.909  1.00  0.00     0.025 A 
HETATM   14  C1  UNL     1      -6.264  49.212 -20.475  1.00  0.00     0.034 A 
HETATM   15 CL1  UNL     1      -7.585  49.370 -19.386  1.00  0.00    -0.084 Cl
HETATM   16  C12 UNL     1      -5.596  50.350 -20.923  1.00  0.00     0.025 A 
HETATM   17  C11 UNL     1      -4.522  50.222 -21.808  1.00  0.00     0.020 A 
ENDBRANCH  10  11
ENDBRANCH   1  10
TORSDOF 2
ENDMDL
