MODEL 1
REMARK minimizedAffinity -9.37130642
REMARK  5 active torsions:
REMARK  status: ('A' for Active; 'I' for Inactive)
REMARK    1  A    between atoms: C2_2  and  C4_4 
REMARK    2  A    between atoms: C7_7  and  C8_8 
REMARK    3  A    between atoms: C8_8  and  O2_10 
REMARK    4  A    between atoms: C22_25  and  C24_27 
REMARK    5  A    between atoms: C24_27  and  O4_28 
ROOT
HETATM    1  C4  UNL     1      -7.969   5.515  13.905  1.00  0.00     0.019 C 
HETATM    2  C5  UNL     1      -9.257   6.106  14.540  1.00  0.00     0.011 C 
HETATM    3  C6  UNL     1      -8.905   7.516  15.043  1.00  0.00     0.021 C 
HETATM    4  C7  UNL     1      -7.389   7.470  15.249  1.00  0.00     0.050 C 
HETATM    5  C9  UNL     1      -6.686   8.836  15.235  1.00  0.00     0.022 C 
HETATM    6  C10 UNL     1      -5.152   8.660  15.205  1.00  0.00     0.011 C 
HETATM    7  C11 UNL     1      -4.613   7.770  14.029  1.00  0.00    -0.032 C 
HETATM    8  C12 UNL     1      -4.863   8.606  12.728  1.00  0.00     0.016 C 
HETATM    9  C13 UNL     1      -5.438   6.418  13.983  1.00  0.00     0.000 C 
HETATM   10  C14 UNL     1      -4.964   5.504  12.847  1.00  0.00     0.006 C 
HETATM   11  C15 UNL     1      -3.466   5.197  12.933  1.00  0.00     0.006 C 
HETATM   12  C16 UNL     1      -2.597   6.473  12.992  1.00  0.00     0.003 C 
HETATM   13  C17 UNL     1      -1.042   6.212  12.788  1.00  0.00    -0.035 C 
HETATM   14  C18 UNL     1      -0.468   5.191  13.799  1.00  0.00     0.016 C 
HETATM   15  C19 UNL     1      -0.840   5.585  11.358  1.00  0.00     0.017 C 
HETATM   16  C20 UNL     1       0.454   5.968  10.645  1.00  0.00     0.080 C 
HETATM   17  C21 UNL     1       1.539   6.320  11.628  1.00  0.00     0.137 C 
HETATM   18  O3  UNL     1       2.584   5.671  11.671  1.00  0.00    -0.297 OA
HETATM   19  C22 UNL     1       1.262   7.517  12.548  1.00  0.00     0.042 C 
HETATM   20  C23 UNL     1       2.112   7.377  13.826  1.00  0.00     0.026 C 
HETATM   21  C25 UNL     1      -0.290   7.590  12.826  1.00  0.00     0.012 C 
HETATM   22  C26 UNL     1      -0.646   8.415  14.076  1.00  0.00     0.007 C 
HETATM   23  C27 UNL     1      -2.150   8.687  14.164  1.00  0.00     0.011 C 
HETATM   24  C28 UNL     1      -3.031   7.409  14.193  1.00  0.00    -0.032 C 
HETATM   25  C29 UNL     1      -2.785   6.723  15.569  1.00  0.00     0.016 C 
HETATM   26  C30 UNL     1      -6.959   6.687  13.986  1.00  0.00     0.017 C 
ENDROOT
BRANCH   4  27
HETATM   27  C8  UNL     1      -7.157   6.847  16.635  1.00  0.00     0.149 C 
HETATM   28  O1  UNL     1      -7.719   7.190  17.667  1.00  0.00    -0.649 OA
BRANCH  27  29
HETATM   29  O2  UNL     1      -6.290   5.826  16.681  1.00  0.00    -0.776 OA
HETATM   30  H11 UNL     1      -6.292   5.559  17.624  1.00  0.00     0.167 HD
ENDBRANCH  27  29
ENDBRANCH   4  27
BRANCH   1  31
HETATM   31  C2  UNL     1      -8.282   4.889  12.552  1.00  0.00    -0.088 C 
HETATM   32  C1  UNL     1      -8.693   5.556  11.461  1.00  0.00     0.014 C 
HETATM   33  C3  UNL     1      -8.103   3.392  12.496  1.00  0.00     0.043 C 
ENDBRANCH   1  31
BRANCH  19  34
HETATM   34  C24 UNL     1       1.684   8.800  11.783  1.00  0.00     0.181 C 
BRANCH  34  35
HETATM   35  O4  UNL     1       2.271   9.792  12.613  1.00  0.00    -0.400 OA
HETATM   36  H37 UNL     1       1.602  10.111  13.243  1.00  0.00     0.209 HD
ENDBRANCH  34  35
ENDBRANCH  19  34
TORSDOF 5
ENDMDL
MODEL 2
REMARK minimizedAffinity -9.19459343
REMARK  5 active torsions:
REMARK  status: ('A' for Active; 'I' for Inactive)
REMARK    1  A    between atoms: C2_2  and  C4_4 
REMARK    2  A    between atoms: C7_7  and  C8_8 
REMARK    3  A    between atoms: C8_8  and  O2_10 
REMARK    4  A    between atoms: C22_25  and  C24_27 
REMARK    5  A    between atoms: C24_27  and  O4_28 
ROOT
HETATM    1  C4  UNL     1      -5.153   4.508  13.113  1.00  0.00     0.019 C 
HETATM    2  C5  UNL     1      -6.700   4.551  12.974  1.00  0.00     0.011 C 
HETATM    3  C6  UNL     1      -7.131   6.011  13.193  1.00  0.00     0.021 C 
HETATM    4  C7  UNL     1      -5.992   6.615  14.019  1.00  0.00     0.050 C 
HETATM    5  C9  UNL     1      -5.873   8.145  13.946  1.00  0.00     0.022 C 
HETATM    6  C10 UNL     1      -4.562   8.623  14.608  1.00  0.00     0.011 C 
HETATM    7  C11 UNL     1      -3.257   7.959  14.040  1.00  0.00    -0.032 C 
HETATM    8  C12 UNL     1      -3.104   8.521  12.586  1.00  0.00     0.016 C 
HETATM    9  C13 UNL     1      -3.449   6.387  14.005  1.00  0.00     0.000 C 
HETATM   10  C14 UNL     1      -2.209   5.676  13.452  1.00  0.00     0.006 C 
HETATM   11  C15 UNL     1      -0.940   6.029  14.233  1.00  0.00     0.006 C 
HETATM   12  C16 UNL     1      -0.693   7.551  14.317  1.00  0.00     0.003 C 
HETATM   13  C17 UNL     1       0.749   7.948  14.857  1.00  0.00    -0.035 C 
HETATM   14  C18 UNL     1       1.060   7.333  16.242  1.00  0.00     0.016 C 
HETATM   15  C19 UNL     1       1.818   7.365  13.860  1.00  0.00     0.017 C 
HETATM   16  C20 UNL     1       3.082   8.201  13.681  1.00  0.00     0.080 C 
HETATM   17  C21 UNL     1       3.361   9.040  14.899  1.00  0.00     0.137 C 
HETATM   18  O3  UNL     1       4.401   8.891  15.541  1.00  0.00    -0.297 OA
HETATM   19  C22 UNL     1       2.291  10.074  15.273  1.00  0.00     0.042 C 
HETATM   20  C23 UNL     1       2.401  10.391  16.777  1.00  0.00     0.026 C 
HETATM   21  C25 UNL     1       0.878   9.514  14.847  1.00  0.00     0.012 C 
HETATM   22  C26 UNL     1      -0.294  10.200  15.572  1.00  0.00     0.007 C 
HETATM   23  C27 UNL     1      -1.641   9.826  14.950  1.00  0.00     0.011 C 
HETATM   24  C28 UNL     1      -1.939   8.302  14.938  1.00  0.00    -0.032 C 
HETATM   25  C29 UNL     1      -2.183   7.879  16.417  1.00  0.00     0.016 C 
HETATM   26  C30 UNL     1      -4.769   5.996  13.303  1.00  0.00     0.017 C 
ENDROOT
BRANCH   4  27
HETATM   27  C8  UNL     1      -6.272   6.244  15.484  1.00  0.00     0.149 C 
HETATM   28  O1  UNL     1      -7.352   5.872  15.925  1.00  0.00    -0.649 OA
BRANCH  27  29
HETATM   29  O2  UNL     1      -5.224   6.310  16.317  1.00  0.00    -0.776 OA
HETATM   30  H11 UNL     1      -5.591   6.025  17.180  1.00  0.00     0.167 HD
ENDBRANCH  27  29
ENDBRANCH   4  27
BRANCH   1  31
HETATM   31  C2  UNL     1      -4.538   3.716  11.967  1.00  0.00    -0.088 C 
HETATM   32  C1  UNL     1      -3.586   4.164  11.132  1.00  0.00     0.014 C 
HETATM   33  C3  UNL     1      -5.087   2.320  11.802  1.00  0.00     0.043 C 
ENDBRANCH   1  31
BRANCH  19  34
HETATM   34  C24 UNL     1       2.576  11.359  14.451  1.00  0.00     0.181 C 
BRANCH  34  35
HETATM   35  O4  UNL     1       2.910  11.106  13.094  1.00  0.00    -0.400 OA
HETATM   36  H37 UNL     1       3.753  10.622  13.063  1.00  0.00     0.209 HD
ENDBRANCH  34  35
ENDBRANCH  19  34
TORSDOF 5
ENDMDL
MODEL 3
REMARK minimizedAffinity -8.94069099
REMARK  5 active torsions:
REMARK  status: ('A' for Active; 'I' for Inactive)
REMARK    1  A    between atoms: C2_2  and  C4_4 
REMARK    2  A    between atoms: C7_7  and  C8_8 
REMARK    3  A    between atoms: C8_8  and  O2_10 
REMARK    4  A    between atoms: C22_25  and  C24_27 
REMARK    5  A    between atoms: C24_27  and  O4_28 
ROOT
HETATM    1  C4  UNL     1      -3.634   4.580  12.972  1.00  0.00     0.019 C 
HETATM    2  C5  UNL     1      -5.187   4.577  12.934  1.00  0.00     0.011 C 
HETATM    3  C6  UNL     1      -5.645   6.028  13.158  1.00  0.00     0.021 C 
HETATM    4  C7  UNL     1      -4.473   6.678  13.898  1.00  0.00     0.050 C 
HETATM    5  C9  UNL     1      -4.404   8.209  13.793  1.00  0.00     0.022 C 
HETATM    6  C10 UNL     1      -3.067   8.736  14.359  1.00  0.00     0.011 C 
HETATM    7  C11 UNL     1      -1.783   8.099  13.717  1.00  0.00    -0.032 C 
HETATM    8  C12 UNL     1      -1.741   8.639  12.248  1.00  0.00     0.016 C 
HETATM    9  C13 UNL     1      -1.931   6.521  13.720  1.00  0.00     0.000 C 
HETATM   10  C14 UNL     1      -0.709   5.836  13.097  1.00  0.00     0.006 C 
HETATM   11  C15 UNL     1       0.597   6.238  13.788  1.00  0.00     0.006 C 
HETATM   12  C16 UNL     1       0.805   7.767  13.831  1.00  0.00     0.003 C 
HETATM   13  C17 UNL     1       2.267   8.214  14.269  1.00  0.00    -0.035 C 
HETATM   14  C18 UNL     1       2.685   7.633  15.640  1.00  0.00     0.016 C 
HETATM   15  C19 UNL     1       3.285   7.644  13.213  1.00  0.00     0.017 C 
HETATM   16  C20 UNL     1       4.509   8.512  12.938  1.00  0.00     0.080 C 
HETATM   17  C21 UNL     1       4.843   9.381  14.122  1.00  0.00     0.137 C 
HETATM   18  O3  UNL     1       5.926   9.272  14.697  1.00  0.00    -0.297 OA
HETATM   19  C22 UNL     1       3.769  10.391  14.549  1.00  0.00     0.042 C 
HETATM   20  C23 UNL     1       3.968  10.736  16.038  1.00  0.00     0.026 C 
HETATM   21  C25 UNL     1       2.349   9.783  14.226  1.00  0.00     0.012 C 
HETATM   22  C26 UNL     1       1.207  10.448  15.016  1.00  0.00     0.007 C 
HETATM   23  C27 UNL     1      -0.167  10.026  14.489  1.00  0.00     0.011 C 
HETATM   24  C28 UNL     1      -0.420   8.494  14.521  1.00  0.00    -0.032 C 
HETATM   25  C29 UNL     1      -0.554   8.091  16.019  1.00  0.00     0.016 C 
HETATM   26  C30 UNL     1      -3.282   6.082  13.112  1.00  0.00     0.017 C 
ENDROOT
BRANCH   4  27
HETATM   27  C8  UNL     1      -4.646   6.325  15.383  1.00  0.00     0.149 C 
HETATM   28  O1  UNL     1      -5.718   6.208  15.962  1.00  0.00    -0.649 OA
BRANCH  27  29
HETATM   29  O2  UNL     1      -3.516   6.100  16.068  1.00  0.00    -0.776 OA
HETATM   30  H11 UNL     1      -3.828   5.877  16.970  1.00  0.00     0.167 HD
ENDBRANCH  27  29
ENDBRANCH   4  27
BRANCH   1  31
HETATM   31  C2  UNL     1      -3.072   3.785  11.800  1.00  0.00    -0.088 C 
HETATM   32  C1  UNL     1      -1.847   3.236  11.748  1.00  0.00     0.014 C 
HETATM   33  C3  UNL     1      -4.012   3.640  10.630  1.00  0.00     0.043 C 
ENDBRANCH   1  31
BRANCH  19  34
HETATM   34  C24 UNL     1       3.963  11.668  13.691  1.00  0.00     0.181 C 
BRANCH  34  35
HETATM   35  O4  UNL     1       2.746  12.228  13.217  1.00  0.00    -0.400 OA
HETATM   36  H37 UNL     1       2.329  11.599  12.603  1.00  0.00     0.209 HD
ENDBRANCH  34  35
ENDBRANCH  19  34
TORSDOF 5
ENDMDL
MODEL 4
REMARK minimizedAffinity -8.92198181
REMARK  5 active torsions:
REMARK  status: ('A' for Active; 'I' for Inactive)
REMARK    1  A    between atoms: C2_2  and  C4_4 
REMARK    2  A    between atoms: C7_7  and  C8_8 
REMARK    3  A    between atoms: C8_8  and  O2_10 
REMARK    4  A    between atoms: C22_25  and  C24_27 
REMARK    5  A    between atoms: C24_27  and  O4_28 
ROOT
HETATM    1  C4  UNL     1      -6.340   5.026  12.542  1.00  0.00     0.019 C 
HETATM    2  C5  UNL     1      -7.112   3.703  12.282  1.00  0.00     0.011 C 
HETATM    3  C6  UNL     1      -6.077   2.566  12.309  1.00  0.00     0.021 C 
HETATM    4  C7  UNL     1      -4.754   3.259  11.972  1.00  0.00     0.050 C 
HETATM    5  C9  UNL     1      -3.491   2.514  12.431  1.00  0.00     0.022 C 
HETATM    6  C10 UNL     1      -2.240   3.404  12.262  1.00  0.00     0.011 C 
HETATM    7  C11 UNL     1      -2.325   4.801  12.975  1.00  0.00    -0.032 C 
HETATM    8  C12 UNL     1      -2.288   4.487  14.509  1.00  0.00     0.016 C 
HETATM    9  C13 UNL     1      -3.694   5.498  12.588  1.00  0.00     0.000 C 
HETATM   10  C14 UNL     1      -3.842   6.868  13.260  1.00  0.00     0.006 C 
HETATM   11  C15 UNL     1      -2.672   7.803  12.939  1.00  0.00     0.006 C 
HETATM   12  C16 UNL     1      -1.300   7.183  13.282  1.00  0.00     0.003 C 
HETATM   13  C17 UNL     1      -0.091   8.215  13.243  1.00  0.00    -0.035 C 
HETATM   14  C18 UNL     1       0.034   8.938  11.881  1.00  0.00     0.016 C 
HETATM   15  C19 UNL     1      -0.371   9.332  14.316  1.00  0.00     0.017 C 
HETATM   16  C20 UNL     1       0.861   9.909  15.007  1.00  0.00     0.080 C 
HETATM   17  C21 UNL     1       2.083   9.794  14.136  1.00  0.00     0.137 C 
HETATM   18  O3  UNL     1       2.690  10.800  13.767  1.00  0.00    -0.297 OA
HETATM   19  C22 UNL     1       2.514   8.372  13.751  1.00  0.00     0.042 C 
HETATM   20  C23 UNL     1       3.330   8.430  12.445  1.00  0.00     0.026 C 
HETATM   21  C25 UNL     1       1.227   7.465  13.654  1.00  0.00     0.012 C 
HETATM   22  C26 UNL     1       1.447   6.182  12.833  1.00  0.00     0.007 C 
HETATM   23  C27 UNL     1       0.275   5.207  12.980  1.00  0.00     0.011 C 
HETATM   24  C28 UNL     1      -1.099   5.792  12.555  1.00  0.00    -0.032 C 
HETATM   25  C29 UNL     1      -1.060   5.957  11.007  1.00  0.00     0.016 C 
HETATM   26  C30 UNL     1      -4.892   4.549  12.814  1.00  0.00     0.017 C 
ENDROOT
BRANCH   4  27
HETATM   27  C8  UNL     1      -4.696   3.364  10.440  1.00  0.00     0.149 C 
HETATM   28  O1  UNL     1      -5.654   3.256   9.686  1.00  0.00    -0.649 OA
BRANCH  27  29
HETATM   29  O2  UNL     1      -3.491   3.628   9.915  1.00  0.00    -0.776 OA
HETATM   30  H11 UNL     1      -3.659   3.673   8.951  1.00  0.00     0.167 HD
ENDBRANCH  27  29
ENDBRANCH   4  27
BRANCH   1  31
HETATM   31  C2  UNL     1      -7.061   5.866  13.588  1.00  0.00    -0.088 C 
HETATM   32  C1  UNL     1      -6.527   6.300  14.742  1.00  0.00     0.014 C 
HETATM   33  C3  UNL     1      -8.491   6.203  13.247  1.00  0.00     0.043 C 
ENDBRANCH   1  31
BRANCH  19  34
HETATM   34  C24 UNL     1       3.410   7.831  14.897  1.00  0.00     0.181 C 
BRANCH  34  35
HETATM   35  O4  UNL     1       2.808   6.785  15.646  1.00  0.00    -0.400 OA
HETATM   36  H37 UNL     1       2.029   7.138  16.110  1.00  0.00     0.209 HD
ENDBRANCH  34  35
ENDBRANCH  19  34
TORSDOF 5
ENDMDL
MODEL 5
REMARK minimizedAffinity -8.57307816
REMARK  5 active torsions:
REMARK  status: ('A' for Active; 'I' for Inactive)
REMARK    1  A    between atoms: C2_2  and  C4_4 
REMARK    2  A    between atoms: C7_7  and  C8_8 
REMARK    3  A    between atoms: C8_8  and  O2_10 
REMARK    4  A    between atoms: C22_25  and  C24_27 
REMARK    5  A    between atoms: C24_27  and  O4_28 
ROOT
HETATM    1  C4  UNL     1      -5.930   3.964  11.950  1.00  0.00     0.019 C 
HETATM    2  C5  UNL     1      -5.961   2.528  11.357  1.00  0.00     0.011 C 
HETATM    3  C6  UNL     1      -4.562   1.924  11.570  1.00  0.00     0.021 C 
HETATM    4  C7  UNL     1      -3.644   3.144  11.689  1.00  0.00     0.050 C 
HETATM    5  C9  UNL     1      -2.315   2.891  12.416  1.00  0.00     0.022 C 
HETATM    6  C10 UNL     1      -1.584   4.223  12.695  1.00  0.00     0.011 C 
HETATM    7  C11 UNL     1      -2.429   5.286  13.483  1.00  0.00    -0.032 C 
HETATM    8  C12 UNL     1      -2.588   4.702  14.928  1.00  0.00     0.016 C 
HETATM    9  C13 UNL     1      -3.846   5.438  12.791  1.00  0.00     0.000 C 
HETATM   10  C14 UNL     1      -4.726   6.460  13.519  1.00  0.00     0.006 C 
HETATM   11  C15 UNL     1      -4.053   7.831  13.634  1.00  0.00     0.006 C 
HETATM   12  C16 UNL     1      -2.658   7.758  14.293  1.00  0.00     0.003 C 
HETATM   13  C17 UNL     1      -2.054   9.173  14.697  1.00  0.00    -0.035 C 
HETATM   14  C18 UNL     1      -1.971  10.151  13.501  1.00  0.00     0.016 C 
HETATM   15  C19 UNL     1      -3.023   9.832  15.747  1.00  0.00     0.017 C 
HETATM   16  C20 UNL     1      -2.355  10.698  16.811  1.00  0.00     0.080 C 
HETATM   17  C21 UNL     1      -1.053  11.268  16.316  1.00  0.00     0.137 C 
HETATM   18  O3  UNL     1      -0.890  12.486  16.232  1.00  0.00    -0.297 OA
HETATM   19  C22 UNL     1       0.035  10.254  15.938  1.00  0.00     0.042 C 
HETATM   20  C23 UNL     1       1.001  10.905  14.928  1.00  0.00     0.026 C 
HETATM   21  C25 UNL     1      -0.663   8.948  15.392  1.00  0.00     0.012 C 
HETATM   22  C26 UNL     1       0.274   8.063  14.550  1.00  0.00     0.007 C 
HETATM   23  C27 UNL     1      -0.347   6.692  14.265  1.00  0.00     0.011 C 
HETATM   24  C28 UNL     1      -1.710   6.750  13.525  1.00  0.00    -0.032 C 
HETATM   25  C29 UNL     1      -1.416   7.235  12.074  1.00  0.00     0.016 C 
HETATM   26  C30 UNL     1      -4.517   4.063  12.575  1.00  0.00     0.017 C 
ENDROOT
BRANCH   4  27
HETATM   27  C8  UNL     1      -3.310   3.580  10.254  1.00  0.00     0.149 C 
HETATM   28  O1  UNL     1      -2.199   3.900   9.852  1.00  0.00    -0.649 OA
BRANCH  27  29
HETATM   29  O2  UNL     1      -4.331   3.567   9.385  1.00  0.00    -0.776 OA
HETATM   30  H11 UNL     1      -3.923   3.851   8.540  1.00  0.00     0.167 HD
ENDBRANCH  27  29
ENDBRANCH   4  27
BRANCH   1  31
HETATM   31  C2  UNL     1      -7.155   4.205  12.822  1.00  0.00    -0.088 C 
HETATM   32  C1  UNL     1      -7.413   3.592  13.989  1.00  0.00     0.014 C 
HETATM   33  C3  UNL     1      -8.125   5.223  12.276  1.00  0.00     0.043 C 
ENDBRANCH   1  31
BRANCH  19  34
HETATM   34  C24 UNL     1       0.807   9.892  17.234  1.00  0.00     0.181 C 
BRANCH  34  35
HETATM   35  O4  UNL     1       1.982   9.127  17.005  1.00  0.00    -0.400 OA
HETATM   36  H37 UNL     1       1.727   8.262  16.641  1.00  0.00     0.209 HD
ENDBRANCH  34  35
ENDBRANCH  19  34
TORSDOF 5
ENDMDL
MODEL 6
REMARK minimizedAffinity -8.31811523
REMARK  5 active torsions:
REMARK  status: ('A' for Active; 'I' for Inactive)
REMARK    1  A    between atoms: C2_2  and  C4_4 
REMARK    2  A    between atoms: C7_7  and  C8_8 
REMARK    3  A    between atoms: C8_8  and  O2_10 
REMARK    4  A    between atoms: C22_25  and  C24_27 
REMARK    5  A    between atoms: C24_27  and  O4_28 
ROOT
HETATM    1  C4  UNL     1       6.099   7.930  13.698  1.00  0.00     0.019 C 
HETATM    2  C5  UNL     1       7.302   8.145  12.739  1.00  0.00     0.011 C 
HETATM    3  C6  UNL     1       6.720   8.407  11.339  1.00  0.00     0.021 C 
HETATM    4  C7  UNL     1       5.334   7.758  11.385  1.00  0.00     0.050 C 
HETATM    5  C9  UNL     1       4.328   8.294  10.356  1.00  0.00     0.022 C 
HETATM    6  C10 UNL     1       2.911   7.754  10.646  1.00  0.00     0.011 C 
HETATM    7  C11 UNL     1       2.385   8.030  12.100  1.00  0.00    -0.032 C 
HETATM    8  C12 UNL     1       2.157   9.578  12.173  1.00  0.00     0.016 C 
HETATM    9  C13 UNL     1       3.491   7.586  13.143  1.00  0.00     0.000 C 
HETATM   10  C14 UNL     1       3.042   7.837  14.587  1.00  0.00     0.006 C 
HETATM   11  C15 UNL     1       1.714   7.147  14.911  1.00  0.00     0.006 C 
HETATM   12  C16 UNL     1       0.587   7.526  13.925  1.00  0.00     0.003 C 
HETATM   13  C17 UNL     1      -0.864   7.071  14.389  1.00  0.00    -0.035 C 
HETATM   14  C18 UNL     1      -0.956   5.551  14.663  1.00  0.00     0.016 C 
HETATM   15  C19 UNL     1      -1.186   7.790  15.751  1.00  0.00     0.017 C 
HETATM   16  C20 UNL     1      -2.649   8.162  15.974  1.00  0.00     0.080 C 
HETATM   17  C21 UNL     1      -3.569   7.251  15.206  1.00  0.00     0.137 C 
HETATM   18  O3  UNL     1      -4.393   6.548  15.792  1.00  0.00    -0.297 OA
HETATM   19  C22 UNL     1      -3.420   7.262  13.678  1.00  0.00     0.042 C 
HETATM   20  C23 UNL     1      -3.937   5.926  13.112  1.00  0.00     0.026 C 
HETATM   21  C25 UNL     1      -1.911   7.558  13.323  1.00  0.00     0.012 C 
HETATM   22  C26 UNL     1      -1.527   7.133  11.894  1.00  0.00     0.007 C 
HETATM   23  C27 UNL     1      -0.150   7.670  11.494  1.00  0.00     0.011 C 
HETATM   24  C28 UNL     1       1.006   7.224  12.430  1.00  0.00    -0.032 C 
HETATM   25  C29 UNL     1       1.216   5.699  12.191  1.00  0.00     0.016 C 
HETATM   26  C30 UNL     1       4.869   8.193  12.795  1.00  0.00     0.017 C 
ENDROOT
BRANCH   4  27
HETATM   27  C8  UNL     1       5.544   6.264  11.090  1.00  0.00     0.149 C 
HETATM   28  O1  UNL     1       5.092   5.664  10.124  1.00  0.00    -0.649 OA
BRANCH  27  29
HETATM   29  O2  UNL     1       6.316   5.598  11.960  1.00  0.00    -0.776 OA
HETATM   30  H11 UNL     1       6.344   4.687  11.599  1.00  0.00     0.167 HD
ENDBRANCH  27  29
ENDBRANCH   4  27
BRANCH   1  31
HETATM   31  C2  UNL     1       6.282   8.747  14.971  1.00  0.00    -0.088 C 
HETATM   32  C1  UNL     1       5.572   9.837  15.306  1.00  0.00     0.014 C 
HETATM   33  C3  UNL     1       7.368   8.245  15.889  1.00  0.00     0.043 C 
ENDBRANCH   1  31
BRANCH  19  34
HETATM   34  C24 UNL     1      -4.288   8.427  13.134  1.00  0.00     0.181 C 
BRANCH  34  35
HETATM   35  O4  UNL     1      -5.454   8.679  13.905  1.00  0.00    -0.400 OA
HETATM   36  H37 UNL     1      -6.043   7.906  13.846  1.00  0.00     0.209 HD
ENDBRANCH  34  35
ENDBRANCH  19  34
TORSDOF 5
ENDMDL
MODEL 7
REMARK minimizedAffinity -8.18028641
REMARK  5 active torsions:
REMARK  status: ('A' for Active; 'I' for Inactive)
REMARK    1  A    between atoms: C2_2  and  C4_4 
REMARK    2  A    between atoms: C7_7  and  C8_8 
REMARK    3  A    between atoms: C8_8  and  O2_10 
REMARK    4  A    between atoms: C22_25  and  C24_27 
REMARK    5  A    between atoms: C24_27  and  O4_28 
ROOT
HETATM    1  C4  UNL     1       3.315   8.586  12.857  1.00  0.00     0.019 C 
HETATM    2  C5  UNL     1       4.621   9.155  13.474  1.00  0.00     0.011 C 
HETATM    3  C6  UNL     1       4.311   9.506  14.939  1.00  0.00     0.021 C 
HETATM    4  C7  UNL     1       2.794   9.717  14.958  1.00  0.00     0.050 C 
HETATM    5  C9  UNL     1       2.130   9.558  16.334  1.00  0.00     0.022 C 
HETATM    6  C10 UNL     1       0.592   9.548  16.199  1.00  0.00     0.011 C 
HETATM    7  C11 UNL     1       0.024   8.472  15.206  1.00  0.00    -0.032 C 
HETATM    8  C12 UNL     1       0.293   7.090  15.892  1.00  0.00     0.016 C 
HETATM    9  C13 UNL     1       0.810   8.568  13.834  1.00  0.00     0.000 C 
HETATM   10  C14 UNL     1       0.308   7.536  12.819  1.00  0.00     0.006 C 
HETATM   11  C15 UNL     1      -1.198   7.654  12.565  1.00  0.00     0.006 C 
HETATM   12  C16 UNL     1      -2.030   7.578  13.864  1.00  0.00     0.003 C 
HETATM   13  C17 UNL     1      -3.593   7.402  13.627  1.00  0.00    -0.035 C 
HETATM   14  C18 UNL     1      -4.192   8.516  12.735  1.00  0.00     0.016 C 
HETATM   15  C19 UNL     1      -3.817   6.047  12.859  1.00  0.00     0.017 C 
HETATM   16  C20 UNL     1      -5.102   5.297  13.201  1.00  0.00     0.080 C 
HETATM   17  C21 UNL     1      -6.173   6.238  13.685  1.00  0.00     0.137 C 
HETATM   18  O3  UNL     1      -7.236   6.349  13.074  1.00  0.00    -0.297 OA
HETATM   19  C22 UNL     1      -5.860   7.026  14.964  1.00  0.00     0.042 C 
HETATM   20  C23 UNL     1      -6.710   8.312  14.983  1.00  0.00     0.026 C 
HETATM   21  C25 UNL     1      -4.306   7.295  15.022  1.00  0.00     0.012 C 
HETATM   22  C26 UNL     1      -3.923   8.451  15.964  1.00  0.00     0.007 C 
HETATM   23  C27 UNL     1      -2.411   8.510  16.201  1.00  0.00     0.011 C 
HETATM   24  C28 UNL     1      -1.567   8.673  14.908  1.00  0.00    -0.032 C 
HETATM   25  C29 UNL     1      -1.827  10.114  14.379  1.00  0.00     0.016 C 
HETATM   26  C30 UNL     1       2.339   8.544  14.058  1.00  0.00     0.017 C 
ENDROOT
BRANCH   4  27
HETATM   27  C8  UNL     1       2.550  11.160  14.491  1.00  0.00     0.149 C 
HETATM   28  O1  UNL     1       2.316  12.111  15.226  1.00  0.00    -0.649 OA
BRANCH  27  29
HETATM   29  O2  UNL     1       2.638  11.373  13.171  1.00  0.00    -0.776 OA
HETATM   30  H11 UNL     1       2.473  12.335  13.075  1.00  0.00     0.167 HD
ENDBRANCH  27  29
ENDBRANCH   4  27
BRANCH   1  31
HETATM   31  C2  UNL     1       3.606   7.307  12.082  1.00  0.00    -0.088 C 
HETATM   32  C1  UNL     1       2.683   6.511  11.517  1.00  0.00     0.014 C 
HETATM   33  C3  UNL     1       5.069   6.953  11.980  1.00  0.00     0.043 C 
ENDBRANCH   1  31
BRANCH  19  34
HETATM   34  C24 UNL     1      -6.249   6.130  16.170  1.00  0.00     0.181 C 
BRANCH  34  35
HETATM   35  O4  UNL     1      -7.133   6.759  17.087  1.00  0.00    -0.400 OA
HETATM   36  H37 UNL     1      -6.675   7.513  17.499  1.00  0.00     0.209 HD
ENDBRANCH  34  35
ENDBRANCH  19  34
TORSDOF 5
ENDMDL
MODEL 8
REMARK minimizedAffinity -8.14708424
REMARK  5 active torsions:
REMARK  status: ('A' for Active; 'I' for Inactive)
REMARK    1  A    between atoms: C2_2  and  C4_4 
REMARK    2  A    between atoms: C7_7  and  C8_8 
REMARK    3  A    between atoms: C8_8  and  O2_10 
REMARK    4  A    between atoms: C22_25  and  C24_27 
REMARK    5  A    between atoms: C24_27  and  O4_28 
ROOT
HETATM    1  C4  UNL     1      -5.014   5.110  13.001  1.00  0.00     0.019 C 
HETATM    2  C5  UNL     1      -5.930   3.861  12.881  1.00  0.00     0.011 C 
HETATM    3  C6  UNL     1      -5.024   2.671  12.522  1.00  0.00     0.021 C 
HETATM    4  C7  UNL     1      -3.802   3.319  11.865  1.00  0.00     0.050 C 
HETATM    5  C9  UNL     1      -2.524   2.467  11.880  1.00  0.00     0.022 C 
HETATM    6  C10 UNL     1      -1.308   3.300  11.420  1.00  0.00     0.011 C 
HETATM    7  C11 UNL     1      -1.074   4.627  12.226  1.00  0.00    -0.032 C 
HETATM    8  C12 UNL     1      -0.625   4.171  13.656  1.00  0.00     0.016 C 
HETATM    9  C13 UNL     1      -2.437   5.431  12.308  1.00  0.00     0.000 C 
HETATM   10  C14 UNL     1      -2.278   6.738  13.092  1.00  0.00     0.006 C 
HETATM   11  C15 UNL     1      -1.179   7.634  12.513  1.00  0.00     0.006 C 
HETATM   12  C16 UNL     1       0.180   6.911  12.395  1.00  0.00     0.003 C 
HETATM   13  C17 UNL     1       1.405   7.875  12.080  1.00  0.00    -0.035 C 
HETATM   14  C18 UNL     1       1.192   8.714  10.797  1.00  0.00     0.016 C 
HETATM   15  C19 UNL     1       1.533   8.901  13.267  1.00  0.00     0.017 C 
HETATM   16  C20 UNL     1       2.952   9.344  13.609  1.00  0.00     0.080 C 
HETATM   17  C21 UNL     1       3.861   9.244  12.413  1.00  0.00     0.137 C 
HETATM   18  O3  UNL     1       4.415  10.245  11.958  1.00  0.00    -0.297 OA
HETATM   19  C22 UNL     1       4.051   7.843  11.817  1.00  0.00     0.042 C 
HETATM   20  C23 UNL     1       4.461   7.977  10.337  1.00  0.00     0.026 C 
HETATM   21  C25 UNL     1       2.722   7.020  12.033  1.00  0.00     0.012 C 
HETATM   22  C26 UNL     1       2.596   5.808  11.092  1.00  0.00     0.007 C 
HETATM   23  C27 UNL     1       1.442   4.890  11.502  1.00  0.00     0.011 C 
HETATM   24  C28 UNL     1       0.054   5.585  11.541  1.00  0.00    -0.032 C 
HETATM   25  C29 UNL     1      -0.338   5.890  10.065  1.00  0.00     0.016 C 
HETATM   26  C30 UNL     1      -3.592   4.531  12.803  1.00  0.00     0.017 C 
ENDROOT
BRANCH   4  27
HETATM   27  C8  UNL     1      -4.177   3.563  10.395  1.00  0.00     0.149 C 
HETATM   28  O1  UNL     1      -5.314   3.728   9.972  1.00  0.00    -0.649 OA
BRANCH  27  29
HETATM   29  O2  UNL     1      -3.153   3.627   9.532  1.00  0.00    -0.776 OA
HETATM   30  H11 UNL     1      -3.583   3.802   8.669  1.00  0.00     0.167 HD
ENDBRANCH  27  29
ENDBRANCH   4  27
BRANCH   1  31
HETATM   31  C2  UNL     1      -5.338   5.887  14.270  1.00  0.00    -0.088 C 
HETATM   32  C1  UNL     1      -4.485   6.113  15.284  1.00  0.00     0.014 C 
HETATM   33  C3  UNL     1      -6.748   6.418  14.340  1.00  0.00     0.043 C 
ENDBRANCH   1  31
BRANCH  19  34
HETATM   34  C24 UNL     1       5.191   7.150  12.609  1.00  0.00     0.181 C 
BRANCH  34  35
HETATM   35  O4  UNL     1       5.798   6.072  11.911  1.00  0.00    -0.400 OA
HETATM   36  H37 UNL     1       5.140   5.365  11.790  1.00  0.00     0.209 HD
ENDBRANCH  34  35
ENDBRANCH  19  34
TORSDOF 5
ENDMDL
MODEL 9
REMARK minimizedAffinity -7.53828096
REMARK  5 active torsions:
REMARK  status: ('A' for Active; 'I' for Inactive)
REMARK    1  A    between atoms: C2_2  and  C4_4 
REMARK    2  A    between atoms: C7_7  and  C8_8 
REMARK    3  A    between atoms: C8_8  and  O2_10 
REMARK    4  A    between atoms: C22_25  and  C24_27 
REMARK    5  A    between atoms: C24_27  and  O4_28 
ROOT
HETATM    1  C4  UNL     1      -1.602   8.731  15.567  1.00  0.00     0.019 C 
HETATM    2  C5  UNL     1      -0.228   8.202  15.073  1.00  0.00     0.011 C 
HETATM    3  C6  UNL     1      -0.508   7.260  13.889  1.00  0.00     0.021 C 
HETATM    4  C7  UNL     1      -1.951   6.800  14.114  1.00  0.00     0.050 C 
HETATM    5  C9  UNL     1      -2.677   6.293  12.859  1.00  0.00     0.022 C 
HETATM    6  C10 UNL     1      -4.181   6.088  13.144  1.00  0.00     0.011 C 
HETATM    7  C11 UNL     1      -4.922   7.349  13.715  1.00  0.00    -0.032 C 
HETATM    8  C12 UNL     1      -4.958   8.379  12.535  1.00  0.00     0.016 C 
HETATM    9  C13 UNL     1      -4.089   7.933  14.930  1.00  0.00     0.000 C 
HETATM   10  C14 UNL     1      -4.756   9.175  15.530  1.00  0.00     0.006 C 
HETATM   11  C15 UNL     1      -6.199   8.906  15.969  1.00  0.00     0.006 C 
HETATM   12  C16 UNL     1      -7.070   8.324  14.835  1.00  0.00     0.003 C 
HETATM   13  C17 UNL     1      -8.627   8.305  15.154  1.00  0.00    -0.035 C 
HETATM   14  C18 UNL     1      -8.962   7.541  16.457  1.00  0.00     0.016 C 
HETATM   15  C19 UNL     1      -9.096   9.791  15.376  1.00  0.00     0.017 C 
HETATM   16  C20 UNL     1     -10.515  10.114  14.918  1.00  0.00     0.080 C 
HETATM   17  C21 UNL     1     -11.390   8.889  14.940  1.00  0.00     0.137 C 
HETATM   18  O3  UNL     1     -12.389   8.842  15.658  1.00  0.00    -0.297 OA
HETATM   19  C22 UNL     1     -10.966   7.732  14.025  1.00  0.00     0.042 C 
HETATM   20  C23 UNL     1     -11.539   6.414  14.581  1.00  0.00     0.026 C 
HETATM   21  C25 UNL     1      -9.392   7.736  13.906  1.00  0.00     0.012 C 
HETATM   22  C26 UNL     1      -8.814   6.389  13.432  1.00  0.00     0.007 C 
HETATM   23  C27 UNL     1      -7.330   6.505  13.074  1.00  0.00     0.011 C 
HETATM   24  C28 UNL     1      -6.430   7.008  14.235  1.00  0.00    -0.032 C 
HETATM   25  C29 UNL     1      -6.378   5.864  15.291  1.00  0.00     0.016 C 
HETATM   26  C30 UNL     1      -2.604   8.133  14.550  1.00  0.00     0.017 C 
ENDROOT
BRANCH   4  27
HETATM   27  C8  UNL     1      -1.885   5.633  15.112  1.00  0.00     0.149 C 
HETATM   28  O1  UNL     1      -2.851   5.105  15.648  1.00  0.00    -0.649 OA
BRANCH  27  29
HETATM   29  O2  UNL     1      -0.661   5.153  15.372  1.00  0.00    -0.776 OA
HETATM   30  H11 UNL     1      -0.825   4.419  16.001  1.00  0.00     0.167 HD
ENDBRANCH  27  29
ENDBRANCH   4  27
BRANCH   1  31
HETATM   31  C2  UNL     1      -1.550  10.240  15.769  1.00  0.00    -0.088 C 
HETATM   32  C1  UNL     1      -1.678  10.874  16.946  1.00  0.00     0.014 C 
HETATM   33  C3  UNL     1      -1.340  11.036  14.504  1.00  0.00     0.043 C 
ENDBRANCH   1  31
BRANCH  19  34
HETATM   34  C24 UNL     1     -11.565   8.005  12.620  1.00  0.00     0.181 C 
BRANCH  34  35
HETATM   35  O4  UNL     1     -11.475   9.364  12.216  1.00  0.00    -0.400 OA
HETATM   36  H37 UNL     1     -12.025   9.905  12.809  1.00  0.00     0.209 HD
ENDBRANCH  34  35
ENDBRANCH  19  34
TORSDOF 5
ENDMDL
