MODEL 1
REMARK minimizedAffinity -8.57018852
REMARK CNNscore 0.749480247
REMARK CNNaffinity 6.90897799
REMARK  8 active torsions:
REMARK  status: ('A' for Active; 'I' for Inactive)
REMARK    1  A    between atoms: O1_2  and  C2_3 
REMARK    2  A    between atoms: C2_3  and  C3_4 
REMARK    3  A    between atoms: C7_8  and  C8_9 
REMARK    4  A    between atoms: C8_9  and  C9_10 
REMARK    5  A    between atoms: C8_9  and  C10_12 
REMARK    6  A    between atoms: C9_10  and  O2_11 
REMARK    7  A    between atoms: C19_21  and  S1_22 
REMARK    8  A    between atoms: S1_22  and  O5_25 
ROOT
HETATM    1  C10 UNL     1     -10.018  47.669 -28.930  1.00  0.00     0.003 C 
HETATM    2  C11 UNL     1     -11.027  47.912 -30.065  1.00  0.00     0.006 C 
HETATM    3  C12 UNL     1     -12.380  47.580 -29.454  1.00  0.00     0.006 C 
HETATM    4  C13 UNL     1     -12.072  46.255 -28.761  1.00  0.00    -0.001 C 
HETATM    5  C14 UNL     1     -13.189  45.632 -27.887  1.00  0.00    -0.001 C 
HETATM    6  C15 UNL     1     -14.537  45.627 -28.626  1.00  0.00     0.033 C 
HETATM    7  C16 UNL     1     -15.694  45.218 -27.774  1.00  0.00    -0.022 C 
HETATM    8  C17 UNL     1     -15.661  45.143 -26.433  1.00  0.00    -0.066 C 
HETATM    9  C18 UNL     1     -16.919  44.791 -25.662  1.00  0.00     0.057 C 
HETATM   10  C19 UNL     1     -17.241  45.815 -24.563  1.00  0.00     0.132 C 
HETATM   11  C20 UNL     1     -16.270  46.987 -24.544  1.00  0.00     0.101 C 
HETATM   12  C21 UNL     1     -14.866  46.433 -24.474  1.00  0.00     0.141 C 
HETATM   13  O6  UNL     1     -14.132  46.738 -23.533  1.00  0.00    -0.297 OA
HETATM   14  C22 UNL     1     -14.410  45.488 -25.612  1.00  0.00     0.044 C 
HETATM   15  C23 UNL     1     -13.876  44.191 -24.974  1.00  0.00     0.029 C 
HETATM   16  C24 UNL     1     -13.327  46.244 -26.475  1.00  0.00     0.010 C 
HETATM   17  C25 UNL     1     -11.942  46.293 -25.801  1.00  0.00     0.007 C 
HETATM   18  C26 UNL     1     -10.943  47.095 -26.626  1.00  0.00     0.010 C 
HETATM   19  C27 UNL     1     -10.709  46.532 -28.050  1.00  0.00    -0.036 C 
HETATM   20  C28 UNL     1      -9.933  45.204 -27.981  1.00  0.00     0.016 C 
ENDROOT
BRANCH   1  21
HETATM   21  C8  UNL     1      -8.526  47.464 -29.363  1.00  0.00     0.044 C 
BRANCH  21  22
HETATM   22  C7  UNL     1      -7.491  47.985 -28.306  1.00  0.00     0.142 C 
HETATM   23  C6  UNL     1      -7.559  47.284 -26.949  1.00  0.00     0.067 C 
HETATM   24  C4  UNL     1      -6.403  47.697 -26.075  1.00  0.00    -0.067 C 
HETATM   25  C3  UNL     1      -5.251  48.143 -26.623  1.00  0.00     0.043 C 
HETATM   26  C5  UNL     1      -6.647  47.537 -24.600  1.00  0.00     0.044 C 
HETATM   27  C29 UNL     1      -5.075  48.075 -28.101  1.00  0.00     0.292 C 
HETATM   28  O7  UNL     1      -6.167  47.780 -28.844  1.00  0.00    -0.311 OA
HETATM   29  O8  UNL     1      -3.977  48.233 -28.624  1.00  0.00    -0.260 OA
BRANCH  25  30
HETATM   30  C2  UNL     1      -4.018  48.674 -25.932  1.00  0.00     0.212 C 
BRANCH  30  31
HETATM   31  O1  UNL     1      -4.208  49.996 -25.421  1.00  0.00    -0.391 OA
HETATM   32  C1  UNL     1      -3.258  50.903 -25.960  1.00  0.00     0.201 C 
ENDBRANCH  30  31
ENDBRANCH  25  30
ENDBRANCH  21  22
BRANCH  21  33
HETATM   33  C9  UNL     1      -8.291  45.969 -29.654  1.00  0.00     0.171 C 
BRANCH  33  34
HETATM   34  O2  UNL     1      -8.461  45.690 -31.038  1.00  0.00    -0.400 OA
HETATM   35  H15 UNL     1      -9.402  45.820 -31.246  1.00  0.00     0.209 HD
ENDBRANCH  33  34
ENDBRANCH  21  33
ENDBRANCH   1  21
BRANCH  10  36
HETATM   36  S1  UNL     1     -18.931  46.389 -24.736  1.00  0.00     0.099 S 
HETATM   37  O3  UNL     1     -19.795  45.670 -23.830  1.00  0.00    -0.601 OA
HETATM   38  O4  UNL     1     -18.944  47.831 -24.841  1.00  0.00    -0.601 OA
BRANCH  36  39
HETATM   39  O5  UNL     1     -19.219  45.851 -26.230  1.00  0.00    -0.295 OA
HETATM   40  H29 UNL     1     -19.622  46.585 -26.744  1.00  0.00     0.232 HD
ENDBRANCH  36  39
ENDBRANCH  10  36
TORSDOF 8
ENDMDL
MODEL 2
REMARK minimizedAffinity -7.65396643
REMARK CNNscore 0.727716804
REMARK CNNaffinity 6.70981169
REMARK  8 active torsions:
REMARK  status: ('A' for Active; 'I' for Inactive)
REMARK    1  A    between atoms: O1_2  and  C2_3 
REMARK    2  A    between atoms: C2_3  and  C3_4 
REMARK    3  A    between atoms: C7_8  and  C8_9 
REMARK    4  A    between atoms: C8_9  and  C9_10 
REMARK    5  A    between atoms: C8_9  and  C10_12 
REMARK    6  A    between atoms: C9_10  and  O2_11 
REMARK    7  A    between atoms: C19_21  and  S1_22 
REMARK    8  A    between atoms: S1_22  and  O5_25 
ROOT
HETATM    1  C10 UNL     1      -1.239  52.982 -11.020  1.00  0.00     0.003 C 
HETATM    2  C11 UNL     1      -0.134  52.771 -12.069  1.00  0.00     0.006 C 
HETATM    3  C12 UNL     1       1.131  53.295 -11.406  1.00  0.00     0.006 C 
HETATM    4  C13 UNL     1       0.637  54.625 -10.840  1.00  0.00    -0.001 C 
HETATM    5  C14 UNL     1       1.618  55.430  -9.953  1.00  0.00    -0.001 C 
HETATM    6  C15 UNL     1       3.005  55.532 -10.607  1.00  0.00     0.033 C 
HETATM    7  C16 UNL     1       4.050  56.128  -9.722  1.00  0.00    -0.022 C 
HETATM    8  C17 UNL     1       3.917  56.295  -8.396  1.00  0.00    -0.066 C 
HETATM    9  C18 UNL     1       5.076  56.841  -7.581  1.00  0.00     0.057 C 
HETATM   10  C19 UNL     1       5.428  55.941  -6.386  1.00  0.00     0.132 C 
HETATM   11  C20 UNL     1       4.588  54.673  -6.332  1.00  0.00     0.101 C 
HETATM   12  C21 UNL     1       3.132  55.071  -6.392  1.00  0.00     0.141 C 
HETATM   13  O6  UNL     1       2.371  54.756  -5.475  1.00  0.00    -0.297 OA
HETATM   14  C22 UNL     1       2.657  55.874  -7.627  1.00  0.00     0.044 C 
HETATM   15  C23 UNL     1       1.945  57.147  -7.128  1.00  0.00     0.029 C 
HETATM   16  C24 UNL     1       1.723  54.942  -8.491  1.00  0.00     0.010 C 
HETATM   17  C25 UNL     1       0.308  54.787  -7.900  1.00  0.00     0.007 C 
HETATM   18  C26 UNL     1      -0.541  53.822  -8.718  1.00  0.00     0.010 C 
HETATM   19  C27 UNL     1      -0.735  54.251 -10.194  1.00  0.00    -0.036 C 
HETATM   20  C28 UNL     1      -1.651  55.485 -10.278  1.00  0.00     0.016 C 
ENDROOT
BRANCH   1  21
HETATM   21  C8  UNL     1      -2.711  52.987 -11.557  1.00  0.00     0.044 C 
BRANCH  21  22
HETATM   22  C7  UNL     1      -3.060  51.740 -12.441  1.00  0.00     0.142 C 
HETATM   23  C6  UNL     1      -2.622  51.853 -13.902  1.00  0.00     0.067 C 
HETATM   24  C4  UNL     1      -2.807  50.540 -14.618  1.00  0.00    -0.067 C 
HETATM   25  C3  UNL     1      -2.810  49.377 -13.931  1.00  0.00     0.043 C 
HETATM   26  C5  UNL     1      -2.949  50.658 -16.111  1.00  0.00     0.044 C 
HETATM   27  C29 UNL     1      -2.472  49.387 -12.480  1.00  0.00     0.292 C 
HETATM   28  O7  UNL     1      -2.400  50.592 -11.868  1.00  0.00    -0.311 OA
HETATM   29  O8  UNL     1      -2.223  48.352 -11.872  1.00  0.00    -0.260 OA
BRANCH  25  30
HETATM   30  C2  UNL     1      -3.057  47.977 -14.443  1.00  0.00     0.212 C 
BRANCH  30  31
HETATM   31  O1  UNL     1      -2.044  47.546 -15.356  1.00  0.00    -0.391 OA
HETATM   32  C1  UNL     1      -2.610  46.973 -16.526  1.00  0.00     0.201 C 
ENDBRANCH  30  31
ENDBRANCH  25  30
ENDBRANCH  21  22
BRANCH  21  33
HETATM   33  C9  UNL     1      -3.679  53.087 -10.361  1.00  0.00     0.171 C 
BRANCH  33  34
HETATM   34  O2  UNL     1      -4.741  52.150 -10.490  1.00  0.00    -0.400 OA
HETATM   35  H15 UNL     1      -5.283  52.430 -11.248  1.00  0.00     0.209 HD
ENDBRANCH  33  34
ENDBRANCH  21  33
ENDBRANCH   1  21
BRANCH  10  36
HETATM   36  S1  UNL     1       7.177  55.548  -6.411  1.00  0.00     0.099 S 
HETATM   37  O3  UNL     1       7.941  56.649  -5.872  1.00  0.00    -0.601 OA
HETATM   38  O4  UNL     1       7.372  54.182  -5.977  1.00  0.00    -0.601 OA
BRANCH  36  39
HETATM   39  O5  UNL     1       7.399  55.524  -8.009  1.00  0.00    -0.295 OA
HETATM   40  H29 UNL     1       7.893  54.705  -8.233  1.00  0.00     0.232 HD
ENDBRANCH  36  39
ENDBRANCH  10  36
TORSDOF 8
ENDMDL
MODEL 3
REMARK minimizedAffinity -8.32686043
REMARK CNNscore 0.637723923
REMARK CNNaffinity 6.58844566
REMARK  8 active torsions:
REMARK  status: ('A' for Active; 'I' for Inactive)
REMARK    1  A    between atoms: O1_2  and  C2_3 
REMARK    2  A    between atoms: C2_3  and  C3_4 
REMARK    3  A    between atoms: C7_8  and  C8_9 
REMARK    4  A    between atoms: C8_9  and  C9_10 
REMARK    5  A    between atoms: C8_9  and  C10_12 
REMARK    6  A    between atoms: C9_10  and  O2_11 
REMARK    7  A    between atoms: C19_21  and  S1_22 
REMARK    8  A    between atoms: S1_22  and  O5_25 
ROOT
HETATM    1  C10 UNL     1      -9.116  47.364 -29.161  1.00  0.00     0.003 C 
HETATM    2  C11 UNL     1      -8.603  48.687 -29.753  1.00  0.00     0.006 C 
HETATM    3  C12 UNL     1      -8.882  48.573 -31.244  1.00  0.00     0.006 C 
HETATM    4  C13 UNL     1      -8.360  47.168 -31.535  1.00  0.00    -0.001 C 
HETATM    5  C14 UNL     1      -8.586  46.605 -32.959  1.00  0.00    -0.001 C 
HETATM    6  C15 UNL     1      -8.187  47.630 -34.034  1.00  0.00     0.033 C 
HETATM    7  C16 UNL     1      -8.558  47.227 -35.423  1.00  0.00    -0.022 C 
HETATM    8  C17 UNL     1      -9.411  46.233 -35.725  1.00  0.00    -0.066 C 
HETATM    9  C18 UNL     1      -9.775  45.960 -37.172  1.00  0.00     0.057 C 
HETATM   10  C19 UNL     1     -11.295  45.937 -37.401  1.00  0.00     0.132 C 
HETATM   11  C20 UNL     1     -12.087  46.265 -36.143  1.00  0.00     0.101 C 
HETATM   12  C21 UNL     1     -11.619  45.347 -35.039  1.00  0.00     0.141 C 
HETATM   13  O6  UNL     1     -12.422  44.596 -34.483  1.00  0.00    -0.297 OA
HETATM   14  C22 UNL     1     -10.120  45.394 -34.653  1.00  0.00     0.044 C 
HETATM   15  C23 UNL     1      -9.563  43.958 -34.713  1.00  0.00     0.029 C 
HETATM   16  C24 UNL     1     -10.002  46.043 -33.221  1.00  0.00     0.010 C 
HETATM   17  C25 UNL     1     -10.386  45.076 -32.083  1.00  0.00     0.007 C 
HETATM   18  C26 UNL     1     -10.332  45.759 -30.722  1.00  0.00     0.010 C 
HETATM   19  C27 UNL     1      -8.937  46.321 -30.355  1.00  0.00    -0.036 C 
HETATM   20  C28 UNL     1      -7.952  45.172 -30.072  1.00  0.00     0.016 C 
ENDROOT
BRANCH   1  21
HETATM   21  C8  UNL     1      -8.555  46.973 -27.750  1.00  0.00     0.044 C 
BRANCH  21  22
HETATM   22  C7  UNL     1      -7.287  47.794 -27.331  1.00  0.00     0.142 C 
HETATM   23  C6  UNL     1      -6.774  47.497 -25.921  1.00  0.00     0.067 C 
HETATM   24  C4  UNL     1      -5.445  48.167 -25.684  1.00  0.00    -0.067 C 
HETATM   25  C3  UNL     1      -4.634  48.473 -26.720  1.00  0.00     0.043 C 
HETATM   26  C5  UNL     1      -5.123  48.419 -24.236  1.00  0.00     0.044 C 
HETATM   27  C29 UNL     1      -4.991  48.001 -28.088  1.00  0.00     0.292 C 
HETATM   28  O7  UNL     1      -6.229  47.482 -28.262  1.00  0.00    -0.311 OA
HETATM   29  O8  UNL     1      -4.184  48.036 -29.009  1.00  0.00    -0.260 OA
BRANCH  25  30
HETATM   30  C2  UNL     1      -3.314  49.207 -26.704  1.00  0.00     0.212 C 
BRANCH  30  31
HETATM   31  O1  UNL     1      -3.480  50.620 -26.547  1.00  0.00    -0.391 OA
HETATM   32  C1  UNL     1      -2.761  51.339 -27.538  1.00  0.00     0.201 C 
ENDBRANCH  30  31
ENDBRANCH  25  30
ENDBRANCH  21  22
BRANCH  21  33
HETATM   33  C9  UNL     1      -9.675  47.141 -26.703  1.00  0.00     0.171 C 
BRANCH  33  34
HETATM   34  O2  UNL     1     -10.301  45.895 -26.427  1.00  0.00    -0.400 OA
HETATM   35  H15 UNL     1     -10.777  45.626 -27.232  1.00  0.00     0.209 HD
ENDBRANCH  33  34
ENDBRANCH  21  33
ENDBRANCH   1  21
BRANCH  10  36
HETATM   36  S1  UNL     1     -11.730  47.049 -38.738  1.00  0.00     0.099 S 
HETATM   37  O3  UNL     1     -11.565  48.420 -38.317  1.00  0.00    -0.601 OA
HETATM   38  O4  UNL     1     -11.185  46.548 -39.980  1.00  0.00    -0.601 OA
BRANCH  36  39
HETATM   39  O5  UNL     1     -13.312  46.737 -38.811  1.00  0.00    -0.295 OA
HETATM   40  H29 UNL     1     -13.547  46.584 -39.752  1.00  0.00     0.232 HD
ENDBRANCH  36  39
ENDBRANCH  10  36
TORSDOF 8
ENDMDL
MODEL 4
REMARK minimizedAffinity -7.80608177
REMARK CNNscore 0.571134806
REMARK CNNaffinity 6.35624838
REMARK  8 active torsions:
REMARK  status: ('A' for Active; 'I' for Inactive)
REMARK    1  A    between atoms: O1_2  and  C2_3 
REMARK    2  A    between atoms: C2_3  and  C3_4 
REMARK    3  A    between atoms: C7_8  and  C8_9 
REMARK    4  A    between atoms: C8_9  and  C9_10 
REMARK    5  A    between atoms: C8_9  and  C10_12 
REMARK    6  A    between atoms: C9_10  and  O2_11 
REMARK    7  A    between atoms: C19_21  and  S1_22 
REMARK    8  A    between atoms: S1_22  and  O5_25 
ROOT
HETATM    1  C10 UNL     1      -2.659  49.441 -22.518  1.00  0.00     0.003 C 
HETATM    2  C11 UNL     1      -1.593  48.505 -21.925  1.00  0.00     0.006 C 
HETATM    3  C12 UNL     1      -2.333  47.204 -21.651  1.00  0.00     0.006 C 
HETATM    4  C13 UNL     1      -3.593  47.723 -20.961  1.00  0.00    -0.001 C 
HETATM    5  C14 UNL     1      -4.699  46.691 -20.629  1.00  0.00    -0.001 C 
HETATM    6  C15 UNL     1      -4.111  45.443 -19.951  1.00  0.00     0.033 C 
HETATM    7  C16 UNL     1      -5.091  44.329 -19.778  1.00  0.00    -0.022 C 
HETATM    8  C17 UNL     1      -6.282  44.262 -20.396  1.00  0.00    -0.066 C 
HETATM    9  C18 UNL     1      -7.167  43.044 -20.205  1.00  0.00     0.057 C 
HETATM   10  C19 UNL     1      -7.603  42.421 -21.541  1.00  0.00     0.132 C 
HETATM   11  C20 UNL     1      -6.992  43.119 -22.747  1.00  0.00     0.101 C 
HETATM   12  C21 UNL     1      -7.286  44.596 -22.635  1.00  0.00     0.141 C 
HETATM   13  O6  UNL     1      -7.917  45.167 -23.526  1.00  0.00    -0.297 OA
HETATM   14  C22 UNL     1      -6.771  45.337 -21.376  1.00  0.00     0.044 C 
HETATM   15  C23 UNL     1      -7.961  46.075 -20.732  1.00  0.00     0.029 C 
HETATM   16  C24 UNL     1      -5.608  46.307 -21.817  1.00  0.00     0.010 C 
HETATM   17  C25 UNL     1      -6.116  47.588 -22.508  1.00  0.00     0.007 C 
HETATM   18  C26 UNL     1      -4.965  48.463 -22.987  1.00  0.00     0.010 C 
HETATM   19  C27 UNL     1      -4.018  48.932 -21.855  1.00  0.00    -0.036 C 
HETATM   20  C28 UNL     1      -4.726  49.960 -20.954  1.00  0.00     0.016 C 
ENDROOT
BRANCH   1  21
HETATM   21  C8  UNL     1      -2.341  50.975 -22.465  1.00  0.00     0.044 C 
BRANCH  21  22
HETATM   22  C7  UNL     1      -1.714  51.438 -21.105  1.00  0.00     0.142 C 
HETATM   23  C6  UNL     1      -1.104  50.311 -20.269  1.00  0.00     0.067 C 
HETATM   24  C4  UNL     1      -0.347  50.869 -19.091  1.00  0.00    -0.067 C 
HETATM   25  C3  UNL     1       0.156  52.123 -19.129  1.00  0.00     0.043 C 
HETATM   26  C5  UNL     1      -0.194  49.915 -17.939  1.00  0.00     0.044 C 
HETATM   27  C29 UNL     1       0.095  52.895 -20.402  1.00  0.00     0.292 C 
HETATM   28  O7  UNL     1      -0.667  52.387 -21.399  1.00  0.00    -0.311 OA
HETATM   29  O8  UNL     1       0.743  53.922 -20.561  1.00  0.00    -0.260 OA
BRANCH  25  30
HETATM   30  C2  UNL     1       0.868  52.889 -18.039  1.00  0.00     0.212 C 
BRANCH  30  31
HETATM   31  O1  UNL     1       1.384  52.030 -17.018  1.00  0.00    -0.391 OA
HETATM   32  C1  UNL     1       2.586  52.546 -16.465  1.00  0.00     0.201 C 
ENDBRANCH  30  31
ENDBRANCH  25  30
ENDBRANCH  21  22
BRANCH  21  33
HETATM   33  C9  UNL     1      -1.405  51.332 -23.638  1.00  0.00     0.171 C 
BRANCH  33  34
HETATM   34  O2  UNL     1      -1.713  52.619 -24.157  1.00  0.00    -0.400 OA
HETATM   35  H15 UNL     1      -2.591  52.561 -24.572  1.00  0.00     0.209 HD
ENDBRANCH  33  34
ENDBRANCH  21  33
ENDBRANCH   1  21
BRANCH  10  36
HETATM   36  S1  UNL     1      -7.219  40.670 -21.554  1.00  0.00     0.099 S 
HETATM   37  O3  UNL     1      -7.858  40.013 -20.438  1.00  0.00    -0.601 OA
HETATM   38  O4  UNL     1      -7.308  40.165 -22.906  1.00  0.00    -0.601 OA
BRANCH  36  39
HETATM   39  O5  UNL     1      -5.639  40.764 -21.237  1.00  0.00    -0.295 OA
HETATM   40  H29 UNL     1      -5.167  40.192 -21.881  1.00  0.00     0.232 HD
ENDBRANCH  36  39
ENDBRANCH  10  36
TORSDOF 8
ENDMDL
MODEL 5
REMARK minimizedAffinity -7.9102807
REMARK CNNscore 0.556252956
REMARK CNNaffinity 6.67289114
REMARK  8 active torsions:
REMARK  status: ('A' for Active; 'I' for Inactive)
REMARK    1  A    between atoms: O1_2  and  C2_3 
REMARK    2  A    between atoms: C2_3  and  C3_4 
REMARK    3  A    between atoms: C7_8  and  C8_9 
REMARK    4  A    between atoms: C8_9  and  C9_10 
REMARK    5  A    between atoms: C8_9  and  C10_12 
REMARK    6  A    between atoms: C9_10  and  O2_11 
REMARK    7  A    between atoms: C19_21  and  S1_22 
REMARK    8  A    between atoms: S1_22  and  O5_25 
ROOT
HETATM    1  C10 UNL     1      -1.254  52.449 -11.170  1.00  0.00     0.003 C 
HETATM    2  C11 UNL     1      -0.064  52.400 -12.142  1.00  0.00     0.006 C 
HETATM    3  C12 UNL     1       1.060  53.117 -11.409  1.00  0.00     0.006 C 
HETATM    4  C13 UNL     1       0.334  54.360 -10.901  1.00  0.00    -0.001 C 
HETATM    5  C14 UNL     1       1.121  55.313  -9.968  1.00  0.00    -0.001 C 
HETATM    6  C15 UNL     1       2.517  55.620 -10.534  1.00  0.00     0.033 C 
HETATM    7  C16 UNL     1       3.399  56.376  -9.595  1.00  0.00    -0.022 C 
HETATM    8  C17 UNL     1       3.155  56.533  -8.283  1.00  0.00    -0.066 C 
HETATM    9  C18 UNL     1       4.160  57.256  -7.406  1.00  0.00     0.057 C 
HETATM   10  C19 UNL     1       4.566  56.430  -6.175  1.00  0.00     0.132 C 
HETATM   11  C20 UNL     1       3.926  55.050  -6.151  1.00  0.00     0.101 C 
HETATM   12  C21 UNL     1       2.434  55.220  -6.311  1.00  0.00     0.141 C 
HETATM   13  O6  UNL     1       1.670  54.801  -5.440  1.00  0.00    -0.297 OA
HETATM   14  C22 UNL     1       1.925  55.931  -7.589  1.00  0.00     0.044 C 
HETATM   15  C23 UNL     1       0.997  57.084  -7.161  1.00  0.00     0.029 C 
HETATM   16  C24 UNL     1       1.202  54.859  -8.493  1.00  0.00     0.010 C 
HETATM   17  C25 UNL     1      -0.209  54.496  -7.992  1.00  0.00     0.007 C 
HETATM   18  C26 UNL     1      -0.845  53.405  -8.844  1.00  0.00     0.010 C 
HETATM   19  C27 UNL     1      -1.005  53.786 -10.337  1.00  0.00    -0.036 C 
HETATM   20  C28 UNL     1      -2.090  54.866 -10.502  1.00  0.00     0.016 C 
ENDROOT
BRANCH   1  21
HETATM   21  C8  UNL     1      -2.672  52.225 -11.800  1.00  0.00     0.044 C 
BRANCH  21  22
HETATM   22  C7  UNL     1      -3.356  50.889 -11.345  1.00  0.00     0.142 C 
HETATM   23  C6  UNL     1      -4.801  51.044 -10.870  1.00  0.00     0.067 C 
HETATM   24  C4  UNL     1      -5.440  49.696 -10.654  1.00  0.00    -0.067 C 
HETATM   25  C3  UNL     1      -4.987  48.607 -11.314  1.00  0.00     0.043 C 
HETATM   26  C5  UNL     1      -6.598  49.700  -9.696  1.00  0.00     0.044 C 
HETATM   27  C29 UNL     1      -3.955  48.775 -12.375  1.00  0.00     0.292 C 
HETATM   28  O7  UNL     1      -3.354  49.985 -12.470  1.00  0.00    -0.311 OA
HETATM   29  O8  UNL     1      -3.691  47.874 -13.162  1.00  0.00    -0.260 OA
BRANCH  25  30
HETATM   30  C2  UNL     1      -5.431  47.169 -11.183  1.00  0.00     0.212 C 
BRANCH  30  31
HETATM   31  O1  UNL     1      -6.302  46.770 -12.245  1.00  0.00    -0.391 OA
HETATM   32  C1  UNL     1      -7.635  47.199 -12.012  1.00  0.00     0.201 C 
ENDBRANCH  30  31
ENDBRANCH  25  30
ENDBRANCH  21  22
BRANCH  21  33
HETATM   33  C9  UNL     1      -3.568  53.432 -11.456  1.00  0.00     0.171 C 
BRANCH  33  34
HETATM   34  O2  UNL     1      -4.210  53.934 -12.621  1.00  0.00    -0.400 OA
HETATM   35  H15 UNL     1      -3.520  54.314 -13.191  1.00  0.00     0.209 HD
ENDBRANCH  33  34
ENDBRANCH  21  33
ENDBRANCH   1  21
BRANCH  10  36
HETATM   36  S1  UNL     1       6.352  56.309  -6.080  1.00  0.00     0.099 S 
HETATM   37  O3  UNL     1       6.737  55.562  -4.906  1.00  0.00    -0.601 OA
HETATM   38  O4  UNL     1       6.887  56.022  -7.392  1.00  0.00    -0.601 OA
BRANCH  36  39
HETATM   39  O5  UNL     1       6.689  57.864  -5.813  1.00  0.00    -0.295 OA
HETATM   40  H29 UNL     1       7.406  58.129  -6.430  1.00  0.00     0.232 HD
ENDBRANCH  36  39
ENDBRANCH  10  36
TORSDOF 8
ENDMDL
MODEL 6
REMARK minimizedAffinity -9.34918118
REMARK CNNscore 0.54674536
REMARK CNNaffinity 7.148561
REMARK  8 active torsions:
REMARK  status: ('A' for Active; 'I' for Inactive)
REMARK    1  A    between atoms: O1_2  and  C2_3 
REMARK    2  A    between atoms: C2_3  and  C3_4 
REMARK    3  A    between atoms: C7_8  and  C8_9 
REMARK    4  A    between atoms: C8_9  and  C9_10 
REMARK    5  A    between atoms: C8_9  and  C10_12 
REMARK    6  A    between atoms: C9_10  and  O2_11 
REMARK    7  A    between atoms: C19_21  and  S1_22 
REMARK    8  A    between atoms: S1_22  and  O5_25 
ROOT
HETATM    1  C10 UNL     1      -0.555  50.941 -21.532  1.00  0.00     0.003 C 
HETATM    2  C11 UNL     1       0.616  51.938 -21.537  1.00  0.00     0.006 C 
HETATM    3  C12 UNL     1       1.188  51.865 -20.129  1.00  0.00     0.006 C 
HETATM    4  C13 UNL     1      -0.086  51.942 -19.290  1.00  0.00    -0.001 C 
HETATM    5  C14 UNL     1       0.058  51.764 -17.759  1.00  0.00    -0.001 C 
HETATM    6  C15 UNL     1       1.199  52.631 -17.202  1.00  0.00     0.033 C 
HETATM    7  C16 UNL     1       1.518  52.364 -15.767  1.00  0.00    -0.022 C 
HETATM    8  C17 UNL     1       1.090  51.292 -15.080  1.00  0.00    -0.066 C 
HETATM    9  C18 UNL     1       1.540  51.082 -13.646  1.00  0.00     0.057 C 
HETATM   10  C19 UNL     1       2.151  49.689 -13.420  1.00  0.00     0.132 C 
HETATM   11  C20 UNL     1       2.233  48.866 -14.698  1.00  0.00     0.101 C 
HETATM   12  C21 UNL     1       0.862  48.839 -15.330  1.00  0.00     0.141 C 
HETATM   13  O6  UNL     1       0.296  47.762 -15.524  1.00  0.00    -0.297 OA
HETATM   14  C22 UNL     1       0.220  50.195 -15.709  1.00  0.00     0.044 C 
HETATM   15  C23 UNL     1      -1.180  50.260 -15.069  1.00  0.00     0.029 C 
HETATM   16  C24 UNL     1       0.184  50.300 -17.283  1.00  0.00     0.010 C 
HETATM   17  C25 UNL     1      -0.937  49.456 -17.921  1.00  0.00     0.007 C 
HETATM   18  C26 UNL     1      -0.893  49.521 -19.442  1.00  0.00     0.010 C 
HETATM   19  C27 UNL     1      -1.052  50.951 -20.016  1.00  0.00    -0.036 C 
HETATM   20  C28 UNL     1      -2.491  51.456 -19.808  1.00  0.00     0.016 C 
ENDROOT
BRANCH   1  21
HETATM   21  C8  UNL     1      -1.626  51.125 -22.661  1.00  0.00     0.044 C 
BRANCH  21  22
HETATM   22  C7  UNL     1      -1.087  51.895 -23.916  1.00  0.00     0.142 C 
HETATM   23  C6  UNL     1       0.115  51.240 -24.597  1.00  0.00     0.067 C 
HETATM   24  C4  UNL     1       0.430  51.927 -25.901  1.00  0.00    -0.067 C 
HETATM   25  C3  UNL     1      -0.530  52.600 -26.574  1.00  0.00     0.043 C 
HETATM   26  C5  UNL     1       1.851  51.764 -26.365  1.00  0.00     0.044 C 
HETATM   27  C29 UNL     1      -1.940  52.526 -26.098  1.00  0.00     0.292 C 
HETATM   28  O7  UNL     1      -2.157  51.972 -24.882  1.00  0.00    -0.311 OA
HETATM   29  O8  UNL     1      -2.873  52.906 -26.796  1.00  0.00    -0.260 OA
BRANCH  25  30
HETATM   30  C2  UNL     1      -0.404  53.413 -27.841  1.00  0.00     0.212 C 
BRANCH  30  31
HETATM   31  O1  UNL     1      -0.812  54.772 -27.657  1.00  0.00    -0.391 OA
HETATM   32  C1  UNL     1       0.073  55.467 -26.793  1.00  0.00     0.201 C 
ENDBRANCH  30  31
ENDBRANCH  25  30
ENDBRANCH  21  22
BRANCH  21  33
HETATM   33  C9  UNL     1      -2.163  49.739 -23.071  1.00  0.00     0.171 C 
BRANCH  33  34
HETATM   34  O2  UNL     1      -3.409  49.472 -22.439  1.00  0.00    -0.400 OA
HETATM   35  H15 UNL     1      -3.236  49.379 -21.486  1.00  0.00     0.209 HD
ENDBRANCH  33  34
ENDBRANCH  21  33
ENDBRANCH   1  21
BRANCH  10  36
HETATM   36  S1  UNL     1       3.764  49.845 -12.654  1.00  0.00     0.099 S 
HETATM   37  O3  UNL     1       4.801  49.720 -13.651  1.00  0.00    -0.601 OA
HETATM   38  O4  UNL     1       3.740  50.923 -11.691  1.00  0.00    -0.601 OA
BRANCH  36  39
HETATM   39  O5  UNL     1       3.750  48.490 -11.778  1.00  0.00    -0.295 OA
HETATM   40  H29 UNL     1       4.033  48.717 -10.865  1.00  0.00     0.232 HD
ENDBRANCH  36  39
ENDBRANCH  10  36
TORSDOF 8
ENDMDL
MODEL 7
REMARK minimizedAffinity -10.2074041
REMARK CNNscore 0.43696779
REMARK CNNaffinity 6.8245244
REMARK  8 active torsions:
REMARK  status: ('A' for Active; 'I' for Inactive)
REMARK    1  A    between atoms: O1_2  and  C2_3 
REMARK    2  A    between atoms: C2_3  and  C3_4 
REMARK    3  A    between atoms: C7_8  and  C8_9 
REMARK    4  A    between atoms: C8_9  and  C9_10 
REMARK    5  A    between atoms: C8_9  and  C10_12 
REMARK    6  A    between atoms: C9_10  and  O2_11 
REMARK    7  A    between atoms: C19_21  and  S1_22 
REMARK    8  A    between atoms: S1_22  and  O5_25 
ROOT
HETATM    1  C10 UNL     1      -1.839  52.239 -25.169  1.00  0.00     0.003 C 
HETATM    2  C11 UNL     1      -1.986  52.082 -26.691  1.00  0.00     0.006 C 
HETATM    3  C12 UNL     1      -3.237  51.235 -26.871  1.00  0.00     0.006 C 
HETATM    4  C13 UNL     1      -2.992  50.128 -25.848  1.00  0.00    -0.001 C 
HETATM    5  C14 UNL     1      -4.131  49.104 -25.621  1.00  0.00    -0.001 C 
HETATM    6  C15 UNL     1      -4.682  48.578 -26.956  1.00  0.00     0.033 C 
HETATM    7  C16 UNL     1      -5.907  47.735 -26.817  1.00  0.00    -0.022 C 
HETATM    8  C17 UNL     1      -6.656  47.660 -25.703  1.00  0.00    -0.066 C 
HETATM    9  C18 UNL     1      -7.925  46.830 -25.698  1.00  0.00     0.057 C 
HETATM   10  C19 UNL     1      -9.148  47.629 -25.220  1.00  0.00     0.132 C 
HETATM   11  C20 UNL     1      -8.824  49.088 -24.931  1.00  0.00     0.101 C 
HETATM   12  C21 UNL     1      -7.653  49.131 -23.978  1.00  0.00     0.141 C 
HETATM   13  O6  UNL     1      -7.770  49.686 -22.885  1.00  0.00    -0.297 OA
HETATM   14  C22 UNL     1      -6.334  48.458 -24.431  1.00  0.00     0.044 C 
HETATM   15  C23 UNL     1      -5.899  47.467 -23.334  1.00  0.00     0.029 C 
HETATM   16  C24 UNL     1      -5.270  49.591 -24.698  1.00  0.00     0.010 C 
HETATM   17  C25 UNL     1      -4.667  50.173 -23.404  1.00  0.00     0.007 C 
HETATM   18  C26 UNL     1      -3.702  51.314 -23.697  1.00  0.00     0.010 C 
HETATM   19  C27 UNL     1      -2.501  50.909 -24.587  1.00  0.00    -0.036 C 
HETATM   20  C28 UNL     1      -1.539  49.993 -23.807  1.00  0.00     0.016 C 
ENDROOT
BRANCH   1  21
HETATM   21  C8  UNL     1      -0.417  52.645 -24.649  1.00  0.00     0.044 C 
BRANCH  21  22
HETATM   22  C7  UNL     1      -0.321  52.725 -23.086  1.00  0.00     0.142 C 
HETATM   23  C6  UNL     1      -0.144  51.376 -22.389  1.00  0.00     0.067 C 
HETATM   24  C4  UNL     1       0.147  51.565 -20.923  1.00  0.00    -0.067 C 
HETATM   25  C3  UNL     1       0.706  52.711 -20.475  1.00  0.00     0.043 C 
HETATM   26  C5  UNL     1      -0.207  50.386 -20.058  1.00  0.00     0.044 C 
HETATM   27  C29 UNL     1       1.179  53.724 -21.461  1.00  0.00     0.292 C 
HETATM   28  O7  UNL     1       0.818  53.548 -22.753  1.00  0.00    -0.311 OA
HETATM   29  O8  UNL     1       1.903  54.654 -21.127  1.00  0.00    -0.260 OA
BRANCH  25  30
HETATM   30  C2  UNL     1       1.002  53.127 -19.054  1.00  0.00     0.212 C 
BRANCH  30  31
HETATM   31  O1  UNL     1       0.242  52.380 -18.099  1.00  0.00    -0.391 OA
HETATM   32  C1  UNL     1       1.020  52.052 -16.958  1.00  0.00     0.201 C 
ENDBRANCH  30  31
ENDBRANCH  25  30
ENDBRANCH  21  22
BRANCH  21  33
HETATM   33  C9  UNL     1       0.621  51.647 -25.201  1.00  0.00     0.171 C 
BRANCH  33  34
HETATM   34  O2  UNL     1       1.784  52.326 -25.658  1.00  0.00    -0.400 OA
HETATM   35  H15 UNL     1       1.526  52.847 -26.439  1.00  0.00     0.209 HD
ENDBRANCH  33  34
ENDBRANCH  21  33
ENDBRANCH   1  21
BRANCH  10  36
HETATM   36  S1  UNL     1     -10.474  47.494 -26.418  1.00  0.00     0.099 S 
HETATM   37  O3  UNL     1     -10.446  46.193 -27.045  1.00  0.00    -0.601 OA
HETATM   38  O4  UNL     1     -11.684  48.064 -25.867  1.00  0.00    -0.601 OA
BRANCH  36  39
HETATM   39  O5  UNL     1      -9.944  48.575 -27.492  1.00  0.00    -0.295 OA
HETATM   40  H29 UNL     1     -10.695  49.166 -27.722  1.00  0.00     0.232 HD
ENDBRANCH  36  39
ENDBRANCH  10  36
TORSDOF 8
ENDMDL
MODEL 8
REMARK minimizedAffinity -7.87915897
REMARK CNNscore 0.393715948
REMARK CNNaffinity 6.22224379
REMARK  8 active torsions:
REMARK  status: ('A' for Active; 'I' for Inactive)
REMARK    1  A    between atoms: O1_2  and  C2_3 
REMARK    2  A    between atoms: C2_3  and  C3_4 
REMARK    3  A    between atoms: C7_8  and  C8_9 
REMARK    4  A    between atoms: C8_9  and  C9_10 
REMARK    5  A    between atoms: C8_9  and  C10_12 
REMARK    6  A    between atoms: C9_10  and  O2_11 
REMARK    7  A    between atoms: C19_21  and  S1_22 
REMARK    8  A    between atoms: S1_22  and  O5_25 
ROOT
HETATM    1  C10 UNL     1      -3.199  47.459 -19.299  1.00  0.00     0.003 C 
HETATM    2  C11 UNL     1      -3.001  46.358 -20.355  1.00  0.00     0.006 C 
HETATM    3  C12 UNL     1      -2.540  47.100 -21.601  1.00  0.00     0.006 C 
HETATM    4  C13 UNL     1      -3.542  48.251 -21.645  1.00  0.00    -0.001 C 
HETATM    5  C14 UNL     1      -3.327  49.340 -22.725  1.00  0.00    -0.001 C 
HETATM    6  C15 UNL     1      -3.068  48.714 -24.105  1.00  0.00     0.033 C 
HETATM    7  C16 UNL     1      -2.664  49.699 -25.151  1.00  0.00    -0.022 C 
HETATM    8  C17 UNL     1      -2.266  50.957 -24.898  1.00  0.00    -0.066 C 
HETATM    9  C18 UNL     1      -1.803  51.849 -26.034  1.00  0.00     0.057 C 
HETATM   10  C19 UNL     1      -0.417  52.461 -25.773  1.00  0.00     0.132 C 
HETATM   11  C20 UNL     1       0.207  51.978 -24.472  1.00  0.00     0.101 C 
HETATM   12  C21 UNL     1      -0.785  52.211 -23.359  1.00  0.00     0.141 C 
HETATM   13  O6  UNL     1      -0.480  52.927 -22.403  1.00  0.00    -0.297 OA
HETATM   14  C22 UNL     1      -2.170  51.528 -23.476  1.00  0.00     0.044 C 
HETATM   15  C23 UNL     1      -3.255  52.609 -23.312  1.00  0.00     0.029 C 
HETATM   16  C24 UNL     1      -2.254  50.397 -22.379  1.00  0.00     0.010 C 
HETATM   17  C25 UNL     1      -2.513  50.944 -20.962  1.00  0.00     0.007 C 
HETATM   18  C26 UNL     1      -2.513  49.833 -19.921  1.00  0.00     0.010 C 
HETATM   19  C27 UNL     1      -3.587  48.743 -20.163  1.00  0.00    -0.036 C 
HETATM   20  C28 UNL     1      -4.994  49.307 -19.893  1.00  0.00     0.016 C 
ENDROOT
BRANCH   1  21
HETATM   21  C8  UNL     1      -4.108  47.090 -18.077  1.00  0.00     0.044 C 
BRANCH  21  22
HETATM   22  C7  UNL     1      -3.666  47.777 -16.738  1.00  0.00     0.142 C 
HETATM   23  C6  UNL     1      -2.378  47.218 -16.132  1.00  0.00     0.067 C 
HETATM   24  C4  UNL     1      -1.920  48.067 -14.974  1.00  0.00    -0.067 C 
HETATM   25  C3  UNL     1      -2.277  49.368 -14.892  1.00  0.00     0.043 C 
HETATM   26  C5  UNL     1      -1.042  47.353 -13.984  1.00  0.00     0.044 C 
HETATM   27  C29 UNL     1      -2.995  50.000 -16.035  1.00  0.00     0.292 C 
HETATM   28  O7  UNL     1      -3.457  49.179 -17.007  1.00  0.00    -0.311 OA
HETATM   29  O8  UNL     1      -3.123  51.216 -16.119  1.00  0.00    -0.260 OA
BRANCH  25  30
HETATM   30  C2  UNL     1      -1.993  50.359 -13.788  1.00  0.00     0.212 C 
BRANCH  30  31
HETATM   31  O1  UNL     1      -0.690  50.939 -13.899  1.00  0.00    -0.391 OA
HETATM   32  C1  UNL     1      -0.630  52.207 -13.263  1.00  0.00     0.201 C 
ENDBRANCH  30  31
ENDBRANCH  25  30
ENDBRANCH  21  22
BRANCH  21  33
HETATM   33  C9  UNL     1      -5.569  47.454 -18.411  1.00  0.00     0.171 C 
BRANCH  33  34
HETATM   34  O2  UNL     1      -6.448  46.395 -18.056  1.00  0.00    -0.400 OA
HETATM   35  H15 UNL     1      -6.256  45.648 -18.648  1.00  0.00     0.209 HD
ENDBRANCH  33  34
ENDBRANCH  21  33
ENDBRANCH   1  21
BRANCH  10  36
HETATM   36  S1  UNL     1       0.668  52.135 -27.163  1.00  0.00     0.099 S 
HETATM   37  O3  UNL     1       0.714  50.718 -27.435  1.00  0.00    -0.601 OA
HETATM   38  O4  UNL     1       0.436  53.117 -28.199  1.00  0.00    -0.601 OA
BRANCH  36  39
HETATM   39  O5  UNL     1       2.069  52.557 -26.483  1.00  0.00    -0.295 OA
HETATM   40  H29 UNL     1       2.543  53.147 -27.108  1.00  0.00     0.232 HD
ENDBRANCH  36  39
ENDBRANCH  10  36
TORSDOF 8
ENDMDL
MODEL 9
REMARK minimizedAffinity -7.51432562
REMARK CNNscore 0.347607017
REMARK CNNaffinity 5.90210533
REMARK  8 active torsions:
REMARK  status: ('A' for Active; 'I' for Inactive)
REMARK    1  A    between atoms: O1_2  and  C2_3 
REMARK    2  A    between atoms: C2_3  and  C3_4 
REMARK    3  A    between atoms: C7_8  and  C8_9 
REMARK    4  A    between atoms: C8_9  and  C9_10 
REMARK    5  A    between atoms: C8_9  and  C10_12 
REMARK    6  A    between atoms: C9_10  and  O2_11 
REMARK    7  A    between atoms: C19_21  and  S1_22 
REMARK    8  A    between atoms: S1_22  and  O5_25 
ROOT
HETATM    1  C10 UNL     1     -12.885  45.557 -27.910  1.00  0.00     0.003 C 
HETATM    2  C11 UNL     1     -12.976  44.586 -29.099  1.00  0.00     0.006 C 
HETATM    3  C12 UNL     1     -11.740  44.885 -29.933  1.00  0.00     0.006 C 
HETATM    4  C13 UNL     1     -11.779  46.410 -29.983  1.00  0.00    -0.001 C 
HETATM    5  C14 UNL     1     -10.583  47.133 -30.650  1.00  0.00    -0.001 C 
HETATM    6  C15 UNL     1     -10.232  46.495 -32.005  1.00  0.00     0.033 C 
HETATM    7  C16 UNL     1      -8.972  47.017 -32.612  1.00  0.00    -0.022 C 
HETATM    8  C17 UNL     1      -8.054  47.743 -31.952  1.00  0.00    -0.066 C 
HETATM    9  C18 UNL     1      -6.771  48.156 -32.648  1.00  0.00     0.057 C 
HETATM   10  C19 UNL     1      -5.517  47.759 -31.853  1.00  0.00     0.132 C 
HETATM   11  C20 UNL     1      -5.843  46.979 -30.587  1.00  0.00     0.101 C 
HETATM   12  C21 UNL     1      -6.848  47.774 -29.789  1.00  0.00     0.141 C 
HETATM   13  O6  UNL     1      -6.578  48.130 -28.641  1.00  0.00    -0.297 OA
HETATM   14  C22 UNL     1      -8.197  48.113 -30.469  1.00  0.00     0.044 C 
HETATM   15  C23 UNL     1      -8.417  49.635 -30.368  1.00  0.00     0.029 C 
HETATM   16  C24 UNL     1      -9.330  47.277 -29.758  1.00  0.00     0.010 C 
HETATM   17  C25 UNL     1      -9.740  47.853 -28.389  1.00  0.00     0.007 C 
HETATM   18  C26 UNL     1     -10.780  46.978 -27.700  1.00  0.00     0.010 C 
HETATM   19  C27 UNL     1     -12.092  46.808 -28.505  1.00  0.00    -0.036 C 
HETATM   20  C28 UNL     1     -12.884  48.128 -28.526  1.00  0.00     0.016 C 
ENDROOT
BRANCH   1  21
HETATM   21  C8  UNL     1     -14.220  45.830 -27.135  1.00  0.00     0.044 C 
BRANCH  21  22
HETATM   22  C7  UNL     1     -15.417  44.941 -27.617  1.00  0.00     0.142 C 
HETATM   23  C6  UNL     1     -15.289  43.458 -27.270  1.00  0.00     0.067 C 
HETATM   24  C4  UNL     1     -16.567  42.723 -27.582  1.00  0.00    -0.067 C 
HETATM   25  C3  UNL     1     -17.748  43.379 -27.612  1.00  0.00     0.043 C 
HETATM   26  C5  UNL     1     -16.398  41.247 -27.814  1.00  0.00     0.044 C 
HETATM   27  C29 UNL     1     -17.800  44.804 -27.179  1.00  0.00     0.292 C 
HETATM   28  O7  UNL     1     -16.620  45.440 -26.993  1.00  0.00    -0.311 OA
HETATM   29  O8  UNL     1     -18.865  45.367 -26.955  1.00  0.00    -0.260 OA
BRANCH  25  30
HETATM   30  C2  UNL     1     -19.115  42.850 -27.977  1.00  0.00     0.212 C 
BRANCH  30  31
HETATM   31  O1  UNL     1     -19.499  43.209 -29.307  1.00  0.00    -0.391 OA
HETATM   32  C1  UNL     1     -18.368  43.348 -30.154  1.00  0.00     0.201 C 
ENDBRANCH  30  31
ENDBRANCH  25  30
ENDBRANCH  21  22
BRANCH  21  33
HETATM   33  C9  UNL     1     -13.972  45.627 -25.626  1.00  0.00     0.171 C 
BRANCH  33  34
HETATM   34  O2  UNL     1     -14.877  46.408 -24.855  1.00  0.00    -0.400 OA
HETATM   35  H15 UNL     1     -14.650  47.342 -25.002  1.00  0.00     0.209 HD
ENDBRANCH  33  34
ENDBRANCH  21  33
ENDBRANCH   1  21
BRANCH  10  36
HETATM   36  S1  UNL     1      -4.394  46.837 -32.901  1.00  0.00     0.099 S 
HETATM   37  O3  UNL     1      -3.101  47.480 -32.932  1.00  0.00    -0.601 OA
HETATM   38  O4  UNL     1      -4.550  45.421 -32.651  1.00  0.00    -0.601 OA
BRANCH  36  39
HETATM   39  O5  UNL     1      -5.114  47.100 -34.322  1.00  0.00    -0.295 OA
HETATM   40  H29 UNL     1      -5.194  46.237 -34.784  1.00  0.00     0.232 HD
ENDBRANCH  36  39
ENDBRANCH  10  36
TORSDOF 8
ENDMDL
