MODEL 1
REMARK minimizedAffinity -7.49171734
REMARK CNNscore 0.524522722
REMARK CNNaffinity 6.96375465
REMARK  12 active torsions:
REMARK  status: ('A' for Active; 'I' for Inactive)
REMARK    1  A    between atoms: O1_2  and  C2_3 
REMARK    2  A    between atoms: C2_3  and  C5_6 
REMARK    3  A    between atoms: C6_7  and  C7_8 
REMARK    4  A    between atoms: C7_8  and  C8_9 
REMARK    5  A    between atoms: C8_9  and  C10_11 
REMARK    6  A    between atoms: C28_30  and  O3_31 
REMARK    7  A    between atoms: O3_31  and  C29_32 
REMARK    8  A    between atoms: C30_34  and  C31_35 
REMARK    9  A    between atoms: C31_35  and  O5_36 
REMARK   10  A    between atoms: C32_37  and  O6_38 
REMARK   11  A    between atoms: C33_39  and  O7_40 
REMARK   12  A    between atoms: C34_41  and  O8_42 
ROOT
HETATM    1  C10 UNL     1      -3.861  12.725  17.892  1.00  0.00    -0.002 C 
HETATM    2  C11 UNL     1      -3.697  11.731  19.092  1.00  0.00     0.006 C 
HETATM    3  C12 UNL     1      -2.875  10.518  18.584  1.00  0.00     0.011 C 
HETATM    4  C13 UNL     1      -2.281  11.006  17.253  1.00  0.00    -0.029 C 
HETATM    5  C14 UNL     1      -1.054  11.913  17.677  1.00  0.00     0.016 C 
HETATM    6  C15 UNL     1      -1.710   9.957  16.226  1.00  0.00     0.028 C 
HETATM    7  C16 UNL     1      -1.831   8.476  16.446  1.00  0.00    -0.021 C 
HETATM    8  C17 UNL     1      -1.637   7.634  15.412  1.00  0.00     0.008 C 
HETATM    9  C18 UNL     1      -1.409   8.123  13.971  1.00  0.00     0.092 C 
HETATM   10  O2  UNL     1      -2.749   8.347  13.504  1.00  0.00    -0.374 OA
HETATM   11  C19 UNL     1      -3.108   9.682  13.930  1.00  0.00     0.179 C 
HETATM   12  C20 UNL     1      -1.898  10.320  14.699  1.00  0.00    -0.004 C 
HETATM   13  C21 UNL     1      -1.925  11.844  14.533  1.00  0.00     0.014 C 
HETATM   14  C22 UNL     1      -3.009  12.563  15.383  1.00  0.00     0.011 C 
HETATM   15  C23 UNL     1      -3.481  11.823  16.666  1.00  0.00    -0.032 C 
HETATM   16  C24 UNL     1      -4.713  10.913  16.372  1.00  0.00     0.016 C 
HETATM   17  C25 UNL     1      -0.810   9.553  13.907  1.00  0.00     0.036 C 
HETATM   18  C26 UNL     1       0.665   9.576  14.309  1.00  0.00     0.011 C 
HETATM   19  C27 UNL     1       1.474   8.608  13.442  1.00  0.00     0.033 C 
HETATM   20  C28 UNL     1       0.890   7.179  13.439  1.00  0.00     0.136 C 
HETATM   21  C35 UNL     1      -0.621   7.147  13.038  1.00  0.00     0.014 C 
HETATM   22  C36 UNL     1      -0.802   7.540  11.544  1.00  0.00     0.021 C 
HETATM   23  C37 UNL     1      -1.150   5.693  13.140  1.00  0.00     0.021 C 
ENDROOT
BRANCH  20  24
HETATM   24  O3  UNL     1       1.612   6.340  12.529  1.00  0.00    -0.352 OA
BRANCH  24  25
HETATM   25  C29 UNL     1       2.413   7.035  11.570  1.00  0.00     0.292 C 
HETATM   26  O4  UNL     1       1.920   6.772  10.258  1.00  0.00    -0.348 OA
HETATM   27  C30 UNL     1       2.547   7.595   9.263  1.00  0.00     0.179 C 
HETATM   28  C32 UNL     1       4.080   7.679   9.442  1.00  0.00     0.180 C 
HETATM   29  C33 UNL     1       4.588   6.546  10.342  1.00  0.00     0.183 C 
HETATM   30  C34 UNL     1       3.856   6.498  11.695  1.00  0.00     0.204 C 
BRANCH  27  31
HETATM   31  C31 UNL     1       2.178   7.004   7.898  1.00  0.00     0.198 C 
BRANCH  31  32
HETATM   32  O5  UNL     1       2.694   5.685   7.768  1.00  0.00    -0.398 OA
HETATM   33  H48 UNL     1       2.486   5.388   6.865  1.00  0.00     0.209 HD
ENDBRANCH  31  32
ENDBRANCH  27  31
BRANCH  28  34
HETATM   34  O6  UNL     1       4.442   8.926  10.066  1.00  0.00    -0.390 OA
HETATM   35  H50 UNL     1       4.234   9.634   9.429  1.00  0.00     0.210 HD
ENDBRANCH  28  34
BRANCH  29  36
HETATM   36  O7  UNL     1       6.000   6.701  10.568  1.00  0.00    -0.390 OA
HETATM   37  H52 UNL     1       6.110   7.665  10.724  1.00  0.00     0.210 HD
ENDBRANCH  29  36
BRANCH  30  38
HETATM   38  O8  UNL     1       4.583   7.236  12.696  1.00  0.00    -0.388 OA
HETATM   39  H54 UNL     1       5.490   6.870  12.669  1.00  0.00     0.210 HD
ENDBRANCH  30  38
ENDBRANCH  24  25
ENDBRANCH  20  24
BRANCH   1  40
HETATM   40  C8  UNL     1      -5.233  13.470  17.925  1.00  0.00    -0.010 C 
HETATM   41  C9  UNL     1      -5.116  14.910  17.408  1.00  0.00     0.010 C 
BRANCH  40  42
HETATM   42  C7  UNL     1      -5.811  13.473  19.369  1.00  0.00     0.031 C 
BRANCH  42  43
HETATM   43  C6  UNL     1      -5.524  14.661  20.260  1.00  0.00    -0.027 C 
HETATM   44  C5  UNL     1      -4.576  14.759  21.209  1.00  0.00     0.006 C 
BRANCH  44  45
HETATM   45  C2  UNL     1      -4.264  15.957  22.091  1.00  0.00     0.070 C 
HETATM   46  C3  UNL     1      -3.067  16.816  21.652  1.00  0.00     0.050 C 
HETATM   47  C4  UNL     1      -3.980  15.428  23.507  1.00  0.00     0.050 C 
BRANCH  45  48
HETATM   48  O1  UNL     1      -5.459  16.749  22.221  1.00  0.00    -0.382 OA
HETATM   49  C1  UNL     1      -5.918  16.979  23.545  1.00  0.00     0.202 C 
ENDBRANCH  45  48
ENDBRANCH  44  45
ENDBRANCH  42  43
ENDBRANCH  40  42
ENDBRANCH   1  40
TORSDOF 12
ENDMDL
MODEL 2
REMARK minimizedAffinity -9.06245708
REMARK CNNscore 0.391702086
REMARK CNNaffinity 7.08855247
REMARK  12 active torsions:
REMARK  status: ('A' for Active; 'I' for Inactive)
REMARK    1  A    between atoms: O1_2  and  C2_3 
REMARK    2  A    between atoms: C2_3  and  C5_6 
REMARK    3  A    between atoms: C6_7  and  C7_8 
REMARK    4  A    between atoms: C7_8  and  C8_9 
REMARK    5  A    between atoms: C8_9  and  C10_11 
REMARK    6  A    between atoms: C28_30  and  O3_31 
REMARK    7  A    between atoms: O3_31  and  C29_32 
REMARK    8  A    between atoms: C30_34  and  C31_35 
REMARK    9  A    between atoms: C31_35  and  O5_36 
REMARK   10  A    between atoms: C32_37  and  O6_38 
REMARK   11  A    between atoms: C33_39  and  O7_40 
REMARK   12  A    between atoms: C34_41  and  O8_42 
ROOT
HETATM    1  C10 UNL     1      -5.942   7.041  15.000  1.00  0.00    -0.002 C 
HETATM    2  C11 UNL     1      -5.686   8.445  15.648  1.00  0.00     0.006 C 
HETATM    3  C12 UNL     1      -4.286   8.923  15.185  1.00  0.00     0.011 C 
HETATM    4  C13 UNL     1      -3.943   7.987  14.016  1.00  0.00    -0.029 C 
HETATM    5  C14 UNL     1      -4.764   8.565  12.792  1.00  0.00     0.016 C 
HETATM    6  C15 UNL     1      -2.452   7.874  13.522  1.00  0.00     0.028 C 
HETATM    7  C16 UNL     1      -1.322   8.564  14.231  1.00  0.00    -0.021 C 
HETATM    8  C17 UNL     1      -0.053   8.180  13.986  1.00  0.00     0.008 C 
HETATM    9  C18 UNL     1       0.296   6.978  13.093  1.00  0.00     0.092 C 
HETATM   10  O2  UNL     1       0.163   5.869  13.998  1.00  0.00    -0.374 OA
HETATM   11  C19 UNL     1      -1.237   5.506  13.989  1.00  0.00     0.179 C 
HETATM   12  C20 UNL     1      -2.008   6.450  13.000  1.00  0.00    -0.004 C 
HETATM   13  C21 UNL     1      -3.222   5.713  12.423  1.00  0.00     0.014 C 
HETATM   14  C22 UNL     1      -4.413   5.565  13.411  1.00  0.00     0.011 C 
HETATM   15  C23 UNL     1      -4.500   6.622  14.546  1.00  0.00    -0.032 C 
HETATM   16  C24 UNL     1      -3.743   6.145  15.823  1.00  0.00     0.016 C 
HETATM   17  C25 UNL     1      -0.806   6.664  12.046  1.00  0.00     0.036 C 
HETATM   18  C26 UNL     1      -0.832   7.691  10.914  1.00  0.00     0.011 C 
HETATM   19  C27 UNL     1       0.542   7.788  10.245  1.00  0.00     0.033 C 
HETATM   20  C28 UNL     1       1.679   8.056  11.253  1.00  0.00     0.136 C 
HETATM   21  C35 UNL     1       1.707   7.016  12.421  1.00  0.00     0.014 C 
HETATM   22  C36 UNL     1       2.110   5.610  11.894  1.00  0.00     0.021 C 
HETATM   23  C37 UNL     1       2.820   7.403  13.428  1.00  0.00     0.021 C 
ENDROOT
BRANCH  20  24
HETATM   24  O3  UNL     1       2.953   8.027  10.598  1.00  0.00    -0.352 OA
BRANCH  24  25
HETATM   25  C29 UNL     1       4.075   8.291  11.445  1.00  0.00     0.292 C 
HETATM   26  O4  UNL     1       4.427   9.670  11.351  1.00  0.00    -0.348 OA
HETATM   27  C30 UNL     1       5.413  10.049  12.324  1.00  0.00     0.179 C 
HETATM   28  C32 UNL     1       6.567   9.027  12.432  1.00  0.00     0.180 C 
HETATM   29  C33 UNL     1       6.601   8.112  11.201  1.00  0.00     0.183 C 
HETATM   30  C34 UNL     1       5.249   7.423  10.942  1.00  0.00     0.204 C 
BRANCH  27  31
HETATM   31  C31 UNL     1       5.931  11.433  11.917  1.00  0.00     0.198 C 
BRANCH  31  32
HETATM   32  O5  UNL     1       4.892  12.400  12.000  1.00  0.00    -0.398 OA
HETATM   33  H48 UNL     1       5.259  13.239  11.669  1.00  0.00     0.209 HD
ENDBRANCH  31  32
ENDBRANCH  27  31
BRANCH  28  34
HETATM   34  O6  UNL     1       6.386   8.190  13.591  1.00  0.00    -0.390 OA
HETATM   35  H50 UNL     1       6.495   8.761  14.373  1.00  0.00     0.210 HD
ENDBRANCH  28  34
BRANCH  29  36
HETATM   36  O7  UNL     1       7.622   7.112  11.369  1.00  0.00    -0.390 OA
HETATM   37  H52 UNL     1       7.525   6.829  12.304  1.00  0.00     0.210 HD
ENDBRANCH  29  36
BRANCH  30  38
HETATM   38  O8  UNL     1       5.213   6.122  11.558  1.00  0.00    -0.388 OA
HETATM   39  H54 UNL     1       6.013   5.665  11.228  1.00  0.00     0.210 HD
ENDBRANCH  30  38
ENDBRANCH  24  25
ENDBRANCH  20  24
BRANCH   1  40
HETATM   40  C8  UNL     1      -6.778   6.105  15.930  1.00  0.00    -0.010 C 
HETATM   41  C9  UNL     1      -7.425   4.952  15.151  1.00  0.00     0.010 C 
BRANCH  40  42
HETATM   42  C7  UNL     1      -7.873   6.920  16.674  1.00  0.00     0.031 C 
BRANCH  42  43
HETATM   43  C6  UNL     1      -9.136   7.283  15.925  1.00  0.00    -0.027 C 
HETATM   44  C5  UNL     1      -9.693   8.502  15.807  1.00  0.00     0.006 C 
BRANCH  44  45
HETATM   45  C2  UNL     1     -10.946   8.881  15.037  1.00  0.00     0.070 C 
HETATM   46  C3  UNL     1     -12.213   9.090  15.883  1.00  0.00     0.050 C 
HETATM   47  C4  UNL     1     -11.227   7.755  14.027  1.00  0.00     0.050 C 
BRANCH  45  48
HETATM   48  O1  UNL     1     -10.655  10.039  14.234  1.00  0.00    -0.382 OA
HETATM   49  C1  UNL     1     -10.240  11.202  14.936  1.00  0.00     0.202 C 
ENDBRANCH  45  48
ENDBRANCH  44  45
ENDBRANCH  42  43
ENDBRANCH  40  42
ENDBRANCH   1  40
TORSDOF 12
ENDMDL
MODEL 3
REMARK minimizedAffinity -9.50353241
REMARK CNNscore 0.33537668
REMARK CNNaffinity 7.38990927
REMARK  12 active torsions:
REMARK  status: ('A' for Active; 'I' for Inactive)
REMARK    1  A    between atoms: O1_2  and  C2_3 
REMARK    2  A    between atoms: C2_3  and  C5_6 
REMARK    3  A    between atoms: C6_7  and  C7_8 
REMARK    4  A    between atoms: C7_8  and  C8_9 
REMARK    5  A    between atoms: C8_9  and  C10_11 
REMARK    6  A    between atoms: C28_30  and  O3_31 
REMARK    7  A    between atoms: O3_31  and  C29_32 
REMARK    8  A    between atoms: C30_34  and  C31_35 
REMARK    9  A    between atoms: C31_35  and  O5_36 
REMARK   10  A    between atoms: C32_37  and  O6_38 
REMARK   11  A    between atoms: C33_39  and  O7_40 
REMARK   12  A    between atoms: C34_41  and  O8_42 
ROOT
HETATM    1  C10 UNL     1      -0.003   7.617  14.086  1.00  0.00    -0.002 C 
HETATM    2  C11 UNL     1      -0.302   9.003  13.417  1.00  0.00     0.006 C 
HETATM    3  C12 UNL     1      -1.842   9.158  13.333  1.00  0.00     0.011 C 
HETATM    4  C13 UNL     1      -2.376   8.063  14.270  1.00  0.00    -0.029 C 
HETATM    5  C14 UNL     1      -2.196   8.665  15.724  1.00  0.00     0.016 C 
HETATM    6  C15 UNL     1      -3.883   7.619  14.168  1.00  0.00     0.028 C 
HETATM    7  C16 UNL     1      -4.800   8.146  13.102  1.00  0.00    -0.021 C 
HETATM    8  C17 UNL     1      -5.959   7.505  12.848  1.00  0.00     0.008 C 
HETATM    9  C18 UNL     1      -6.341   6.177  13.522  1.00  0.00     0.092 C 
HETATM   10  O2  UNL     1      -5.656   5.208  12.711  1.00  0.00    -0.374 OA
HETATM   11  C19 UNL     1      -4.311   5.120  13.235  1.00  0.00     0.179 C 
HETATM   12  C20 UNL     1      -4.170   6.093  14.458  1.00  0.00    -0.004 C 
HETATM   13  C21 UNL     1      -3.120   5.548  15.433  1.00  0.00     0.014 C 
HETATM   14  C22 UNL     1      -1.650   5.728  14.959  1.00  0.00     0.011 C 
HETATM   15  C23 UNL     1      -1.387   6.889  13.960  1.00  0.00    -0.032 C 
HETATM   16  C24 UNL     1      -1.511   6.403  12.483  1.00  0.00     0.016 C 
HETATM   17  C25 UNL     1      -5.651   5.978  14.898  1.00  0.00     0.036 C 
HETATM   18  C26 UNL     1      -6.257   6.875  15.978  1.00  0.00     0.011 C 
HETATM   19  C27 UNL     1      -7.766   6.643  16.087  1.00  0.00     0.033 C 
HETATM   20  C28 UNL     1      -8.491   6.786  14.733  1.00  0.00     0.136 C 
HETATM   21  C35 UNL     1      -7.873   5.879  13.619  1.00  0.00     0.014 C 
HETATM   22  C36 UNL     1      -8.128   4.377  13.929  1.00  0.00     0.021 C 
HETATM   23  C37 UNL     1      -8.602   6.143  12.276  1.00  0.00     0.021 C 
ENDROOT
BRANCH  20  24
HETATM   24  O3  UNL     1      -9.878   6.450  14.863  1.00  0.00    -0.352 OA
BRANCH  24  25
HETATM   25  C29 UNL     1     -10.762   7.567  14.990  1.00  0.00     0.292 C 
HETATM   26  O4  UNL     1     -11.111   8.047  13.693  1.00  0.00    -0.348 OA
HETATM   27  C30 UNL     1     -12.151   9.035  13.738  1.00  0.00     0.179 C 
HETATM   28  C32 UNL     1     -11.926  10.087  14.847  1.00  0.00     0.180 C 
HETATM   29  C33 UNL     1     -10.468  10.072  15.325  1.00  0.00     0.183 C 
HETATM   30  C34 UNL     1     -10.007   8.671  15.763  1.00  0.00     0.204 C 
BRANCH  27  31
HETATM   31  C31 UNL     1     -12.204   9.689  12.353  1.00  0.00     0.198 C 
BRANCH  31  32
HETATM   32  O5  UNL     1     -11.289   9.057  11.467  1.00  0.00    -0.398 OA
HETATM   33  H48 UNL     1     -11.319   9.553  10.629  1.00  0.00     0.209 HD
ENDBRANCH  31  32
ENDBRANCH  27  31
BRANCH  28  34
HETATM   34  O6  UNL     1     -12.760   9.797  15.987  1.00  0.00    -0.390 OA
HETATM   35  H50 UNL     1     -13.682   9.936  15.706  1.00  0.00     0.210 HD
ENDBRANCH  28  34
BRANCH  29  36
HETATM   36  O7  UNL     1     -10.307  10.992  16.419  1.00  0.00    -0.390 OA
HETATM   37  H52 UNL     1     -11.104  10.843  16.973  1.00  0.00     0.210 HD
ENDBRANCH  29  36
BRANCH  30  38
HETATM   38  O8  UNL     1     -10.177   8.498  17.183  1.00  0.00    -0.388 OA
HETATM   39  H54 UNL     1      -9.717   9.262  17.585  1.00  0.00     0.210 HD
ENDBRANCH  30  38
ENDBRANCH  24  25
ENDBRANCH  20  24
BRANCH   1  40
HETATM   40  C8  UNL     1       1.291   6.954  13.517  1.00  0.00    -0.010 C 
HETATM   41  C9  UNL     1       2.367   7.994  13.178  1.00  0.00     0.010 C 
BRANCH  40  42
HETATM   42  C7  UNL     1       0.956   6.109  12.256  1.00  0.00     0.031 C 
BRANCH  42  43
HETATM   43  C6  UNL     1       1.863   6.219  11.050  1.00  0.00    -0.027 C 
HETATM   44  C5  UNL     1       1.572   6.768   9.857  1.00  0.00     0.006 C 
BRANCH  44  45
HETATM   45  C2  UNL     1       2.485   6.905   8.651  1.00  0.00     0.070 C 
HETATM   46  C3  UNL     1       1.789   7.242   7.321  1.00  0.00     0.050 C 
HETATM   47  C4  UNL     1       3.227   5.569   8.476  1.00  0.00     0.050 C 
BRANCH  45  48
HETATM   48  O1  UNL     1       3.511   7.864   8.963  1.00  0.00    -0.382 OA
HETATM   49  C1  UNL     1       4.409   7.506  10.004  1.00  0.00     0.202 C 
ENDBRANCH  45  48
ENDBRANCH  44  45
ENDBRANCH  42  43
ENDBRANCH  40  42
ENDBRANCH   1  40
TORSDOF 12
ENDMDL
MODEL 4
REMARK minimizedAffinity -7.78307676
REMARK CNNscore 0.268883258
REMARK CNNaffinity 7.0814929
REMARK  12 active torsions:
REMARK  status: ('A' for Active; 'I' for Inactive)
REMARK    1  A    between atoms: O1_2  and  C2_3 
REMARK    2  A    between atoms: C2_3  and  C5_6 
REMARK    3  A    between atoms: C6_7  and  C7_8 
REMARK    4  A    between atoms: C7_8  and  C8_9 
REMARK    5  A    between atoms: C8_9  and  C10_11 
REMARK    6  A    between atoms: C28_30  and  O3_31 
REMARK    7  A    between atoms: O3_31  and  C29_32 
REMARK    8  A    between atoms: C30_34  and  C31_35 
REMARK    9  A    between atoms: C31_35  and  O5_36 
REMARK   10  A    between atoms: C32_37  and  O6_38 
REMARK   11  A    between atoms: C33_39  and  O7_40 
REMARK   12  A    between atoms: C34_41  and  O8_42 
ROOT
HETATM    1  C10 UNL     1      -5.683   4.325  13.517  1.00  0.00    -0.002 C 
HETATM    2  C11 UNL     1      -5.072   4.336  12.074  1.00  0.00     0.006 C 
HETATM    3  C12 UNL     1      -3.958   5.413  12.047  1.00  0.00     0.011 C 
HETATM    4  C13 UNL     1      -3.704   5.719  13.532  1.00  0.00    -0.029 C 
HETATM    5  C14 UNL     1      -2.805   4.518  14.036  1.00  0.00     0.016 C 
HETATM    6  C15 UNL     1      -2.935   7.034  13.934  1.00  0.00     0.028 C 
HETATM    7  C16 UNL     1      -2.537   8.068  12.920  1.00  0.00    -0.021 C 
HETATM    8  C17 UNL     1      -2.190   9.303  13.334  1.00  0.00     0.008 C 
HETATM    9  C18 UNL     1      -2.293   9.749  14.802  1.00  0.00     0.092 C 
HETATM   10  O2  UNL     1      -3.675  10.127  14.916  1.00  0.00    -0.374 OA
HETATM   11  C19 UNL     1      -4.404   8.911  15.204  1.00  0.00     0.179 C 
HETATM   12  C20 UNL     1      -3.395   7.712  15.284  1.00  0.00    -0.004 C 
HETATM   13  C21 UNL     1      -3.939   6.642  16.238  1.00  0.00     0.014 C 
HETATM   14  C22 UNL     1      -5.101   5.792  15.652  1.00  0.00     0.011 C 
HETATM   15  C23 UNL     1      -5.162   5.684  14.103  1.00  0.00    -0.032 C 
HETATM   16  C24 UNL     1      -6.050   6.811  13.492  1.00  0.00     0.016 C 
HETATM   17  C25 UNL     1      -2.208   8.563  15.800  1.00  0.00     0.036 C 
HETATM   18  C26 UNL     1      -0.788   8.007  15.911  1.00  0.00     0.011 C 
HETATM   19  C27 UNL     1       0.195   9.115  16.296  1.00  0.00     0.033 C 
HETATM   20  C28 UNL     1       0.117  10.336  15.357  1.00  0.00     0.136 C 
HETATM   21  C35 UNL     1      -1.334  10.907  15.230  1.00  0.00     0.014 C 
HETATM   22  C36 UNL     1      -1.794  11.541  16.574  1.00  0.00     0.021 C 
HETATM   23  C37 UNL     1      -1.340  12.074  14.210  1.00  0.00     0.021 C 
ENDROOT
BRANCH  20  24
HETATM   24  O3  UNL     1       0.972  11.388  15.823  1.00  0.00    -0.352 OA
BRANCH  24  25
HETATM   25  C29 UNL     1       2.172  11.571  15.068  1.00  0.00     0.292 C 
HETATM   26  O4  UNL     1       3.254  10.920  15.732  1.00  0.00    -0.348 OA
HETATM   27  C30 UNL     1       4.446  10.888  14.932  1.00  0.00     0.179 C 
HETATM   28  C32 UNL     1       4.743  12.245  14.252  1.00  0.00     0.180 C 
HETATM   29  C33 UNL     1       3.960  13.376  14.930  1.00  0.00     0.183 C 
HETATM   30  C34 UNL     1       2.450  13.088  14.997  1.00  0.00     0.204 C 
BRANCH  27  31
HETATM   31  C31 UNL     1       5.593  10.467  15.857  1.00  0.00     0.198 C 
BRANCH  31  32
HETATM   32  O5  UNL     1       5.681   9.050  15.931  1.00  0.00    -0.398 OA
HETATM   33  H48 UNL     1       6.378   8.843  16.578  1.00  0.00     0.209 HD
ENDBRANCH  31  32
ENDBRANCH  27  31
BRANCH  28  34
HETATM   34  O6  UNL     1       4.343  12.207  12.868  1.00  0.00    -0.390 OA
HETATM   35  H50 UNL     1       4.936  11.577  12.419  1.00  0.00     0.210 HD
ENDBRANCH  28  34
BRANCH  29  36
HETATM   36  O7  UNL     1       4.180  14.609  14.222  1.00  0.00    -0.390 OA
HETATM   37  H52 UNL     1       4.132  14.351  13.276  1.00  0.00     0.210 HD
ENDBRANCH  29  36
BRANCH  30  38
HETATM   38  O8  UNL     1       1.768  13.673  13.871  1.00  0.00    -0.388 OA
HETATM   39  H54 UNL     1       2.040  14.612  13.872  1.00  0.00     0.210 HD
ENDBRANCH  30  38
ENDBRANCH  24  25
ENDBRANCH  20  24
BRANCH   1  40
HETATM   40  C8  UNL     1      -7.211   4.005  13.510  1.00  0.00    -0.010 C 
HETATM   41  C9  UNL     1      -7.502   2.606  12.950  1.00  0.00     0.010 C 
BRANCH  40  42
HETATM   42  C7  UNL     1      -7.983   5.074  12.686  1.00  0.00     0.031 C 
BRANCH  42  43
HETATM   43  C6  UNL     1      -8.988   5.950  13.401  1.00  0.00    -0.027 C 
HETATM   44  C5  UNL     1     -10.061   6.563  12.869  1.00  0.00     0.006 C 
BRANCH  44  45
HETATM   45  C2  UNL     1     -11.089   7.423  13.584  1.00  0.00     0.070 C 
HETATM   46  C3  UNL     1     -12.249   6.664  14.249  1.00  0.00     0.050 C 
HETATM   47  C4  UNL     1     -11.684   8.392  12.547  1.00  0.00     0.050 C 
BRANCH  45  48
HETATM   48  O1  UNL     1     -10.402   8.263  14.529  1.00  0.00    -0.382 OA
HETATM   49  C1  UNL     1     -10.742   9.642  14.505  1.00  0.00     0.202 C 
ENDBRANCH  45  48
ENDBRANCH  44  45
ENDBRANCH  42  43
ENDBRANCH  40  42
ENDBRANCH   1  40
TORSDOF 12
ENDMDL
MODEL 5
REMARK minimizedAffinity -8.55724812
REMARK CNNscore 0.249446034
REMARK CNNaffinity 7.07112169
REMARK  12 active torsions:
REMARK  status: ('A' for Active; 'I' for Inactive)
REMARK    1  A    between atoms: O1_2  and  C2_3 
REMARK    2  A    between atoms: C2_3  and  C5_6 
REMARK    3  A    between atoms: C6_7  and  C7_8 
REMARK    4  A    between atoms: C7_8  and  C8_9 
REMARK    5  A    between atoms: C8_9  and  C10_11 
REMARK    6  A    between atoms: C28_30  and  O3_31 
REMARK    7  A    between atoms: O3_31  and  C29_32 
REMARK    8  A    between atoms: C30_34  and  C31_35 
REMARK    9  A    between atoms: C31_35  and  O5_36 
REMARK   10  A    between atoms: C32_37  and  O6_38 
REMARK   11  A    between atoms: C33_39  and  O7_40 
REMARK   12  A    between atoms: C34_41  and  O8_42 
ROOT
HETATM    1  C10 UNL     1      -5.640   6.656  14.669  1.00  0.00    -0.002 C 
HETATM    2  C11 UNL     1      -5.975   7.661  13.514  1.00  0.00     0.006 C 
HETATM    3  C12 UNL     1      -4.631   8.133  12.901  1.00  0.00     0.011 C 
HETATM    4  C13 UNL     1      -3.603   7.129  13.448  1.00  0.00    -0.029 C 
HETATM    5  C14 UNL     1      -3.789   5.841  12.548  1.00  0.00     0.016 C 
HETATM    6  C15 UNL     1      -2.069   7.480  13.392  1.00  0.00     0.028 C 
HETATM    7  C16 UNL     1      -1.572   8.819  12.925  1.00  0.00    -0.021 C 
HETATM    8  C17 UNL     1      -0.306   9.190  13.203  1.00  0.00     0.008 C 
HETATM    9  C18 UNL     1       0.633   8.350  14.085  1.00  0.00     0.092 C 
HETATM   10  O2  UNL     1       0.252   8.750  15.412  1.00  0.00    -0.374 OA
HETATM   11  C19 UNL     1      -0.876   7.920  15.775  1.00  0.00     0.179 C 
HETATM   12  C20 UNL     1      -1.196   6.940  14.593  1.00  0.00    -0.004 C 
HETATM   13  C21 UNL     1      -1.822   5.653  15.144  1.00  0.00     0.014 C 
HETATM   14  C22 UNL     1      -3.303   5.800  15.592  1.00  0.00     0.011 C 
HETATM   15  C23 UNL     1      -4.116   6.939  14.916  1.00  0.00    -0.032 C 
HETATM   16  C24 UNL     1      -4.028   8.261  15.737  1.00  0.00     0.016 C 
HETATM   17  C25 UNL     1       0.267   6.843  14.093  1.00  0.00     0.036 C 
HETATM   18  C26 UNL     1       0.639   6.154  12.779  1.00  0.00     0.011 C 
HETATM   19  C27 UNL     1       2.125   6.352  12.471  1.00  0.00     0.033 C 
HETATM   20  C28 UNL     1       2.548   7.835  12.495  1.00  0.00     0.136 C 
HETATM   21  C35 UNL     1       2.163   8.550  13.832  1.00  0.00     0.014 C 
HETATM   22  C36 UNL     1       3.000   7.988  15.016  1.00  0.00     0.021 C 
HETATM   23  C37 UNL     1       2.546  10.050  13.743  1.00  0.00     0.021 C 
ENDROOT
BRANCH  20  24
HETATM   24  O3  UNL     1       3.964   7.961  12.313  1.00  0.00    -0.352 OA
BRANCH  24  25
HETATM   25  C29 UNL     1       4.648   8.662  13.355  1.00  0.00     0.292 C 
HETATM   26  O4  UNL     1       5.118   9.913  12.857  1.00  0.00    -0.348 OA
HETATM   27  C30 UNL     1       5.635  10.756  13.897  1.00  0.00     0.179 C 
HETATM   28  C32 UNL     1       6.552   9.994  14.880  1.00  0.00     0.180 C 
HETATM   29  C33 UNL     1       7.022   8.667  14.270  1.00  0.00     0.183 C 
HETATM   30  C34 UNL     1       5.851   7.794  13.786  1.00  0.00     0.204 C 
BRANCH  27  31
HETATM   31  C31 UNL     1       6.386  11.902  13.210  1.00  0.00     0.198 C 
BRANCH  31  32
HETATM   32  O5  UNL     1       5.953  12.047  11.864  1.00  0.00    -0.398 OA
HETATM   33  H48 UNL     1       6.506  12.740  11.462  1.00  0.00     0.209 HD
ENDBRANCH  31  32
ENDBRANCH  27  31
BRANCH  28  34
HETATM   34  O6  UNL     1       5.838   9.685  16.093  1.00  0.00    -0.390 OA
HETATM   35  H50 UNL     1       5.657  10.532  16.539  1.00  0.00     0.210 HD
ENDBRANCH  28  34
BRANCH  29  36
HETATM   36  O7  UNL     1       7.796   7.936  15.237  1.00  0.00    -0.390 OA
HETATM   37  H52 UNL     1       7.295   8.048  16.074  1.00  0.00     0.210 HD
ENDBRANCH  29  36
BRANCH  30  38
HETATM   38  O8  UNL     1       5.456   6.858  14.807  1.00  0.00    -0.388 OA
HETATM   39  H54 UNL     1       6.280   6.395  15.056  1.00  0.00     0.210 HD
ENDBRANCH  30  38
ENDBRANCH  24  25
ENDBRANCH  20  24
BRANCH   1  40
HETATM   40  C8  UNL     1      -6.659   6.749  15.848  1.00  0.00    -0.010 C 
HETATM   41  C9  UNL     1      -7.667   5.592  15.828  1.00  0.00     0.010 C 
BRANCH  40  42
HETATM   42  C7  UNL     1      -7.414   8.108  15.803  1.00  0.00     0.031 C 
BRANCH  42  43
HETATM   43  C6  UNL     1      -8.720   8.184  15.043  1.00  0.00    -0.027 C 
HETATM   44  C5  UNL     1      -9.964   8.088  15.547  1.00  0.00     0.006 C 
BRANCH  44  45
HETATM   45  C2  UNL     1     -11.280   8.189  14.796  1.00  0.00     0.070 C 
HETATM   46  C3  UNL     1     -12.411   8.934  15.525  1.00  0.00     0.050 C 
HETATM   47  C4  UNL     1     -11.761   6.757  14.507  1.00  0.00     0.050 C 
BRANCH  45  48
HETATM   48  O1  UNL     1     -11.023   8.764  13.501  1.00  0.00    -0.382 OA
HETATM   49  C1  UNL     1     -12.143   8.889  12.636  1.00  0.00     0.202 C 
ENDBRANCH  45  48
ENDBRANCH  44  45
ENDBRANCH  42  43
ENDBRANCH  40  42
ENDBRANCH   1  40
TORSDOF 12
ENDMDL
MODEL 6
REMARK minimizedAffinity -7.52778292
REMARK CNNscore 0.247886792
REMARK CNNaffinity 6.20583105
REMARK  12 active torsions:
REMARK  status: ('A' for Active; 'I' for Inactive)
REMARK    1  A    between atoms: O1_2  and  C2_3 
REMARK    2  A    between atoms: C2_3  and  C5_6 
REMARK    3  A    between atoms: C6_7  and  C7_8 
REMARK    4  A    between atoms: C7_8  and  C8_9 
REMARK    5  A    between atoms: C8_9  and  C10_11 
REMARK    6  A    between atoms: C28_30  and  O3_31 
REMARK    7  A    between atoms: O3_31  and  C29_32 
REMARK    8  A    between atoms: C30_34  and  C31_35 
REMARK    9  A    between atoms: C31_35  and  O5_36 
REMARK   10  A    between atoms: C32_37  and  O6_38 
REMARK   11  A    between atoms: C33_39  and  O7_40 
REMARK   12  A    between atoms: C34_41  and  O8_42 
ROOT
HETATM    1  C10 UNL     1       5.120  12.781  22.191  1.00  0.00    -0.002 C 
HETATM    2  C11 UNL     1       4.876  11.356  22.795  1.00  0.00     0.006 C 
HETATM    3  C12 UNL     1       3.699  10.714  22.016  1.00  0.00     0.011 C 
HETATM    4  C13 UNL     1       3.550  11.604  20.772  1.00  0.00    -0.029 C 
HETATM    5  C14 UNL     1       4.710  11.130  19.805  1.00  0.00     0.016 C 
HETATM    6  C15 UNL     1       2.225  11.539  19.924  1.00  0.00     0.028 C 
HETATM    7  C16 UNL     1       1.042  10.719  20.352  1.00  0.00    -0.021 C 
HETATM    8  C17 UNL     1      -0.162  10.949  19.791  1.00  0.00     0.008 C 
HETATM    9  C18 UNL     1      -0.415  12.102  18.806  1.00  0.00     0.092 C 
HETATM   10  O2  UNL     1      -0.640  13.217  19.683  1.00  0.00    -0.374 OA
HETATM   11  C19 UNL     1       0.667  13.745  20.009  1.00  0.00     0.179 C 
HETATM   12  C20 UNL     1       1.762  12.900  19.268  1.00  0.00    -0.004 C 
HETATM   13  C21 UNL     1       2.988  13.778  18.986  1.00  0.00     0.014 C 
HETATM   14  C22 UNL     1       3.871  14.066  20.232  1.00  0.00     0.011 C 
HETATM   15  C23 UNL     1       3.797  13.025  21.384  1.00  0.00    -0.032 C 
HETATM   16  C24 UNL     1       2.697  13.408  22.421  1.00  0.00     0.016 C 
HETATM   17  C25 UNL     1       0.867  12.546  18.054  1.00  0.00     0.036 C 
HETATM   18  C26 UNL     1       1.292  11.531  16.992  1.00  0.00     0.011 C 
HETATM   19  C27 UNL     1       0.147  11.270  16.010  1.00  0.00     0.033 C 
HETATM   20  C28 UNL     1      -1.165  10.868  16.714  1.00  0.00     0.136 C 
HETATM   21  C35 UNL     1      -1.602  11.896  17.809  1.00  0.00     0.014 C 
HETATM   22  C36 UNL     1      -2.021  13.245  17.159  1.00  0.00     0.021 C 
HETATM   23  C37 UNL     1      -2.877  11.378  18.522  1.00  0.00     0.021 C 
ENDROOT
BRANCH  20  24
HETATM   24  O3  UNL     1      -2.232  10.745  15.765  1.00  0.00    -0.352 OA
BRANCH  24  25
HETATM   25  C29 UNL     1      -2.838   9.452  15.700  1.00  0.00     0.292 C 
HETATM   26  O4  UNL     1      -1.872   8.495  15.271  1.00  0.00    -0.348 OA
HETATM   27  C30 UNL     1      -2.354   7.146  15.377  1.00  0.00     0.179 C 
HETATM   28  C32 UNL     1      -3.797   6.986  14.846  1.00  0.00     0.180 C 
HETATM   29  C33 UNL     1      -4.186   8.176  13.959  1.00  0.00     0.183 C 
HETATM   30  C34 UNL     1      -3.983   9.528  14.666  1.00  0.00     0.204 C 
BRANCH  27  31
HETATM   31  C31 UNL     1      -1.374   6.260  14.601  1.00  0.00     0.198 C 
BRANCH  31  32
HETATM   32  O5  UNL     1      -2.077   5.294  13.829  1.00  0.00    -0.398 OA
HETATM   33  H48 UNL     1      -1.407   4.723  13.413  1.00  0.00     0.209 HD
ENDBRANCH  31  32
ENDBRANCH  27  31
BRANCH  28  34
HETATM   34  O6  UNL     1      -4.730   6.938  15.943  1.00  0.00    -0.390 OA
HETATM   35  H50 UNL     1      -4.558   6.109  16.426  1.00  0.00     0.210 HD
ENDBRANCH  28  34
BRANCH  29  36
HETATM   36  O7  UNL     1      -5.561   8.050  13.555  1.00  0.00    -0.390 OA
HETATM   37  H52 UNL     1      -6.021   7.754  14.371  1.00  0.00     0.210 HD
ENDBRANCH  29  36
BRANCH  30  38
HETATM   38  O8  UNL     1      -5.203   9.962  15.297  1.00  0.00    -0.388 OA
HETATM   39  H54 UNL     1      -5.877   9.929  14.589  1.00  0.00     0.210 HD
ENDBRANCH  30  38
ENDBRANCH  24  25
ENDBRANCH  20  24
BRANCH   1  40
HETATM   40  C8  UNL     1       5.585  13.809  23.270  1.00  0.00    -0.010 C 
HETATM   41  C9  UNL     1       4.770  15.108  23.213  1.00  0.00     0.010 C 
BRANCH  40  42
HETATM   42  C7  UNL     1       7.097  14.126  23.098  1.00  0.00     0.031 C 
BRANCH  42  43
HETATM   43  C6  UNL     1       7.544  15.571  23.152  1.00  0.00    -0.027 C 
HETATM   44  C5  UNL     1       8.753  16.064  22.830  1.00  0.00     0.006 C 
BRANCH  44  45
HETATM   45  C2  UNL     1       9.202  17.515  22.857  1.00  0.00     0.070 C 
HETATM   46  C3  UNL     1       8.663  18.402  21.723  1.00  0.00     0.050 C 
HETATM   47  C4  UNL     1      10.738  17.526  22.783  1.00  0.00     0.050 C 
BRANCH  45  48
HETATM   48  O1  UNL     1       8.886  18.065  24.149  1.00  0.00    -0.382 OA
HETATM   49  C1  UNL     1       9.852  17.863  25.170  1.00  0.00     0.202 C 
ENDBRANCH  45  48
ENDBRANCH  44  45
ENDBRANCH  42  43
ENDBRANCH  40  42
ENDBRANCH   1  40
TORSDOF 12
ENDMDL
MODEL 7
REMARK minimizedAffinity -9.3168478
REMARK CNNscore 0.245846659
REMARK CNNaffinity 6.8476615
REMARK  12 active torsions:
REMARK  status: ('A' for Active; 'I' for Inactive)
REMARK    1  A    between atoms: O1_2  and  C2_3 
REMARK    2  A    between atoms: C2_3  and  C5_6 
REMARK    3  A    between atoms: C6_7  and  C7_8 
REMARK    4  A    between atoms: C7_8  and  C8_9 
REMARK    5  A    between atoms: C8_9  and  C10_11 
REMARK    6  A    between atoms: C28_30  and  O3_31 
REMARK    7  A    between atoms: O3_31  and  C29_32 
REMARK    8  A    between atoms: C30_34  and  C31_35 
REMARK    9  A    between atoms: C31_35  and  O5_36 
REMARK   10  A    between atoms: C32_37  and  O6_38 
REMARK   11  A    between atoms: C33_39  and  O7_40 
REMARK   12  A    between atoms: C34_41  and  O8_42 
ROOT
HETATM    1  C10 UNL     1      -5.217   6.690  13.800  1.00  0.00    -0.002 C 
HETATM    2  C11 UNL     1      -5.719   8.082  14.317  1.00  0.00     0.006 C 
HETATM    3  C12 UNL     1      -4.468   8.959  14.583  1.00  0.00     0.011 C 
HETATM    4  C13 UNL     1      -3.331   8.206  13.875  1.00  0.00    -0.029 C 
HETATM    5  C14 UNL     1      -3.507   8.573  12.345  1.00  0.00     0.016 C 
HETATM    6  C15 UNL     1      -1.835   8.543  14.232  1.00  0.00     0.028 C 
HETATM    7  C16 UNL     1      -1.472   9.499  15.333  1.00  0.00    -0.021 C 
HETATM    8  C17 UNL     1      -0.215   9.503  15.819  1.00  0.00     0.008 C 
HETATM    9  C18 UNL     1       0.852   8.487  15.380  1.00  0.00     0.092 C 
HETATM   10  O2  UNL     1       0.561   7.352  16.212  1.00  0.00    -0.374 OA
HETATM   11  C19 UNL     1      -0.472   6.604  15.530  1.00  0.00     0.179 C 
HETATM   12  C20 UNL     1      -0.827   7.327  14.183  1.00  0.00    -0.004 C 
HETATM   13  C21 UNL     1      -1.313   6.297  13.157  1.00  0.00     0.014 C 
HETATM   14  C22 UNL     1      -2.757   5.776  13.405  1.00  0.00     0.011 C 
HETATM   15  C23 UNL     1      -3.701   6.720  14.201  1.00  0.00    -0.032 C 
HETATM   16  C24 UNL     1      -3.631   6.428  15.732  1.00  0.00     0.016 C 
HETATM   17  C25 UNL     1       0.591   7.912  13.962  1.00  0.00     0.036 C 
HETATM   18  C26 UNL     1       0.893   8.933  12.864  1.00  0.00     0.011 C 
HETATM   19  C27 UNL     1       2.330   9.445  12.988  1.00  0.00     0.033 C 
HETATM   20  C28 UNL     1       2.653   9.987  14.396  1.00  0.00     0.136 C 
HETATM   21  C35 UNL     1       2.337   8.953  15.526  1.00  0.00     0.014 C 
HETATM   22  C36 UNL     1       3.310   7.742  15.450  1.00  0.00     0.021 C 
HETATM   23  C37 UNL     1       2.609   9.602  16.908  1.00  0.00     0.021 C 
ENDROOT
BRANCH  20  24
HETATM   24  O3  UNL     1       4.035  10.349  14.495  1.00  0.00    -0.352 OA
BRANCH  24  25
HETATM   25  C29 UNL     1       4.954   9.256  14.414  1.00  0.00     0.292 C 
HETATM   26  O4  UNL     1       6.001   9.444  15.364  1.00  0.00    -0.348 OA
HETATM   27  C30 UNL     1       6.847   8.290  15.481  1.00  0.00     0.179 C 
HETATM   28  C32 UNL     1       7.233   7.694  14.108  1.00  0.00     0.180 C 
HETATM   29  C33 UNL     1       6.987   8.709  12.984  1.00  0.00     0.183 C 
HETATM   30  C34 UNL     1       5.547   9.253  12.988  1.00  0.00     0.204 C 
BRANCH  27  31
HETATM   31  C31 UNL     1       8.089   8.725  16.267  1.00  0.00     0.198 C 
BRANCH  31  32
HETATM   32  O5  UNL     1       8.607   7.639  17.024  1.00  0.00    -0.398 OA
HETATM   33  H48 UNL     1       9.349   7.988  17.549  1.00  0.00     0.209 HD
ENDBRANCH  31  32
ENDBRANCH  27  31
BRANCH  28  34
HETATM   34  O6  UNL     1       6.431   6.530  13.826  1.00  0.00    -0.390 OA
HETATM   35  H50 UNL     1       6.690   5.844  14.468  1.00  0.00     0.210 HD
ENDBRANCH  28  34
BRANCH  29  36
HETATM   36  O7  UNL     1       7.264   8.099  11.711  1.00  0.00    -0.390 OA
HETATM   37  H52 UNL     1       6.868   7.204  11.786  1.00  0.00     0.210 HD
ENDBRANCH  29  36
BRANCH  30  38
HETATM   38  O8  UNL     1       4.711   8.489  12.097  1.00  0.00    -0.388 OA
HETATM   39  H54 UNL     1       5.184   8.495  11.241  1.00  0.00     0.210 HD
ENDBRANCH  30  38
ENDBRANCH  24  25
ENDBRANCH  20  24
BRANCH   1  40
HETATM   40  C8  UNL     1      -6.135   5.519  14.273  1.00  0.00    -0.010 C 
HETATM   41  C9  UNL     1      -6.607   4.650  13.100  1.00  0.00     0.010 C 
BRANCH  40  42
HETATM   42  C7  UNL     1      -7.363   6.074  15.048  1.00  0.00     0.031 C 
BRANCH  42  43
HETATM   43  C6  UNL     1      -8.638   6.348  14.280  1.00  0.00    -0.027 C 
HETATM   44  C5  UNL     1      -9.659   7.141  14.651  1.00  0.00     0.006 C 
BRANCH  44  45
HETATM   45  C2  UNL     1     -10.931   7.441  13.875  1.00  0.00     0.070 C 
HETATM   46  C3  UNL     1     -12.199   6.726  14.368  1.00  0.00     0.050 C 
HETATM   47  C4  UNL     1     -10.689   7.031  12.412  1.00  0.00     0.050 C 
BRANCH  45  48
HETATM   48  O1  UNL     1     -11.114   8.868  13.837  1.00  0.00    -0.382 OA
HETATM   49  C1  UNL     1     -12.270   9.334  13.155  1.00  0.00     0.202 C 
ENDBRANCH  45  48
ENDBRANCH  44  45
ENDBRANCH  42  43
ENDBRANCH  40  42
ENDBRANCH   1  40
TORSDOF 12
ENDMDL
MODEL 8
REMARK minimizedAffinity -8.590271
REMARK CNNscore 0.235602096
REMARK CNNaffinity 7.11192179
REMARK  12 active torsions:
REMARK  status: ('A' for Active; 'I' for Inactive)
REMARK    1  A    between atoms: O1_2  and  C2_3 
REMARK    2  A    between atoms: C2_3  and  C5_6 
REMARK    3  A    between atoms: C6_7  and  C7_8 
REMARK    4  A    between atoms: C7_8  and  C8_9 
REMARK    5  A    between atoms: C8_9  and  C10_11 
REMARK    6  A    between atoms: C28_30  and  O3_31 
REMARK    7  A    between atoms: O3_31  and  C29_32 
REMARK    8  A    between atoms: C30_34  and  C31_35 
REMARK    9  A    between atoms: C31_35  and  O5_36 
REMARK   10  A    between atoms: C32_37  and  O6_38 
REMARK   11  A    between atoms: C33_39  and  O7_40 
REMARK   12  A    between atoms: C34_41  and  O8_42 
ROOT
HETATM    1  C10 UNL     1       0.189   7.949  13.758  1.00  0.00    -0.002 C 
HETATM    2  C11 UNL     1      -0.230   9.274  13.033  1.00  0.00     0.006 C 
HETATM    3  C12 UNL     1      -1.778   9.342  13.044  1.00  0.00     0.011 C 
HETATM    4  C13 UNL     1      -2.188   8.279  14.076  1.00  0.00    -0.029 C 
HETATM    5  C14 UNL     1      -1.951   8.976  15.477  1.00  0.00     0.016 C 
HETATM    6  C15 UNL     1      -3.672   7.751  14.101  1.00  0.00     0.028 C 
HETATM    7  C16 UNL     1      -4.684   8.164  13.070  1.00  0.00    -0.021 C 
HETATM    8  C17 UNL     1      -5.818   7.448  12.931  1.00  0.00     0.008 C 
HETATM    9  C18 UNL     1      -6.080   6.145  13.704  1.00  0.00     0.092 C 
HETATM   10  O2  UNL     1      -5.395   5.166  12.905  1.00  0.00    -0.374 OA
HETATM   11  C19 UNL     1      -4.016   5.181  13.343  1.00  0.00     0.179 C 
HETATM   12  C20 UNL     1      -3.853   6.232  14.496  1.00  0.00    -0.004 C 
HETATM   13  C21 UNL     1      -2.713   5.804  15.428  1.00  0.00     0.014 C 
HETATM   14  C22 UNL     1      -1.290   6.032  14.846  1.00  0.00     0.011 C 
HETATM   15  C23 UNL     1      -1.157   7.142  13.767  1.00  0.00    -0.032 C 
HETATM   16  C24 UNL     1      -1.347   6.561  12.332  1.00  0.00     0.016 C 
HETATM   17  C25 UNL     1      -5.294   6.067  15.040  1.00  0.00     0.036 C 
HETATM   18  C26 UNL     1      -5.879   6.994  16.105  1.00  0.00     0.011 C 
HETATM   19  C27 UNL     1      -7.363   6.690  16.328  1.00  0.00     0.033 C 
HETATM   20  C28 UNL     1      -8.180   6.712  15.019  1.00  0.00     0.136 C 
HETATM   21  C35 UNL     1      -7.584   5.773  13.920  1.00  0.00     0.014 C 
HETATM   22  C36 UNL     1      -7.733   4.281  14.332  1.00  0.00     0.021 C 
HETATM   23  C37 UNL     1      -8.410   5.916  12.617  1.00  0.00     0.021 C 
ENDROOT
BRANCH  20  24
HETATM   24  O3  UNL     1      -9.534   6.312  15.262  1.00  0.00    -0.352 OA
BRANCH  24  25
HETATM   25  C29 UNL     1     -10.494   7.372  15.228  1.00  0.00     0.292 C 
HETATM   26  O4  UNL     1     -10.744   7.743  13.874  1.00  0.00    -0.348 OA
HETATM   27  C30 UNL     1     -11.844   8.659  13.753  1.00  0.00     0.179 C 
HETATM   28  C32 UNL     1     -11.792   9.793  14.802  1.00  0.00     0.180 C 
HETATM   29  C33 UNL     1     -10.389   9.908  15.412  1.00  0.00     0.183 C 
HETATM   30  C34 UNL     1      -9.887   8.572  15.988  1.00  0.00     0.204 C 
BRANCH  27  31
HETATM   31  C31 UNL     1     -11.803   9.219  12.327  1.00  0.00     0.198 C 
BRANCH  31  32
HETATM   32  O5  UNL     1     -13.103   9.614  11.908  1.00  0.00    -0.398 OA
HETATM   33  H48 UNL     1     -13.027   9.897  10.979  1.00  0.00     0.209 HD
ENDBRANCH  31  32
ENDBRANCH  27  31
BRANCH  28  34
HETATM   34  O6  UNL     1     -12.712   9.520  15.877  1.00  0.00    -0.390 OA
HETATM   35  H50 UNL     1     -13.611   9.578  15.504  1.00  0.00     0.210 HD
ENDBRANCH  28  34
BRANCH  29  36
HETATM   36  O7  UNL     1     -10.392  10.904  16.449  1.00  0.00    -0.390 OA
HETATM   37  H52 UNL     1     -11.228  10.737  16.936  1.00  0.00     0.210 HD
ENDBRANCH  29  36
BRANCH  30  38
HETATM   38  O8  UNL     1     -10.182   8.479  17.394  1.00  0.00    -0.388 OA
HETATM   39  H54 UNL     1      -9.812   9.296  17.784  1.00  0.00     0.210 HD
ENDBRANCH  30  38
ENDBRANCH  24  25
ENDBRANCH  20  24
BRANCH   1  40
HETATM   40  C8  UNL     1       1.480   7.321  13.143  1.00  0.00    -0.010 C 
HETATM   41  C9  UNL     1       2.564   7.085  14.203  1.00  0.00     0.010 C 
BRANCH  40  42
HETATM   42  C7  UNL     1       2.036   8.230  12.012  1.00  0.00     0.031 C 
BRANCH  42  43
HETATM   43  C6  UNL     1       3.526   8.486  11.957  1.00  0.00    -0.027 C 
HETATM   44  C5  UNL     1       4.155   9.670  12.061  1.00  0.00     0.006 C 
BRANCH  44  45
HETATM   45  C2  UNL     1       5.651   9.933  12.033  1.00  0.00     0.070 C 
HETATM   46  C3  UNL     1       6.080  11.386  12.297  1.00  0.00     0.050 C 
HETATM   47  C4  UNL     1       6.167   9.528  10.641  1.00  0.00     0.050 C 
BRANCH  45  48
HETATM   48  O1  UNL     1       6.291   9.024  12.947  1.00  0.00    -0.382 OA
HETATM   49  C1  UNL     1       7.691   9.188  13.119  1.00  0.00     0.202 C 
ENDBRANCH  45  48
ENDBRANCH  44  45
ENDBRANCH  42  43
ENDBRANCH  40  42
ENDBRANCH   1  40
TORSDOF 12
ENDMDL
MODEL 9
REMARK minimizedAffinity -9.17924404
REMARK CNNscore 0.218468636
REMARK CNNaffinity 6.59816933
REMARK  12 active torsions:
REMARK  status: ('A' for Active; 'I' for Inactive)
REMARK    1  A    between atoms: O1_2  and  C2_3 
REMARK    2  A    between atoms: C2_3  and  C5_6 
REMARK    3  A    between atoms: C6_7  and  C7_8 
REMARK    4  A    between atoms: C7_8  and  C8_9 
REMARK    5  A    between atoms: C8_9  and  C10_11 
REMARK    6  A    between atoms: C28_30  and  O3_31 
REMARK    7  A    between atoms: O3_31  and  C29_32 
REMARK    8  A    between atoms: C30_34  and  C31_35 
REMARK    9  A    between atoms: C31_35  and  O5_36 
REMARK   10  A    between atoms: C32_37  and  O6_38 
REMARK   11  A    between atoms: C33_39  and  O7_40 
REMARK   12  A    between atoms: C34_41  and  O8_42 
ROOT
HETATM    1  C10 UNL     1      -3.895   6.961  14.579  1.00  0.00    -0.002 C 
HETATM    2  C11 UNL     1      -3.306   5.831  15.491  1.00  0.00     0.006 C 
HETATM    3  C12 UNL     1      -1.802   5.686  15.142  1.00  0.00     0.011 C 
HETATM    4  C13 UNL     1      -1.486   6.955  14.335  1.00  0.00    -0.029 C 
HETATM    5  C14 UNL     1      -1.327   8.090  15.427  1.00  0.00     0.016 C 
HETATM    6  C15 UNL     1      -0.180   7.012  13.457  1.00  0.00     0.028 C 
HETATM    7  C16 UNL     1       0.719   5.821  13.284  1.00  0.00    -0.021 C 
HETATM    8  C17 UNL     1       1.620   5.811  12.281  1.00  0.00     0.008 C 
HETATM    9  C18 UNL     1       1.698   6.921  11.220  1.00  0.00     0.092 C 
HETATM   10  O2  UNL     1       0.686   6.523  10.280  1.00  0.00    -0.374 OA
HETATM   11  C19 UNL     1      -0.563   7.053  10.783  1.00  0.00     0.179 C 
HETATM   12  C20 UNL     1      -0.291   7.837  12.114  1.00  0.00    -0.004 C 
HETATM   13  C21 UNL     1      -1.333   8.950  12.279  1.00  0.00     0.014 C 
HETATM   14  C22 UNL     1      -2.741   8.453  12.711  1.00  0.00     0.011 C 
HETATM   15  C23 UNL     1      -2.788   7.101  13.476  1.00  0.00    -0.032 C 
HETATM   16  C24 UNL     1      -2.971   5.903  12.495  1.00  0.00     0.016 C 
HETATM   17  C25 UNL     1       1.142   8.279  11.724  1.00  0.00     0.036 C 
HETATM   18  C26 UNL     1       2.089   8.954  12.717  1.00  0.00     0.011 C 
HETATM   19  C27 UNL     1       3.479   9.130  12.100  1.00  0.00     0.033 C 
HETATM   20  C28 UNL     1       4.056   7.812  11.543  1.00  0.00     0.136 C 
HETATM   21  C35 UNL     1       3.090   7.110  10.533  1.00  0.00     0.014 C 
HETATM   22  C36 UNL     1       2.957   7.945   9.228  1.00  0.00     0.021 C 
HETATM   23  C37 UNL     1       3.705   5.759  10.086  1.00  0.00     0.021 C 
ENDROOT
BRANCH  20  24
HETATM   24  O3  UNL     1       5.303   8.047  10.877  1.00  0.00    -0.352 OA
BRANCH  24  25
HETATM   25  C29 UNL     1       6.415   8.291  11.743  1.00  0.00     0.292 C 
HETATM   26  O4  UNL     1       6.054   7.964  13.083  1.00  0.00    -0.348 OA
HETATM   27  C30 UNL     1       7.179   7.991  13.974  1.00  0.00     0.179 C 
HETATM   28  C32 UNL     1       8.076   9.232  13.763  1.00  0.00     0.180 C 
HETATM   29  C33 UNL     1       7.328  10.319  12.980  1.00  0.00     0.183 C 
HETATM   30  C34 UNL     1       6.752   9.796  11.652  1.00  0.00     0.204 C 
BRANCH  27  31
HETATM   31  C31 UNL     1       6.620   7.946  15.401  1.00  0.00     0.198 C 
BRANCH  31  32
HETATM   32  O5  UNL     1       5.410   7.200  15.439  1.00  0.00    -0.398 OA
HETATM   33  H48 UNL     1       5.069   7.260  16.349  1.00  0.00     0.209 HD
ENDBRANCH  31  32
ENDBRANCH  27  31
BRANCH  28  34
HETATM   34  O6  UNL     1       9.248   8.878  13.003  1.00  0.00    -0.390 OA
HETATM   35  H50 UNL     1       9.782   8.287  13.564  1.00  0.00     0.210 HD
ENDBRANCH  28  34
BRANCH  29  36
HETATM   36  O7  UNL     1       8.212  11.422  12.716  1.00  0.00    -0.390 OA
HETATM   37  H52 UNL     1       9.056  10.992  12.456  1.00  0.00     0.210 HD
ENDBRANCH  29  36
BRANCH  30  38
HETATM   38  O8  UNL     1       7.667  10.042  10.567  1.00  0.00    -0.388 OA
HETATM   39  H54 UNL     1       7.865  10.998  10.617  1.00  0.00     0.210 HD
ENDBRANCH  30  38
ENDBRANCH  24  25
ENDBRANCH  20  24
BRANCH   1  40
HETATM   40  C8  UNL     1      -5.377   6.683  14.175  1.00  0.00    -0.010 C 
HETATM   41  C9  UNL     1      -6.026   7.897  13.499  1.00  0.00     0.010 C 
BRANCH  40  42
HETATM   42  C7  UNL     1      -6.207   6.267  15.423  1.00  0.00     0.031 C 
BRANCH  42  43
HETATM   43  C6  UNL     1      -7.621   6.789  15.557  1.00  0.00    -0.027 C 
HETATM   44  C5  UNL     1      -8.037   8.062  15.430  1.00  0.00     0.006 C 
BRANCH  44  45
HETATM   45  C2  UNL     1      -9.457   8.590  15.538  1.00  0.00     0.070 C 
HETATM   46  C3  UNL     1     -10.478   7.964  14.574  1.00  0.00     0.050 C 
HETATM   47  C4  UNL     1      -9.410  10.104  15.267  1.00  0.00     0.050 C 
BRANCH  45  48
HETATM   48  O1  UNL     1      -9.885   8.469  16.906  1.00  0.00    -0.382 OA
HETATM   49  C1  UNL     1     -10.718   9.510  17.397  1.00  0.00     0.202 C 
ENDBRANCH  45  48
ENDBRANCH  44  45
ENDBRANCH  42  43
ENDBRANCH  40  42
ENDBRANCH   1  40
TORSDOF 12
ENDMDL
