MODEL 1
REMARK minimizedAffinity -8.84542084
REMARK CNNscore 0.75284797
REMARK CNNaffinity 7.20625162
REMARK  11 active torsions:
REMARK  status: ('A' for Active; 'I' for Inactive)
REMARK    1  A    between atoms: C2_2  and  O2_4 
REMARK    2  A    between atoms: O2_4  and  C3_5 
REMARK    3  A    between atoms: C4_6  and  O3_7 
REMARK    4  A    between atoms: O3_7  and  C5_8 
REMARK    5  A    between atoms: C15_18  and  C16_19 
REMARK    6  A    between atoms: C20_23  and  C21_24 
REMARK    7  A    between atoms: C21_24  and  O4_27 
REMARK    8  A    between atoms: C24_29  and  O6_30 
REMARK    9  A    between atoms: C30_36  and  O7_37 
REMARK   10  A    between atoms: C36_44  and  O9_45 
REMARK   11  A    between atoms: C37_46  and  O10_47 
ROOT
HETATM    1  C5  UNL     1      -1.573  51.095 -12.465  1.00  0.00     0.133 C 
HETATM    2  C6  UNL     1      -0.207  50.592 -11.973  1.00  0.00     0.034 C 
HETATM    3  C7  UNL     1       0.318  51.274 -10.716  1.00  0.00     0.013 C 
HETATM    4  C8  UNL     1       0.058  52.763 -10.723  1.00  0.00    -0.025 A 
HETATM    5  C9  UNL     1       1.123  53.607 -11.378  1.00  0.00     0.021 A 
HETATM    6  C10 UNL     1       0.952  53.717  -9.871  1.00  0.00    -0.027 A 
HETATM    7  C11 UNL     1       2.050  53.050  -9.013  1.00  0.00     0.011 C 
HETATM    8  C12 UNL     1       2.854  53.892  -8.007  1.00  0.00     0.011 C 
HETATM    9  C13 UNL     1       2.518  55.380  -8.011  1.00  0.00    -0.028 C 
HETATM   10  C14 UNL     1       3.197  56.013  -9.259  1.00  0.00     0.016 C 
HETATM   11  C15 UNL     1       2.884  56.159  -6.697  1.00  0.00     0.057 C 
HETATM   12  C24 UNL     1       1.926  57.380  -6.734  1.00  0.00     0.126 C 
HETATM   13  C25 UNL     1       0.788  57.030  -7.720  1.00  0.00     0.042 C 
HETATM   14  C26 UNL     1       0.947  55.523  -8.020  1.00  0.00    -0.029 C 
HETATM   15  C27 UNL     1       0.224  54.738  -6.879  1.00  0.00     0.016 C 
HETATM   16  C28 UNL     1       0.387  55.082  -9.400  1.00  0.00     0.006 C 
HETATM   17  C29 UNL     1      -1.144  55.242  -9.557  1.00  0.00     0.038 C 
HETATM   18  C30 UNL     1      -1.942  53.954  -9.746  1.00  0.00     0.124 C 
HETATM   19  C31 UNL     1      -1.411  53.159 -10.956  1.00  0.00     0.034 C 
HETATM   20  C32 UNL     1      -2.336  51.972 -11.426  1.00  0.00    -0.015 C 
HETATM   21  C33 UNL     1      -3.590  52.575 -12.122  1.00  0.00     0.018 C 
HETATM   22  C34 UNL     1      -2.887  51.077 -10.293  1.00  0.00     0.018 C 
ENDROOT
BRANCH   1  23
HETATM   23  O3  UNL     1      -1.379  51.874 -13.659  1.00  0.00    -0.352 OA
BRANCH  23  24
HETATM   24  C4  UNL     1      -1.484  51.111 -14.875  1.00  0.00     0.292 C 
HETATM   25  C3  UNL     1      -0.114  50.440 -15.109  1.00  0.00     0.218 C 
HETATM   26  C37 UNL     1      -0.141  49.511 -16.341  1.00  0.00     0.183 C 
HETATM   27  C36 UNL     1      -1.557  49.035 -16.679  1.00  0.00     0.173 C 
HETATM   28  C35 UNL     1      -2.382  48.931 -15.399  1.00  0.00     0.205 C 
HETATM   29  O8  UNL     1      -2.574  50.197 -14.765  1.00  0.00    -0.356 OA
BRANCH  25  30
HETATM   30  O2  UNL     1       0.875  51.493 -15.299  1.00  0.00    -0.309 OA
BRANCH  30  31
HETATM   31  C2  UNL     1       1.052  51.951 -16.559  1.00  0.00     0.255 C 
HETATM   32  C1  UNL     1       2.422  52.534 -16.728  1.00  0.00     0.126 C 
HETATM   33  O1  UNL     1       0.197  51.941 -17.434  1.00  0.00    -0.266 OA
ENDBRANCH  30  31
ENDBRANCH  25  30
BRANCH  26  34
HETATM   34  O10 UNL     1       0.671  48.351 -16.079  1.00  0.00    -0.390 OA
HETATM   35  H60 UNL     1       1.557  48.686 -15.804  1.00  0.00     0.210 HD
ENDBRANCH  26  34
BRANCH  27  36
HETATM   36  O9  UNL     1      -2.165  49.975 -17.576  1.00  0.00    -0.391 OA
HETATM   37  H58 UNL     1      -3.086  49.689 -17.710  1.00  0.00     0.210 HD
ENDBRANCH  27  36
ENDBRANCH  23  24
ENDBRANCH   1  23
BRANCH  18  38
HETATM   38  O7  UNL     1      -1.937  53.192  -8.544  1.00  0.00    -0.395 OA
HETATM   39  H47 UNL     1      -1.056  52.791  -8.463  1.00  0.00     0.210 HD
ENDBRANCH  18  38
BRANCH  11  40
HETATM   40  C16 UNL     1       4.355  56.404  -6.230  1.00  0.00     0.065 C 
HETATM   41  C17 UNL     1       4.654  57.705  -5.487  1.00  0.00     0.046 C 
HETATM   42  C18 UNL     1       4.902  55.212  -5.418  1.00  0.00     0.041 C 
HETATM   43  C19 UNL     1       5.394  54.260  -6.480  1.00  0.00     0.038 C 
HETATM   44  C20 UNL     1       5.970  55.222  -7.509  1.00  0.00     0.156 C 
HETATM   45  O5  UNL     1       5.171  56.425  -7.434  1.00  0.00    -0.372 OA
BRANCH  44  46
HETATM   46  C21 UNL     1       6.040  54.672  -8.954  1.00  0.00     0.076 C 
HETATM   47  C22 UNL     1       5.288  55.591  -9.919  1.00  0.00     0.048 C 
HETATM   48  C23 UNL     1       5.470  53.251  -9.022  1.00  0.00     0.048 C 
BRANCH  46  49
HETATM   49  O4  UNL     1       7.406  54.625  -9.393  1.00  0.00    -0.388 OA
HETATM   50  H35 UNL     1       7.435  54.155 -10.243  1.00  0.00     0.210 HD
ENDBRANCH  46  49
ENDBRANCH  44  46
ENDBRANCH  11  40
BRANCH  12  51
HETATM   51  O6  UNL     1       2.574  58.572  -7.145  1.00  0.00    -0.395 OA
HETATM   52  H37 UNL     1       1.905  59.274  -7.207  1.00  0.00     0.210 HD
ENDBRANCH  12  51
TORSDOF 11
ENDMDL
MODEL 2
REMARK minimizedAffinity -7.79783583
REMARK CNNscore 0.7392838
REMARK CNNaffinity 6.69883108
REMARK  11 active torsions:
REMARK  status: ('A' for Active; 'I' for Inactive)
REMARK    1  A    between atoms: C2_2  and  O2_4 
REMARK    2  A    between atoms: O2_4  and  C3_5 
REMARK    3  A    between atoms: C4_6  and  O3_7 
REMARK    4  A    between atoms: O3_7  and  C5_8 
REMARK    5  A    between atoms: C15_18  and  C16_19 
REMARK    6  A    between atoms: C20_23  and  C21_24 
REMARK    7  A    between atoms: C21_24  and  O4_27 
REMARK    8  A    between atoms: C24_29  and  O6_30 
REMARK    9  A    between atoms: C30_36  and  O7_37 
REMARK   10  A    between atoms: C36_44  and  O9_45 
REMARK   11  A    between atoms: C37_46  and  O10_47 
ROOT
HETATM    1  C5  UNL     1       3.938  54.321 -10.479  1.00  0.00     0.133 C 
HETATM    2  C6  UNL     1       3.323  55.728 -10.513  1.00  0.00     0.034 C 
HETATM    3  C7  UNL     1       3.622  56.594  -9.296  1.00  0.00     0.013 C 
HETATM    4  C8  UNL     1       3.554  55.808  -8.006  1.00  0.00    -0.025 A 
HETATM    5  C9  UNL     1       2.193  55.732  -7.362  1.00  0.00     0.021 A 
HETATM    6  C10 UNL     1       3.271  56.542  -6.659  1.00  0.00    -0.027 A 
HETATM    7  C11 UNL     1       3.119  58.078  -6.727  1.00  0.00     0.011 C 
HETATM    8  C12 UNL     1       3.021  58.897  -5.429  1.00  0.00     0.011 C 
HETATM    9  C13 UNL     1       3.012  58.066  -4.151  1.00  0.00    -0.028 C 
HETATM   10  C14 UNL     1       1.593  57.446  -4.002  1.00  0.00     0.016 C 
HETATM   11  C15 UNL     1       3.449  58.825  -2.847  1.00  0.00     0.057 C 
HETATM   12  C24 UNL     1       3.930  57.679  -1.917  1.00  0.00     0.126 C 
HETATM   13  C25 UNL     1       4.205  56.453  -2.818  1.00  0.00     0.042 C 
HETATM   14  C26 UNL     1       4.153  56.984  -4.268  1.00  0.00    -0.029 C 
HETATM   15  C27 UNL     1       5.561  57.569  -4.604  1.00  0.00     0.016 C 
HETATM   16  C28 UNL     1       3.760  55.916  -5.326  1.00  0.00     0.006 C 
HETATM   17  C29 UNL     1       4.773  54.758  -5.484  1.00  0.00     0.038 C 
HETATM   18  C30 UNL     1       5.469  54.649  -6.839  1.00  0.00     0.124 C 
HETATM   19  C31 UNL     1       4.432  54.544  -7.976  1.00  0.00     0.034 C 
HETATM   20  C32 UNL     1       5.024  54.131  -9.376  1.00  0.00    -0.015 C 
HETATM   21  C33 UNL     1       5.408  52.624  -9.321  1.00  0.00     0.018 C 
HETATM   22  C34 UNL     1       6.318  54.869  -9.789  1.00  0.00     0.018 C 
ENDROOT
BRANCH   1  23
HETATM   23  O3  UNL     1       2.890  53.361 -10.252  1.00  0.00    -0.352 OA
BRANCH  23  24
HETATM   24  C4  UNL     1       2.130  53.039 -11.430  1.00  0.00     0.292 C 
HETATM   25  C3  UNL     1       2.212  51.509 -11.619  1.00  0.00     0.218 C 
HETATM   26  C37 UNL     1       1.344  51.037 -12.804  1.00  0.00     0.183 C 
HETATM   27  C36 UNL     1       0.220  52.025 -13.132  1.00  0.00     0.173 C 
HETATM   28  C35 UNL     1      -0.228  52.732 -11.855  1.00  0.00     0.205 C 
HETATM   29  O8  UNL     1       0.802  53.541 -11.285  1.00  0.00    -0.356 OA
BRANCH  25  30
HETATM   30  O2  UNL     1       3.608  51.160 -11.850  1.00  0.00    -0.309 OA
BRANCH  30  31
HETATM   31  C2  UNL     1       3.864  49.898 -12.264  1.00  0.00     0.255 C 
HETATM   32  C1  UNL     1       4.386  49.892 -13.669  1.00  0.00     0.126 C 
HETATM   33  O1  UNL     1       3.653  48.889 -11.606  1.00  0.00    -0.266 OA
ENDBRANCH  30  31
ENDBRANCH  25  30
BRANCH  26  34
HETATM   34  O10 UNL     1       0.746  49.768 -12.479  1.00  0.00    -0.390 OA
HETATM   35  H60 UNL     1       1.483  49.171 -12.213  1.00  0.00     0.210 HD
ENDBRANCH  26  34
BRANCH  27  36
HETATM   36  O9  UNL     1       0.704  52.987 -14.079  1.00  0.00    -0.391 OA
HETATM   37  H58 UNL     1      -0.003  53.644 -14.207  1.00  0.00     0.210 HD
ENDBRANCH  27  36
ENDBRANCH  23  24
ENDBRANCH   1  23
BRANCH  18  38
HETATM   38  O7  UNL     1       6.370  55.736  -7.017  1.00  0.00    -0.395 OA
HETATM   39  H47 UNL     1       5.834  56.524  -7.207  1.00  0.00     0.210 HD
ENDBRANCH  18  38
BRANCH  11  40
HETATM   40  C16 UNL     1       2.610  59.977  -2.206  1.00  0.00     0.065 C 
HETATM   41  C17 UNL     1       1.107  59.755  -2.050  1.00  0.00     0.046 C 
HETATM   42  C18 UNL     1       3.204  60.434  -0.858  1.00  0.00     0.041 C 
HETATM   43  C19 UNL     1       4.267  61.426  -1.260  1.00  0.00     0.038 C 
HETATM   44  C20 UNL     1       3.603  62.122  -2.439  1.00  0.00     0.156 C 
HETATM   45  O5  UNL     1       2.764  61.132  -3.077  1.00  0.00    -0.372 OA
BRANCH  44  46
HETATM   46  C21 UNL     1       4.577  62.778  -3.447  1.00  0.00     0.076 C 
HETATM   47  C22 UNL     1       5.723  61.825  -3.792  1.00  0.00     0.048 C 
HETATM   48  C23 UNL     1       5.132  64.093  -2.888  1.00  0.00     0.048 C 
BRANCH  46  49
HETATM   49  O4  UNL     1       3.889  63.072  -4.672  1.00  0.00    -0.388 OA
HETATM   50  H35 UNL     1       4.480  63.601  -5.233  1.00  0.00     0.210 HD
ENDBRANCH  46  49
ENDBRANCH  44  46
ENDBRANCH  11  40
BRANCH  12  51
HETATM   51  O6  UNL     1       2.976  57.345  -0.923  1.00  0.00    -0.395 OA
HETATM   52  H37 UNL     1       3.314  56.584  -0.423  1.00  0.00     0.210 HD
ENDBRANCH  12  51
TORSDOF 11
ENDMDL
MODEL 3
REMARK minimizedAffinity -7.7442317
REMARK CNNscore 0.710092723
REMARK CNNaffinity 7.02602005
REMARK  11 active torsions:
REMARK  status: ('A' for Active; 'I' for Inactive)
REMARK    1  A    between atoms: C2_2  and  O2_4 
REMARK    2  A    between atoms: O2_4  and  C3_5 
REMARK    3  A    between atoms: C4_6  and  O3_7 
REMARK    4  A    between atoms: O3_7  and  C5_8 
REMARK    5  A    between atoms: C15_18  and  C16_19 
REMARK    6  A    between atoms: C20_23  and  C21_24 
REMARK    7  A    between atoms: C21_24  and  O4_27 
REMARK    8  A    between atoms: C24_29  and  O6_30 
REMARK    9  A    between atoms: C30_36  and  O7_37 
REMARK   10  A    between atoms: C36_44  and  O9_45 
REMARK   11  A    between atoms: C37_46  and  O10_47 
ROOT
HETATM    1  C5  UNL     1      -2.196  51.052 -12.422  1.00  0.00     0.133 C 
HETATM    2  C6  UNL     1      -0.978  50.245 -11.950  1.00  0.00     0.034 C 
HETATM    3  C7  UNL     1      -0.215  50.851 -10.779  1.00  0.00     0.013 C 
HETATM    4  C8  UNL     1      -0.082  52.352 -10.899  1.00  0.00    -0.025 A 
HETATM    5  C9  UNL     1       1.119  52.839 -11.669  1.00  0.00     0.021 A 
HETATM    6  C10 UNL     1       1.080  53.095 -10.170  1.00  0.00    -0.027 A 
HETATM    7  C11 UNL     1       2.022  52.226  -9.308  1.00  0.00     0.011 C 
HETATM    8  C12 UNL     1       3.078  52.896  -8.412  1.00  0.00     0.011 C 
HETATM    9  C13 UNL     1       3.138  54.415  -8.526  1.00  0.00    -0.028 C 
HETATM   10  C14 UNL     1       3.875  54.760  -9.852  1.00  0.00     0.016 C 
HETATM   11  C15 UNL     1       3.776  55.161  -7.300  1.00  0.00     0.057 C 
HETATM   12  C24 UNL     1       3.164  56.584  -7.397  1.00  0.00     0.126 C 
HETATM   13  C25 UNL     1       1.914  56.477  -8.299  1.00  0.00     0.042 C 
HETATM   14  C26 UNL     1       1.660  54.963  -8.479  1.00  0.00    -0.029 C 
HETATM   15  C27 UNL     1       0.834  54.477  -7.245  1.00  0.00     0.016 C 
HETATM   16  C28 UNL     1       0.917  54.590  -9.791  1.00  0.00     0.006 C 
HETATM   17  C29 UNL     1      -0.528  55.134  -9.894  1.00  0.00     0.038 C 
HETATM   18  C30 UNL     1      -1.641  54.090  -9.939  1.00  0.00     0.124 C 
HETATM   19  C31 UNL     1      -1.412  53.101 -11.100  1.00  0.00     0.034 C 
HETATM   20  C32 UNL     1      -2.639  52.169 -11.428  1.00  0.00    -0.015 C 
HETATM   21  C33 UNL     1      -3.738  53.029 -12.116  1.00  0.00     0.018 C 
HETATM   22  C34 UNL     1      -3.329  51.530 -10.201  1.00  0.00     0.018 C 
ENDROOT
BRANCH   1  23
HETATM   23  O3  UNL     1      -1.885  51.668 -13.685  1.00  0.00    -0.352 OA
BRANCH  23  24
HETATM   24  C4  UNL     1      -2.082  50.803 -14.818  1.00  0.00     0.292 C 
HETATM   25  C3  UNL     1      -0.685  50.353 -15.294  1.00  0.00     0.218 C 
HETATM   26  C37 UNL     1      -0.781  49.336 -16.450  1.00  0.00     0.183 C 
HETATM   27  C36 UNL     1      -2.127  48.606 -16.474  1.00  0.00     0.173 C 
HETATM   28  C35 UNL     1      -2.659  48.469 -15.049  1.00  0.00     0.205 C 
HETATM   29  O8  UNL     1      -2.950  49.732 -14.448  1.00  0.00    -0.356 OA
BRANCH  25  30
HETATM   30  O2  UNL     1       0.045  51.537 -15.727  1.00  0.00    -0.309 OA
BRANCH  30  31
HETATM   31  C2  UNL     1       1.396  51.481 -15.668  1.00  0.00     0.255 C 
HETATM   32  C1  UNL     1       2.012  52.479 -16.600  1.00  0.00     0.126 C 
HETATM   33  O1  UNL     1       2.034  50.691 -14.988  1.00  0.00    -0.266 OA
ENDBRANCH  30  31
ENDBRANCH  25  30
BRANCH  26  34
HETATM   34  O10 UNL     1       0.261  48.353 -16.306  1.00  0.00    -0.390 OA
HETATM   35  H60 UNL     1       1.108  48.851 -16.231  1.00  0.00     0.210 HD
ENDBRANCH  26  34
BRANCH  27  36
HETATM   36  O9  UNL     1      -3.053  49.357 -17.271  1.00  0.00    -0.391 OA
HETATM   37  H58 UNL     1      -3.916  48.912 -17.203  1.00  0.00     0.210 HD
ENDBRANCH  27  36
ENDBRANCH  23  24
ENDBRANCH   1  23
BRANCH  18  38
HETATM   38  O7  UNL     1      -1.755  53.439  -8.678  1.00  0.00    -0.395 OA
HETATM   39  H47 UNL     1      -1.004  52.827  -8.603  1.00  0.00     0.210 HD
ENDBRANCH  18  38
BRANCH  11  40
HETATM   40  C16 UNL     1       5.286  55.044  -6.920  1.00  0.00     0.065 C 
HETATM   41  C17 UNL     1       6.071  53.866  -7.494  1.00  0.00     0.046 C 
HETATM   42  C18 UNL     1       6.050  56.355  -7.203  1.00  0.00     0.041 C 
HETATM   43  C19 UNL     1       5.799  57.181  -5.965  1.00  0.00     0.038 C 
HETATM   44  C20 UNL     1       5.841  56.119  -4.877  1.00  0.00     0.156 C 
HETATM   45  O5  UNL     1       5.338  54.902  -5.473  1.00  0.00    -0.372 OA
BRANCH  44  46
HETATM   46  C21 UNL     1       5.075  56.478  -3.580  1.00  0.00     0.076 C 
HETATM   47  C22 UNL     1       3.749  55.718  -3.508  1.00  0.00     0.048 C 
HETATM   48  C23 UNL     1       4.827  57.988  -3.497  1.00  0.00     0.048 C 
BRANCH  46  49
HETATM   49  O4  UNL     1       5.847  56.090  -2.433  1.00  0.00    -0.388 OA
HETATM   50  H35 UNL     1       5.411  56.445  -1.640  1.00  0.00     0.210 HD
ENDBRANCH  46  49
ENDBRANCH  44  46
ENDBRANCH  11  40
BRANCH  12  51
HETATM   51  O6  UNL     1       4.069  57.533  -7.935  1.00  0.00    -0.395 OA
HETATM   52  H37 UNL     1       3.602  58.380  -8.026  1.00  0.00     0.210 HD
ENDBRANCH  12  51
TORSDOF 11
ENDMDL
MODEL 4
REMARK minimizedAffinity -8.03133011
REMARK CNNscore 0.708409488
REMARK CNNaffinity 6.31543493
REMARK  11 active torsions:
REMARK  status: ('A' for Active; 'I' for Inactive)
REMARK    1  A    between atoms: C2_2  and  O2_4 
REMARK    2  A    between atoms: O2_4  and  C3_5 
REMARK    3  A    between atoms: C4_6  and  O3_7 
REMARK    4  A    between atoms: O3_7  and  C5_8 
REMARK    5  A    between atoms: C15_18  and  C16_19 
REMARK    6  A    between atoms: C20_23  and  C21_24 
REMARK    7  A    between atoms: C21_24  and  O4_27 
REMARK    8  A    between atoms: C24_29  and  O6_30 
REMARK    9  A    between atoms: C30_36  and  O7_37 
REMARK   10  A    between atoms: C36_44  and  O9_45 
REMARK   11  A    between atoms: C37_46  and  O10_47 
ROOT
HETATM    1  C5  UNL     1     -16.873  43.229 -27.427  1.00  0.00     0.133 C 
HETATM    2  C6  UNL     1     -15.688  42.429 -27.988  1.00  0.00     0.034 C 
HETATM    3  C7  UNL     1     -14.312  42.948 -27.592  1.00  0.00     0.013 C 
HETATM    4  C8  UNL     1     -14.241  44.459 -27.622  1.00  0.00    -0.025 A 
HETATM    5  C9  UNL     1     -13.862  45.066 -28.949  1.00  0.00     0.021 A 
HETATM    6  C10 UNL     1     -12.866  45.173 -27.805  1.00  0.00    -0.027 A 
HETATM    7  C11 UNL     1     -11.622  44.262 -27.900  1.00  0.00     0.011 C 
HETATM    8  C12 UNL     1     -10.215  44.883 -27.897  1.00  0.00     0.011 C 
HETATM    9  C13 UNL     1     -10.192  46.407 -27.871  1.00  0.00    -0.028 C 
HETATM   10  C14 UNL     1     -10.536  46.908 -29.303  1.00  0.00     0.016 C 
HETATM   11  C15 UNL     1      -8.865  47.055 -27.337  1.00  0.00     0.057 C 
HETATM   12  C24 UNL     1      -9.327  48.456 -26.853  1.00  0.00     0.126 C 
HETATM   13  C25 UNL     1     -10.861  48.387 -26.674  1.00  0.00     0.042 C 
HETATM   14  C26 UNL     1     -11.225  46.889 -26.781  1.00  0.00    -0.029 C 
HETATM   15  C27 UNL     1     -11.014  46.253 -25.370  1.00  0.00     0.016 C 
HETATM   16  C28 UNL     1     -12.674  46.616 -27.271  1.00  0.00     0.006 C 
HETATM   17  C29 UNL     1     -13.784  47.109 -26.314  1.00  0.00     0.038 C 
HETATM   18  C30 UNL     1     -14.671  46.032 -25.695  1.00  0.00     0.124 C 
HETATM   19  C31 UNL     1     -15.326  45.170 -26.794  1.00  0.00     0.034 C 
HETATM   20  C32 UNL     1     -16.484  44.226 -26.293  1.00  0.00    -0.015 C 
HETATM   21  C33 UNL     1     -17.726  45.105 -25.966  1.00  0.00     0.018 C 
HETATM   22  C34 UNL     1     -16.182  43.444 -24.994  1.00  0.00     0.018 C 
ENDROOT
BRANCH   1  23
HETATM   23  O3  UNL     1     -17.478  43.977 -28.498  1.00  0.00    -0.352 OA
BRANCH  23  24
HETATM   24  C4  UNL     1     -18.249  43.171 -29.407  1.00  0.00     0.292 C 
HETATM   25  C3  UNL     1     -19.530  42.745 -28.660  1.00  0.00     0.218 C 
HETATM   26  C37 UNL     1     -20.486  41.955 -29.578  1.00  0.00     0.183 C 
HETATM   27  C36 UNL     1     -20.249  42.255 -31.062  1.00  0.00     0.173 C 
HETATM   28  C35 UNL     1     -19.759  43.692 -31.220  1.00  0.00     0.205 C 
HETATM   29  O8  UNL     1     -18.488  43.911 -30.605  1.00  0.00    -0.356 OA
BRANCH  25  30
HETATM   30  O2  UNL     1     -19.134  41.923 -27.524  1.00  0.00    -0.309 OA
BRANCH  30  31
HETATM   31  C2  UNL     1     -19.935  41.953 -26.434  1.00  0.00     0.255 C 
HETATM   32  C1  UNL     1     -20.693  40.669 -26.293  1.00  0.00     0.126 C 
HETATM   33  O1  UNL     1     -20.068  42.915 -25.690  1.00  0.00    -0.266 OA
ENDBRANCH  30  31
ENDBRANCH  25  30
BRANCH  26  34
HETATM   34  O10 UNL     1     -21.846  42.304 -29.261  1.00  0.00    -0.390 OA
HETATM   35  H60 UNL     1     -21.954  42.161 -28.292  1.00  0.00     0.210 HD
ENDBRANCH  26  34
BRANCH  27  36
HETATM   36  O9  UNL     1     -19.265  41.345 -31.572  1.00  0.00    -0.391 OA
HETATM   37  H58 UNL     1     -19.078  41.610 -32.490  1.00  0.00     0.210 HD
ENDBRANCH  27  36
ENDBRANCH  23  24
ENDBRANCH   1  23
BRANCH  18  38
HETATM   38  O7  UNL     1     -13.925  45.257 -24.763  1.00  0.00    -0.395 OA
HETATM   39  H47 UNL     1     -13.345  44.671 -25.277  1.00  0.00     0.210 HD
ENDBRANCH  18  38
BRANCH  11  40
HETATM   40  C16 UNL     1      -7.503  46.962 -28.095  1.00  0.00     0.065 C 
HETATM   41  C17 UNL     1      -6.227  47.199 -27.289  1.00  0.00     0.046 C 
HETATM   42  C18 UNL     1      -7.375  45.640 -28.880  1.00  0.00     0.041 C 
HETATM   43  C19 UNL     1      -8.082  45.934 -30.180  1.00  0.00     0.038 C 
HETATM   44  C20 UNL     1      -7.678  47.380 -30.426  1.00  0.00     0.156 C 
HETATM   45  O5  UNL     1      -7.532  47.991 -29.123  1.00  0.00    -0.372 OA
BRANCH  44  46
HETATM   46  C21 UNL     1      -8.643  48.186 -31.328  1.00  0.00     0.076 C 
HETATM   47  C22 UNL     1      -8.187  48.138 -32.788  1.00  0.00     0.048 C 
HETATM   48  C23 UNL     1      -8.745  49.640 -30.851  1.00  0.00     0.048 C 
BRANCH  46  49
HETATM   49  O4  UNL     1      -9.957  47.610 -31.277  1.00  0.00    -0.388 OA
HETATM   50  H35 UNL     1     -10.569  48.207 -31.739  1.00  0.00     0.210 HD
ENDBRANCH  46  49
ENDBRANCH  44  46
ENDBRANCH  11  40
BRANCH  12  51
HETATM   51  O6  UNL     1      -8.992  49.488 -27.764  1.00  0.00    -0.395 OA
HETATM   52  H37 UNL     1      -9.366  50.321 -27.431  1.00  0.00     0.210 HD
ENDBRANCH  12  51
TORSDOF 11
ENDMDL
MODEL 5
REMARK minimizedAffinity -8.02498531
REMARK CNNscore 0.60106796
REMARK CNNaffinity 5.96728563
REMARK  11 active torsions:
REMARK  status: ('A' for Active; 'I' for Inactive)
REMARK    1  A    between atoms: C2_2  and  O2_4 
REMARK    2  A    between atoms: O2_4  and  C3_5 
REMARK    3  A    between atoms: C4_6  and  O3_7 
REMARK    4  A    between atoms: O3_7  and  C5_8 
REMARK    5  A    between atoms: C15_18  and  C16_19 
REMARK    6  A    between atoms: C20_23  and  C21_24 
REMARK    7  A    between atoms: C21_24  and  O4_27 
REMARK    8  A    between atoms: C24_29  and  O6_30 
REMARK    9  A    between atoms: C30_36  and  O7_37 
REMARK   10  A    between atoms: C36_44  and  O9_45 
REMARK   11  A    between atoms: C37_46  and  O10_47 
ROOT
HETATM    1  C5  UNL     1     -16.391  45.063 -24.523  1.00  0.00     0.133 C 
HETATM    2  C6  UNL     1     -16.491  45.853 -25.837  1.00  0.00     0.034 C 
HETATM    3  C7  UNL     1     -15.526  45.415 -26.930  1.00  0.00     0.013 C 
HETATM    4  C8  UNL     1     -14.152  45.095 -26.384  1.00  0.00    -0.025 A 
HETATM    5  C9  UNL     1     -13.200  46.260 -26.295  1.00  0.00     0.021 A 
HETATM    6  C10 UNL     1     -12.904  45.173 -27.316  1.00  0.00    -0.027 A 
HETATM    7  C11 UNL     1     -13.166  45.540 -28.794  1.00  0.00     0.011 C 
HETATM    8  C12 UNL     1     -12.021  45.461 -29.819  1.00  0.00     0.011 C 
HETATM    9  C13 UNL     1     -10.667  45.081 -29.231  1.00  0.00    -0.028 C 
HETATM   10  C14 UNL     1     -10.094  46.337 -28.515  1.00  0.00     0.016 C 
HETATM   11  C15 UNL     1      -9.634  44.476 -30.248  1.00  0.00     0.057 C 
HETATM   12  C24 UNL     1      -8.682  43.656 -29.337  1.00  0.00     0.126 C 
HETATM   13  C25 UNL     1      -9.426  43.422 -28.002  1.00  0.00     0.042 C 
HETATM   14  C26 UNL     1     -10.886  43.859 -28.258  1.00  0.00    -0.029 C 
HETATM   15  C27 UNL     1     -11.630  42.648 -28.906  1.00  0.00     0.016 C 
HETATM   16  C28 UNL     1     -11.646  44.327 -26.987  1.00  0.00     0.006 C 
HETATM   17  C29 UNL     1     -11.862  43.228 -25.921  1.00  0.00     0.038 C 
HETATM   18  C30 UNL     1     -13.310  42.835 -25.639  1.00  0.00     0.124 C 
HETATM   19  C31 UNL     1     -14.140  44.070 -25.235  1.00  0.00     0.034 C 
HETATM   20  C32 UNL     1     -15.561  43.748 -24.637  1.00  0.00    -0.015 C 
HETATM   21  C33 UNL     1     -15.370  43.163 -23.208  1.00  0.00     0.018 C 
HETATM   22  C34 UNL     1     -16.375  42.684 -25.409  1.00  0.00     0.018 C 
ENDROOT
BRANCH   1  23
HETATM   23  O3  UNL     1     -15.779  45.898 -23.524  1.00  0.00    -0.352 OA
BRANCH  23  24
HETATM   24  C4  UNL     1     -16.610  46.132 -22.372  1.00  0.00     0.292 C 
HETATM   25  C3  UNL     1     -18.031  45.651 -22.733  1.00  0.00     0.218 C 
HETATM   26  C37 UNL     1     -18.989  45.761 -21.529  1.00  0.00     0.183 C 
HETATM   27  C36 UNL     1     -18.245  45.760 -20.190  1.00  0.00     0.173 C 
HETATM   28  C35 UNL     1     -16.974  44.923 -20.313  1.00  0.00     0.205 C 
HETATM   29  O8  UNL     1     -16.039  45.477 -21.240  1.00  0.00    -0.356 OA
BRANCH  25  30
HETATM   30  O2  UNL     1     -18.516  46.471 -23.836  1.00  0.00    -0.309 OA
BRANCH  30  31
HETATM   31  C2  UNL     1     -19.593  46.013 -24.514  1.00  0.00     0.255 C 
HETATM   32  C1  UNL     1     -19.581  44.517 -24.590  1.00  0.00     0.126 C 
HETATM   33  O1  UNL     1     -20.440  46.721 -25.041  1.00  0.00    -0.266 OA
ENDBRANCH  30  31
ENDBRANCH  25  30
BRANCH  26  34
HETATM   34  O10 UNL     1     -19.896  44.643 -21.539  1.00  0.00    -0.390 OA
HETATM   35  H60 UNL     1     -20.315  44.629 -22.431  1.00  0.00     0.210 HD
ENDBRANCH  26  34
BRANCH  27  36
HETATM   36  O9  UNL     1     -17.908  47.110 -19.841  1.00  0.00    -0.391 OA
HETATM   37  H58 UNL     1     -17.370  47.071 -19.030  1.00  0.00     0.210 HD
ENDBRANCH  27  36
ENDBRANCH  23  24
ENDBRANCH   1  23
BRANCH  18  38
HETATM   38  O7  UNL     1     -13.859  42.147 -26.758  1.00  0.00    -0.395 OA
HETATM   39  H47 UNL     1     -14.034  42.812 -27.444  1.00  0.00     0.210 HD
ENDBRANCH  18  38
BRANCH  11  40
HETATM   40  C16 UNL     1      -8.995  45.301 -31.411  1.00  0.00     0.065 C 
HETATM   41  C17 UNL     1      -8.619  44.551 -32.687  1.00  0.00     0.046 C 
HETATM   42  C18 UNL     1      -9.850  46.533 -31.774  1.00  0.00     0.041 C 
HETATM   43  C19 UNL     1      -9.402  47.577 -30.781  1.00  0.00     0.038 C 
HETATM   44  C20 UNL     1      -7.911  47.286 -30.687  1.00  0.00     0.156 C 
HETATM   45  O5  UNL     1      -7.759  45.862 -30.887  1.00  0.00    -0.372 OA
BRANCH  44  46
HETATM   46  C21 UNL     1      -7.234  47.752 -29.376  1.00  0.00     0.076 C 
HETATM   47  C22 UNL     1      -5.790  48.186 -29.637  1.00  0.00     0.048 C 
HETATM   48  C23 UNL     1      -7.271  46.641 -28.320  1.00  0.00     0.048 C 
BRANCH  46  49
HETATM   49  O4  UNL     1      -7.927  48.892 -28.845  1.00  0.00    -0.388 OA
HETATM   50  H35 UNL     1      -7.570  49.080 -27.961  1.00  0.00     0.210 HD
ENDBRANCH  46  49
ENDBRANCH  44  46
ENDBRANCH  11  40
BRANCH  12  51
HETATM   51  O6  UNL     1      -7.451  44.317 -29.097  1.00  0.00    -0.395 OA
HETATM   52  H37 UNL     1      -6.936  43.780 -28.472  1.00  0.00     0.210 HD
ENDBRANCH  12  51
TORSDOF 11
ENDMDL
MODEL 6
REMARK minimizedAffinity -9.87577057
REMARK CNNscore 0.593714416
REMARK CNNaffinity 7.52275276
REMARK  11 active torsions:
REMARK  status: ('A' for Active; 'I' for Inactive)
REMARK    1  A    between atoms: C2_2  and  O2_4 
REMARK    2  A    between atoms: O2_4  and  C3_5 
REMARK    3  A    between atoms: C4_6  and  O3_7 
REMARK    4  A    between atoms: O3_7  and  C5_8 
REMARK    5  A    between atoms: C15_18  and  C16_19 
REMARK    6  A    between atoms: C20_23  and  C21_24 
REMARK    7  A    between atoms: C21_24  and  O4_27 
REMARK    8  A    between atoms: C24_29  and  O6_30 
REMARK    9  A    between atoms: C30_36  and  O7_37 
REMARK   10  A    between atoms: C36_44  and  O9_45 
REMARK   11  A    between atoms: C37_46  and  O10_47 
ROOT
HETATM    1  C5  UNL     1      -0.958  52.376 -22.933  1.00  0.00     0.133 C 
HETATM    2  C6  UNL     1      -2.491  52.398 -23.031  1.00  0.00     0.034 C 
HETATM    3  C7  UNL     1      -3.216  51.494 -22.042  1.00  0.00     0.013 C 
HETATM    4  C8  UNL     1      -2.523  50.160 -21.875  1.00  0.00    -0.025 A 
HETATM    5  C9  UNL     1      -2.938  49.085 -22.848  1.00  0.00     0.021 A 
HETATM    6  C10 UNL     1      -3.330  48.917 -21.387  1.00  0.00    -0.027 A 
HETATM    7  C11 UNL     1      -4.821  49.148 -21.054  1.00  0.00     0.011 C 
HETATM    8  C12 UNL     1      -5.642  48.026 -20.396  1.00  0.00     0.011 C 
HETATM    9  C13 UNL     1      -4.886  46.717 -20.196  1.00  0.00    -0.028 C 
HETATM   10  C14 UNL     1      -4.804  46.005 -21.577  1.00  0.00     0.016 C 
HETATM   11  C15 UNL     1      -5.463  45.764 -19.089  1.00  0.00     0.057 C 
HETATM   12  C24 UNL     1      -4.236  44.901 -18.692  1.00  0.00     0.126 C 
HETATM   13  C25 UNL     1      -2.978  45.657 -19.179  1.00  0.00     0.042 C 
HETATM   14  C26 UNL     1      -3.471  47.062 -19.592  1.00  0.00    -0.029 C 
HETATM   15  C27 UNL     1      -3.520  47.939 -18.300  1.00  0.00     0.016 C 
HETATM   16  C28 UNL     1      -2.593  47.757 -20.668  1.00  0.00     0.006 C 
HETATM   17  C29 UNL     1      -1.151  48.085 -20.214  1.00  0.00     0.038 C 
HETATM   18  C30 UNL     1      -0.785  49.566 -20.144  1.00  0.00     0.124 C 
HETATM   19  C31 UNL     1      -1.033  50.252 -21.503  1.00  0.00     0.034 C 
HETATM   20  C32 UNL     1      -0.417  51.696 -21.638  1.00  0.00    -0.015 C 
HETATM   21  C33 UNL     1       1.128  51.560 -21.765  1.00  0.00     0.018 C 
HETATM   22  C34 UNL     1      -0.648  52.627 -20.426  1.00  0.00     0.018 C 
ENDROOT
BRANCH   1  23
HETATM   23  O3  UNL     1      -0.430  51.669 -24.069  1.00  0.00    -0.352 OA
BRANCH  23  24
HETATM   24  C4  UNL     1      -1.027  52.051 -25.322  1.00  0.00     0.292 C 
HETATM   25  C3  UNL     1      -1.089  50.784 -26.199  1.00  0.00     0.218 C 
HETATM   26  C37 UNL     1      -1.807  51.056 -27.538  1.00  0.00     0.183 C 
HETATM   27  C36 UNL     1      -2.747  52.262 -27.459  1.00  0.00     0.173 C 
HETATM   28  C35 UNL     1      -3.308  52.382 -26.044  1.00  0.00     0.205 C 
HETATM   29  O8  UNL     1      -2.296  52.655 -25.073  1.00  0.00    -0.356 OA
BRANCH  25  30
HETATM   30  O2  UNL     1       0.278  50.341 -26.446  1.00  0.00    -0.309 OA
BRANCH  30  31
HETATM   31  C2  UNL     1       1.102  51.210 -27.074  1.00  0.00     0.255 C 
HETATM   32  C1  UNL     1       2.397  51.348 -26.335  1.00  0.00     0.126 C 
HETATM   33  O1  UNL     1       0.815  51.842 -28.081  1.00  0.00    -0.266 OA
ENDBRANCH  30  31
ENDBRANCH  25  30
BRANCH  26  34
HETATM   34  O10 UNL     1      -2.588  49.901 -27.901  1.00  0.00    -0.390 OA
HETATM   35  H60 UNL     1      -1.974  49.131 -27.884  1.00  0.00     0.210 HD
ENDBRANCH  26  34
BRANCH  27  36
HETATM   36  O9  UNL     1      -2.015  53.449 -27.795  1.00  0.00    -0.391 OA
HETATM   37  H58 UNL     1      -2.615  54.204 -27.661  1.00  0.00     0.210 HD
ENDBRANCH  27  36
ENDBRANCH  23  24
ENDBRANCH   1  23
BRANCH  18  38
HETATM   38  O7  UNL     1      -1.485  50.195 -19.076  1.00  0.00    -0.395 OA
HETATM   39  H47 UNL     1      -2.407  50.301 -19.362  1.00  0.00     0.210 HD
ENDBRANCH  18  38
BRANCH  11  40
HETATM   40  C16 UNL     1      -6.845  45.047 -19.214  1.00  0.00     0.065 C 
HETATM   41  C17 UNL     1      -7.053  44.114 -20.406  1.00  0.00     0.046 C 
HETATM   42  C18 UNL     1      -7.226  44.310 -17.913  1.00  0.00     0.041 C 
HETATM   43  C19 UNL     1      -7.858  45.389 -17.070  1.00  0.00     0.038 C 
HETATM   44  C20 UNL     1      -8.615  46.191 -18.118  1.00  0.00     0.156 C 
HETATM   45  O5  UNL     1      -7.845  46.097 -19.338  1.00  0.00    -0.372 OA
BRANCH  44  46
HETATM   46  C21 UNL     1      -8.902  47.663 -17.737  1.00  0.00     0.076 C 
HETATM   47  C22 UNL     1     -10.133  47.758 -16.833  1.00  0.00     0.048 C 
HETATM   48  C23 UNL     1      -9.100  48.520 -18.993  1.00  0.00     0.048 C 
BRANCH  46  49
HETATM   49  O4  UNL     1      -7.795  48.203 -17.001  1.00  0.00    -0.388 OA
HETATM   50  H35 UNL     1      -7.939  49.158 -16.892  1.00  0.00     0.210 HD
ENDBRANCH  46  49
ENDBRANCH  44  46
ENDBRANCH  11  40
BRANCH  12  51
HETATM   51  O6  UNL     1      -4.272  43.604 -19.262  1.00  0.00    -0.395 OA
HETATM   52  H37 UNL     1      -3.448  43.146 -19.026  1.00  0.00     0.210 HD
ENDBRANCH  12  51
TORSDOF 11
ENDMDL
MODEL 7
REMARK minimizedAffinity -8.19424438
REMARK CNNscore 0.579453826
REMARK CNNaffinity 6.40378952
REMARK  11 active torsions:
REMARK  status: ('A' for Active; 'I' for Inactive)
REMARK    1  A    between atoms: C2_2  and  O2_4 
REMARK    2  A    between atoms: O2_4  and  C3_5 
REMARK    3  A    between atoms: C4_6  and  O3_7 
REMARK    4  A    between atoms: O3_7  and  C5_8 
REMARK    5  A    between atoms: C15_18  and  C16_19 
REMARK    6  A    between atoms: C20_23  and  C21_24 
REMARK    7  A    between atoms: C21_24  and  O4_27 
REMARK    8  A    between atoms: C24_29  and  O6_30 
REMARK    9  A    between atoms: C30_36  and  O7_37 
REMARK   10  A    between atoms: C36_44  and  O9_45 
REMARK   11  A    between atoms: C37_46  and  O10_47 
ROOT
HETATM    1  C5  UNL     1     -15.139  44.873 -25.586  1.00  0.00     0.133 C 
HETATM    2  C6  UNL     1     -14.759  43.750 -26.563  1.00  0.00     0.034 C 
HETATM    3  C7  UNL     1     -13.410  43.918 -27.249  1.00  0.00     0.013 C 
HETATM    4  C8  UNL     1     -13.154  45.350 -27.662  1.00  0.00    -0.025 A 
HETATM    5  C9  UNL     1     -13.666  45.735 -29.027  1.00  0.00     0.021 A 
HETATM    6  C10 UNL     1     -12.160  45.663 -28.824  1.00  0.00    -0.027 A 
HETATM    7  C11 UNL     1     -11.445  44.454 -29.466  1.00  0.00     0.011 C 
HETATM    8  C12 UNL     1     -10.319  44.682 -30.488  1.00  0.00     0.011 C 
HETATM    9  C13 UNL     1     -10.059  46.145 -30.832  1.00  0.00    -0.028 C 
HETATM   10  C14 UNL     1     -11.187  46.609 -31.798  1.00  0.00     0.016 C 
HETATM   11  C15 UNL     1      -8.635  46.461 -31.414  1.00  0.00     0.057 C 
HETATM   12  C24 UNL     1      -8.446  47.966 -31.085  1.00  0.00     0.126 C 
HETATM   13  C25 UNL     1      -9.464  48.315 -29.974  1.00  0.00     0.042 C 
HETATM   14  C26 UNL     1     -10.024  46.962 -29.483  1.00  0.00    -0.029 C 
HETATM   15  C27 UNL     1      -9.027  46.401 -28.419  1.00  0.00     0.016 C 
HETATM   16  C28 UNL     1     -11.452  47.042 -28.878  1.00  0.00     0.006 C 
HETATM   17  C29 UNL     1     -11.559  47.880 -27.582  1.00  0.00     0.038 C 
HETATM   18  C30 UNL     1     -11.959  47.122 -26.318  1.00  0.00     0.124 C 
HETATM   19  C31 UNL     1     -13.296  46.382 -26.529  1.00  0.00     0.034 C 
HETATM   20  C32 UNL     1     -13.953  45.815 -25.214  1.00  0.00    -0.015 C 
HETATM   21  C33 UNL     1     -14.518  47.011 -24.393  1.00  0.00     0.018 C 
HETATM   22  C34 UNL     1     -12.986  45.082 -24.256  1.00  0.00     0.018 C 
ENDROOT
BRANCH   1  23
HETATM   23  O3  UNL     1     -16.181  45.669 -26.176  1.00  0.00    -0.352 OA
BRANCH  23  24
HETATM   24  C4  UNL     1     -17.483  45.438 -25.609  1.00  0.00     0.292 C 
HETATM   25  C3  UNL     1     -18.022  44.132 -26.229  1.00  0.00     0.218 C 
HETATM   26  C37 UNL     1     -19.379  43.730 -25.614  1.00  0.00     0.183 C 
HETATM   27  C36 UNL     1     -19.590  44.335 -24.223  1.00  0.00     0.173 C 
HETATM   28  C35 UNL     1     -18.242  44.487 -23.522  1.00  0.00     0.205 C 
HETATM   29  O8  UNL     1     -17.378  45.411 -24.186  1.00  0.00    -0.356 OA
BRANCH  25  30
HETATM   30  O2  UNL     1     -18.166  44.342 -27.664  1.00  0.00    -0.309 OA
BRANCH  30  31
HETATM   31  C2  UNL     1     -17.999  43.263 -28.463  1.00  0.00     0.255 C 
HETATM   32  C1  UNL     1     -18.537  43.527 -29.836  1.00  0.00     0.126 C 
HETATM   33  O1  UNL     1     -17.522  42.195 -28.105  1.00  0.00    -0.266 OA
ENDBRANCH  30  31
ENDBRANCH  25  30
BRANCH  26  34
HETATM   34  O10 UNL     1     -19.440  42.296 -25.493  1.00  0.00    -0.390 OA
HETATM   35  H60 UNL     1     -19.240  41.930 -26.387  1.00  0.00     0.210 HD
ENDBRANCH  26  34
BRANCH  27  36
HETATM   36  O9  UNL     1     -20.215  45.619 -24.361  1.00  0.00    -0.391 OA
HETATM   37  H58 UNL     1     -20.264  46.011 -23.472  1.00  0.00     0.210 HD
ENDBRANCH  27  36
ENDBRANCH  23  24
ENDBRANCH   1  23
BRANCH  18  38
HETATM   38  O7  UNL     1     -10.908  46.252 -25.914  1.00  0.00    -0.395 OA
HETATM   39  H47 UNL     1     -10.910  45.497 -26.526  1.00  0.00     0.210 HD
ENDBRANCH  18  38
BRANCH  11  40
HETATM   40  C16 UNL     1      -8.151  45.957 -32.811  1.00  0.00     0.065 C 
HETATM   41  C17 UNL     1      -8.816  44.705 -33.381  1.00  0.00     0.046 C 
HETATM   42  C18 UNL     1      -8.185  47.081 -33.867  1.00  0.00     0.041 C 
HETATM   43  C19 UNL     1      -6.871  47.793 -33.665  1.00  0.00     0.038 C 
HETATM   44  C20 UNL     1      -5.940  46.631 -33.354  1.00  0.00     0.156 C 
HETATM   45  O5  UNL     1      -6.739  45.639 -32.668  1.00  0.00    -0.372 OA
BRANCH  44  46
HETATM   46  C21 UNL     1      -4.674  47.002 -32.545  1.00  0.00     0.076 C 
HETATM   47  C22 UNL     1      -3.599  47.589 -33.461  1.00  0.00     0.048 C 
HETATM   48  C23 UNL     1      -4.128  45.778 -31.800  1.00  0.00     0.048 C 
BRANCH  46  49
HETATM   49  O4  UNL     1      -4.994  48.008 -31.571  1.00  0.00    -0.388 OA
HETATM   50  H35 UNL     1      -4.223  48.125 -30.991  1.00  0.00     0.210 HD
ENDBRANCH  46  49
ENDBRANCH  44  46
ENDBRANCH  11  40
BRANCH  12  51
HETATM   51  O6  UNL     1      -8.652  48.802 -32.211  1.00  0.00    -0.395 OA
HETATM   52  H37 UNL     1      -8.582  49.726 -31.919  1.00  0.00     0.210 HD
ENDBRANCH  12  51
TORSDOF 11
ENDMDL
MODEL 8
REMARK minimizedAffinity -9.09379292
REMARK CNNscore 0.578571856
REMARK CNNaffinity 6.56262922
REMARK  11 active torsions:
REMARK  status: ('A' for Active; 'I' for Inactive)
REMARK    1  A    between atoms: C2_2  and  O2_4 
REMARK    2  A    between atoms: O2_4  and  C3_5 
REMARK    3  A    between atoms: C4_6  and  O3_7 
REMARK    4  A    between atoms: O3_7  and  C5_8 
REMARK    5  A    between atoms: C15_18  and  C16_19 
REMARK    6  A    between atoms: C20_23  and  C21_24 
REMARK    7  A    between atoms: C21_24  and  O4_27 
REMARK    8  A    between atoms: C24_29  and  O6_30 
REMARK    9  A    between atoms: C30_36  and  O7_37 
REMARK   10  A    between atoms: C36_44  and  O9_45 
REMARK   11  A    between atoms: C37_46  and  O10_47 
ROOT
HETATM    1  C5  UNL     1     -14.723  43.553 -26.251  1.00  0.00     0.133 C 
HETATM    2  C6  UNL     1     -14.555  43.353 -27.764  1.00  0.00     0.034 C 
HETATM    3  C7  UNL     1     -13.129  43.493 -28.281  1.00  0.00     0.013 C 
HETATM    4  C8  UNL     1     -12.392  44.635 -27.619  1.00  0.00    -0.025 A 
HETATM    5  C9  UNL     1     -12.547  45.981 -28.282  1.00  0.00     0.021 A 
HETATM    6  C10 UNL     1     -11.183  45.308 -28.341  1.00  0.00    -0.027 A 
HETATM    7  C11 UNL     1     -10.778  44.715 -29.708  1.00  0.00     0.011 C 
HETATM    8  C12 UNL     1      -9.491  45.195 -30.401  1.00  0.00     0.011 C 
HETATM    9  C13 UNL     1      -8.752  46.310 -29.669  1.00  0.00    -0.028 C 
HETATM   10  C14 UNL     1      -9.523  47.636 -29.927  1.00  0.00     0.016 C 
HETATM   11  C15 UNL     1      -7.227  46.452 -30.017  1.00  0.00     0.057 C 
HETATM   12  C24 UNL     1      -6.645  47.161 -28.765  1.00  0.00     0.126 C 
HETATM   13  C25 UNL     1      -7.668  46.967 -27.622  1.00  0.00     0.042 C 
HETATM   14  C26 UNL     1      -8.679  45.922 -28.142  1.00  0.00    -0.029 C 
HETATM   15  C27 UNL     1      -8.076  44.508 -27.866  1.00  0.00     0.016 C 
HETATM   16  C28 UNL     1     -10.092  46.026 -27.504  1.00  0.00     0.006 C 
HETATM   17  C29 UNL     1     -10.139  45.734 -25.986  1.00  0.00     0.038 C 
HETATM   18  C30 UNL     1     -10.939  44.506 -25.558  1.00  0.00     0.124 C 
HETATM   19  C31 UNL     1     -12.388  44.593 -26.080  1.00  0.00     0.034 C 
HETATM   20  C32 UNL     1     -13.381  43.539 -25.457  1.00  0.00    -0.015 C 
HETATM   21  C33 UNL     1     -13.676  43.954 -23.987  1.00  0.00     0.018 C 
HETATM   22  C34 UNL     1     -12.841  42.093 -25.374  1.00  0.00     0.018 C 
ENDROOT
BRANCH   1  23
HETATM   23  O3  UNL     1     -15.372  44.816 -26.019  1.00  0.00    -0.352 OA
BRANCH  23  24
HETATM   24  C4  UNL     1     -16.770  44.702 -25.695  1.00  0.00     0.292 C 
HETATM   25  C3  UNL     1     -17.170  45.995 -24.954  1.00  0.00     0.218 C 
HETATM   26  C37 UNL     1     -18.682  46.026 -24.644  1.00  0.00     0.183 C 
HETATM   27  C36 UNL     1     -19.487  45.123 -25.584  1.00  0.00     0.173 C 
HETATM   28  C35 UNL     1     -18.802  45.065 -26.948  1.00  0.00     0.205 C 
HETATM   29  O8  UNL     1     -17.511  44.457 -26.889  1.00  0.00    -0.356 OA
BRANCH  25  30
HETATM   30  O2  UNL     1     -16.404  46.059 -23.716  1.00  0.00    -0.309 OA
BRANCH  30  31
HETATM   31  C2  UNL     1     -15.632  47.153 -23.527  1.00  0.00     0.255 C 
HETATM   32  C1  UNL     1     -15.059  47.171 -22.143  1.00  0.00     0.126 C 
HETATM   33  O1  UNL     1     -15.461  48.040 -24.353  1.00  0.00    -0.266 OA
ENDBRANCH  30  31
ENDBRANCH  25  30
BRANCH  26  34
HETATM   34  O10 UNL     1     -19.169  47.373 -24.789  1.00  0.00    -0.390 OA
HETATM   35  H60 UNL     1     -18.596  47.941 -24.223  1.00  0.00     0.210 HD
ENDBRANCH  26  34
BRANCH  27  36
HETATM   36  O9  UNL     1     -19.561  43.807 -25.020  1.00  0.00    -0.391 OA
HETATM   37  H58 UNL     1     -20.008  43.239 -25.672  1.00  0.00     0.210 HD
ENDBRANCH  27  36
ENDBRANCH  23  24
ENDBRANCH   1  23
BRANCH  18  38
HETATM   38  O7  UNL     1     -10.276  43.318 -25.975  1.00  0.00    -0.395 OA
HETATM   39  H47 UNL     1     -10.412  43.236 -26.934  1.00  0.00     0.210 HD
ENDBRANCH  18  38
BRANCH  11  40
HETATM   40  C16 UNL     1      -6.709  46.911 -31.417  1.00  0.00     0.065 C 
HETATM   41  C17 UNL     1      -7.403  48.104 -32.073  1.00  0.00     0.046 C 
HETATM   42  C18 UNL     1      -5.184  47.143 -31.415  1.00  0.00     0.041 C 
HETATM   43  C19 UNL     1      -4.618  45.765 -31.653  1.00  0.00     0.038 C 
HETATM   44  C20 UNL     1      -5.622  45.191 -32.642  1.00  0.00     0.156 C 
HETATM   45  O5  UNL     1      -6.900  45.784 -32.317  1.00  0.00    -0.372 OA
BRANCH  44  46
HETATM   46  C21 UNL     1      -5.702  43.646 -32.673  1.00  0.00     0.076 C 
HETATM   47  C22 UNL     1      -6.486  43.120 -31.469  1.00  0.00     0.048 C 
HETATM   48  C23 UNL     1      -4.298  43.030 -32.703  1.00  0.00     0.048 C 
BRANCH  46  49
HETATM   49  O4  UNL     1      -6.401  43.216 -33.852  1.00  0.00    -0.388 OA
HETATM   50  H35 UNL     1      -6.320  42.250 -33.917  1.00  0.00     0.210 HD
ENDBRANCH  46  49
ENDBRANCH  44  46
ENDBRANCH  11  40
BRANCH  12  51
HETATM   51  O6  UNL     1      -6.412  48.543 -28.977  1.00  0.00    -0.395 OA
HETATM   52  H37 UNL     1      -6.112  48.933 -28.139  1.00  0.00     0.210 HD
ENDBRANCH  12  51
TORSDOF 11
ENDMDL
MODEL 9
REMARK minimizedAffinity -7.58754206
REMARK CNNscore 0.5719558
REMARK CNNaffinity 6.01209688
REMARK  11 active torsions:
REMARK  status: ('A' for Active; 'I' for Inactive)
REMARK    1  A    between atoms: C2_2  and  O2_4 
REMARK    2  A    between atoms: O2_4  and  C3_5 
REMARK    3  A    between atoms: C4_6  and  O3_7 
REMARK    4  A    between atoms: O3_7  and  C5_8 
REMARK    5  A    between atoms: C15_18  and  C16_19 
REMARK    6  A    between atoms: C20_23  and  C21_24 
REMARK    7  A    between atoms: C21_24  and  O4_27 
REMARK    8  A    between atoms: C24_29  and  O6_30 
REMARK    9  A    between atoms: C30_36  and  O7_37 
REMARK   10  A    between atoms: C36_44  and  O9_45 
REMARK   11  A    between atoms: C37_46  and  O10_47 
ROOT
HETATM    1  C5  UNL     1     -17.601  43.823 -22.097  1.00  0.00     0.133 C 
HETATM    2  C6  UNL     1     -16.675  42.735 -22.660  1.00  0.00     0.034 C 
HETATM    3  C7  UNL     1     -15.415  43.249 -23.344  1.00  0.00     0.013 C 
HETATM    4  C8  UNL     1     -15.684  44.474 -24.189  1.00  0.00    -0.025 A 
HETATM    5  C9  UNL     1     -16.100  44.204 -25.613  1.00  0.00     0.021 A 
HETATM    6  C10 UNL     1     -14.734  44.829 -25.375  1.00  0.00    -0.027 A 
HETATM    7  C11 UNL     1     -13.517  43.901 -25.587  1.00  0.00     0.011 C 
HETATM    8  C12 UNL     1     -12.435  44.278 -26.613  1.00  0.00     0.011 C 
HETATM    9  C13 UNL     1     -12.721  45.551 -27.402  1.00  0.00    -0.028 C 
HETATM   10  C14 UNL     1     -13.787  45.206 -28.482  1.00  0.00     0.016 C 
HETATM   11  C15 UNL     1     -11.467  46.253 -28.034  1.00  0.00     0.057 C 
HETATM   12  C24 UNL     1     -11.933  47.724 -28.200  1.00  0.00     0.126 C 
HETATM   13  C25 UNL     1     -13.155  47.917 -27.274  1.00  0.00     0.042 C 
HETATM   14  C26 UNL     1     -13.206  46.654 -26.384  1.00  0.00    -0.029 C 
HETATM   15  C27 UNL     1     -12.236  46.889 -25.182  1.00  0.00     0.016 C 
HETATM   16  C28 UNL     1     -14.623  46.299 -25.857  1.00  0.00     0.006 C 
HETATM   17  C29 UNL     1     -15.237  47.346 -24.897  1.00  0.00     0.038 C 
HETATM   18  C30 UNL     1     -15.487  46.884 -23.464  1.00  0.00     0.124 C 
HETATM   19  C31 UNL     1     -16.381  45.628 -23.446  1.00  0.00     0.034 C 
HETATM   20  C32 UNL     1     -16.948  45.238 -22.028  1.00  0.00    -0.015 C 
HETATM   21  C33 UNL     1     -18.049  46.267 -21.641  1.00  0.00     0.018 C 
HETATM   22  C34 UNL     1     -15.922  45.281 -20.873  1.00  0.00     0.018 C 
ENDROOT
BRANCH   1  23
HETATM   23  O3  UNL     1     -18.775  43.908 -22.926  1.00  0.00    -0.352 OA
BRANCH  23  24
HETATM   24  C4  UNL     1     -19.962  43.374 -22.311  1.00  0.00     0.292 C 
HETATM   25  C3  UNL     1     -20.285  42.046 -23.027  1.00  0.00     0.218 C 
HETATM   26  C37 UNL     1     -21.489  41.331 -22.379  1.00  0.00     0.183 C 
HETATM   27  C36 UNL     1     -21.706  41.759 -20.924  1.00  0.00     0.173 C 
HETATM   28  C35 UNL     1     -20.364  42.113 -20.290  1.00  0.00     0.205 C 
HETATM   29  O8  UNL     1     -19.746  43.245 -20.906  1.00  0.00    -0.356 OA
BRANCH  25  30
HETATM   30  O2  UNL     1     -20.574  42.347 -24.423  1.00  0.00    -0.309 OA
BRANCH  30  31
HETATM   31  C2  UNL     1     -20.121  41.470 -25.348  1.00  0.00     0.255 C 
HETATM   32  C1  UNL     1     -19.055  42.093 -26.197  1.00  0.00     0.126 C 
HETATM   33  O1  UNL     1     -20.553  40.338 -25.510  1.00  0.00    -0.266 OA
ENDBRANCH  30  31
ENDBRANCH  25  30
BRANCH  26  34
HETATM   34  O10 UNL     1     -21.264  39.908 -22.399  1.00  0.00    -0.390 OA
HETATM   35  H60 UNL     1     -21.066  39.669 -23.334  1.00  0.00     0.210 HD
ENDBRANCH  26  34
BRANCH  27  36
HETATM   36  O9  UNL     1     -22.575  42.900 -20.898  1.00  0.00    -0.391 OA
HETATM   37  H58 UNL     1     -22.631  43.197 -19.972  1.00  0.00     0.210 HD
ENDBRANCH  27  36
ENDBRANCH  23  24
ENDBRANCH   1  23
BRANCH  18  38
HETATM   38  O7  UNL     1     -14.250  46.687 -22.788  1.00  0.00    -0.395 OA
HETATM   39  H47 UNL     1     -13.867  45.861 -23.127  1.00  0.00     0.210 HD
ENDBRANCH  18  38
BRANCH  11  40
HETATM   40  C16 UNL     1     -10.626  45.623 -29.190  1.00  0.00     0.065 C 
HETATM   41  C17 UNL     1     -10.432  44.108 -29.179  1.00  0.00     0.046 C 
HETATM   42  C18 UNL     1     -11.141  46.063 -30.576  1.00  0.00     0.041 C 
HETATM   43  C19 UNL     1     -10.459  47.390 -30.799  1.00  0.00     0.038 C 
HETATM   44  C20 UNL     1      -9.090  47.136 -30.186  1.00  0.00     0.156 C 
HETATM   45  O5  UNL     1      -9.297  46.206 -29.098  1.00  0.00    -0.372 OA
BRANCH  44  46
HETATM   46  C21 UNL     1      -8.335  48.403 -29.717  1.00  0.00     0.076 C 
HETATM   47  C22 UNL     1      -8.544  49.553 -30.704  1.00  0.00     0.048 C 
HETATM   48  C23 UNL     1      -6.839  48.112 -29.550  1.00  0.00     0.048 C 
BRANCH  46  49
HETATM   49  O4  UNL     1      -8.848  48.836 -28.448  1.00  0.00    -0.388 OA
HETATM   50  H35 UNL     1      -8.273  49.545 -28.115  1.00  0.00     0.210 HD
ENDBRANCH  46  49
ENDBRANCH  44  46
ENDBRANCH  11  40
BRANCH  12  51
HETATM   51  O6  UNL     1     -12.283  48.040 -29.536  1.00  0.00    -0.395 OA
HETATM   52  H37 UNL     1     -12.624  48.949 -29.554  1.00  0.00     0.210 HD
ENDBRANCH  12  51
TORSDOF 11
ENDMDL
