MODEL 1
REMARK minimizedAffinity -10.047102
REMARK  8 active torsions:
REMARK  status: ('A' for Active; 'I' for Inactive)
REMARK    1  A    between atoms: C2_2  and  C3_3 
REMARK    2  A    between atoms: C2_2  and  C27_30 
REMARK    3  A    between atoms: C3_3  and  C4_4 
REMARK    4  A    between atoms: C4_4  and  C5_5 
REMARK    5  A    between atoms: C5_5  and  C7_7 
REMARK    6  A    between atoms: C26_28  and  O3_29 
REMARK    7  A    between atoms: C27_30  and  C29_32 
REMARK    8  A    between atoms: C29_32  and  O5_34 
ROOT
HETATM    1  C7  UNL     1      -1.026  51.314 -24.957  1.00  0.00    -0.002 C 
HETATM    2  C8  UNL     1      -0.244  52.647 -25.127  1.00  0.00     0.006 C 
HETATM    3  C9  UNL     1       0.219  53.065 -23.723  1.00  0.00     0.010 C 
HETATM    4  C10 UNL     1      -0.056  51.835 -22.856  1.00  0.00     0.027 C 
HETATM    5  C11 UNL     1      -0.055  51.931 -21.348  1.00  0.00    -0.036 C 
HETATM    6  C12 UNL     1      -0.754  51.047 -20.592  1.00  0.00     0.002 C 
HETATM    7  C13 UNL     1      -1.589  49.990 -21.297  1.00  0.00     0.157 C 
HETATM    8  O1  UNL     1      -2.249  49.173 -20.658  1.00  0.00    -0.293 OA
HETATM    9  C14 UNL     1      -1.593  49.920 -22.817  1.00  0.00     0.093 C 
HETATM   10  C15 UNL     1      -1.389  51.299 -23.442  1.00  0.00    -0.026 C 
HETATM   11  C16 UNL     1      -2.603  52.200 -23.112  1.00  0.00     0.016 C 
HETATM   12  C17 UNL     1      -0.760  51.068 -19.046  1.00  0.00    -0.008 C 
HETATM   13  C18 UNL     1      -2.138  51.647 -18.623  1.00  0.00     0.021 C 
HETATM   14  C19 UNL     1      -0.593  49.642 -18.427  1.00  0.00     0.022 C 
HETATM   15  C20 UNL     1       0.143  49.579 -17.088  1.00  0.00     0.080 C 
HETATM   16  C21 UNL     1      -0.029  50.842 -16.284  1.00  0.00     0.131 C 
HETATM   17  O2  UNL     1      -0.390  50.811 -15.108  1.00  0.00    -0.298 OA
HETATM   18  C22 UNL     1       0.344  52.150 -16.967  1.00  0.00     0.056 C 
HETATM   19  C23 UNL     1       1.658  52.650 -16.367  1.00  0.00     0.018 C 
HETATM   20  C24 UNL     1       0.424  51.943 -18.499  1.00  0.00     0.012 C 
HETATM   21  C25 UNL     1       0.526  53.273 -19.259  1.00  0.00     0.042 C 
HETATM   22  C26 UNL     1       0.797  53.019 -20.741  1.00  0.00     0.148 C 
ENDROOT
BRANCH   1  23
HETATM   23  C5  UNL     1      -2.062  51.067 -26.088  1.00  0.00    -0.014 C 
HETATM   24  C6  UNL     1      -3.408  51.794 -25.947  1.00  0.00     0.010 C 
BRANCH  23  25
HETATM   25  C4  UNL     1      -2.350  49.577 -26.395  1.00  0.00     0.009 C 
BRANCH  25  26
HETATM   26  C3  UNL     1      -3.111  48.785 -25.317  1.00  0.00     0.034 C 
BRANCH  26  27
HETATM   27  C2  UNL     1      -4.570  48.408 -25.556  1.00  0.00    -0.075 C 
HETATM   28  C1  UNL     1      -5.085  48.193 -26.781  1.00  0.00     0.015 C 
BRANCH  27  29
HETATM   29  C27 UNL     1      -5.409  48.352 -24.271  1.00  0.00     0.107 C 
HETATM   30  C28 UNL     1      -4.641  48.005 -22.992  1.00  0.00     0.026 C 
BRANCH  29  31
HETATM   31  C29 UNL     1      -6.162  49.664 -24.048  1.00  0.00     0.147 C 
HETATM   32  O4  UNL     1      -5.768  50.678 -23.494  1.00  0.00    -0.650 OA
BRANCH  31  33
HETATM   33  O5  UNL     1      -7.414  49.626 -24.559  1.00  0.00    -0.776 OA
HETATM   34  H42 UNL     1      -7.782  50.509 -24.347  1.00  0.00     0.167 HD
ENDBRANCH  31  33
ENDBRANCH  29  31
ENDBRANCH  27  29
ENDBRANCH  26  27
ENDBRANCH  25  26
ENDBRANCH  23  25
ENDBRANCH   1  23
BRANCH  22  35
HETATM   35  O3  UNL     1       2.162  52.634 -20.876  1.00  0.00    -0.391 OA
HETATM   36  H37 UNL     1       2.361  52.565 -21.825  1.00  0.00     0.210 HD
ENDBRANCH  22  35
TORSDOF 8
ENDMDL
MODEL 2
REMARK minimizedAffinity -10.0315065
REMARK  8 active torsions:
REMARK  status: ('A' for Active; 'I' for Inactive)
REMARK    1  A    between atoms: C2_2  and  C3_3 
REMARK    2  A    between atoms: C2_2  and  C27_30 
REMARK    3  A    between atoms: C3_3  and  C4_4 
REMARK    4  A    between atoms: C4_4  and  C5_5 
REMARK    5  A    between atoms: C5_5  and  C7_7 
REMARK    6  A    between atoms: C26_28  and  O3_29 
REMARK    7  A    between atoms: C27_30  and  C29_32 
REMARK    8  A    between atoms: C29_32  and  O5_34 
ROOT
HETATM    1  C7  UNL     1      -0.851  51.354 -25.246  1.00  0.00    -0.002 C 
HETATM    2  C8  UNL     1      -0.075  52.695 -25.371  1.00  0.00     0.006 C 
HETATM    3  C9  UNL     1       0.319  53.107 -23.946  1.00  0.00     0.010 C 
HETATM    4  C10 UNL     1       0.016  51.869 -23.100  1.00  0.00     0.027 C 
HETATM    5  C11 UNL     1      -0.053  51.955 -21.593  1.00  0.00    -0.036 C 
HETATM    6  C12 UNL     1      -0.778  51.059 -20.876  1.00  0.00     0.002 C 
HETATM    7  C13 UNL     1      -1.570  50.000 -21.625  1.00  0.00     0.157 C 
HETATM    8  O1  UNL     1      -2.251  49.172 -21.022  1.00  0.00    -0.293 OA
HETATM    9  C14 UNL     1      -1.503  49.940 -23.144  1.00  0.00     0.093 C 
HETATM   10  C15 UNL     1      -1.284  51.325 -23.750  1.00  0.00    -0.026 C 
HETATM   11  C16 UNL     1      -2.519  52.213 -23.470  1.00  0.00     0.016 C 
HETATM   12  C17 UNL     1      -0.855  51.069 -19.332  1.00  0.00    -0.008 C 
HETATM   13  C18 UNL     1      -2.256  51.633 -18.969  1.00  0.00     0.021 C 
HETATM   14  C19 UNL     1      -0.704  49.641 -18.714  1.00  0.00     0.022 C 
HETATM   15  C20 UNL     1      -0.030  49.575 -17.343  1.00  0.00     0.080 C 
HETATM   16  C21 UNL     1      -0.250  50.831 -16.541  1.00  0.00     0.131 C 
HETATM   17  O2  UNL     1      -0.664  50.789 -15.382  1.00  0.00    -0.298 OA
HETATM   18  C22 UNL     1       0.142  52.146 -17.197  1.00  0.00     0.056 C 
HETATM   19  C23 UNL     1       1.422  52.654 -16.534  1.00  0.00     0.018 C 
HETATM   20  C24 UNL     1       0.295  51.951 -18.725  1.00  0.00     0.012 C 
HETATM   21  C25 UNL     1       0.419  53.287 -19.470  1.00  0.00     0.042 C 
HETATM   22  C26 UNL     1       0.760  53.046 -20.940  1.00  0.00     0.148 C 
ENDROOT
BRANCH   1  23
HETATM   23  C5  UNL     1      -1.832  51.106 -26.426  1.00  0.00    -0.014 C 
HETATM   24  C6  UNL     1      -3.129  51.928 -26.415  1.00  0.00     0.010 C 
BRANCH  23  25
HETATM   25  C4  UNL     1      -2.206  49.622 -26.662  1.00  0.00     0.009 C 
BRANCH  25  26
HETATM   26  C3  UNL     1      -3.608  49.346 -27.231  1.00  0.00     0.034 C 
BRANCH  26  27
HETATM   27  C2  UNL     1      -4.610  48.550 -26.400  1.00  0.00    -0.075 C 
HETATM   28  C1  UNL     1      -4.677  48.623 -25.057  1.00  0.00     0.015 C 
BRANCH  27  29
HETATM   29  C27 UNL     1      -5.497  47.614 -27.235  1.00  0.00     0.107 C 
HETATM   30  C28 UNL     1      -6.935  47.444 -26.735  1.00  0.00     0.026 C 
BRANCH  29  31
HETATM   31  C29 UNL     1      -5.537  48.054 -28.698  1.00  0.00     0.147 C 
HETATM   32  O4  UNL     1      -4.709  47.852 -29.572  1.00  0.00    -0.650 OA
BRANCH  31  33
HETATM   33  O5  UNL     1      -6.663  48.744 -28.992  1.00  0.00    -0.776 OA
HETATM   34  H42 UNL     1      -6.561  48.968 -29.941  1.00  0.00     0.167 HD
ENDBRANCH  31  33
ENDBRANCH  29  31
ENDBRANCH  27  29
ENDBRANCH  26  27
ENDBRANCH  25  26
ENDBRANCH  23  25
ENDBRANCH   1  23
BRANCH  22  35
HETATM   35  O3  UNL     1       2.134  52.674 -21.015  1.00  0.00    -0.391 OA
HETATM   36  H37 UNL     1       2.377  52.613 -21.954  1.00  0.00     0.210 HD
ENDBRANCH  22  35
TORSDOF 8
ENDMDL
MODEL 3
REMARK minimizedAffinity -10.0172062
REMARK  8 active torsions:
REMARK  status: ('A' for Active; 'I' for Inactive)
REMARK    1  A    between atoms: C2_2  and  C3_3 
REMARK    2  A    between atoms: C2_2  and  C27_30 
REMARK    3  A    between atoms: C3_3  and  C4_4 
REMARK    4  A    between atoms: C4_4  and  C5_5 
REMARK    5  A    between atoms: C5_5  and  C7_7 
REMARK    6  A    between atoms: C26_28  and  O3_29 
REMARK    7  A    between atoms: C27_30  and  C29_32 
REMARK    8  A    between atoms: C29_32  and  O5_34 
ROOT
HETATM    1  C7  UNL     1      -0.074  50.411 -18.477  1.00  0.00    -0.002 C 
HETATM    2  C8  UNL     1      -1.005  49.244 -18.041  1.00  0.00     0.006 C 
HETATM    3  C9  UNL     1      -1.780  48.812 -19.294  1.00  0.00     0.010 C 
HETATM    4  C10 UNL     1      -1.072  49.534 -20.441  1.00  0.00     0.027 C 
HETATM    5  C11 UNL     1      -1.716  49.647 -21.804  1.00  0.00    -0.036 C 
HETATM    6  C12 UNL     1      -1.383  50.653 -22.651  1.00  0.00     0.002 C 
HETATM    7  C13 UNL     1      -0.389  51.701 -22.178  1.00  0.00     0.157 C 
HETATM    8  O1  UNL     1      -0.062  52.639 -22.904  1.00  0.00    -0.293 OA
HETATM    9  C14 UNL     1       0.236  51.581 -20.796  1.00  0.00     0.093 C 
HETATM   10  C15 UNL     1      -0.714  50.904 -19.809  1.00  0.00    -0.026 C 
HETATM   11  C16 UNL     1      -1.949  51.807 -19.578  1.00  0.00     0.016 C 
HETATM   12  C17 UNL     1      -1.975  50.800 -24.072  1.00  0.00    -0.008 C 
HETATM   13  C18 UNL     1      -2.998  51.966 -23.999  1.00  0.00     0.021 C 
HETATM   14  C19 UNL     1      -0.887  51.140 -25.143  1.00  0.00     0.022 C 
HETATM   15  C20 UNL     1      -1.140  50.591 -26.547  1.00  0.00     0.080 C 
HETATM   16  C21 UNL     1      -2.610  50.441 -26.843  1.00  0.00     0.131 C 
HETATM   17  O2  UNL     1      -3.110  50.905 -27.869  1.00  0.00    -0.298 OA
HETATM   18  C22 UNL     1      -3.431  49.620 -25.860  1.00  0.00     0.056 C 
HETATM   19  C23 UNL     1      -3.767  48.280 -26.513  1.00  0.00     0.018 C 
HETATM   20  C24 UNL     1      -2.659  49.461 -24.528  1.00  0.00     0.012 C 
HETATM   21  C25 UNL     1      -3.541  48.883 -23.413  1.00  0.00     0.042 C 
HETATM   22  C26 UNL     1      -2.696  48.563 -22.180  1.00  0.00     0.148 C 
ENDROOT
BRANCH   1  23
HETATM   23  C5  UNL     1       0.302  51.361 -17.306  1.00  0.00    -0.014 C 
HETATM   24  C6  UNL     1       1.165  52.578 -17.668  1.00  0.00     0.010 C 
BRANCH  23  25
HETATM   25  C4  UNL     1       0.943  50.663 -16.082  1.00  0.00     0.009 C 
BRANCH  25  26
HETATM   26  C3  UNL     1       1.457  51.578 -14.956  1.00  0.00     0.034 C 
BRANCH  26  27
HETATM   27  C2  UNL     1       2.940  51.565 -14.598  1.00  0.00    -0.075 C 
HETATM   28  C1  UNL     1       3.904  51.992 -15.435  1.00  0.00     0.015 C 
BRANCH  27  29
HETATM   29  C27 UNL     1       3.233  50.965 -13.215  1.00  0.00     0.107 C 
HETATM   30  C28 UNL     1       2.038  50.886 -12.260  1.00  0.00     0.026 C 
BRANCH  29  31
HETATM   31  C29 UNL     1       3.853  49.573 -13.339  1.00  0.00     0.147 C 
HETATM   32  O4  UNL     1       3.294  48.489 -13.297  1.00  0.00    -0.650 OA
BRANCH  31  33
HETATM   33  O5  UNL     1       5.192  49.626 -13.522  1.00  0.00    -0.776 OA
HETATM   34  H42 UNL     1       5.460  48.685 -13.578  1.00  0.00     0.167 HD
ENDBRANCH  31  33
ENDBRANCH  29  31
ENDBRANCH  27  29
ENDBRANCH  26  27
ENDBRANCH  25  26
ENDBRANCH  23  25
ENDBRANCH   1  23
BRANCH  22  35
HETATM   35  O3  UNL     1      -1.957  47.376 -22.452  1.00  0.00    -0.391 OA
HETATM   36  H37 UNL     1      -1.493  47.119 -21.638  1.00  0.00     0.210 HD
ENDBRANCH  22  35
TORSDOF 8
ENDMDL
MODEL 4
REMARK minimizedAffinity -9.84084797
REMARK  8 active torsions:
REMARK  status: ('A' for Active; 'I' for Inactive)
REMARK    1  A    between atoms: C2_2  and  C3_3 
REMARK    2  A    between atoms: C2_2  and  C27_30 
REMARK    3  A    between atoms: C3_3  and  C4_4 
REMARK    4  A    between atoms: C4_4  and  C5_5 
REMARK    5  A    between atoms: C5_5  and  C7_7 
REMARK    6  A    between atoms: C26_28  and  O3_29 
REMARK    7  A    between atoms: C27_30  and  C29_32 
REMARK    8  A    between atoms: C29_32  and  O5_34 
ROOT
HETATM    1  C7  UNL     1      -0.083  52.101 -21.427  1.00  0.00    -0.002 C 
HETATM    2  C8  UNL     1       0.524  53.497 -21.114  1.00  0.00     0.006 C 
HETATM    3  C9  UNL     1       0.896  53.489 -19.624  1.00  0.00     0.010 C 
HETATM    4  C10 UNL     1       0.762  52.021 -19.213  1.00  0.00     0.027 C 
HETATM    5  C11 UNL     1       0.716  51.624 -17.756  1.00  0.00    -0.036 C 
HETATM    6  C12 UNL     1       0.119  50.469 -17.366  1.00  0.00     0.002 C 
HETATM    7  C13 UNL     1      -0.556  49.609 -18.423  1.00  0.00     0.157 C 
HETATM    8  O1  UNL     1      -1.120  48.558 -18.120  1.00  0.00    -0.293 OA
HETATM    9  C14 UNL     1      -0.515  50.034 -19.883  1.00  0.00     0.093 C 
HETATM   10  C15 UNL     1      -0.477  51.555 -20.022  1.00  0.00    -0.026 C 
HETATM   11  C16 UNL     1      -1.803  52.155 -19.501  1.00  0.00     0.016 C 
HETATM   12  C17 UNL     1       0.074  49.987 -15.898  1.00  0.00    -0.008 C 
HETATM   13  C18 UNL     1      -1.376  50.237 -15.401  1.00  0.00     0.021 C 
HETATM   14  C19 UNL     1       0.410  48.467 -15.755  1.00  0.00     0.022 C 
HETATM   15  C20 UNL     1       1.116  48.058 -14.462  1.00  0.00     0.080 C 
HETATM   16  C21 UNL     1       0.764  48.965 -13.311  1.00  0.00     0.131 C 
HETATM   17  O2  UNL     1       0.383  48.514 -12.231  1.00  0.00    -0.298 OA
HETATM   18  C22 UNL     1       0.981  50.456 -13.517  1.00  0.00     0.056 C 
HETATM   19  C23 UNL     1       2.205  50.882 -12.707  1.00  0.00     0.018 C 
HETATM   20  C24 UNL     1       1.123  50.768 -15.027  1.00  0.00     0.012 C 
HETATM   21  C25 UNL     1       1.070  52.274 -15.316  1.00  0.00     0.042 C 
HETATM   22  C26 UNL     1       1.406  52.546 -16.781  1.00  0.00     0.148 C 
ENDROOT
BRANCH   1  23
HETATM   23  C5  UNL     1      -1.053  52.117 -22.641  1.00  0.00    -0.014 C 
HETATM   24  C6  UNL     1      -2.436  51.489 -22.415  1.00  0.00     0.010 C 
BRANCH  23  25
HETATM   25  C4  UNL     1      -0.468  51.533 -23.950  1.00  0.00     0.009 C 
BRANCH  25  26
HETATM   26  C3  UNL     1       0.344  52.497 -24.834  1.00  0.00     0.034 C 
BRANCH  26  27
HETATM   27  C2  UNL     1       0.929  51.993 -26.149  1.00  0.00    -0.075 C 
HETATM   28  C1  UNL     1       2.169  51.479 -26.256  1.00  0.00     0.015 C 
BRANCH  27  29
HETATM   29  C27 UNL     1      -0.007  52.182 -27.352  1.00  0.00     0.107 C 
HETATM   30  C28 UNL     1      -1.204  51.229 -27.415  1.00  0.00     0.026 C 
BRANCH  29  31
HETATM   31  C29 UNL     1      -0.522  53.620 -27.428  1.00  0.00     0.147 C 
HETATM   32  O4  UNL     1       0.063  54.650 -27.134  1.00  0.00    -0.650 OA
BRANCH  31  33
HETATM   33  O5  UNL     1      -1.790  53.683 -27.895  1.00  0.00    -0.776 OA
HETATM   34  H42 UNL     1      -1.997  54.640 -27.888  1.00  0.00     0.167 HD
ENDBRANCH  31  33
ENDBRANCH  29  31
ENDBRANCH  27  29
ENDBRANCH  26  27
ENDBRANCH  25  26
ENDBRANCH  23  25
ENDBRANCH   1  23
BRANCH  22  35
HETATM   35  O3  UNL     1       2.812  52.385 -16.945  1.00  0.00    -0.391 OA
HETATM   36  H37 UNL     1       3.041  52.650 -17.852  1.00  0.00     0.210 HD
ENDBRANCH  22  35
TORSDOF 8
ENDMDL
MODEL 5
REMARK minimizedAffinity -9.8173275
REMARK  8 active torsions:
REMARK  status: ('A' for Active; 'I' for Inactive)
REMARK    1  A    between atoms: C2_2  and  C3_3 
REMARK    2  A    between atoms: C2_2  and  C27_30 
REMARK    3  A    between atoms: C3_3  and  C4_4 
REMARK    4  A    between atoms: C4_4  and  C5_5 
REMARK    5  A    between atoms: C5_5  and  C7_7 
REMARK    6  A    between atoms: C26_28  and  O3_29 
REMARK    7  A    between atoms: C27_30  and  C29_32 
REMARK    8  A    between atoms: C29_32  and  O5_34 
ROOT
HETATM    1  C7  UNL     1      -0.007  50.488 -17.890  1.00  0.00    -0.002 C 
HETATM    2  C8  UNL     1      -0.882  49.259 -17.515  1.00  0.00     0.006 C 
HETATM    3  C9  UNL     1      -1.600  48.824 -18.801  1.00  0.00     0.010 C 
HETATM    4  C10 UNL     1      -0.903  49.620 -19.906  1.00  0.00     0.027 C 
HETATM    5  C11 UNL     1      -1.517  49.740 -21.282  1.00  0.00    -0.036 C 
HETATM    6  C12 UNL     1      -1.219  50.789 -22.089  1.00  0.00     0.002 C 
HETATM    7  C13 UNL     1      -0.297  51.875 -21.558  1.00  0.00     0.157 C 
HETATM    8  O1  UNL     1      -0.004  52.852 -22.246  1.00  0.00    -0.293 OA
HETATM    9  C14 UNL     1       0.297  51.746 -20.163  1.00  0.00     0.093 C 
HETATM   10  C15 UNL     1      -0.638  50.987 -19.224  1.00  0.00    -0.026 C 
HETATM   11  C16 UNL     1      -1.927  51.813 -19.000  1.00  0.00     0.016 C 
HETATM   12  C17 UNL     1      -1.781  50.948 -23.521  1.00  0.00    -0.008 C 
HETATM   13  C18 UNL     1      -2.869  52.054 -23.441  1.00  0.00     0.021 C 
HETATM   14  C19 UNL     1      -0.687  51.380 -24.550  1.00  0.00     0.022 C 
HETATM   15  C20 UNL     1      -0.872  50.863 -25.977  1.00  0.00     0.080 C 
HETATM   16  C21 UNL     1      -2.323  50.642 -26.318  1.00  0.00     0.131 C 
HETATM   17  O2  UNL     1      -2.822  51.110 -27.342  1.00  0.00    -0.298 OA
HETATM   18  C22 UNL     1      -3.123  49.747 -25.383  1.00  0.00     0.056 C 
HETATM   19  C23 UNL     1      -3.367  48.412 -26.085  1.00  0.00     0.018 C 
HETATM   20  C24 UNL     1      -2.378  49.589 -24.035  1.00  0.00     0.012 C 
HETATM   21  C25 UNL     1      -3.255  48.929 -22.963  1.00  0.00     0.042 C 
HETATM   22  C26 UNL     1      -2.426  48.617 -21.717  1.00  0.00     0.148 C 
ENDROOT
BRANCH   1  23
HETATM   23  C5  UNL     1       0.286  51.419 -16.680  1.00  0.00    -0.014 C 
HETATM   24  C6  UNL     1       1.748  51.849 -16.493  1.00  0.00     0.010 C 
BRANCH  23  25
HETATM   25  C4  UNL     1      -0.244  50.906 -15.319  1.00  0.00     0.009 C 
BRANCH  25  26
HETATM   26  C3  UNL     1      -1.600  51.463 -14.852  1.00  0.00     0.034 C 
BRANCH  26  27
HETATM   27  C2  UNL     1      -1.770  51.898 -13.399  1.00  0.00    -0.075 C 
HETATM   28  C1  UNL     1      -0.752  52.344 -12.639  1.00  0.00     0.015 C 
BRANCH  27  29
HETATM   29  C27 UNL     1      -3.201  51.726 -12.869  1.00  0.00     0.107 C 
HETATM   30  C28 UNL     1      -3.349  50.805 -11.654  1.00  0.00     0.026 C 
BRANCH  29  31
HETATM   31  C29 UNL     1      -3.832  53.078 -12.538  1.00  0.00     0.147 C 
HETATM   32  O4  UNL     1      -3.956  53.608 -11.446  1.00  0.00    -0.650 OA
BRANCH  31  33
HETATM   33  O5  UNL     1      -4.283  53.714 -13.644  1.00  0.00    -0.776 OA
HETATM   34  H42 UNL     1      -4.663  54.548 -13.298  1.00  0.00     0.167 HD
ENDBRANCH  31  33
ENDBRANCH  29  31
ENDBRANCH  27  29
ENDBRANCH  26  27
ENDBRANCH  25  26
ENDBRANCH  23  25
ENDBRANCH   1  23
BRANCH  22  35
HETATM   35  O3  UNL     1      -1.615  47.481 -22.005  1.00  0.00    -0.391 OA
HETATM   36  H37 UNL     1      -1.159  47.224 -21.186  1.00  0.00     0.210 HD
ENDBRANCH  22  35
TORSDOF 8
ENDMDL
MODEL 6
REMARK minimizedAffinity -9.64039421
REMARK  8 active torsions:
REMARK  status: ('A' for Active; 'I' for Inactive)
REMARK    1  A    between atoms: C2_2  and  C3_3 
REMARK    2  A    between atoms: C2_2  and  C27_30 
REMARK    3  A    between atoms: C3_3  and  C4_4 
REMARK    4  A    between atoms: C4_4  and  C5_5 
REMARK    5  A    between atoms: C5_5  and  C7_7 
REMARK    6  A    between atoms: C26_28  and  O3_29 
REMARK    7  A    between atoms: C27_30  and  C29_32 
REMARK    8  A    between atoms: C29_32  and  O5_34 
ROOT
HETATM    1  C7  UNL     1      -0.568  51.308 -21.896  1.00  0.00    -0.002 C 
HETATM    2  C8  UNL     1      -0.813  51.933 -20.493  1.00  0.00     0.006 C 
HETATM    3  C9  UNL     1      -2.223  51.503 -20.063  1.00  0.00     0.010 C 
HETATM    4  C10 UNL     1      -2.614  50.430 -21.081  1.00  0.00     0.027 C 
HETATM    5  C11 UNL     1      -4.050  49.979 -21.221  1.00  0.00    -0.036 C 
HETATM    6  C12 UNL     1      -4.502  49.443 -22.383  1.00  0.00     0.002 C 
HETATM    7  C13 UNL     1      -3.547  49.359 -23.563  1.00  0.00     0.157 C 
HETATM    8  O1  UNL     1      -3.912  48.891 -24.641  1.00  0.00    -0.293 OA
HETATM    9  C14 UNL     1      -2.111  49.834 -23.408  1.00  0.00     0.093 C 
HETATM   10  C15 UNL     1      -2.004  50.975 -22.398  1.00  0.00    -0.026 C 
HETATM   11  C16 UNL     1      -2.747  52.218 -22.943  1.00  0.00     0.016 C 
HETATM   12  C17 UNL     1      -5.946  48.927 -22.576  1.00  0.00    -0.008 C 
HETATM   13  C18 UNL     1      -6.676  49.987 -23.445  1.00  0.00     0.021 C 
HETATM   14  C19 UNL     1      -5.997  47.545 -23.306  1.00  0.00     0.022 C 
HETATM   15  C20 UNL     1      -7.149  46.622 -22.908  1.00  0.00     0.080 C 
HETATM   16  C21 UNL     1      -8.363  47.391 -22.456  1.00  0.00     0.131 C 
HETATM   17  O2  UNL     1      -9.480  47.162 -22.922  1.00  0.00    -0.298 OA
HETATM   18  C22 UNL     1      -8.161  48.403 -21.338  1.00  0.00     0.056 C 
HETATM   19  C23 UNL     1      -8.774  47.837 -20.058  1.00  0.00     0.018 C 
HETATM   20  C24 UNL     1      -6.656  48.733 -21.188  1.00  0.00     0.012 C 
HETATM   21  C25 UNL     1      -6.416  49.941 -20.272  1.00  0.00     0.042 C 
HETATM   22  C26 UNL     1      -4.923  50.112 -19.997  1.00  0.00     0.148 C 
ENDROOT
BRANCH   1  23
HETATM   23  C5  UNL     1       0.474  52.094 -22.739  1.00  0.00    -0.014 C 
HETATM   24  C6  UNL     1       1.062  53.355 -22.090  1.00  0.00     0.010 C 
BRANCH  23  25
HETATM   25  C4  UNL     1       0.011  52.460 -24.170  1.00  0.00     0.009 C 
BRANCH  25  26
HETATM   26  C3  UNL     1       0.176  51.374 -25.248  1.00  0.00     0.034 C 
BRANCH  26  27
HETATM   27  C2  UNL     1       0.773  51.746 -26.601  1.00  0.00    -0.075 C 
HETATM   28  C1  UNL     1       2.098  51.844 -26.821  1.00  0.00     0.015 C 
BRANCH  27  29
HETATM   29  C27 UNL     1      -0.280  52.055 -27.675  1.00  0.00     0.107 C 
HETATM   30  C28 UNL     1      -1.540  51.185 -27.637  1.00  0.00     0.026 C 
BRANCH  29  31
HETATM   31  C29 UNL     1      -0.700  53.525 -27.628  1.00  0.00     0.147 C 
HETATM   32  O4  UNL     1      -0.067  54.479 -27.204  1.00  0.00    -0.650 OA
BRANCH  31  33
HETATM   33  O5  UNL     1      -1.936  53.719 -28.141  1.00  0.00    -0.776 OA
HETATM   34  H42 UNL     1      -2.082  54.683 -28.046  1.00  0.00     0.167 HD
ENDBRANCH  31  33
ENDBRANCH  29  31
ENDBRANCH  27  29
ENDBRANCH  26  27
ENDBRANCH  25  26
ENDBRANCH  23  25
ENDBRANCH   1  23
BRANCH  22  35
HETATM   35  O3  UNL     1      -4.531  49.105 -19.068  1.00  0.00    -0.391 OA
HETATM   36  H37 UNL     1      -3.606  49.270 -18.820  1.00  0.00     0.210 HD
ENDBRANCH  22  35
TORSDOF 8
ENDMDL
MODEL 7
REMARK minimizedAffinity -9.51994801
REMARK  8 active torsions:
REMARK  status: ('A' for Active; 'I' for Inactive)
REMARK    1  A    between atoms: C2_2  and  C3_3 
REMARK    2  A    between atoms: C2_2  and  C27_30 
REMARK    3  A    between atoms: C3_3  and  C4_4 
REMARK    4  A    between atoms: C4_4  and  C5_5 
REMARK    5  A    between atoms: C5_5  and  C7_7 
REMARK    6  A    between atoms: C26_28  and  O3_29 
REMARK    7  A    between atoms: C27_30  and  C29_32 
REMARK    8  A    between atoms: C29_32  and  O5_34 
ROOT
HETATM    1  C7  UNL     1      -0.806  52.511 -22.284  1.00  0.00    -0.002 C 
HETATM    2  C8  UNL     1      -0.003  52.190 -23.576  1.00  0.00     0.006 C 
HETATM    3  C9  UNL     1      -0.888  51.262 -24.421  1.00  0.00     0.010 C 
HETATM    4  C10 UNL     1      -2.253  51.317 -23.733  1.00  0.00     0.027 C 
HETATM    5  C11 UNL     1      -3.322  50.294 -24.045  1.00  0.00    -0.036 C 
HETATM    6  C12 UNL     1      -4.297  50.009 -23.146  1.00  0.00     0.002 C 
HETATM    7  C13 UNL     1      -4.260  50.698 -21.791  1.00  0.00     0.157 C 
HETATM    8  O1  UNL     1      -5.115  50.466 -20.938  1.00  0.00    -0.293 OA
HETATM    9  C14 UNL     1      -3.166  51.711 -21.489  1.00  0.00     0.093 C 
HETATM   10  C15 UNL     1      -1.873  51.378 -22.231  1.00  0.00    -0.026 C 
HETATM   11  C16 UNL     1      -1.299  50.045 -21.695  1.00  0.00     0.016 C 
HETATM   12  C17 UNL     1      -5.440  49.005 -23.420  1.00  0.00    -0.008 C 
HETATM   13  C18 UNL     1      -5.104  47.728 -22.603  1.00  0.00     0.021 C 
HETATM   14  C19 UNL     1      -6.836  49.547 -22.971  1.00  0.00     0.022 C 
HETATM   15  C20 UNL     1      -8.032  49.080 -23.801  1.00  0.00     0.080 C 
HETATM   16  C21 UNL     1      -7.803  47.723 -24.415  1.00  0.00     0.131 C 
HETATM   17  O2  UNL     1      -8.627  46.816 -24.297  1.00  0.00    -0.298 OA
HETATM   18  C22 UNL     1      -6.547  47.550 -25.256  1.00  0.00     0.056 C 
HETATM   19  C23 UNL     1      -6.956  47.493 -26.728  1.00  0.00     0.018 C 
HETATM   20  C24 UNL     1      -5.547  48.693 -24.956  1.00  0.00     0.012 C 
HETATM   21  C25 UNL     1      -4.163  48.427 -25.564  1.00  0.00     0.042 C 
HETATM   22  C26 UNL     1      -3.270  49.658 -25.412  1.00  0.00     0.148 C 
ENDROOT
BRANCH   1  23
HETATM   23  C5  UNL     1       0.103  52.889 -21.081  1.00  0.00    -0.014 C 
HETATM   24  C6  UNL     1       1.427  53.587 -21.422  1.00  0.00     0.010 C 
BRANCH  23  25
HETATM   25  C4  UNL     1       0.408  51.727 -20.105  1.00  0.00     0.009 C 
BRANCH  25  26
HETATM   26  C3  UNL     1       0.157  51.996 -18.611  1.00  0.00     0.034 C 
BRANCH  26  27
HETATM   27  C2  UNL     1      -0.002  50.818 -17.654  1.00  0.00    -0.075 C 
HETATM   28  C1  UNL     1      -0.553  49.644 -18.016  1.00  0.00     0.015 C 
BRANCH  27  29
HETATM   29  C27 UNL     1       0.472  51.118 -16.225  1.00  0.00     0.107 C 
HETATM   30  C28 UNL     1       0.837  49.895 -15.378  1.00  0.00     0.026 C 
BRANCH  29  31
HETATM   31  C29 UNL     1       1.658  52.082 -16.229  1.00  0.00     0.147 C 
HETATM   32  O4  UNL     1       2.834  51.833 -16.442  1.00  0.00    -0.650 OA
BRANCH  31  33
HETATM   33  O5  UNL     1       1.283  53.353 -15.960  1.00  0.00    -0.776 OA
HETATM   34  H42 UNL     1       2.123  53.858 -15.987  1.00  0.00     0.167 HD
ENDBRANCH  31  33
ENDBRANCH  29  31
ENDBRANCH  27  29
ENDBRANCH  26  27
ENDBRANCH  25  26
ENDBRANCH  23  25
ENDBRANCH   1  23
BRANCH  22  35
HETATM   35  O3  UNL     1      -3.696  50.627 -26.365  1.00  0.00    -0.391 OA
HETATM   36  H37 UNL     1      -3.071  51.371 -26.335  1.00  0.00     0.210 HD
ENDBRANCH  22  35
TORSDOF 8
ENDMDL
MODEL 8
REMARK minimizedAffinity -9.33174038
REMARK  8 active torsions:
REMARK  status: ('A' for Active; 'I' for Inactive)
REMARK    1  A    between atoms: C2_2  and  C3_3 
REMARK    2  A    between atoms: C2_2  and  C27_30 
REMARK    3  A    between atoms: C3_3  and  C4_4 
REMARK    4  A    between atoms: C4_4  and  C5_5 
REMARK    5  A    between atoms: C5_5  and  C7_7 
REMARK    6  A    between atoms: C26_28  and  O3_29 
REMARK    7  A    between atoms: C27_30  and  C29_32 
REMARK    8  A    between atoms: C29_32  and  O5_34 
ROOT
HETATM    1  C7  UNL     1      -0.840  51.145 -16.018  1.00  0.00    -0.002 C 
HETATM    2  C8  UNL     1       0.626  51.658 -15.957  1.00  0.00     0.006 C 
HETATM    3  C9  UNL     1       1.020  52.028 -17.394  1.00  0.00     0.010 C 
HETATM    4  C10 UNL     1      -0.300  51.989 -18.166  1.00  0.00     0.027 C 
HETATM    5  C11 UNL     1      -0.316  51.967 -19.677  1.00  0.00    -0.036 C 
HETATM    6  C12 UNL     1      -1.370  51.447 -20.356  1.00  0.00     0.002 C 
HETATM    7  C13 UNL     1      -2.512  50.832 -19.563  1.00  0.00     0.157 C 
HETATM    8  O1  UNL     1      -3.484  50.337 -20.131  1.00  0.00    -0.293 OA
HETATM    9  C14 UNL     1      -2.469  50.847 -18.042  1.00  0.00     0.093 C 
HETATM   10  C15 UNL     1      -1.035  50.786 -17.521  1.00  0.00    -0.026 C 
HETATM   11  C16 UNL     1      -0.408  49.421 -17.893  1.00  0.00     0.016 C 
HETATM   12  C17 UNL     1      -1.464  51.432 -21.899  1.00  0.00    -0.008 C 
HETATM   13  C18 UNL     1      -1.190  49.967 -22.338  1.00  0.00     0.021 C 
HETATM   14  C19 UNL     1      -2.874  51.866 -22.418  1.00  0.00     0.022 C 
HETATM   15  C20 UNL     1      -2.894  52.595 -23.762  1.00  0.00     0.080 C 
HETATM   16  C21 UNL     1      -1.749  52.183 -24.650  1.00  0.00     0.131 C 
HETATM   17  O2  UNL     1      -1.934  51.830 -25.815  1.00  0.00    -0.298 OA
HETATM   18  C22 UNL     1      -0.348  52.302 -24.069  1.00  0.00     0.056 C 
HETATM   19  C23 UNL     1       0.347  53.494 -24.726  1.00  0.00     0.018 C 
HETATM   20  C24 UNL     1      -0.423  52.426 -22.528  1.00  0.00     0.012 C 
HETATM   21  C25 UNL     1       0.954  52.274 -21.867  1.00  0.00     0.042 C 
HETATM   22  C26 UNL     1       0.866  52.594 -20.375  1.00  0.00     0.148 C 
ENDROOT
BRANCH   1  23
HETATM   23  C5  UNL     1      -1.196  50.178 -14.854  1.00  0.00    -0.014 C 
HETATM   24  C6  UNL     1      -2.691  49.954 -14.589  1.00  0.00     0.010 C 
BRANCH  23  25
HETATM   25  C4  UNL     1      -0.511  50.504 -13.504  1.00  0.00     0.009 C 
BRANCH  25  26
HETATM   26  C3  UNL     1      -1.412  50.504 -12.256  1.00  0.00     0.034 C 
BRANCH  26  27
HETATM   27  C2  UNL     1      -1.884  51.833 -11.673  1.00  0.00    -0.075 C 
HETATM   28  C1  UNL     1      -1.049  52.847 -11.378  1.00  0.00     0.015 C 
BRANCH  27  29
HETATM   29  C27 UNL     1      -3.395  51.884 -11.401  1.00  0.00     0.107 C 
HETATM   30  C28 UNL     1      -3.852  51.242 -10.088  1.00  0.00     0.026 C 
BRANCH  29  31
HETATM   31  C29 UNL     1      -3.915  53.320 -11.450  1.00  0.00     0.147 C 
HETATM   32  O4  UNL     1      -4.092  54.093 -10.522  1.00  0.00    -0.650 OA
BRANCH  31  33
HETATM   33  O5  UNL     1      -4.188  53.720 -12.713  1.00  0.00    -0.776 OA
HETATM   34  H42 UNL     1      -4.513  54.638 -12.605  1.00  0.00     0.167 HD
ENDBRANCH  31  33
ENDBRANCH  29  31
ENDBRANCH  27  29
ENDBRANCH  26  27
ENDBRANCH  25  26
ENDBRANCH  23  25
ENDBRANCH   1  23
BRANCH  22  35
HETATM   35  O3  UNL     1       0.759  54.008 -20.237  1.00  0.00    -0.391 OA
HETATM   36  H37 UNL     1       0.799  54.220 -19.289  1.00  0.00     0.210 HD
ENDBRANCH  22  35
TORSDOF 8
ENDMDL
MODEL 9
REMARK minimizedAffinity -9.04057121
REMARK  8 active torsions:
REMARK  status: ('A' for Active; 'I' for Inactive)
REMARK    1  A    between atoms: C2_2  and  C3_3 
REMARK    2  A    between atoms: C2_2  and  C27_30 
REMARK    3  A    between atoms: C3_3  and  C4_4 
REMARK    4  A    between atoms: C4_4  and  C5_5 
REMARK    5  A    between atoms: C5_5  and  C7_7 
REMARK    6  A    between atoms: C26_28  and  O3_29 
REMARK    7  A    between atoms: C27_30  and  C29_32 
REMARK    8  A    between atoms: C29_32  and  O5_34 
ROOT
HETATM    1  C7  UNL     1      -1.181  49.529 -21.838  1.00  0.00    -0.002 C 
HETATM    2  C8  UNL     1      -0.878  48.729 -20.540  1.00  0.00     0.006 C 
HETATM    3  C9  UNL     1      -2.072  47.790 -20.315  1.00  0.00     0.010 C 
HETATM    4  C10 UNL     1      -2.865  47.873 -21.620  1.00  0.00     0.027 C 
HETATM    5  C11 UNL     1      -4.285  47.361 -21.701  1.00  0.00    -0.036 C 
HETATM    6  C12 UNL     1      -5.149  47.847 -22.627  1.00  0.00     0.002 C 
HETATM    7  C13 UNL     1      -4.677  48.962 -23.547  1.00  0.00     0.157 C 
HETATM    8  O1  UNL     1      -5.426  49.444 -24.395  1.00  0.00    -0.293 OA
HETATM    9  C14 UNL     1      -3.249  49.477 -23.439  1.00  0.00     0.093 C 
HETATM   10  C15 UNL     1      -2.721  49.367 -22.009  1.00  0.00    -0.026 C 
HETATM   11  C16 UNL     1      -3.525  50.314 -21.087  1.00  0.00     0.016 C 
HETATM   12  C17 UNL     1      -6.600  47.337 -22.787  1.00  0.00    -0.008 C 
HETATM   13  C18 UNL     1      -7.517  48.437 -22.185  1.00  0.00     0.021 C 
HETATM   14  C19 UNL     1      -6.993  47.105 -24.282  1.00  0.00     0.022 C 
HETATM   15  C20 UNL     1      -7.990  45.975 -24.542  1.00  0.00     0.080 C 
HETATM   16  C21 UNL     1      -8.915  45.754 -23.374  1.00  0.00     0.131 C 
HETATM   17  O2  UNL     1     -10.137  45.704 -23.522  1.00  0.00    -0.298 OA
HETATM   18  C22 UNL     1      -8.269  45.511 -22.018  1.00  0.00     0.056 C 
HETATM   19  C23 UNL     1      -8.429  44.033 -21.665  1.00  0.00     0.018 C 
HETATM   20  C24 UNL     1      -6.789  45.963 -22.049  1.00  0.00     0.012 C 
HETATM   21  C25 UNL     1      -6.165  45.999 -20.647  1.00  0.00     0.042 C 
HETATM   22  C26 UNL     1      -4.662  46.260 -20.741  1.00  0.00     0.148 C 
ENDROOT
BRANCH   1  23
HETATM   23  C5  UNL     1      -0.453  50.900 -21.893  1.00  0.00    -0.014 C 
HETATM   24  C6  UNL     1      -0.424  51.707 -20.587  1.00  0.00     0.010 C 
BRANCH  23  25
HETATM   25  C4  UNL     1      -0.920  51.841 -23.030  1.00  0.00     0.009 C 
BRANCH  25  26
HETATM   26  C3  UNL     1       0.131  52.218 -24.089  1.00  0.00     0.034 C 
BRANCH  26  27
HETATM   27  C2  UNL     1      -0.072  51.776 -25.535  1.00  0.00    -0.075 C 
HETATM   28  C1  UNL     1      -0.828  50.719 -25.884  1.00  0.00     0.015 C 
BRANCH  27  29
HETATM   29  C27 UNL     1       0.715  52.617 -26.552  1.00  0.00     0.107 C 
HETATM   30  C28 UNL     1       1.147  51.883 -27.824  1.00  0.00     0.026 C 
BRANCH  29  31
HETATM   31  C29 UNL     1      -0.064  53.870 -26.951  1.00  0.00     0.147 C 
HETATM   32  O4  UNL     1      -0.939  53.979 -27.795  1.00  0.00    -0.650 OA
BRANCH  31  33
HETATM   33  O5  UNL     1       0.311  54.953 -26.234  1.00  0.00    -0.776 OA
HETATM   34  H42 UNL     1      -0.250  55.676 -26.587  1.00  0.00     0.167 HD
ENDBRANCH  31  33
ENDBRANCH  29  31
ENDBRANCH  27  29
ENDBRANCH  26  27
ENDBRANCH  25  26
ENDBRANCH  23  25
ENDBRANCH   1  23
BRANCH  22  35
HETATM   35  O3  UNL     1      -4.036  45.059 -21.182  1.00  0.00    -0.391 OA
HETATM   36  H37 UNL     1      -3.074  45.194 -21.151  1.00  0.00     0.210 HD
ENDBRANCH  22  35
TORSDOF 8
ENDMDL
