MODEL 1
REMARK minimizedAffinity -8.4932909
REMARK  16 active torsions:
REMARK  status: ('A' for Active; 'I' for Inactive)
REMARK    1  A    between atoms: C4_4  and  C5_5 
REMARK    2  A    between atoms: C5_5  and  C6_6 
REMARK    3  A    between atoms: C6_6  and  C7_7 
REMARK    4  A    between atoms: C9_9  and  C10_10 
REMARK    5  A    between atoms: C10_10  and  O1_11 
REMARK    6  A    between atoms: C10_10  and  C11_12 
REMARK    7  A    between atoms: C11_12  and  C12_13 
REMARK    8  A    between atoms: C14_15  and  C15_16 
REMARK    9  A    between atoms: C15_16  and  C16_17 
REMARK   10  A    between atoms: C16_17  and  C17_18 
REMARK   11  A    between atoms: C19_20  and  C20_21 
REMARK   12  A    between atoms: C20_21  and  C21_22 
REMARK   13  A    between atoms: C21_22  and  C22_23 
REMARK   14  A    between atoms: C22_23  and  O2_24 
REMARK   15  A    between atoms: C24_26  and  C26_28 
REMARK   16  A    between atoms: C29_32  and  O4_34 
ROOT
HETATM    1  C17 UNL     1       0.493   6.566  11.770  1.00  0.00    -0.006 C 
HETATM    2  C18 UNL     1       1.226   6.041  13.037  1.00  0.00     0.019 C 
HETATM    3  C19 UNL     1       1.318   6.242  10.433  1.00  0.00     0.026 C 
HETATM    4  C23 UNL     1       2.207   7.396   9.935  1.00  0.00    -0.066 C 
HETATM    5  C24 UNL     1       2.441   7.668   8.626  1.00  0.00    -0.021 C 
HETATM    6  C25 UNL     1       3.297   8.807   8.143  1.00  0.00     0.052 C 
HETATM    7  C27 UNL     1       2.777   8.233  11.049  1.00  0.00     0.038 C 
HETATM    8  C28 UNL     1       1.688   8.856  11.920  1.00  0.00     0.042 C 
HETATM    9  C29 UNL     1       0.318   8.132  11.888  1.00  0.00     0.062 C 
HETATM   10  C30 UNL     1      -0.568   8.742  10.783  1.00  0.00     0.046 C 
ENDROOT
BRANCH   1  11
HETATM   11  C16 UNL     1      -0.880   5.791  11.667  1.00  0.00     0.016 C 
BRANCH  11  12
HETATM   12  C15 UNL     1      -0.935   4.274  11.927  1.00  0.00     0.028 C 
BRANCH  12  13
HETATM   13  C14 UNL     1      -2.308   3.662  11.900  1.00  0.00    -0.024 C 
HETATM   14  C12 UNL     1      -2.653   2.411  11.531  1.00  0.00    -0.085 C 
HETATM   15  C13 UNL     1      -1.686   1.369  11.040  1.00  0.00     0.043 C 
BRANCH  14  16
HETATM   16  C11 UNL     1      -4.104   1.961  11.646  1.00  0.00     0.069 C 
BRANCH  16  17
HETATM   17  C10 UNL     1      -5.100   2.935  10.988  1.00  0.00     0.145 C 
BRANCH  17  18
HETATM   18  C9  UNL     1      -6.244   3.286  11.904  1.00  0.00     0.007 C 
HETATM   19  C7  UNL     1      -6.320   4.230  12.868  1.00  0.00    -0.085 C 
HETATM   20  C8  UNL     1      -5.211   5.180  13.230  1.00  0.00     0.043 C 
BRANCH  19  21
HETATM   21  C6  UNL     1      -7.579   4.362  13.705  1.00  0.00     0.037 C 
BRANCH  21  22
HETATM   22  C5  UNL     1      -8.011   5.807  13.993  1.00  0.00     0.031 C 
BRANCH  22  23
HETATM   23  C4  UNL     1      -9.351   6.171  13.408  1.00  0.00    -0.024 C 
HETATM   24  C2  UNL     1     -10.206   7.121  13.837  1.00  0.00    -0.091 C 
HETATM   25  C1  UNL     1      -9.947   8.059  14.982  1.00  0.00     0.042 C 
HETATM   26  C3  UNL     1     -11.531   7.328  13.151  1.00  0.00     0.042 C 
ENDBRANCH  22  23
ENDBRANCH  21  22
ENDBRANCH  19  21
ENDBRANCH  17  18
BRANCH  17  27
HETATM   27  O1  UNL     1      -5.614   2.415   9.766  1.00  0.00    -0.391 OA
HETATM   28  H17 UNL     1      -4.859   2.357   9.156  1.00  0.00     0.210 HD
ENDBRANCH  17  27
ENDBRANCH  16  17
ENDBRANCH  14  16
ENDBRANCH  12  13
ENDBRANCH  11  12
ENDBRANCH   1  11
BRANCH   3  29
HETATM   29  C20 UNL     1       2.194   4.956  10.453  1.00  0.00     0.012 C 
BRANCH  29  30
HETATM   30  C21 UNL     1       3.590   5.151   9.844  1.00  0.00     0.027 C 
BRANCH  30  31
HETATM   31  C22 UNL     1       4.009   3.975   8.968  1.00  0.00     0.164 C 
BRANCH  31  32
HETATM   32  O2  UNL     1       4.497   2.884   9.737  1.00  0.00    -0.401 OA
HETATM   33  H38 UNL     1       4.813   3.223  10.604  1.00  0.00     0.209 HD
ENDBRANCH  31  32
ENDBRANCH  30  31
ENDBRANCH  29  30
ENDBRANCH   3  29
BRANCH   9  34
HETATM   34  O4  UNL     1      -0.320   8.455  13.132  1.00  0.00    -0.389 OA
HETATM   35  H50 UNL     1      -0.350   9.427  13.216  1.00  0.00     0.210 HD
ENDBRANCH   9  34
BRANCH   5  36
HETATM   36  C26 UNL     1       1.873   6.847   7.503  1.00  0.00     0.265 C 
HETATM   37  O3  UNL     1       1.769   7.219   6.340  1.00  0.00    -0.302 OA
ENDBRANCH   5  36
TORSDOF 16
ENDMDL
MODEL 2
REMARK minimizedAffinity -8.01387405
REMARK  16 active torsions:
REMARK  status: ('A' for Active; 'I' for Inactive)
REMARK    1  A    between atoms: C4_4  and  C5_5 
REMARK    2  A    between atoms: C5_5  and  C6_6 
REMARK    3  A    between atoms: C6_6  and  C7_7 
REMARK    4  A    between atoms: C9_9  and  C10_10 
REMARK    5  A    between atoms: C10_10  and  O1_11 
REMARK    6  A    between atoms: C10_10  and  C11_12 
REMARK    7  A    between atoms: C11_12  and  C12_13 
REMARK    8  A    between atoms: C14_15  and  C15_16 
REMARK    9  A    between atoms: C15_16  and  C16_17 
REMARK   10  A    between atoms: C16_17  and  C17_18 
REMARK   11  A    between atoms: C19_20  and  C20_21 
REMARK   12  A    between atoms: C20_21  and  C21_22 
REMARK   13  A    between atoms: C21_22  and  C22_23 
REMARK   14  A    between atoms: C22_23  and  O2_24 
REMARK   15  A    between atoms: C24_26  and  C26_28 
REMARK   16  A    between atoms: C29_32  and  O4_34 
ROOT
HETATM    1  C17 UNL     1      -0.783   6.841  13.645  1.00  0.00    -0.006 C 
HETATM    2  C18 UNL     1      -0.681   5.479  14.388  1.00  0.00     0.019 C 
HETATM    3  C19 UNL     1      -0.518   6.677  12.071  1.00  0.00     0.026 C 
HETATM    4  C23 UNL     1       0.927   6.975  11.632  1.00  0.00    -0.066 C 
HETATM    5  C24 UNL     1       1.261   7.551  10.450  1.00  0.00    -0.021 C 
HETATM    6  C25 UNL     1       2.673   7.856  10.031  1.00  0.00     0.052 C 
HETATM    7  C27 UNL     1       1.954   6.595  12.665  1.00  0.00     0.038 C 
HETATM    8  C28 UNL     1       1.735   7.319  13.992  1.00  0.00     0.042 C 
HETATM    9  C29 UNL     1       0.294   7.833  14.237  1.00  0.00     0.062 C 
HETATM   10  C30 UNL     1       0.160   9.278  13.715  1.00  0.00     0.046 C 
ENDROOT
BRANCH   1  11
HETATM   11  C16 UNL     1      -2.267   7.358  13.814  1.00  0.00     0.016 C 
BRANCH  11  12
HETATM   12  C15 UNL     1      -3.095   6.949  15.047  1.00  0.00     0.028 C 
BRANCH  12  13
HETATM   13  C14 UNL     1      -4.512   6.534  14.767  1.00  0.00    -0.024 C 
HETATM   14  C12 UNL     1      -5.622   7.299  14.790  1.00  0.00    -0.085 C 
HETATM   15  C13 UNL     1      -5.642   8.763  15.137  1.00  0.00     0.043 C 
BRANCH  14  16
HETATM   16  C11 UNL     1      -6.966   6.697  14.401  1.00  0.00     0.069 C 
BRANCH  16  17
HETATM   17  C10 UNL     1      -7.344   5.458  15.234  1.00  0.00     0.145 C 
BRANCH  17  18
HETATM   18  C9  UNL     1      -7.432   4.210  14.394  1.00  0.00     0.007 C 
HETATM   19  C7  UNL     1      -7.924   4.040  13.148  1.00  0.00    -0.085 C 
HETATM   20  C8  UNL     1      -8.509   5.136  12.298  1.00  0.00     0.043 C 
BRANCH  19  21
HETATM   21  C6  UNL     1      -7.951   2.657  12.522  1.00  0.00     0.037 C 
BRANCH  21  22
HETATM   22  C5  UNL     1      -6.586   1.957  12.452  1.00  0.00     0.031 C 
BRANCH  22  23
HETATM   23  C4  UNL     1      -5.704   2.452  11.336  1.00  0.00    -0.024 C 
HETATM   24  C2  UNL     1      -4.576   3.183  11.442  1.00  0.00    -0.091 C 
HETATM   25  C1  UNL     1      -3.942   3.607  12.736  1.00  0.00     0.042 C 
HETATM   26  C3  UNL     1      -3.831   3.627  10.210  1.00  0.00     0.042 C 
ENDBRANCH  22  23
ENDBRANCH  21  22
ENDBRANCH  19  21
ENDBRANCH  17  18
BRANCH  17  27
HETATM   27  O1  UNL     1      -8.572   5.647  15.931  1.00  0.00    -0.391 OA
HETATM   28  H17 UNL     1      -8.413   6.359  16.573  1.00  0.00     0.210 HD
ENDBRANCH  17  27
ENDBRANCH  16  17
ENDBRANCH  14  16
ENDBRANCH  12  13
ENDBRANCH  11  12
ENDBRANCH   1  11
BRANCH   3  29
HETATM   29  C20 UNL     1      -0.924   5.315  11.438  1.00  0.00     0.012 C 
BRANCH  29  30
HETATM   30  C21 UNL     1       0.158   4.233  11.553  1.00  0.00     0.027 C 
BRANCH  30  31
HETATM   31  C22 UNL     1      -0.432   2.830  11.653  1.00  0.00     0.164 C 
BRANCH  31  32
HETATM   32  O2  UNL     1       0.294   1.889  10.873  1.00  0.00    -0.401 OA
HETATM   33  H38 UNL     1       0.771   2.369  10.160  1.00  0.00     0.209 HD
ENDBRANCH  31  32
ENDBRANCH  30  31
ENDBRANCH  29  30
ENDBRANCH   3  29
BRANCH   9  34
HETATM   34  O4  UNL     1       0.148   7.911  15.663  1.00  0.00    -0.389 OA
HETATM   35  H50 UNL     1       0.868   8.469  16.013  1.00  0.00     0.210 HD
ENDBRANCH   9  34
BRANCH   5  36
HETATM   36  C26 UNL     1       0.247   7.943   9.413  1.00  0.00     0.265 C 
HETATM   37  O3  UNL     1       0.263   8.985   8.768  1.00  0.00    -0.302 OA
ENDBRANCH   5  36
TORSDOF 16
ENDMDL
MODEL 3
REMARK minimizedAffinity -7.98924351
REMARK  16 active torsions:
REMARK  status: ('A' for Active; 'I' for Inactive)
REMARK    1  A    between atoms: C4_4  and  C5_5 
REMARK    2  A    between atoms: C5_5  and  C6_6 
REMARK    3  A    between atoms: C6_6  and  C7_7 
REMARK    4  A    between atoms: C9_9  and  C10_10 
REMARK    5  A    between atoms: C10_10  and  O1_11 
REMARK    6  A    between atoms: C10_10  and  C11_12 
REMARK    7  A    between atoms: C11_12  and  C12_13 
REMARK    8  A    between atoms: C14_15  and  C15_16 
REMARK    9  A    between atoms: C15_16  and  C16_17 
REMARK   10  A    between atoms: C16_17  and  C17_18 
REMARK   11  A    between atoms: C19_20  and  C20_21 
REMARK   12  A    between atoms: C20_21  and  C21_22 
REMARK   13  A    between atoms: C21_22  and  C22_23 
REMARK   14  A    between atoms: C22_23  and  O2_24 
REMARK   15  A    between atoms: C24_26  and  C26_28 
REMARK   16  A    between atoms: C29_32  and  O4_34 
ROOT
HETATM    1  C17 UNL     1       0.409   6.560  11.681  1.00  0.00    -0.006 C 
HETATM    2  C18 UNL     1       1.132   6.034  12.953  1.00  0.00     0.019 C 
HETATM    3  C19 UNL     1       1.229   6.206  10.347  1.00  0.00     0.026 C 
HETATM    4  C23 UNL     1       2.139   7.339   9.839  1.00  0.00    -0.066 C 
HETATM    5  C24 UNL     1       2.379   7.593   8.527  1.00  0.00    -0.021 C 
HETATM    6  C25 UNL     1       3.257   8.711   8.033  1.00  0.00     0.052 C 
HETATM    7  C27 UNL     1       2.724   8.176  10.945  1.00  0.00     0.038 C 
HETATM    8  C28 UNL     1       1.646   8.828  11.808  1.00  0.00     0.042 C 
HETATM    9  C29 UNL     1       0.263   8.130  11.782  1.00  0.00     0.062 C 
HETATM   10  C30 UNL     1      -0.611   8.744  10.670  1.00  0.00     0.046 C 
ENDROOT
BRANCH   1  11
HETATM   11  C16 UNL     1      -0.978   5.809  11.585  1.00  0.00     0.016 C 
BRANCH  11  12
HETATM   12  C15 UNL     1      -1.857   5.641  12.838  1.00  0.00     0.028 C 
BRANCH  12  13
HETATM   13  C14 UNL     1      -2.884   6.717  13.058  1.00  0.00    -0.024 C 
HETATM   14  C12 UNL     1      -3.328   7.216  14.229  1.00  0.00    -0.085 C 
HETATM   15  C13 UNL     1      -2.870   6.749  15.584  1.00  0.00     0.043 C 
BRANCH  14  16
HETATM   16  C11 UNL     1      -4.329   8.364  14.233  1.00  0.00     0.069 C 
BRANCH  16  17
HETATM   17  C10 UNL     1      -5.667   8.006  14.905  1.00  0.00     0.145 C 
BRANCH  17  18
HETATM   18  C9  UNL     1      -6.205   6.678  14.435  1.00  0.00     0.007 C 
HETATM   19  C7  UNL     1      -7.168   5.898  14.971  1.00  0.00    -0.085 C 
HETATM   20  C8  UNL     1      -7.949   6.228  16.215  1.00  0.00     0.043 C 
BRANCH  19  21
HETATM   21  C6  UNL     1      -7.505   4.560  14.337  1.00  0.00     0.037 C 
BRANCH  21  22
HETATM   22  C5  UNL     1      -7.138   4.443  12.851  1.00  0.00     0.031 C 
BRANCH  22  23
HETATM   23  C4  UNL     1      -6.909   3.028  12.389  1.00  0.00    -0.024 C 
HETATM   24  C2  UNL     1      -5.893   2.562  11.635  1.00  0.00    -0.091 C 
HETATM   25  C1  UNL     1      -4.735   3.386  11.146  1.00  0.00     0.042 C 
HETATM   26  C3  UNL     1      -5.837   1.112  11.232  1.00  0.00     0.042 C 
ENDBRANCH  22  23
ENDBRANCH  21  22
ENDBRANCH  19  21
ENDBRANCH  17  18
BRANCH  17  27
HETATM   27  O1  UNL     1      -6.649   9.016  14.693  1.00  0.00    -0.391 OA
HETATM   28  H17 UNL     1      -6.326   9.809  15.154  1.00  0.00     0.210 HD
ENDBRANCH  17  27
ENDBRANCH  16  17
ENDBRANCH  14  16
ENDBRANCH  12  13
ENDBRANCH  11  12
ENDBRANCH   1  11
BRANCH   3  29
HETATM   29  C20 UNL     1       2.081   4.905  10.381  1.00  0.00     0.012 C 
BRANCH  29  30
HETATM   30  C21 UNL     1       3.548   5.117   9.982  1.00  0.00     0.027 C 
BRANCH  30  31
HETATM   31  C22 UNL     1       4.069   4.006   9.076  1.00  0.00     0.164 C 
BRANCH  31  32
HETATM   32  O2  UNL     1       3.363   3.946   7.844  1.00  0.00    -0.401 OA
HETATM   33  H38 UNL     1       2.477   4.355   7.966  1.00  0.00     0.209 HD
ENDBRANCH  31  32
ENDBRANCH  30  31
ENDBRANCH  29  30
ENDBRANCH   3  29
BRANCH   9  34
HETATM   34  O4  UNL     1      -0.370   8.477  13.022  1.00  0.00    -0.389 OA
HETATM   35  H50 UNL     1      -0.382   9.450  13.096  1.00  0.00     0.210 HD
ENDBRANCH   9  34
BRANCH   5  36
HETATM   36  C26 UNL     1       1.796   6.771   7.412  1.00  0.00     0.265 C 
HETATM   37  O3  UNL     1       1.554   7.183   6.284  1.00  0.00    -0.302 OA
ENDBRANCH   5  36
TORSDOF 16
ENDMDL
MODEL 4
REMARK minimizedAffinity -7.78629398
REMARK  16 active torsions:
REMARK  status: ('A' for Active; 'I' for Inactive)
REMARK    1  A    between atoms: C4_4  and  C5_5 
REMARK    2  A    between atoms: C5_5  and  C6_6 
REMARK    3  A    between atoms: C6_6  and  C7_7 
REMARK    4  A    between atoms: C9_9  and  C10_10 
REMARK    5  A    between atoms: C10_10  and  O1_11 
REMARK    6  A    between atoms: C10_10  and  C11_12 
REMARK    7  A    between atoms: C11_12  and  C12_13 
REMARK    8  A    between atoms: C14_15  and  C15_16 
REMARK    9  A    between atoms: C15_16  and  C16_17 
REMARK   10  A    between atoms: C16_17  and  C17_18 
REMARK   11  A    between atoms: C19_20  and  C20_21 
REMARK   12  A    between atoms: C20_21  and  C21_22 
REMARK   13  A    between atoms: C21_22  and  C22_23 
REMARK   14  A    between atoms: C22_23  and  O2_24 
REMARK   15  A    between atoms: C24_26  and  C26_28 
REMARK   16  A    between atoms: C29_32  and  O4_34 
ROOT
HETATM    1  C17 UNL     1       1.461   7.582  11.839  1.00  0.00    -0.006 C 
HETATM    2  C18 UNL     1       1.705   9.051  12.288  1.00  0.00     0.019 C 
HETATM    3  C19 UNL     1       2.612   7.068  10.847  1.00  0.00     0.026 C 
HETATM    4  C23 UNL     1       2.266   7.185   9.351  1.00  0.00    -0.066 C 
HETATM    5  C24 UNL     1       2.666   6.298   8.405  1.00  0.00    -0.021 C 
HETATM    6  C25 UNL     1       2.312   6.406   6.947  1.00  0.00     0.052 C 
HETATM    7  C27 UNL     1       1.399   8.373   9.031  1.00  0.00     0.038 C 
HETATM    8  C28 UNL     1       0.075   8.346   9.792  1.00  0.00     0.042 C 
HETATM    9  C29 UNL     1       0.073   7.497  11.089  1.00  0.00     0.062 C 
HETATM   10  C30 UNL     1      -0.371   6.056  10.767  1.00  0.00     0.046 C 
ENDROOT
BRANCH   1  11
HETATM   11  C16 UNL     1       1.527   6.678  13.134  1.00  0.00     0.016 C 
BRANCH  11  12
HETATM   12  C15 UNL     1       0.499   6.869  14.265  1.00  0.00     0.028 C 
BRANCH  12  13
HETATM   13  C14 UNL     1      -0.639   5.886  14.278  1.00  0.00    -0.024 C 
HETATM   14  C12 UNL     1      -1.950   6.135  14.469  1.00  0.00    -0.085 C 
HETATM   15  C13 UNL     1      -2.530   7.497  14.736  1.00  0.00     0.043 C 
BRANCH  14  16
HETATM   16  C11 UNL     1      -2.959   4.998  14.373  1.00  0.00     0.069 C 
BRANCH  16  17
HETATM   17  C10 UNL     1      -3.636   4.897  12.993  1.00  0.00     0.145 C 
BRANCH  17  18
HETATM   18  C9  UNL     1      -5.140   4.898  13.094  1.00  0.00     0.007 C 
HETATM   19  C7  UNL     1      -6.038   4.011  12.614  1.00  0.00    -0.085 C 
HETATM   20  C8  UNL     1      -5.690   2.765  11.844  1.00  0.00     0.043 C 
BRANCH  19  21
HETATM   21  C6  UNL     1      -7.525   4.257  12.800  1.00  0.00     0.037 C 
BRANCH  21  22
HETATM   22  C5  UNL     1      -7.911   5.727  13.021  1.00  0.00     0.031 C 
BRANCH  22  23
HETATM   23  C4  UNL     1      -8.191   6.074  14.460  1.00  0.00    -0.024 C 
HETATM   24  C2  UNL     1      -7.589   7.017  15.212  1.00  0.00    -0.091 C 
HETATM   25  C1  UNL     1      -6.531   7.964  14.721  1.00  0.00     0.042 C 
HETATM   26  C3  UNL     1      -7.971   7.207  16.656  1.00  0.00     0.042 C 
ENDBRANCH  22  23
ENDBRANCH  21  22
ENDBRANCH  19  21
ENDBRANCH  17  18
BRANCH  17  27
HETATM   27  O1  UNL     1      -3.210   3.739  12.282  1.00  0.00    -0.391 OA
HETATM   28  H17 UNL     1      -2.263   3.864  12.102  1.00  0.00     0.210 HD
ENDBRANCH  17  27
ENDBRANCH  16  17
ENDBRANCH  14  16
ENDBRANCH  12  13
ENDBRANCH  11  12
ENDBRANCH   1  11
BRANCH   3  29
HETATM   29  C20 UNL     1       4.026   7.686  11.046  1.00  0.00     0.012 C 
BRANCH  29  30
HETATM   30  C21 UNL     1       5.026   6.737  11.719  1.00  0.00     0.027 C 
BRANCH  30  31
HETATM   31  C22 UNL     1       6.361   6.684  10.985  1.00  0.00     0.164 C 
BRANCH  31  32
HETATM   32  O2  UNL     1       7.282   7.647  11.479  1.00  0.00    -0.401 OA
HETATM   33  H38 UNL     1       6.779   8.374  11.909  1.00  0.00     0.209 HD
ENDBRANCH  31  32
ENDBRANCH  30  31
ENDBRANCH  29  30
ENDBRANCH   3  29
BRANCH   9  34
HETATM   34  O4  UNL     1      -0.959   8.055  11.915  1.00  0.00    -0.389 OA
HETATM   35  H50 UNL     1      -1.790   8.059  11.404  1.00  0.00     0.210 HD
ENDBRANCH   9  34
BRANCH   5  36
HETATM   36  C26 UNL     1       3.523   5.103   8.711  1.00  0.00     0.265 C 
HETATM   37  O3  UNL     1       3.708   4.155   7.956  1.00  0.00    -0.302 OA
ENDBRANCH   5  36
TORSDOF 16
ENDMDL
MODEL 5
REMARK minimizedAffinity -7.73104095
REMARK  16 active torsions:
REMARK  status: ('A' for Active; 'I' for Inactive)
REMARK    1  A    between atoms: C4_4  and  C5_5 
REMARK    2  A    between atoms: C5_5  and  C6_6 
REMARK    3  A    between atoms: C6_6  and  C7_7 
REMARK    4  A    between atoms: C9_9  and  C10_10 
REMARK    5  A    between atoms: C10_10  and  O1_11 
REMARK    6  A    between atoms: C10_10  and  C11_12 
REMARK    7  A    between atoms: C11_12  and  C12_13 
REMARK    8  A    between atoms: C14_15  and  C15_16 
REMARK    9  A    between atoms: C15_16  and  C16_17 
REMARK   10  A    between atoms: C16_17  and  C17_18 
REMARK   11  A    between atoms: C19_20  and  C20_21 
REMARK   12  A    between atoms: C20_21  and  C21_22 
REMARK   13  A    between atoms: C21_22  and  C22_23 
REMARK   14  A    between atoms: C22_23  and  O2_24 
REMARK   15  A    between atoms: C24_26  and  C26_28 
REMARK   16  A    between atoms: C29_32  and  O4_34 
ROOT
HETATM    1  C17 UNL     1      -1.199   6.972  14.001  1.00  0.00    -0.006 C 
HETATM    2  C18 UNL     1      -1.210   5.564  14.660  1.00  0.00     0.019 C 
HETATM    3  C19 UNL     1      -0.829   6.892  12.441  1.00  0.00     0.026 C 
HETATM    4  C23 UNL     1       0.655   7.147  12.123  1.00  0.00    -0.066 C 
HETATM    5  C24 UNL     1       1.098   7.777  11.005  1.00  0.00    -0.021 C 
HETATM    6  C25 UNL     1       2.548   8.040  10.705  1.00  0.00     0.052 C 
HETATM    7  C27 UNL     1       1.588   6.656  13.197  1.00  0.00     0.038 C 
HETATM    8  C28 UNL     1       1.306   7.307  14.550  1.00  0.00     0.042 C 
HETATM    9  C29 UNL     1      -0.125   7.874  14.728  1.00  0.00     0.062 C 
HETATM   10  C30 UNL     1      -0.159   9.352  14.292  1.00  0.00     0.046 C 
ENDROOT
BRANCH   1  11
HETATM   11  C16 UNL     1      -2.668   7.548  14.100  1.00  0.00     0.016 C 
BRANCH  11  12
HETATM   12  C15 UNL     1      -3.713   7.193  13.026  1.00  0.00     0.028 C 
BRANCH  12  13
HETATM   13  C14 UNL     1      -4.981   6.569  13.538  1.00  0.00    -0.024 C 
HETATM   14  C12 UNL     1      -5.412   5.303  13.368  1.00  0.00    -0.085 C 
HETATM   15  C13 UNL     1      -4.679   4.250  12.582  1.00  0.00     0.043 C 
BRANCH  14  16
HETATM   16  C11 UNL     1      -6.703   4.846  14.035  1.00  0.00     0.069 C 
BRANCH  16  17
HETATM   17  C10 UNL     1      -7.865   4.643  13.045  1.00  0.00     0.145 C 
BRANCH  17  18
HETATM   18  C9  UNL     1      -8.888   5.747  13.131  1.00  0.00     0.007 C 
HETATM   19  C7  UNL     1      -9.214   6.542  14.172  1.00  0.00    -0.085 C 
HETATM   20  C8  UNL     1      -8.572   6.486  15.532  1.00  0.00     0.043 C 
BRANCH  19  21
HETATM   21  C6  UNL     1     -10.330   7.562  14.030  1.00  0.00     0.037 C 
BRANCH  21  22
HETATM   22  C5  UNL     1     -11.174   7.418  12.755  1.00  0.00     0.031 C 
BRANCH  22  23
HETATM   23  C4  UNL     1     -12.604   7.864  12.917  1.00  0.00    -0.024 C 
HETATM   24  C2  UNL     1     -13.605   7.209  13.538  1.00  0.00    -0.091 C 
HETATM   25  C1  UNL     1     -13.461   5.896  14.255  1.00  0.00     0.042 C 
HETATM   26  C3  UNL     1     -14.995   7.788  13.575  1.00  0.00     0.042 C 
ENDBRANCH  22  23
ENDBRANCH  21  22
ENDBRANCH  19  21
ENDBRANCH  17  18
BRANCH  17  27
HETATM   27  O1  UNL     1      -8.506   3.386  13.237  1.00  0.00    -0.391 OA
HETATM   28  H17 UNL     1      -7.847   2.707  13.014  1.00  0.00     0.210 HD
ENDBRANCH  17  27
ENDBRANCH  16  17
ENDBRANCH  14  16
ENDBRANCH  12  13
ENDBRANCH  11  12
ENDBRANCH   1  11
BRANCH   3  29
HETATM   29  C20 UNL     1      -1.248   5.592  11.695  1.00  0.00     0.012 C 
BRANCH  29  30
HETATM   30  C21 UNL     1      -0.122   4.556  11.581  1.00  0.00     0.027 C 
BRANCH  30  31
HETATM   31  C22 UNL     1      -0.649   3.125  11.572  1.00  0.00     0.164 C 
BRANCH  31  32
HETATM   32  O2  UNL     1      -1.555   2.897  10.501  1.00  0.00    -0.401 OA
HETATM   33  H38 UNL     1      -1.940   3.757  10.223  1.00  0.00     0.209 HD
ENDBRANCH  31  32
ENDBRANCH  30  31
ENDBRANCH  29  30
ENDBRANCH   3  29
BRANCH   9  34
HETATM   34  O4  UNL     1      -0.369   7.871  16.142  1.00  0.00    -0.389 OA
HETATM   35  H50 UNL     1       0.347   8.372  16.576  1.00  0.00     0.210 HD
ENDBRANCH   9  34
BRANCH   5  36
HETATM   36  C26 UNL     1       0.178   8.280   9.928  1.00  0.00     0.265 C 
HETATM   37  O3  UNL     1       0.537   8.837   8.897  1.00  0.00    -0.302 OA
ENDBRANCH   5  36
TORSDOF 16
ENDMDL
MODEL 6
REMARK minimizedAffinity -7.7222743
REMARK  16 active torsions:
REMARK  status: ('A' for Active; 'I' for Inactive)
REMARK    1  A    between atoms: C4_4  and  C5_5 
REMARK    2  A    between atoms: C5_5  and  C6_6 
REMARK    3  A    between atoms: C6_6  and  C7_7 
REMARK    4  A    between atoms: C9_9  and  C10_10 
REMARK    5  A    between atoms: C10_10  and  O1_11 
REMARK    6  A    between atoms: C10_10  and  C11_12 
REMARK    7  A    between atoms: C11_12  and  C12_13 
REMARK    8  A    between atoms: C14_15  and  C15_16 
REMARK    9  A    between atoms: C15_16  and  C16_17 
REMARK   10  A    between atoms: C16_17  and  C17_18 
REMARK   11  A    between atoms: C19_20  and  C20_21 
REMARK   12  A    between atoms: C20_21  and  C21_22 
REMARK   13  A    between atoms: C21_22  and  C22_23 
REMARK   14  A    between atoms: C22_23  and  O2_24 
REMARK   15  A    between atoms: C24_26  and  C26_28 
REMARK   16  A    between atoms: C29_32  and  O4_34 
ROOT
HETATM    1  C17 UNL     1      -1.184   6.617  13.677  1.00  0.00    -0.006 C 
HETATM    2  C18 UNL     1      -1.351   5.722  14.938  1.00  0.00     0.019 C 
HETATM    3  C19 UNL     1      -0.272   5.906  12.564  1.00  0.00     0.026 C 
HETATM    4  C23 UNL     1       1.210   6.322  12.592  1.00  0.00    -0.066 C 
HETATM    5  C24 UNL     1       1.990   6.440  11.487  1.00  0.00    -0.021 C 
HETATM    6  C25 UNL     1       3.433   6.862  11.516  1.00  0.00     0.052 C 
HETATM    7  C27 UNL     1       1.719   6.623  13.976  1.00  0.00     0.038 C 
HETATM    8  C28 UNL     1       0.931   7.745  14.650  1.00  0.00     0.042 C 
HETATM    9  C29 UNL     1      -0.498   7.977  14.097  1.00  0.00     0.062 C 
HETATM   10  C30 UNL     1      -0.456   9.026  12.968  1.00  0.00     0.046 C 
ENDROOT
BRANCH   1  11
HETATM   11  C16 UNL     1      -2.619   6.811  13.045  1.00  0.00     0.016 C 
BRANCH  11  12
HETATM   12  C15 UNL     1      -3.282   5.664  12.261  1.00  0.00     0.028 C 
BRANCH  12  13
HETATM   13  C14 UNL     1      -4.488   5.047  12.913  1.00  0.00    -0.024 C 
HETATM   14  C12 UNL     1      -5.202   3.979  12.500  1.00  0.00    -0.085 C 
HETATM   15  C13 UNL     1      -4.918   3.195  11.248  1.00  0.00     0.043 C 
BRANCH  14  16
HETATM   16  C11 UNL     1      -6.357   3.466  13.350  1.00  0.00     0.069 C 
BRANCH  16  17
HETATM   17  C10 UNL     1      -7.725   3.574  12.652  1.00  0.00     0.145 C 
BRANCH  17  18
HETATM   18  C9  UNL     1      -8.594   4.644  13.262  1.00  0.00     0.007 C 
HETATM   19  C7  UNL     1      -9.163   5.725  12.687  1.00  0.00    -0.085 C 
HETATM   20  C8  UNL     1      -9.041   6.090  11.232  1.00  0.00     0.043 C 
BRANCH  19  21
HETATM   21  C6  UNL     1      -9.965   6.701  13.530  1.00  0.00     0.037 C 
BRANCH  21  22
HETATM   22  C5  UNL     1      -9.358   7.012  14.906  1.00  0.00     0.031 C 
BRANCH  22  23
HETATM   23  C4  UNL     1      -7.983   7.623  14.842  1.00  0.00    -0.024 C 
HETATM   24  C2  UNL     1      -6.855   7.174  15.427  1.00  0.00    -0.091 C 
HETATM   25  C1  UNL     1      -6.746   5.909  16.231  1.00  0.00     0.042 C 
HETATM   26  C3  UNL     1      -5.562   7.935  15.289  1.00  0.00     0.042 C 
ENDBRANCH  22  23
ENDBRANCH  21  22
ENDBRANCH  19  21
ENDBRANCH  17  18
BRANCH  17  27
HETATM   27  O1  UNL     1      -8.422   2.332  12.666  1.00  0.00    -0.391 OA
HETATM   28  H17 UNL     1      -7.897   1.719  12.124  1.00  0.00     0.210 HD
ENDBRANCH  17  27
ENDBRANCH  16  17
ENDBRANCH  14  16
ENDBRANCH  12  13
ENDBRANCH  11  12
ENDBRANCH   1  11
BRANCH   3  29
HETATM   29  C20 UNL     1      -0.318   4.351  12.520  1.00  0.00     0.012 C 
BRANCH  29  30
HETATM   30  C21 UNL     1      -1.091   3.790  11.319  1.00  0.00     0.027 C 
BRANCH  30  31
HETATM   31  C22 UNL     1      -1.012   2.270  11.237  1.00  0.00     0.164 C 
BRANCH  31  32
HETATM   32  O2  UNL     1      -1.447   1.780   9.976  1.00  0.00    -0.401 OA
HETATM   33  H38 UNL     1      -2.042   2.445   9.565  1.00  0.00     0.209 HD
ENDBRANCH  31  32
ENDBRANCH  30  31
ENDBRANCH  29  30
ENDBRANCH   3  29
BRANCH   9  34
HETATM   34  O4  UNL     1      -1.236   8.579  15.171  1.00  0.00    -0.389 OA
HETATM   35  H50 UNL     1      -0.754   9.376  15.462  1.00  0.00     0.210 HD
ENDBRANCH   9  34
BRANCH   5  36
HETATM   36  C26 UNL     1       1.494   6.150  10.099  1.00  0.00     0.265 C 
HETATM   37  O3  UNL     1       2.119   6.366   9.067  1.00  0.00    -0.302 OA
ENDBRANCH   5  36
TORSDOF 16
ENDMDL
MODEL 7
REMARK minimizedAffinity -7.63011932
REMARK  16 active torsions:
REMARK  status: ('A' for Active; 'I' for Inactive)
REMARK    1  A    between atoms: C4_4  and  C5_5 
REMARK    2  A    between atoms: C5_5  and  C6_6 
REMARK    3  A    between atoms: C6_6  and  C7_7 
REMARK    4  A    between atoms: C9_9  and  C10_10 
REMARK    5  A    between atoms: C10_10  and  O1_11 
REMARK    6  A    between atoms: C10_10  and  C11_12 
REMARK    7  A    between atoms: C11_12  and  C12_13 
REMARK    8  A    between atoms: C14_15  and  C15_16 
REMARK    9  A    between atoms: C15_16  and  C16_17 
REMARK   10  A    between atoms: C16_17  and  C17_18 
REMARK   11  A    between atoms: C19_20  and  C20_21 
REMARK   12  A    between atoms: C20_21  and  C21_22 
REMARK   13  A    between atoms: C21_22  and  C22_23 
REMARK   14  A    between atoms: C22_23  and  O2_24 
REMARK   15  A    between atoms: C24_26  and  C26_28 
REMARK   16  A    between atoms: C29_32  and  O4_34 
ROOT
HETATM    1  C17 UNL     1       1.323   7.401  12.235  1.00  0.00    -0.006 C 
HETATM    2  C18 UNL     1       1.611   8.868  12.661  1.00  0.00     0.019 C 
HETATM    3  C19 UNL     1       2.548   6.773  11.410  1.00  0.00     0.026 C 
HETATM    4  C23 UNL     1       2.393   6.849   9.880  1.00  0.00    -0.066 C 
HETATM    5  C24 UNL     1       2.843   5.900   9.020  1.00  0.00    -0.021 C 
HETATM    6  C25 UNL     1       2.677   5.970   7.527  1.00  0.00     0.052 C 
HETATM    7  C27 UNL     1       1.655   8.076   9.416  1.00  0.00     0.038 C 
HETATM    8  C28 UNL     1       0.250   8.165  10.009  1.00  0.00     0.042 C 
HETATM    9  C29 UNL     1       0.033   7.372  11.322  1.00  0.00     0.062 C 
HETATM   10  C30 UNL     1      -0.466   5.950  10.997  1.00  0.00     0.046 C 
ENDROOT
BRANCH   1  11
HETATM   11  C16 UNL     1       1.170   6.549  13.557  1.00  0.00     0.016 C 
BRANCH  11  12
HETATM   12  C15 UNL     1       0.025   5.527  13.693  1.00  0.00     0.028 C 
BRANCH  12  13
HETATM   13  C14 UNL     1      -1.150   5.977  14.515  1.00  0.00    -0.024 C 
HETATM   14  C12 UNL     1      -1.214   7.009  15.379  1.00  0.00    -0.085 C 
HETATM   15  C13 UNL     1      -0.063   7.922  15.705  1.00  0.00     0.043 C 
BRANCH  14  16
HETATM   16  C11 UNL     1      -2.533   7.344  16.064  1.00  0.00     0.069 C 
BRANCH  16  17
HETATM   17  C10 UNL     1      -3.644   7.758  15.082  1.00  0.00     0.145 C 
BRANCH  17  18
HETATM   18  C9  UNL     1      -4.583   6.621  14.770  1.00  0.00     0.007 C 
HETATM   19  C7  UNL     1      -5.927   6.623  14.636  1.00  0.00    -0.085 C 
HETATM   20  C8  UNL     1      -6.803   7.839  14.773  1.00  0.00     0.043 C 
BRANCH  19  21
HETATM   21  C6  UNL     1      -6.666   5.324  14.367  1.00  0.00     0.037 C 
BRANCH  21  22
HETATM   22  C5  UNL     1      -7.111   5.128  12.910  1.00  0.00     0.031 C 
BRANCH  22  23
HETATM   23  C4  UNL     1      -6.819   3.755  12.363  1.00  0.00    -0.024 C 
HETATM   24  C2  UNL     1      -5.626   3.258  11.981  1.00  0.00    -0.091 C 
HETATM   25  C1  UNL     1      -4.315   3.987  12.085  1.00  0.00     0.042 C 
HETATM   26  C3  UNL     1      -5.518   1.865  11.418  1.00  0.00     0.042 C 
ENDBRANCH  22  23
ENDBRANCH  21  22
ENDBRANCH  19  21
ENDBRANCH  17  18
BRANCH  17  27
HETATM   27  O1  UNL     1      -3.108   8.277  13.870  1.00  0.00    -0.391 OA
HETATM   28  H17 UNL     1      -2.645   9.099  14.106  1.00  0.00     0.210 HD
ENDBRANCH  17  27
ENDBRANCH  16  17
ENDBRANCH  14  16
ENDBRANCH  12  13
ENDBRANCH  11  12
ENDBRANCH   1  11
BRANCH   3  29
HETATM   29  C20 UNL     1       3.967   7.308  11.761  1.00  0.00     0.012 C 
BRANCH  29  30
HETATM   30  C21 UNL     1       4.819   7.650  10.531  1.00  0.00     0.027 C 
BRANCH  30  31
HETATM   31  C22 UNL     1       6.312   7.636  10.838  1.00  0.00     0.164 C 
BRANCH  31  32
HETATM   32  O2  UNL     1       6.922   8.895  10.586  1.00  0.00    -0.401 OA
HETATM   33  H38 UNL     1       6.374   9.387   9.935  1.00  0.00     0.209 HD
ENDBRANCH  31  32
ENDBRANCH  30  31
ENDBRANCH  29  30
ENDBRANCH   3  29
BRANCH   9  34
HETATM   34  O4  UNL     1      -1.050   8.029  11.996  1.00  0.00    -0.389 OA
HETATM   35  H50 UNL     1      -1.811   8.065  11.386  1.00  0.00     0.210 HD
ENDBRANCH   9  34
BRANCH   5  36
HETATM   36  C26 UNL     1       3.574   4.667   9.470  1.00  0.00     0.265 C 
HETATM   37  O3  UNL     1       3.779   3.676   8.778  1.00  0.00    -0.302 OA
ENDBRANCH   5  36
TORSDOF 16
ENDMDL
MODEL 8
REMARK minimizedAffinity -7.5921483
REMARK  16 active torsions:
REMARK  status: ('A' for Active; 'I' for Inactive)
REMARK    1  A    between atoms: C4_4  and  C5_5 
REMARK    2  A    between atoms: C5_5  and  C6_6 
REMARK    3  A    between atoms: C6_6  and  C7_7 
REMARK    4  A    between atoms: C9_9  and  C10_10 
REMARK    5  A    between atoms: C10_10  and  O1_11 
REMARK    6  A    between atoms: C10_10  and  C11_12 
REMARK    7  A    between atoms: C11_12  and  C12_13 
REMARK    8  A    between atoms: C14_15  and  C15_16 
REMARK    9  A    between atoms: C15_16  and  C16_17 
REMARK   10  A    between atoms: C16_17  and  C17_18 
REMARK   11  A    between atoms: C19_20  and  C20_21 
REMARK   12  A    between atoms: C20_21  and  C21_22 
REMARK   13  A    between atoms: C21_22  and  C22_23 
REMARK   14  A    between atoms: C22_23  and  O2_24 
REMARK   15  A    between atoms: C24_26  and  C26_28 
REMARK   16  A    between atoms: C29_32  and  O4_34 
ROOT
HETATM    1  C17 UNL     1       1.729   7.500  11.649  1.00  0.00    -0.006 C 
HETATM    2  C18 UNL     1       2.078   8.951  12.086  1.00  0.00     0.019 C 
HETATM    3  C19 UNL     1       2.770   6.945  10.560  1.00  0.00     0.026 C 
HETATM    4  C23 UNL     1       2.306   7.094   9.099  1.00  0.00    -0.066 C 
HETATM    5  C24 UNL     1       2.585   6.200   8.116  1.00  0.00    -0.021 C 
HETATM    6  C25 UNL     1       2.116   6.340   6.694  1.00  0.00     0.052 C 
HETATM    7  C27 UNL     1       1.472   8.324   8.861  1.00  0.00     0.038 C 
HETATM    8  C28 UNL     1       0.216   8.348   9.730  1.00  0.00     0.042 C 
HETATM    9  C29 UNL     1       0.282   7.486  11.016  1.00  0.00     0.062 C 
HETATM   10  C30 UNL     1      -0.253   6.070  10.722  1.00  0.00     0.046 C 
ENDROOT
BRANCH   1  11
HETATM   11  C16 UNL     1       1.861   6.580  12.926  1.00  0.00     0.016 C 
BRANCH  11  12
HETATM   12  C15 UNL     1       1.865   7.205  14.334  1.00  0.00     0.028 C 
BRANCH  12  13
HETATM   13  C14 UNL     1       0.539   7.726  14.815  1.00  0.00    -0.024 C 
HETATM   14  C12 UNL     1       0.269   8.926  15.369  1.00  0.00    -0.085 C 
HETATM   15  C13 UNL     1       1.295   9.993  15.635  1.00  0.00     0.043 C 
BRANCH  14  16
HETATM   16  C11 UNL     1      -1.166   9.290  15.725  1.00  0.00     0.069 C 
BRANCH  16  17
HETATM   17  C10 UNL     1      -2.041   8.068  16.064  1.00  0.00     0.145 C 
BRANCH  17  18
HETATM   18  C9  UNL     1      -3.061   7.781  14.993  1.00  0.00     0.007 C 
HETATM   19  C7  UNL     1      -3.154   6.732  14.148  1.00  0.00    -0.085 C 
HETATM   20  C8  UNL     1      -2.203   5.566  14.117  1.00  0.00     0.043 C 
BRANCH  19  21
HETATM   21  C6  UNL     1      -4.258   6.689  13.106  1.00  0.00     0.037 C 
BRANCH  21  22
HETATM   22  C5  UNL     1      -5.658   6.395  13.663  1.00  0.00     0.031 C 
BRANCH  22  23
HETATM   23  C4  UNL     1      -6.087   4.960  13.506  1.00  0.00    -0.024 C 
HETATM   24  C2  UNL     1      -7.204   4.495  12.911  1.00  0.00    -0.091 C 
HETATM   25  C1  UNL     1      -8.233   5.348  12.225  1.00  0.00     0.042 C 
HETATM   26  C3  UNL     1      -7.497   3.018  12.874  1.00  0.00     0.042 C 
ENDBRANCH  22  23
ENDBRANCH  21  22
ENDBRANCH  19  21
ENDBRANCH  17  18
BRANCH  17  27
HETATM   27  O1  UNL     1      -2.700   8.225  17.316  1.00  0.00    -0.391 OA
HETATM   28  H17 UNL     1      -2.001   8.245  17.992  1.00  0.00     0.210 HD
ENDBRANCH  17  27
ENDBRANCH  16  17
ENDBRANCH  14  16
ENDBRANCH  12  13
ENDBRANCH  11  12
ENDBRANCH   1  11
BRANCH   3  29
HETATM   29  C20 UNL     1       4.222   7.496  10.644  1.00  0.00     0.012 C 
BRANCH  29  30
HETATM   30  C21 UNL     1       5.269   6.427  10.985  1.00  0.00     0.027 C 
BRANCH  30  31
HETATM   31  C22 UNL     1       6.238   6.888  12.068  1.00  0.00     0.164 C 
BRANCH  31  32
HETATM   32  O2  UNL     1       7.504   7.251  11.533  1.00  0.00    -0.401 OA
HETATM   33  H38 UNL     1       7.626   6.794  10.671  1.00  0.00     0.209 HD
ENDBRANCH  31  32
ENDBRANCH  30  31
ENDBRANCH  29  30
ENDBRANCH   3  29
BRANCH   9  34
HETATM   34  O4  UNL     1      -0.651   8.081  11.929  1.00  0.00    -0.389 OA
HETATM   35  H50 UNL     1      -1.520   8.129  11.489  1.00  0.00     0.210 HD
ENDBRANCH   9  34
BRANCH   5  36
HETATM   36  C26 UNL     1       3.409   4.964   8.341  1.00  0.00     0.265 C 
HETATM   37  O3  UNL     1       3.621   4.095   7.503  1.00  0.00    -0.302 OA
ENDBRANCH   5  36
TORSDOF 16
ENDMDL
MODEL 9
REMARK minimizedAffinity -7.52158689
REMARK  16 active torsions:
REMARK  status: ('A' for Active; 'I' for Inactive)
REMARK    1  A    between atoms: C4_4  and  C5_5 
REMARK    2  A    between atoms: C5_5  and  C6_6 
REMARK    3  A    between atoms: C6_6  and  C7_7 
REMARK    4  A    between atoms: C9_9  and  C10_10 
REMARK    5  A    between atoms: C10_10  and  O1_11 
REMARK    6  A    between atoms: C10_10  and  C11_12 
REMARK    7  A    between atoms: C11_12  and  C12_13 
REMARK    8  A    between atoms: C14_15  and  C15_16 
REMARK    9  A    between atoms: C15_16  and  C16_17 
REMARK   10  A    between atoms: C16_17  and  C17_18 
REMARK   11  A    between atoms: C19_20  and  C20_21 
REMARK   12  A    between atoms: C20_21  and  C21_22 
REMARK   13  A    between atoms: C21_22  and  C22_23 
REMARK   14  A    between atoms: C22_23  and  O2_24 
REMARK   15  A    between atoms: C24_26  and  C26_28 
REMARK   16  A    between atoms: C29_32  and  O4_34 
ROOT
HETATM    1  C17 UNL     1       0.458   6.603  12.780  1.00  0.00    -0.006 C 
HETATM    2  C18 UNL     1       0.568   5.138  13.289  1.00  0.00     0.019 C 
HETATM    3  C19 UNL     1      -0.022   6.662  11.250  1.00  0.00     0.026 C 
HETATM    4  C23 UNL     1       1.121   6.792  10.227  1.00  0.00    -0.066 C 
HETATM    5  C24 UNL     1       1.031   7.495   9.069  1.00  0.00    -0.021 C 
HETATM    6  C25 UNL     1       2.155   7.633   8.079  1.00  0.00     0.052 C 
HETATM    7  C27 UNL     1       2.380   6.084  10.648  1.00  0.00     0.038 C 
HETATM    8  C28 UNL     1       2.918   6.602  11.980  1.00  0.00     0.042 C 
HETATM    9  C29 UNL     1       1.874   7.295  12.892  1.00  0.00     0.062 C 
HETATM   10  C30 UNL     1       1.849   8.808  12.599  1.00  0.00     0.046 C 
ENDROOT
BRANCH   1  11
HETATM   11  C16 UNL     1      -0.655   7.318  13.644  1.00  0.00     0.016 C 
BRANCH  11  12
HETATM   12  C15 UNL     1      -2.033   7.626  13.029  1.00  0.00     0.028 C 
BRANCH  12  13
HETATM   13  C14 UNL     1      -3.138   6.679  13.407  1.00  0.00    -0.024 C 
HETATM   14  C12 UNL     1      -4.464   6.921  13.445  1.00  0.00    -0.085 C 
HETATM   15  C13 UNL     1      -5.099   8.246  13.123  1.00  0.00     0.043 C 
BRANCH  14  16
HETATM   16  C11 UNL     1      -5.430   5.794  13.788  1.00  0.00     0.069 C 
BRANCH  16  17
HETATM   17  C10 UNL     1      -6.102   5.962  15.164  1.00  0.00     0.145 C 
BRANCH  17  18
HETATM   18  C9  UNL     1      -7.601   6.079  15.057  1.00  0.00     0.007 C 
HETATM   19  C7  UNL     1      -8.384   7.178  15.071  1.00  0.00    -0.085 C 
HETATM   20  C8  UNL     1      -7.881   8.592  15.193  1.00  0.00     0.043 C 
BRANCH  19  21
HETATM   21  C6  UNL     1      -9.894   7.038  14.999  1.00  0.00     0.037 C 
BRANCH  21  22
HETATM   22  C5  UNL     1     -10.465   6.949  13.576  1.00  0.00     0.031 C 
BRANCH  22  23
HETATM   23  C4  UNL     1     -11.395   8.079  13.221  1.00  0.00    -0.024 C 
HETATM   24  C2  UNL     1     -12.739   8.041  13.128  1.00  0.00    -0.091 C 
HETATM   25  C1  UNL     1     -13.590   6.838  13.425  1.00  0.00     0.042 C 
HETATM   26  C3  UNL     1     -13.516   9.265  12.722  1.00  0.00     0.042 C 
ENDBRANCH  22  23
ENDBRANCH  21  22
ENDBRANCH  19  21
ENDBRANCH  17  18
BRANCH  17  27
HETATM   27  O1  UNL     1      -5.588   7.089  15.866  1.00  0.00    -0.391 OA
HETATM   28  H17 UNL     1      -4.654   6.892  16.051  1.00  0.00     0.210 HD
ENDBRANCH  17  27
ENDBRANCH  16  17
ENDBRANCH  14  16
ENDBRANCH  12  13
ENDBRANCH  11  12
ENDBRANCH   1  11
BRANCH   3  29
HETATM   29  C20 UNL     1      -0.949   5.509  10.768  1.00  0.00     0.012 C 
BRANCH  29  30
HETATM   30  C21 UNL     1      -0.766   4.202  11.552  1.00  0.00     0.027 C 
BRANCH  30  31
HETATM   31  C22 UNL     1      -1.917   3.227  11.330  1.00  0.00     0.164 C 
BRANCH  31  32
HETATM   32  O2  UNL     1      -2.034   2.839   9.967  1.00  0.00    -0.401 OA
HETATM   33  H38 UNL     1      -1.620   3.531   9.405  1.00  0.00     0.209 HD
ENDBRANCH  31  32
ENDBRANCH  30  31
ENDBRANCH  29  30
ENDBRANCH   3  29
BRANCH   9  34
HETATM   34  O4  UNL     1       2.376   7.157  14.229  1.00  0.00    -0.389 OA
HETATM   35  H50 UNL     1       3.279   7.524  14.255  1.00  0.00     0.210 HD
ENDBRANCH   9  34
BRANCH   5  36
HETATM   36  C26 UNL     1      -0.217   8.213   8.640  1.00  0.00     0.265 C 
HETATM   37  O3  UNL     1      -0.631   9.260   9.125  1.00  0.00    -0.302 OA
ENDBRANCH   5  36
TORSDOF 16
ENDMDL
