MODEL 1
REMARK minimizedAffinity -9.42401505
REMARK CNNscore 0.547060966
REMARK CNNaffinity 7.94845438
REMARK  23 active torsions:
REMARK  status: ('A' for Active; 'I' for Inactive)
REMARK    1  A    between atoms: C3_3  and  C4_4 
REMARK    2  A    between atoms: C5_5  and  C6_6 
REMARK    3  A    between atoms: C7_8  and  O2_9 
REMARK    4  A    between atoms: C7_8  and  C8_10 
REMARK    5  A    between atoms: C8_10  and  C10_12 
REMARK       I    between atoms: C10_12  and  N1_14 
REMARK    6  A    between atoms: N1_14  and  C11_15 
REMARK    7  A    between atoms: C11_15  and  C12_16 
REMARK    8  A    between atoms: C13_17  and  C14_18 
REMARK    9  A    between atoms: C15_19  and  C17_21 
REMARK   10  A    between atoms: C17_21  and  O4_22 
REMARK   11  A    between atoms: C17_21  and  C19_24 
REMARK   12  A    between atoms: C19_24  and  C21_26 
REMARK   13  A    between atoms: C23_28  and  O5_29 
REMARK   14  A    between atoms: C24_30  and  C25_31 
REMARK   15  A    between atoms: C26_32  and  C27_33 
REMARK   16  A    between atoms: C28_34  and  C29_35 
REMARK   17  A    between atoms: C30_36  and  C31_37 
REMARK   18  A    between atoms: C31_37  and  O7_39 
REMARK   19  A    between atoms: C32_41  and  O9_42 
REMARK   20  A    between atoms: O9_42  and  C33_43 
REMARK   21  A    between atoms: C33_43  and  C34_45 
REMARK   22  A    between atoms: C34_45  and  C35_46 
REMARK   23  A    between atoms: C41_52  and  O11_53 
ROOT
HETATM    1  C10 UNL     1      -6.116  47.803 -27.175  1.00  0.00     0.227 C 
HETATM    2  O3  UNL     1      -5.396  47.769 -28.171  1.00  0.00    -0.273 OA
HETATM    3  N1  UNL     1      -5.696  48.283 -25.958  1.00  0.00    -0.357 N 
HETATM    4  H14 UNL     1      -6.257  48.028 -25.155  1.00  0.00     0.162 HD
ENDROOT
BRANCH   1   5
HETATM    5  C8  UNL     1      -7.522  47.207 -27.190  1.00  0.00     0.139 C 
HETATM    6  C9  UNL     1      -8.155  47.508 -25.830  1.00  0.00     0.026 C 
BRANCH   5   7
HETATM    7  C7  UNL     1      -8.256  47.797 -28.431  1.00  0.00     0.204 C 
HETATM    8  O1  UNL     1      -7.404  47.512 -29.569  1.00  0.00    -0.342 OA
HETATM    9  C6  UNL     1      -8.079  47.598 -30.822  1.00  0.00     0.158 C 
HETATM   10  C42 UNL     1      -9.037  46.368 -30.986  1.00  0.00     0.011 C 
HETATM   11  C41 UNL     1      -9.684  46.032 -29.603  1.00  0.00     0.163 C 
HETATM   12  C43 UNL     1     -10.158  46.758 -31.980  1.00  0.00     0.020 C 
HETATM   13  C44 UNL     1      -8.315  45.129 -31.563  1.00  0.00     0.020 C 
HETATM   14  C32 UNL     1      -9.713  47.279 -28.707  1.00  0.00     0.224 C 
BRANCH   9  15
HETATM   15  C5  UNL     1      -7.076  47.770 -31.940  1.00  0.00     0.006 C 
HETATM   16  C4  UNL     1      -7.324  47.659 -33.256  1.00  0.00    -0.002 C 
BRANCH  16  17
HETATM   17  C3  UNL     1      -6.296  47.833 -34.255  1.00  0.00    -0.005 C 
HETATM   18  C2  UNL     1      -4.984  47.589 -34.116  1.00  0.00    -0.031 C 
HETATM   19  C1  UNL     1      -4.259  47.053 -32.925  1.00  0.00     0.036 C 
ENDBRANCH  16  17
ENDBRANCH   9  15
BRANCH  11  20
HETATM   20  O11 UNL     1      -8.983  44.987 -28.909  1.00  0.00    -0.392 OA
HETATM   21  H53 UNL     1      -9.239  44.143 -29.321  1.00  0.00     0.210 HD
ENDBRANCH  11  20
BRANCH  14  22
HETATM   22  O9  UNL     1     -10.464  46.989 -27.511  1.00  0.00    -0.307 OA
BRANCH  22  23
HETATM   23  C33 UNL     1     -11.435  47.882 -27.148  1.00  0.00     0.263 C 
HETATM   24  O10 UNL     1     -11.380  48.632 -26.183  1.00  0.00    -0.265 OA
BRANCH  23  25
HETATM   25  C34 UNL     1     -12.552  47.843 -28.168  1.00  0.00     0.149 C 
BRANCH  25  26
HETATM   26  C35 UNL     1     -13.633  46.836 -27.851  1.00  0.00    -0.049 A 
HETATM   27  C36 UNL     1     -14.215  46.795 -26.576  1.00  0.00     0.007 A 
HETATM   28  C37 UNL     1     -15.210  45.860 -26.284  1.00  0.00     0.001 A 
HETATM   29  C38 UNL     1     -15.638  44.964 -27.263  1.00  0.00     0.000 A 
HETATM   30  C39 UNL     1     -15.072  45.004 -28.536  1.00  0.00     0.001 A 
HETATM   31  C40 UNL     1     -14.077  45.937 -28.831  1.00  0.00     0.007 A 
ENDBRANCH  25  26
ENDBRANCH  23  25
ENDBRANCH  22  23
ENDBRANCH  14  22
BRANCH   7  32
HETATM   32  O2  UNL     1      -8.384  49.224 -28.307  1.00  0.00    -0.362 OA
HETATM   33  H9  UNL     1      -7.645  49.557 -27.762  1.00  0.00     0.213 HD
ENDBRANCH   7  32
ENDBRANCH   5   7
ENDBRANCH   1   5
BRANCH   3  34
HETATM   34  C11 UNL     1      -4.305  48.567 -25.709  1.00  0.00     0.149 C 
BRANCH  34  35
HETATM   35  C12 UNL     1      -4.008  48.805 -24.262  1.00  0.00    -0.007 C 
HETATM   36  C13 UNL     1      -4.394  48.070 -23.206  1.00  0.00    -0.002 C 
BRANCH  36  37
HETATM   37  C14 UNL     1      -4.074  48.457 -21.848  1.00  0.00     0.005 C 
HETATM   38  C15 UNL     1      -3.649  47.663 -20.843  1.00  0.00    -0.055 C 
HETATM   39  C16 UNL     1      -3.440  46.171 -20.935  1.00  0.00     0.046 C 
BRANCH  38  40
HETATM   40  C17 UNL     1      -3.370  48.274 -19.467  1.00  0.00     0.155 C 
BRANCH  40  41
HETATM   41  O4  UNL     1      -3.889  47.392 -18.467  1.00  0.00    -0.386 OA
HETATM   42  C18 UNL     1      -2.928  47.014 -17.493  1.00  0.00     0.202 C 
ENDBRANCH  40  41
BRANCH  40  43
HETATM   43  C19 UNL     1      -1.863  48.523 -19.187  1.00  0.00     0.044 C 
HETATM   44  C20 UNL     1      -1.055  48.579 -20.497  1.00  0.00     0.015 C 
BRANCH  43  45
HETATM   45  C21 UNL     1      -1.625  49.821 -18.378  1.00  0.00     0.131 C 
HETATM   46  C22 UNL     1      -0.201  50.078 -17.896  1.00  0.00     0.067 C 
HETATM   47  C23 UNL     1      -0.193  51.585 -17.762  1.00  0.00     0.153 C 
HETATM   48  C24 UNL     1      -0.998  52.008 -18.997  1.00  0.00     0.173 C 
HETATM   49  O8  UNL     1      -1.984  50.972 -19.182  1.00  0.00    -0.374 OA
BRANCH  47  50
HETATM   50  O5  UNL     1       1.109  52.141 -17.673  1.00  0.00    -0.393 OA
HETATM   51  H35 UNL     1       1.662  51.518 -17.172  1.00  0.00     0.210 HD
ENDBRANCH  47  50
BRANCH  48  52
HETATM   52  C25 UNL     1      -0.169  52.176 -20.248  1.00  0.00     0.007 C 
HETATM   53  C26 UNL     1      -0.619  52.372 -21.499  1.00  0.00    -0.001 C 
BRANCH  53  54
HETATM   54  C27 UNL     1       0.272  52.483 -22.632  1.00  0.00    -0.000 C 
HETATM   55  C28 UNL     1      -0.044  52.037 -23.858  1.00  0.00     0.000 C 
BRANCH  55  56
HETATM   56  C29 UNL     1       0.860  52.140 -24.983  1.00  0.00     0.007 C 
HETATM   57  C30 UNL     1       0.685  51.471 -26.133  1.00  0.00     0.081 C 
BRANCH  57  58
HETATM   58  C31 UNL     1       1.662  51.630 -27.217  1.00  0.00     0.165 C 
HETATM   59  O6  UNL     1       2.873  51.668 -27.122  1.00  0.00    -0.647 OA
BRANCH  58  60
HETATM   60  O7  UNL     1       1.033  51.744 -28.397  1.00  0.00    -0.773 OA
HETATM   61  H43 UNL     1       1.767  51.854 -29.038  1.00  0.00     0.167 HD
ENDBRANCH  58  60
ENDBRANCH  57  58
ENDBRANCH  55  56
ENDBRANCH  53  54
ENDBRANCH  48  52
ENDBRANCH  43  45
ENDBRANCH  40  43
ENDBRANCH  38  40
ENDBRANCH  36  37
ENDBRANCH  34  35
ENDBRANCH   3  34
TORSDOF 23
ENDMDL
MODEL 2
REMARK minimizedAffinity -8.5884552
REMARK CNNscore 0.284602404
REMARK CNNaffinity 6.64723825
REMARK  23 active torsions:
REMARK  status: ('A' for Active; 'I' for Inactive)
REMARK    1  A    between atoms: C3_3  and  C4_4 
REMARK    2  A    between atoms: C5_5  and  C6_6 
REMARK    3  A    between atoms: C7_8  and  O2_9 
REMARK    4  A    between atoms: C7_8  and  C8_10 
REMARK    5  A    between atoms: C8_10  and  C10_12 
REMARK       I    between atoms: C10_12  and  N1_14 
REMARK    6  A    between atoms: N1_14  and  C11_15 
REMARK    7  A    between atoms: C11_15  and  C12_16 
REMARK    8  A    between atoms: C13_17  and  C14_18 
REMARK    9  A    between atoms: C15_19  and  C17_21 
REMARK   10  A    between atoms: C17_21  and  O4_22 
REMARK   11  A    between atoms: C17_21  and  C19_24 
REMARK   12  A    between atoms: C19_24  and  C21_26 
REMARK   13  A    between atoms: C23_28  and  O5_29 
REMARK   14  A    between atoms: C24_30  and  C25_31 
REMARK   15  A    between atoms: C26_32  and  C27_33 
REMARK   16  A    between atoms: C28_34  and  C29_35 
REMARK   17  A    between atoms: C30_36  and  C31_37 
REMARK   18  A    between atoms: C31_37  and  O7_39 
REMARK   19  A    between atoms: C32_41  and  O9_42 
REMARK   20  A    between atoms: O9_42  and  C33_43 
REMARK   21  A    between atoms: C33_43  and  C34_45 
REMARK   22  A    between atoms: C34_45  and  C35_46 
REMARK   23  A    between atoms: C41_52  and  O11_53 
ROOT
HETATM    1  C10 UNL     1      -3.522  47.717 -19.518  1.00  0.00     0.227 C 
HETATM    2  O3  UNL     1      -2.492  47.060 -19.385  1.00  0.00    -0.273 OA
HETATM    3  N1  UNL     1      -4.176  48.314 -18.468  1.00  0.00    -0.357 N 
HETATM    4  H14 UNL     1      -5.133  48.598 -18.634  1.00  0.00     0.162 HD
ENDROOT
BRANCH   1   5
HETATM    5  C8  UNL     1      -4.222  47.832 -20.871  1.00  0.00     0.139 C 
HETATM    6  C9  UNL     1      -5.610  48.424 -20.613  1.00  0.00     0.026 C 
BRANCH   5   7
HETATM    7  C7  UNL     1      -3.287  48.661 -21.801  1.00  0.00     0.204 C 
HETATM    8  O1  UNL     1      -3.988  48.781 -23.063  1.00  0.00    -0.342 OA
HETATM    9  C6  UNL     1      -3.497  49.833 -23.891  1.00  0.00     0.158 C 
HETATM   10  C42 UNL     1      -3.937  51.215 -23.295  1.00  0.00     0.011 C 
HETATM   11  C41 UNL     1      -3.867  51.149 -21.735  1.00  0.00     0.163 C 
HETATM   12  C43 UNL     1      -2.945  52.294 -23.794  1.00  0.00     0.020 C 
HETATM   13  C44 UNL     1      -5.352  51.635 -23.757  1.00  0.00     0.020 C 
HETATM   14  C32 UNL     1      -2.856  50.082 -21.289  1.00  0.00     0.224 C 
BRANCH   9  15
HETATM   15  C5  UNL     1      -3.914  49.603 -25.325  1.00  0.00     0.006 C 
HETATM   16  C4  UNL     1      -3.522  48.589 -26.116  1.00  0.00    -0.002 C 
BRANCH  16  17
HETATM   17  C3  UNL     1      -3.968  48.455 -27.483  1.00  0.00    -0.005 C 
HETATM   18  C2  UNL     1      -5.171  48.035 -27.902  1.00  0.00    -0.031 C 
HETATM   19  C1  UNL     1      -6.355  47.635 -27.084  1.00  0.00     0.036 C 
ENDBRANCH  16  17
ENDBRANCH   9  15
BRANCH  11  20
HETATM   20  O11 UNL     1      -5.140  50.849 -21.141  1.00  0.00    -0.392 OA
HETATM   21  H53 UNL     1      -5.669  51.666 -21.159  1.00  0.00     0.210 HD
ENDBRANCH  11  20
BRANCH  14  22
HETATM   22  O9  UNL     1      -2.683  50.159 -19.859  1.00  0.00    -0.307 OA
BRANCH  22  23
HETATM   23  C33 UNL     1      -1.961  51.212 -19.370  1.00  0.00     0.263 C 
HETATM   24  O10 UNL     1      -2.426  52.161 -18.752  1.00  0.00    -0.265 OA
BRANCH  23  25
HETATM   25  C34 UNL     1      -0.492  50.981 -19.649  1.00  0.00     0.149 C 
BRANCH  25  26
HETATM   26  C35 UNL     1       0.160  52.089 -20.443  1.00  0.00    -0.049 A 
HETATM   27  C36 UNL     1       0.150  52.060 -21.845  1.00  0.00     0.007 A 
HETATM   28  C37 UNL     1       0.757  53.083 -22.576  1.00  0.00     0.001 A 
HETATM   29  C38 UNL     1       1.372  54.146 -21.915  1.00  0.00     0.000 A 
HETATM   30  C39 UNL     1       1.379  54.187 -20.521  1.00  0.00     0.001 A 
HETATM   31  C40 UNL     1       0.773  53.166 -19.789  1.00  0.00     0.007 A 
ENDBRANCH  25  26
ENDBRANCH  23  25
ENDBRANCH  22  23
ENDBRANCH  14  22
BRANCH   7  32
HETATM   32  O2  UNL     1      -2.055  47.957 -22.030  1.00  0.00    -0.362 OA
HETATM   33  H9  UNL     1      -2.225  46.998 -21.958  1.00  0.00     0.213 HD
ENDBRANCH   7  32
ENDBRANCH   5   7
ENDBRANCH   1   5
BRANCH   3  34
HETATM   34  C11 UNL     1      -3.821  48.016 -17.102  1.00  0.00     0.149 C 
BRANCH  34  35
HETATM   35  C12 UNL     1      -3.035  49.110 -16.451  1.00  0.00    -0.007 C 
HETATM   36  C13 UNL     1      -1.701  49.251 -16.397  1.00  0.00    -0.002 C 
BRANCH  36  37
HETATM   37  C14 UNL     1      -1.077  50.342 -15.679  1.00  0.00     0.005 C 
HETATM   38  C15 UNL     1      -0.018  50.281 -14.844  1.00  0.00    -0.055 C 
HETATM   39  C16 UNL     1       0.728  49.025 -14.468  1.00  0.00     0.046 C 
BRANCH  38  40
HETATM   40  C17 UNL     1       0.487  51.562 -14.174  1.00  0.00     0.155 C 
BRANCH  40  41
HETATM   41  O4  UNL     1       0.717  52.543 -15.190  1.00  0.00    -0.386 OA
HETATM   42  C18 UNL     1       1.824  52.242 -16.026  1.00  0.00     0.202 C 
ENDBRANCH  40  41
BRANCH  40  43
HETATM   43  C19 UNL     1      -0.495  52.147 -13.122  1.00  0.00     0.044 C 
HETATM   44  C20 UNL     1      -1.957  51.839 -13.494  1.00  0.00     0.015 C 
BRANCH  43  45
HETATM   45  C21 UNL     1      -0.204  51.621 -11.695  1.00  0.00     0.131 C 
HETATM   46  C22 UNL     1      -0.795  52.417 -10.536  1.00  0.00     0.067 C 
HETATM   47  C23 UNL     1      -0.889  51.361  -9.459  1.00  0.00     0.153 C 
HETATM   48  C24 UNL     1      -1.350  50.140 -10.264  1.00  0.00     0.173 C 
HETATM   49  O8  UNL     1      -0.721  50.275 -11.554  1.00  0.00    -0.374 OA
BRANCH  47  50
HETATM   50  O5  UNL     1      -1.735  51.723  -8.379  1.00  0.00    -0.393 OA
HETATM   51  H35 UNL     1      -1.637  52.680  -8.237  1.00  0.00     0.210 HD
ENDBRANCH  47  50
BRANCH  48  52
HETATM   52  C25 UNL     1      -2.848  50.030 -10.417  1.00  0.00     0.007 C 
HETATM   53  C26 UNL     1      -3.737  51.038 -10.443  1.00  0.00    -0.001 C 
BRANCH  53  54
HETATM   54  C27 UNL     1      -5.161  50.810 -10.559  1.00  0.00    -0.000 C 
HETATM   55  C28 UNL     1      -5.749  49.661 -10.195  1.00  0.00     0.000 C 
BRANCH  55  56
HETATM   56  C29 UNL     1      -7.173  49.437 -10.328  1.00  0.00     0.007 C 
HETATM   57  C30 UNL     1      -7.700  48.495 -11.126  1.00  0.00     0.081 C 
BRANCH  57  58
HETATM   58  C31 UNL     1      -9.158  48.349 -11.205  1.00  0.00     0.165 C 
HETATM   59  O6  UNL     1      -9.822  48.067 -12.183  1.00  0.00    -0.647 OA
BRANCH  58  60
HETATM   60  O7  UNL     1      -9.714  48.582 -10.006  1.00  0.00    -0.773 OA
HETATM   61  H43 UNL     1     -10.674  48.470 -10.173  1.00  0.00     0.167 HD
ENDBRANCH  58  60
ENDBRANCH  57  58
ENDBRANCH  55  56
ENDBRANCH  53  54
ENDBRANCH  48  52
ENDBRANCH  43  45
ENDBRANCH  40  43
ENDBRANCH  38  40
ENDBRANCH  36  37
ENDBRANCH  34  35
ENDBRANCH   3  34
TORSDOF 23
ENDMDL
MODEL 3
REMARK minimizedAffinity -8.87025928
REMARK CNNscore 0.246780276
REMARK CNNaffinity 6.10826683
REMARK  23 active torsions:
REMARK  status: ('A' for Active; 'I' for Inactive)
REMARK    1  A    between atoms: C3_3  and  C4_4 
REMARK    2  A    between atoms: C5_5  and  C6_6 
REMARK    3  A    between atoms: C7_8  and  O2_9 
REMARK    4  A    between atoms: C7_8  and  C8_10 
REMARK    5  A    between atoms: C8_10  and  C10_12 
REMARK       I    between atoms: C10_12  and  N1_14 
REMARK    6  A    between atoms: N1_14  and  C11_15 
REMARK    7  A    between atoms: C11_15  and  C12_16 
REMARK    8  A    between atoms: C13_17  and  C14_18 
REMARK    9  A    between atoms: C15_19  and  C17_21 
REMARK   10  A    between atoms: C17_21  and  O4_22 
REMARK   11  A    between atoms: C17_21  and  C19_24 
REMARK   12  A    between atoms: C19_24  and  C21_26 
REMARK   13  A    between atoms: C23_28  and  O5_29 
REMARK   14  A    between atoms: C24_30  and  C25_31 
REMARK   15  A    between atoms: C26_32  and  C27_33 
REMARK   16  A    between atoms: C28_34  and  C29_35 
REMARK   17  A    between atoms: C30_36  and  C31_37 
REMARK   18  A    between atoms: C31_37  and  O7_39 
REMARK   19  A    between atoms: C32_41  and  O9_42 
REMARK   20  A    between atoms: O9_42  and  C33_43 
REMARK   21  A    between atoms: C33_43  and  C34_45 
REMARK   22  A    between atoms: C34_45  and  C35_46 
REMARK   23  A    between atoms: C41_52  and  O11_53 
ROOT
HETATM    1  C10 UNL     1      -5.663  46.825 -21.342  1.00  0.00     0.227 C 
HETATM    2  O3  UNL     1      -5.202  45.690 -21.429  1.00  0.00    -0.273 OA
HETATM    3  N1  UNL     1      -6.763  47.248 -22.047  1.00  0.00    -0.357 N 
HETATM    4  H14 UNL     1      -6.901  48.249 -22.111  1.00  0.00     0.162 HD
ENDROOT
BRANCH   1   5
HETATM    5  C8  UNL     1      -4.972  47.902 -20.507  1.00  0.00     0.139 C 
HETATM    6  C9  UNL     1      -4.525  47.243 -19.200  1.00  0.00     0.026 C 
BRANCH   5   7
HETATM    7  C7  UNL     1      -3.841  48.510 -21.389  1.00  0.00     0.204 C 
HETATM    8  O1  UNL     1      -4.373  48.561 -22.736  1.00  0.00    -0.342 OA
HETATM    9  C6  UNL     1      -3.663  49.451 -23.595  1.00  0.00     0.158 C 
HETATM   10  C42 UNL     1      -3.993  50.932 -23.202  1.00  0.00     0.011 C 
HETATM   11  C41 UNL     1      -4.109  51.037 -21.646  1.00  0.00     0.163 C 
HETATM   12  C43 UNL     1      -2.823  51.829 -23.676  1.00  0.00     0.020 C 
HETATM   13  C44 UNL     1      -5.281  51.452 -23.879  1.00  0.00     0.020 C 
HETATM   14  C32 UNL     1      -3.297  49.922 -20.972  1.00  0.00     0.224 C 
BRANCH   9  15
HETATM   15  C5  UNL     1      -3.939  49.106 -25.041  1.00  0.00     0.006 C 
HETATM   16  C4  UNL     1      -3.020  48.881 -25.996  1.00  0.00    -0.002 C 
BRANCH  16  17
HETATM   17  C3  UNL     1      -3.380  48.564 -27.358  1.00  0.00    -0.005 C 
HETATM   18  C2  UNL     1      -4.573  48.140 -27.800  1.00  0.00    -0.031 C 
HETATM   19  C1  UNL     1      -5.830  47.920 -27.023  1.00  0.00     0.036 C 
ENDBRANCH  16  17
ENDBRANCH   9  15
BRANCH  11  20
HETATM   20  O11 UNL     1      -5.469  50.952 -21.192  1.00  0.00    -0.392 OA
HETATM   21  H53 UNL     1      -5.886  51.816 -21.358  1.00  0.00     0.210 HD
ENDBRANCH  11  20
BRANCH  14  22
HETATM   22  O9  UNL     1      -3.279  50.142 -19.546  1.00  0.00    -0.307 OA
BRANCH  22  23
HETATM   23  C33 UNL     1      -2.361  51.031 -19.059  1.00  0.00     0.263 C 
HETATM   24  O10 UNL     1      -2.616  51.986 -18.337  1.00  0.00    -0.265 OA
BRANCH  23  25
HETATM   25  C34 UNL     1      -0.977  50.605 -19.496  1.00  0.00     0.149 C 
BRANCH  25  26
HETATM   26  C35 UNL     1      -0.205  51.686 -20.217  1.00  0.00    -0.049 A 
HETATM   27  C36 UNL     1       0.342  52.764 -19.507  1.00  0.00     0.007 A 
HETATM   28  C37 UNL     1       1.050  53.763 -20.176  1.00  0.00     0.001 A 
HETATM   29  C38 UNL     1       1.226  53.691 -21.558  1.00  0.00     0.000 A 
HETATM   30  C39 UNL     1       0.693  52.618 -22.271  1.00  0.00     0.001 A 
HETATM   31  C40 UNL     1      -0.015  51.618 -21.605  1.00  0.00     0.007 A 
ENDBRANCH  25  26
ENDBRANCH  23  25
ENDBRANCH  22  23
ENDBRANCH  14  22
BRANCH   7  32
HETATM   32  O2  UNL     1      -2.688  47.651 -21.389  1.00  0.00    -0.362 OA
HETATM   33  H9  UNL     1      -2.984  46.731 -21.243  1.00  0.00     0.213 HD
ENDBRANCH   7  32
ENDBRANCH   5   7
ENDBRANCH   1   5
BRANCH   3  34
HETATM   34  C11 UNL     1      -7.314  46.452 -23.116  1.00  0.00     0.149 C 
BRANCH  34  35
HETATM   35  C12 UNL     1      -8.694  46.877 -23.508  1.00  0.00    -0.007 C 
HETATM   36  C13 UNL     1      -9.723  46.102 -23.887  1.00  0.00    -0.002 C 
BRANCH  36  37
HETATM   37  C14 UNL     1     -10.994  46.663 -24.292  1.00  0.00     0.005 C 
HETATM   38  C15 UNL     1     -12.087  46.001 -24.725  1.00  0.00    -0.055 C 
HETATM   39  C16 UNL     1     -12.194  44.505 -24.896  1.00  0.00     0.046 C 
BRANCH  38  40
HETATM   40  C17 UNL     1     -13.340  46.790 -25.114  1.00  0.00     0.155 C 
BRANCH  40  41
HETATM   41  O4  UNL     1     -13.572  46.608 -26.515  1.00  0.00    -0.386 OA
HETATM   42  C18 UNL     1     -12.971  47.610 -27.322  1.00  0.00     0.202 C 
ENDBRANCH  40  41
BRANCH  40  43
HETATM   43  C19 UNL     1     -14.614  46.367 -24.334  1.00  0.00     0.044 C 
HETATM   44  C20 UNL     1     -14.781  47.199 -23.048  1.00  0.00     0.015 C 
BRANCH  43  45
HETATM   45  C21 UNL     1     -15.895  46.486 -25.194  1.00  0.00     0.131 C 
HETATM   46  C22 UNL     1     -16.557  45.181 -25.625  1.00  0.00     0.067 C 
HETATM   47  C23 UNL     1     -17.988  45.621 -25.833  1.00  0.00     0.153 C 
HETATM   48  C24 UNL     1     -18.188  46.585 -24.658  1.00  0.00     0.173 C 
HETATM   49  O8  UNL     1     -16.909  47.222 -24.465  1.00  0.00    -0.374 OA
BRANCH  47  50
HETATM   50  O5  UNL     1     -18.911  44.545 -25.892  1.00  0.00    -0.393 OA
HETATM   51  H35 UNL     1     -18.470  43.802 -26.337  1.00  0.00     0.210 HD
ENDBRANCH  47  50
BRANCH  48  52
HETATM   52  C25 UNL     1     -18.642  45.919 -23.381  1.00  0.00     0.007 C 
HETATM   53  C26 UNL     1     -18.481  46.373 -22.127  1.00  0.00    -0.001 C 
BRANCH  53  54
HETATM   54  C27 UNL     1     -18.927  45.627 -20.971  1.00  0.00    -0.000 C 
HETATM   55  C28 UNL     1     -19.386  44.368 -21.046  1.00  0.00     0.000 C 
BRANCH  55  56
HETATM   56  C29 UNL     1     -19.844  43.635 -19.885  1.00  0.00     0.007 C 
HETATM   57  C30 UNL     1     -19.997  44.194 -18.674  1.00  0.00     0.081 C 
BRANCH  57  58
HETATM   58  C31 UNL     1     -20.458  43.367 -17.551  1.00  0.00     0.165 C 
HETATM   59  O6  UNL     1     -19.951  42.348 -17.126  1.00  0.00    -0.647 OA
BRANCH  58  60
HETATM   60  O7  UNL     1     -21.572  43.890 -17.017  1.00  0.00    -0.773 OA
HETATM   61  H43 UNL     1     -21.794  43.264 -16.295  1.00  0.00     0.167 HD
ENDBRANCH  58  60
ENDBRANCH  57  58
ENDBRANCH  55  56
ENDBRANCH  53  54
ENDBRANCH  48  52
ENDBRANCH  43  45
ENDBRANCH  40  43
ENDBRANCH  38  40
ENDBRANCH  36  37
ENDBRANCH  34  35
ENDBRANCH   3  34
TORSDOF 23
ENDMDL
MODEL 4
REMARK minimizedAffinity -8.74746227
REMARK CNNscore 0.236001983
REMARK CNNaffinity 6.91865206
REMARK  23 active torsions:
REMARK  status: ('A' for Active; 'I' for Inactive)
REMARK    1  A    between atoms: C3_3  and  C4_4 
REMARK    2  A    between atoms: C5_5  and  C6_6 
REMARK    3  A    between atoms: C7_8  and  O2_9 
REMARK    4  A    between atoms: C7_8  and  C8_10 
REMARK    5  A    between atoms: C8_10  and  C10_12 
REMARK       I    between atoms: C10_12  and  N1_14 
REMARK    6  A    between atoms: N1_14  and  C11_15 
REMARK    7  A    between atoms: C11_15  and  C12_16 
REMARK    8  A    between atoms: C13_17  and  C14_18 
REMARK    9  A    between atoms: C15_19  and  C17_21 
REMARK   10  A    between atoms: C17_21  and  O4_22 
REMARK   11  A    between atoms: C17_21  and  C19_24 
REMARK   12  A    between atoms: C19_24  and  C21_26 
REMARK   13  A    between atoms: C23_28  and  O5_29 
REMARK   14  A    between atoms: C24_30  and  C25_31 
REMARK   15  A    between atoms: C26_32  and  C27_33 
REMARK   16  A    between atoms: C28_34  and  C29_35 
REMARK   17  A    between atoms: C30_36  and  C31_37 
REMARK   18  A    between atoms: C31_37  and  O7_39 
REMARK   19  A    between atoms: C32_41  and  O9_42 
REMARK   20  A    between atoms: O9_42  and  C33_43 
REMARK   21  A    between atoms: C33_43  and  C34_45 
REMARK   22  A    between atoms: C34_45  and  C35_46 
REMARK   23  A    between atoms: C41_52  and  O11_53 
ROOT
HETATM    1  C10 UNL     1      -4.913  47.713 -19.489  1.00  0.00     0.227 C 
HETATM    2  O3  UNL     1      -5.343  48.092 -18.402  1.00  0.00    -0.273 OA
HETATM    3  N1  UNL     1      -3.923  46.770 -19.621  1.00  0.00    -0.357 N 
HETATM    4  H14 UNL     1      -3.462  46.723 -20.521  1.00  0.00     0.162 HD
ENDROOT
BRANCH   1   5
HETATM    5  C8  UNL     1      -5.384  48.350 -20.795  1.00  0.00     0.139 C 
HETATM    6  C9  UNL     1      -6.324  49.500 -20.425  1.00  0.00     0.026 C 
BRANCH   5   7
HETATM    7  C7  UNL     1      -4.108  48.742 -21.599  1.00  0.00     0.204 C 
HETATM    8  O1  UNL     1      -4.553  48.985 -22.957  1.00  0.00    -0.342 OA
HETATM    9  C6  UNL     1      -3.628  49.742 -23.734  1.00  0.00     0.158 C 
HETATM   10  C42 UNL     1      -3.645  51.235 -23.256  1.00  0.00     0.011 C 
HETATM   11  C41 UNL     1      -3.807  51.277 -21.702  1.00  0.00     0.163 C 
HETATM   12  C43 UNL     1      -2.287  51.878 -23.634  1.00  0.00     0.020 C 
HETATM   13  C44 UNL     1      -4.757  52.063 -23.941  1.00  0.00     0.020 C 
HETATM   14  C32 UNL     1      -3.289  49.975 -21.074  1.00  0.00     0.224 C 
BRANCH   9  15
HETATM   15  C5  UNL     1      -3.906  49.547 -25.206  1.00  0.00     0.006 C 
HETATM   16  C4  UNL     1      -3.425  48.562 -25.985  1.00  0.00    -0.002 C 
BRANCH  16  17
HETATM   17  C3  UNL     1      -3.740  48.462 -27.391  1.00  0.00    -0.005 C 
HETATM   18  C2  UNL     1      -4.906  48.078 -27.931  1.00  0.00    -0.031 C 
HETATM   19  C1  UNL     1      -6.172  47.691 -27.238  1.00  0.00     0.036 C 
ENDBRANCH  16  17
ENDBRANCH   9  15
BRANCH  11  20
HETATM   20  O11 UNL     1      -5.172  51.468 -21.299  1.00  0.00    -0.392 OA
HETATM   21  H53 UNL     1      -5.383  52.410 -21.422  1.00  0.00     0.210 HD
ENDBRANCH  11  20
BRANCH  14  22
HETATM   22  O9  UNL     1      -3.290  50.106 -19.638  1.00  0.00    -0.307 OA
BRANCH  22  23
HETATM   23  C33 UNL     1      -2.447  51.034 -19.091  1.00  0.00     0.263 C 
HETATM   24  O10 UNL     1      -2.798  52.029 -18.471  1.00  0.00    -0.265 OA
BRANCH  23  25
HETATM   25  C34 UNL     1      -1.016  50.597 -19.313  1.00  0.00     0.149 C 
BRANCH  25  26
HETATM   26  C35 UNL     1      -0.156  51.641 -19.986  1.00  0.00    -0.049 A 
HETATM   27  C36 UNL     1       0.258  51.472 -21.315  1.00  0.00     0.007 A 
HETATM   28  C37 UNL     1       1.056  52.436 -21.933  1.00  0.00     0.001 A 
HETATM   29  C38 UNL     1       1.442  53.580 -21.234  1.00  0.00     0.000 A 
HETATM   30  C39 UNL     1       1.027  53.761 -19.915  1.00  0.00     0.001 A 
HETATM   31  C40 UNL     1       0.229  52.799 -19.295  1.00  0.00     0.007 A 
ENDBRANCH  25  26
ENDBRANCH  23  25
ENDBRANCH  22  23
ENDBRANCH  14  22
BRANCH   7  32
HETATM   32  O2  UNL     1      -3.172  47.652 -21.617  1.00  0.00    -0.362 OA
HETATM   33  H9  UNL     1      -3.667  46.813 -21.540  1.00  0.00     0.213 HD
ENDBRANCH   7  32
ENDBRANCH   5   7
ENDBRANCH   1   5
BRANCH   3  34
HETATM   34  C11 UNL     1      -3.158  46.329 -18.482  1.00  0.00     0.149 C 
BRANCH  34  35
HETATM   35  C12 UNL     1      -2.719  47.456 -17.602  1.00  0.00    -0.007 C 
HETATM   36  C13 UNL     1      -2.321  47.400 -16.321  1.00  0.00    -0.002 C 
BRANCH  36  37
HETATM   37  C14 UNL     1      -1.974  48.592 -15.576  1.00  0.00     0.005 C 
HETATM   38  C15 UNL     1      -1.873  48.726 -14.237  1.00  0.00    -0.055 C 
HETATM   39  C16 UNL     1      -2.130  47.636 -13.225  1.00  0.00     0.046 C 
BRANCH  38  40
HETATM   40  C17 UNL     1      -1.497  50.087 -13.643  1.00  0.00     0.155 C 
BRANCH  40  41
HETATM   41  O4  UNL     1      -0.223  50.472 -14.168  1.00  0.00    -0.386 OA
HETATM   42  C18 UNL     1      -0.302  51.096 -15.441  1.00  0.00     0.202 C 
ENDBRANCH  40  41
BRANCH  40  43
HETATM   43  C19 UNL     1      -2.527  51.208 -13.947  1.00  0.00     0.044 C 
HETATM   44  C20 UNL     1      -3.225  50.972 -15.299  1.00  0.00     0.015 C 
BRANCH  43  45
HETATM   45  C21 UNL     1      -3.595  51.339 -12.833  1.00  0.00     0.131 C 
HETATM   46  C22 UNL     1      -3.430  50.438 -11.614  1.00  0.00     0.067 C 
HETATM   47  C23 UNL     1      -4.159  51.229 -10.551  1.00  0.00     0.153 C 
HETATM   48  C24 UNL     1      -3.733  52.663 -10.888  1.00  0.00     0.173 C 
HETATM   49  O8  UNL     1      -3.607  52.696 -12.324  1.00  0.00    -0.374 OA
BRANCH  47  50
HETATM   50  O5  UNL     1      -3.866  50.810  -9.228  1.00  0.00    -0.393 OA
HETATM   51  H35 UNL     1      -3.748  49.845  -9.244  1.00  0.00     0.210 HD
ENDBRANCH  47  50
BRANCH  48  52
HETATM   52  C25 UNL     1      -2.441  53.094 -10.236  1.00  0.00     0.007 C 
HETATM   53  C26 UNL     1      -1.301  53.452 -10.852  1.00  0.00    -0.001 C 
BRANCH  53  54
HETATM   54  C27 UNL     1      -0.108  53.813 -10.120  1.00  0.00    -0.000 C 
HETATM   55  C28 UNL     1       0.615  54.910 -10.394  1.00  0.00     0.000 C 
BRANCH  55  56
HETATM   56  C29 UNL     1       1.817  55.255  -9.665  1.00  0.00     0.007 C 
HETATM   57  C30 UNL     1       2.849  55.913 -10.215  1.00  0.00     0.081 C 
BRANCH  57  58
HETATM   58  C31 UNL     1       4.033  56.211  -9.399  1.00  0.00     0.165 C 
HETATM   59  O6  UNL     1       5.070  55.581  -9.343  1.00  0.00    -0.647 OA
BRANCH  58  60
HETATM   60  O7  UNL     1       3.828  57.320  -8.672  1.00  0.00    -0.773 OA
HETATM   61  H43 UNL     1       4.663  57.418  -8.166  1.00  0.00     0.167 HD
ENDBRANCH  58  60
ENDBRANCH  57  58
ENDBRANCH  55  56
ENDBRANCH  53  54
ENDBRANCH  48  52
ENDBRANCH  43  45
ENDBRANCH  40  43
ENDBRANCH  38  40
ENDBRANCH  36  37
ENDBRANCH  34  35
ENDBRANCH   3  34
TORSDOF 23
ENDMDL
MODEL 5
REMARK minimizedAffinity -8.71128368
REMARK CNNscore 0.214584589
REMARK CNNaffinity 7.22730017
REMARK  23 active torsions:
REMARK  status: ('A' for Active; 'I' for Inactive)
REMARK    1  A    between atoms: C3_3  and  C4_4 
REMARK    2  A    between atoms: C5_5  and  C6_6 
REMARK    3  A    between atoms: C7_8  and  O2_9 
REMARK    4  A    between atoms: C7_8  and  C8_10 
REMARK    5  A    between atoms: C8_10  and  C10_12 
REMARK       I    between atoms: C10_12  and  N1_14 
REMARK    6  A    between atoms: N1_14  and  C11_15 
REMARK    7  A    between atoms: C11_15  and  C12_16 
REMARK    8  A    between atoms: C13_17  and  C14_18 
REMARK    9  A    between atoms: C15_19  and  C17_21 
REMARK   10  A    between atoms: C17_21  and  O4_22 
REMARK   11  A    between atoms: C17_21  and  C19_24 
REMARK   12  A    between atoms: C19_24  and  C21_26 
REMARK   13  A    between atoms: C23_28  and  O5_29 
REMARK   14  A    between atoms: C24_30  and  C25_31 
REMARK   15  A    between atoms: C26_32  and  C27_33 
REMARK   16  A    between atoms: C28_34  and  C29_35 
REMARK   17  A    between atoms: C30_36  and  C31_37 
REMARK   18  A    between atoms: C31_37  and  O7_39 
REMARK   19  A    between atoms: C32_41  and  O9_42 
REMARK   20  A    between atoms: O9_42  and  C33_43 
REMARK   21  A    between atoms: C33_43  and  C34_45 
REMARK   22  A    between atoms: C34_45  and  C35_46 
REMARK   23  A    between atoms: C41_52  and  O11_53 
ROOT
HETATM    1  C10 UNL     1      -0.077  51.395 -14.034  1.00  0.00     0.227 C 
HETATM    2  O3  UNL     1       1.034  51.895 -14.195  1.00  0.00    -0.273 OA
HETATM    3  N1  UNL     1      -0.461  50.210 -14.612  1.00  0.00    -0.357 N 
HETATM    4  H14 UNL     1      -1.455  50.022 -14.638  1.00  0.00     0.162 HD
ENDROOT
BRANCH   1   5
HETATM    5  C8  UNL     1      -1.168  52.120 -13.248  1.00  0.00     0.139 C 
HETATM    6  C9  UNL     1      -2.512  51.553 -13.713  1.00  0.00     0.026 C 
BRANCH   5   7
HETATM    7  C7  UNL     1      -0.838  51.943 -11.736  1.00  0.00     0.204 C 
HETATM    8  O1  UNL     1       0.039  53.044 -11.390  1.00  0.00    -0.342 OA
HETATM    9  C6  UNL     1       0.116  53.293  -9.988  1.00  0.00     0.158 C 
HETATM   10  C42 UNL     1      -1.220  53.951  -9.500  1.00  0.00     0.011 C 
HETATM   11  C41 UNL     1      -2.421  53.306 -10.265  1.00  0.00     0.163 C 
HETATM   12  C43 UNL     1      -1.377  53.659  -7.987  1.00  0.00     0.020 C 
HETATM   13  C44 UNL     1      -1.224  55.486  -9.680  1.00  0.00     0.020 C 
HETATM   14  C32 UNL     1      -2.054  51.894 -10.744  1.00  0.00     0.224 C 
BRANCH   9  15
HETATM   15  C5  UNL     1       1.363  54.086  -9.670  1.00  0.00     0.006 C 
HETATM   16  C4  UNL     1       1.414  55.269  -9.035  1.00  0.00    -0.002 C 
BRANCH  16  17
HETATM   17  C3  UNL     1       2.657  55.960  -8.782  1.00  0.00    -0.005 C 
HETATM   18  C2  UNL     1       3.515  56.439  -9.694  1.00  0.00    -0.031 C 
HETATM   19  C1  UNL     1       3.399  56.416 -11.184  1.00  0.00     0.036 C 
ENDBRANCH  16  17
ENDBRANCH   9  15
BRANCH  11  20
HETATM   20  O11 UNL     1      -2.828  54.084 -11.402  1.00  0.00    -0.392 OA
HETATM   21  H53 UNL     1      -3.346  54.837 -11.068  1.00  0.00     0.210 HD
ENDBRANCH  11  20
BRANCH  14  22
HETATM   22  O9  UNL     1      -3.227  51.258 -11.292  1.00  0.00    -0.307 OA
BRANCH  22  23
HETATM   23  C33 UNL     1      -3.599  50.057 -10.754  1.00  0.00     0.263 C 
HETATM   24  O10 UNL     1      -2.968  49.013 -10.851  1.00  0.00    -0.265 OA
BRANCH  23  25
HETATM   25  C34 UNL     1      -4.875  50.242  -9.962  1.00  0.00     0.149 C 
BRANCH  25  26
HETATM   26  C35 UNL     1      -6.051  49.466 -10.509  1.00  0.00    -0.049 A 
HETATM   27  C36 UNL     1      -7.362  49.825 -10.165  1.00  0.00     0.007 A 
HETATM   28  C37 UNL     1      -8.446  49.104 -10.667  1.00  0.00     0.001 A 
HETATM   29  C38 UNL     1      -8.232  48.023 -11.523  1.00  0.00     0.000 A 
HETATM   30  C39 UNL     1      -6.932  47.664 -11.877  1.00  0.00     0.001 A 
HETATM   31  C40 UNL     1      -5.847  48.383 -11.376  1.00  0.00     0.007 A 
ENDBRANCH  25  26
ENDBRANCH  23  25
ENDBRANCH  22  23
ENDBRANCH  14  22
BRANCH   7  32
HETATM   32  O2  UNL     1      -0.128  50.712 -11.518  1.00  0.00    -0.362 OA
HETATM   33  H9  UNL     1       0.370  50.491 -12.329  1.00  0.00     0.213 HD
ENDBRANCH   7  32
ENDBRANCH   5   7
ENDBRANCH   1   5
BRANCH   3  34
HETATM   34  C11 UNL     1       0.339  49.588 -15.638  1.00  0.00     0.149 C 
BRANCH  34  35
HETATM   35  C12 UNL     1       0.269  50.305 -16.948  1.00  0.00    -0.007 C 
HETATM   36  C13 UNL     1      -0.498  50.015 -18.012  1.00  0.00    -0.002 C 
BRANCH  36  37
HETATM   37  C14 UNL     1      -0.418  50.774 -19.242  1.00  0.00     0.005 C 
HETATM   38  C15 UNL     1      -1.432  51.344 -19.925  1.00  0.00    -0.055 C 
HETATM   39  C16 UNL     1      -2.891  51.280 -19.543  1.00  0.00     0.046 C 
BRANCH  38  40
HETATM   40  C17 UNL     1      -1.133  52.104 -21.220  1.00  0.00     0.155 C 
BRANCH  40  41
HETATM   41  O4  UNL     1      -0.068  53.026 -20.967  1.00  0.00    -0.386 OA
HETATM   42  C18 UNL     1       1.189  52.585 -21.459  1.00  0.00     0.202 C 
ENDBRANCH  40  41
BRANCH  40  43
HETATM   43  C19 UNL     1      -0.734  51.186 -22.407  1.00  0.00     0.044 C 
HETATM   44  C20 UNL     1      -1.586  49.903 -22.429  1.00  0.00     0.015 C 
BRANCH  43  45
HETATM   45  C21 UNL     1      -0.853  51.907 -23.772  1.00  0.00     0.131 C 
HETATM   46  C22 UNL     1      -0.523  51.086 -25.014  1.00  0.00     0.067 C 
HETATM   47  C23 UNL     1      -1.321  51.808 -26.076  1.00  0.00     0.153 C 
HETATM   48  C24 UNL     1      -2.615  52.135 -25.321  1.00  0.00     0.173 C 
HETATM   49  O8  UNL     1      -2.210  52.380 -23.959  1.00  0.00    -0.374 OA
BRANCH  47  50
HETATM   50  O5  UNL     1      -1.492  51.058 -27.268  1.00  0.00    -0.393 OA
HETATM   51  H35 UNL     1      -0.680  50.543 -27.411  1.00  0.00     0.210 HD
ENDBRANCH  47  50
BRANCH  48  52
HETATM   52  C25 UNL     1      -3.653  51.040 -25.372  1.00  0.00     0.007 C 
HETATM   53  C26 UNL     1      -3.434  49.717 -25.467  1.00  0.00    -0.001 C 
BRANCH  53  54
HETATM   54  C27 UNL     1      -4.513  48.758 -25.545  1.00  0.00    -0.000 C 
HETATM   55  C28 UNL     1      -5.464  48.649 -24.605  1.00  0.00     0.000 C 
BRANCH  55  56
HETATM   56  C29 UNL     1      -6.532  47.676 -24.685  1.00  0.00     0.007 C 
HETATM   57  C30 UNL     1      -7.112  47.312 -25.839  1.00  0.00     0.081 C 
BRANCH  57  58
HETATM   58  C31 UNL     1      -8.198  46.324 -25.821  1.00  0.00     0.165 C 
HETATM   59  O6  UNL     1      -8.492  45.564 -24.919  1.00  0.00    -0.647 OA
BRANCH  58  60
HETATM   60  O7  UNL     1      -8.867  46.348 -26.984  1.00  0.00    -0.773 OA
HETATM   61  H43 UNL     1      -9.551  45.654 -26.868  1.00  0.00     0.167 HD
ENDBRANCH  58  60
ENDBRANCH  57  58
ENDBRANCH  55  56
ENDBRANCH  53  54
ENDBRANCH  48  52
ENDBRANCH  43  45
ENDBRANCH  40  43
ENDBRANCH  38  40
ENDBRANCH  36  37
ENDBRANCH  34  35
ENDBRANCH   3  34
TORSDOF 23
ENDMDL
MODEL 6
REMARK minimizedAffinity -8.61899471
REMARK CNNscore 0.183489203
REMARK CNNaffinity 6.21094179
REMARK  23 active torsions:
REMARK  status: ('A' for Active; 'I' for Inactive)
REMARK    1  A    between atoms: C3_3  and  C4_4 
REMARK    2  A    between atoms: C5_5  and  C6_6 
REMARK    3  A    between atoms: C7_8  and  O2_9 
REMARK    4  A    between atoms: C7_8  and  C8_10 
REMARK    5  A    between atoms: C8_10  and  C10_12 
REMARK       I    between atoms: C10_12  and  N1_14 
REMARK    6  A    between atoms: N1_14  and  C11_15 
REMARK    7  A    between atoms: C11_15  and  C12_16 
REMARK    8  A    between atoms: C13_17  and  C14_18 
REMARK    9  A    between atoms: C15_19  and  C17_21 
REMARK   10  A    between atoms: C17_21  and  O4_22 
REMARK   11  A    between atoms: C17_21  and  C19_24 
REMARK   12  A    between atoms: C19_24  and  C21_26 
REMARK   13  A    between atoms: C23_28  and  O5_29 
REMARK   14  A    between atoms: C24_30  and  C25_31 
REMARK   15  A    between atoms: C26_32  and  C27_33 
REMARK   16  A    between atoms: C28_34  and  C29_35 
REMARK   17  A    between atoms: C30_36  and  C31_37 
REMARK   18  A    between atoms: C31_37  and  O7_39 
REMARK   19  A    between atoms: C32_41  and  O9_42 
REMARK   20  A    between atoms: O9_42  and  C33_43 
REMARK   21  A    between atoms: C33_43  and  C34_45 
REMARK   22  A    between atoms: C34_45  and  C35_46 
REMARK   23  A    between atoms: C41_52  and  O11_53 
ROOT
HETATM    1  C10 UNL     1      -1.266  51.022 -18.581  1.00  0.00     0.227 C 
HETATM    2  O3  UNL     1      -0.208  50.494 -18.248  1.00  0.00    -0.273 OA
HETATM    3  N1  UNL     1      -2.400  50.991 -17.806  1.00  0.00    -0.357 N 
HETATM    4  H14 UNL     1      -3.271  51.214 -18.271  1.00  0.00     0.162 HD
ENDROOT
BRANCH   1   5
HETATM    5  C8  UNL     1      -1.432  51.674 -19.952  1.00  0.00     0.139 C 
HETATM    6  C9  UNL     1      -0.225  52.588 -20.167  1.00  0.00     0.026 C 
BRANCH   5   7
HETATM    7  C7  UNL     1      -1.612  50.523 -20.987  1.00  0.00     0.204 C 
HETATM    8  O1  UNL     1      -2.525  49.578 -20.375  1.00  0.00    -0.342 OA
HETATM    9  C6  UNL     1      -3.130  48.685 -21.307  1.00  0.00     0.158 C 
HETATM   10  C42 UNL     1      -4.196  49.459 -22.156  1.00  0.00     0.011 C 
HETATM   11  C41 UNL     1      -3.668  50.899 -22.458  1.00  0.00     0.163 C 
HETATM   12  C43 UNL     1      -4.386  48.706 -23.496  1.00  0.00     0.020 C 
HETATM   13  C44 UNL     1      -5.575  49.521 -21.460  1.00  0.00     0.020 C 
HETATM   14  C32 UNL     1      -2.133  50.926 -22.413  1.00  0.00     0.224 C 
BRANCH   9  15
HETATM   15  C5  UNL     1      -3.660  47.466 -20.588  1.00  0.00     0.006 C 
HETATM   16  C4  UNL     1      -3.404  46.183 -20.899  1.00  0.00    -0.002 C 
BRANCH  16  17
HETATM   17  C3  UNL     1      -3.965  45.079 -20.155  1.00  0.00    -0.005 C 
HETATM   18  C2  UNL     1      -5.180  44.533 -20.314  1.00  0.00    -0.031 C 
HETATM   19  C1  UNL     1      -6.241  44.892 -21.303  1.00  0.00     0.036 C 
ENDBRANCH  16  17
ENDBRANCH   9  15
BRANCH  11  20
HETATM   20  O11 UNL     1      -4.170  51.872 -21.529  1.00  0.00    -0.392 OA
HETATM   21  H53 UNL     1      -5.087  52.073 -21.785  1.00  0.00     0.210 HD
ENDBRANCH  11  20
BRANCH  14  22
HETATM   22  O9  UNL     1      -1.667  52.215 -22.861  1.00  0.00    -0.307 OA
BRANCH  22  23
HETATM   23  C33 UNL     1      -1.376  52.351 -24.190  1.00  0.00     0.263 C 
HETATM   24  O10 UNL     1      -1.636  53.332 -24.874  1.00  0.00    -0.265 OA
BRANCH  23  25
HETATM   25  C34 UNL     1      -0.619  51.129 -24.660  1.00  0.00     0.149 C 
BRANCH  25  26
HETATM   26  C35 UNL     1       0.244  51.375 -25.876  1.00  0.00    -0.049 A 
HETATM   27  C36 UNL     1      -0.330  51.444 -27.153  1.00  0.00     0.007 A 
HETATM   28  C37 UNL     1       0.469  51.667 -28.275  1.00  0.00     0.001 A 
HETATM   29  C38 UNL     1       1.847  51.831 -28.132  1.00  0.00     0.000 A 
HETATM   30  C39 UNL     1       2.426  51.773 -26.865  1.00  0.00     0.001 A 
HETATM   31  C40 UNL     1       1.628  51.550 -25.742  1.00  0.00     0.007 A 
ENDBRANCH  25  26
ENDBRANCH  23  25
ENDBRANCH  22  23
ENDBRANCH  14  22
BRANCH   7  32
HETATM   32  O2  UNL     1      -0.360  49.858 -21.221  1.00  0.00    -0.362 OA
HETATM   33  H9  UNL     1       0.191  49.939 -20.418  1.00  0.00     0.213 HD
ENDBRANCH   7  32
ENDBRANCH   5   7
ENDBRANCH   1   5
BRANCH   3  34
HETATM   34  C11 UNL     1      -2.489  50.135 -16.649  1.00  0.00     0.149 C 
BRANCH  34  35
HETATM   35  C12 UNL     1      -2.292  50.871 -15.362  1.00  0.00    -0.007 C 
HETATM   36  C13 UNL     1      -3.230  51.361 -14.536  1.00  0.00    -0.002 C 
BRANCH  36  37
HETATM   37  C14 UNL     1      -2.885  52.104 -13.343  1.00  0.00     0.005 C 
HETATM   38  C15 UNL     1      -2.821  51.644 -12.075  1.00  0.00    -0.055 C 
HETATM   39  C16 UNL     1      -3.126  50.232 -11.639  1.00  0.00     0.046 C 
BRANCH  38  40
HETATM   40  C17 UNL     1      -2.440  52.605 -10.945  1.00  0.00     0.155 C 
BRANCH  40  41
HETATM   41  O4  UNL     1      -3.126  52.199  -9.757  1.00  0.00    -0.386 OA
HETATM   42  C18 UNL     1      -2.270  51.633  -8.776  1.00  0.00     0.202 C 
ENDBRANCH  40  41
BRANCH  40  43
HETATM   43  C19 UNL     1      -0.916  52.656 -10.655  1.00  0.00     0.044 C 
HETATM   44  C20 UNL     1      -0.103  52.126 -11.851  1.00  0.00     0.015 C 
BRANCH  43  45
HETATM   45  C21 UNL     1      -0.435  54.083 -10.298  1.00  0.00     0.131 C 
HETATM   46  C22 UNL     1       0.025  54.314  -8.862  1.00  0.00     0.067 C 
HETATM   47  C23 UNL     1       0.966  55.486  -9.029  1.00  0.00     0.153 C 
HETATM   48  C24 UNL     1       1.680  55.124 -10.337  1.00  0.00     0.173 C 
HETATM   49  O8  UNL     1       0.690  54.446 -11.137  1.00  0.00    -0.374 OA
BRANCH  47  50
HETATM   50  O5  UNL     1       1.819  55.694  -7.915  1.00  0.00    -0.393 OA
HETATM   51  H35 UNL     1       1.316  55.472  -7.113  1.00  0.00     0.210 HD
ENDBRANCH  47  50
BRANCH  48  52
HETATM   52  C25 UNL     1       2.898  54.250 -10.155  1.00  0.00     0.007 C 
HETATM   53  C26 UNL     1       4.152  54.652  -9.887  1.00  0.00    -0.001 C 
BRANCH  53  54
HETATM   54  C27 UNL     1       5.253  53.723  -9.768  1.00  0.00    -0.000 C 
HETATM   55  C28 UNL     1       5.081  52.403  -9.600  1.00  0.00     0.000 C 
BRANCH  55  56
HETATM   56  C29 UNL     1       6.190  51.482  -9.468  1.00  0.00     0.007 C 
HETATM   57  C30 UNL     1       6.303  50.356 -10.190  1.00  0.00     0.081 C 
BRANCH  57  58
HETATM   58  C31 UNL     1       7.459  49.477  -9.980  1.00  0.00     0.165 C 
HETATM   59  O6  UNL     1       7.827  48.974  -8.936  1.00  0.00    -0.647 OA
BRANCH  58  60
HETATM   60  O7  UNL     1       8.111  49.281 -11.137  1.00  0.00    -0.773 OA
HETATM   61  H43 UNL     1       8.858  48.698 -10.882  1.00  0.00     0.167 HD
ENDBRANCH  58  60
ENDBRANCH  57  58
ENDBRANCH  55  56
ENDBRANCH  53  54
ENDBRANCH  48  52
ENDBRANCH  43  45
ENDBRANCH  40  43
ENDBRANCH  38  40
ENDBRANCH  36  37
ENDBRANCH  34  35
ENDBRANCH   3  34
TORSDOF 23
ENDMDL
MODEL 7
REMARK minimizedAffinity -9.21503639
REMARK CNNscore 0.167535424
REMARK CNNaffinity 6.6049552
REMARK  23 active torsions:
REMARK  status: ('A' for Active; 'I' for Inactive)
REMARK    1  A    between atoms: C3_3  and  C4_4 
REMARK    2  A    between atoms: C5_5  and  C6_6 
REMARK    3  A    between atoms: C7_8  and  O2_9 
REMARK    4  A    between atoms: C7_8  and  C8_10 
REMARK    5  A    between atoms: C8_10  and  C10_12 
REMARK       I    between atoms: C10_12  and  N1_14 
REMARK    6  A    between atoms: N1_14  and  C11_15 
REMARK    7  A    between atoms: C11_15  and  C12_16 
REMARK    8  A    between atoms: C13_17  and  C14_18 
REMARK    9  A    between atoms: C15_19  and  C17_21 
REMARK   10  A    between atoms: C17_21  and  O4_22 
REMARK   11  A    between atoms: C17_21  and  C19_24 
REMARK   12  A    between atoms: C19_24  and  C21_26 
REMARK   13  A    between atoms: C23_28  and  O5_29 
REMARK   14  A    between atoms: C24_30  and  C25_31 
REMARK   15  A    between atoms: C26_32  and  C27_33 
REMARK   16  A    between atoms: C28_34  and  C29_35 
REMARK   17  A    between atoms: C30_36  and  C31_37 
REMARK   18  A    between atoms: C31_37  and  O7_39 
REMARK   19  A    between atoms: C32_41  and  O9_42 
REMARK   20  A    between atoms: O9_42  and  C33_43 
REMARK   21  A    between atoms: C33_43  and  C34_45 
REMARK   22  A    between atoms: C34_45  and  C35_46 
REMARK   23  A    between atoms: C41_52  and  O11_53 
ROOT
HETATM    1  C10 UNL     1      -8.224  47.115 -26.414  1.00  0.00     0.227 C 
HETATM    2  O3  UNL     1      -8.024  45.904 -26.466  1.00  0.00    -0.273 OA
HETATM    3  N1  UNL     1      -7.449  48.036 -27.075  1.00  0.00    -0.357 N 
HETATM    4  H14 UNL     1      -7.525  48.996 -26.763  1.00  0.00     0.162 HD
ENDROOT
BRANCH   1   5
HETATM    5  C8  UNL     1      -9.306  47.703 -25.509  1.00  0.00     0.139 C 
HETATM    6  C9  UNL     1      -8.691  48.909 -24.796  1.00  0.00     0.026 C 
BRANCH   5   7
HETATM    7  C7  UNL     1     -10.544  47.998 -26.409  1.00  0.00     0.204 C 
HETATM    8  O1  UNL     1     -10.135  47.680 -27.762  1.00  0.00    -0.342 OA
HETATM    9  C6  UNL     1     -11.228  47.488 -28.658  1.00  0.00     0.158 C 
HETATM   10  C42 UNL     1     -11.929  46.122 -28.342  1.00  0.00     0.011 C 
HETATM   11  C41 UNL     1     -11.944  45.896 -26.795  1.00  0.00     0.163 C 
HETATM   12  C43 UNL     1     -13.391  46.200 -28.849  1.00  0.00     0.020 C 
HETATM   13  C44 UNL     1     -11.253  44.931 -29.058  1.00  0.00     0.020 C 
HETATM   14  C32 UNL     1     -11.874  47.241 -26.057  1.00  0.00     0.224 C 
BRANCH   9  15
HETATM   15  C5  UNL     1     -10.761  47.642 -30.087  1.00  0.00     0.006 C 
HETATM   16  C4  UNL     1      -9.490  47.788 -30.498  1.00  0.00    -0.002 C 
BRANCH  16  17
HETATM   17  C3  UNL     1      -9.139  47.938 -31.891  1.00  0.00    -0.005 C 
HETATM   18  C2  UNL     1      -7.910  47.880 -32.425  1.00  0.00    -0.031 C 
HETATM   19  C1  UNL     1      -6.608  47.617 -31.740  1.00  0.00     0.036 C 
ENDBRANCH  16  17
ENDBRANCH   9  15
BRANCH  11  20
HETATM   20  O11 UNL     1     -10.853  45.073 -26.351  1.00  0.00    -0.392 OA
HETATM   21  H53 UNL     1     -11.080  44.151 -26.565  1.00  0.00     0.210 HD
ENDBRANCH  11  20
BRANCH  14  22
HETATM   22  O9  UNL     1     -12.061  47.019 -24.644  1.00  0.00    -0.307 OA
BRANCH  22  23
HETATM   23  C33 UNL     1     -13.069  46.173 -24.270  1.00  0.00     0.263 C 
HETATM   24  O10 UNL     1     -12.928  44.993 -23.976  1.00  0.00    -0.265 OA
BRANCH  23  25
HETATM   25  C34 UNL     1     -14.368  46.946 -24.206  1.00  0.00     0.149 C 
BRANCH  25  26
HETATM   26  C35 UNL     1     -15.024  46.926 -22.846  1.00  0.00    -0.049 A 
HETATM   27  C36 UNL     1     -16.318  46.412 -22.688  1.00  0.00     0.007 A 
HETATM   28  C37 UNL     1     -16.924  46.399 -21.430  1.00  0.00     0.001 A 
HETATM   29  C38 UNL     1     -16.241  46.893 -20.318  1.00  0.00     0.000 A 
HETATM   30  C39 UNL     1     -14.950  47.398 -20.465  1.00  0.00     0.001 A 
HETATM   31  C40 UNL     1     -14.342  47.411 -21.721  1.00  0.00     0.007 A 
ENDBRANCH  25  26
ENDBRANCH  23  25
ENDBRANCH  22  23
ENDBRANCH  14  22
BRANCH   7  32
HETATM   32  O2  UNL     1     -10.883  49.394 -26.354  1.00  0.00    -0.362 OA
HETATM   33  H9  UNL     1     -10.072  49.905 -26.165  1.00  0.00     0.213 HD
ENDBRANCH   7  32
ENDBRANCH   5   7
ENDBRANCH   1   5
BRANCH   3  34
HETATM   34  C11 UNL     1      -6.203  47.655 -27.692  1.00  0.00     0.149 C 
BRANCH  34  35
HETATM   35  C12 UNL     1      -5.008  48.224 -26.993  1.00  0.00    -0.007 C 
HETATM   36  C13 UNL     1      -3.758  48.354 -27.463  1.00  0.00    -0.002 C 
BRANCH  36  37
HETATM   37  C14 UNL     1      -2.684  48.878 -26.646  1.00  0.00     0.005 C 
HETATM   38  C15 UNL     1      -2.234  50.149 -26.591  1.00  0.00    -0.055 C 
HETATM   39  C16 UNL     1      -2.761  51.300 -27.412  1.00  0.00     0.046 C 
BRANCH  38  40
HETATM   40  C17 UNL     1      -1.072  50.496 -25.656  1.00  0.00     0.155 C 
BRANCH  40  41
HETATM   41  O4  UNL     1      -0.205  51.411 -26.333  1.00  0.00    -0.386 OA
HETATM   42  C18 UNL     1       0.921  51.800 -25.560  1.00  0.00     0.202 C 
ENDBRANCH  40  41
BRANCH  40  43
HETATM   43  C19 UNL     1      -1.520  51.129 -24.311  1.00  0.00     0.044 C 
HETATM   44  C20 UNL     1      -1.762  52.642 -24.460  1.00  0.00     0.015 C 
BRANCH  43  45
HETATM   45  C21 UNL     1      -2.794  50.457 -23.743  1.00  0.00     0.131 C 
HETATM   46  C22 UNL     1      -2.592  49.209 -22.890  1.00  0.00     0.067 C 
HETATM   47  C23 UNL     1      -3.838  49.222 -22.033  1.00  0.00     0.153 C 
HETATM   48  C24 UNL     1      -3.986  50.717 -21.726  1.00  0.00     0.173 C 
HETATM   49  O8  UNL     1      -3.512  51.397 -22.906  1.00  0.00    -0.374 OA
BRANCH  47  50
HETATM   50  O5  UNL     1      -3.754  48.379 -20.895  1.00  0.00    -0.393 OA
HETATM   51  H35 UNL     1      -3.240  47.594 -21.147  1.00  0.00     0.210 HD
ENDBRANCH  47  50
BRANCH  48  52
HETATM   52  C25 UNL     1      -3.219  51.177 -20.509  1.00  0.00     0.007 C 
HETATM   53  C26 UNL     1      -1.886  51.155 -20.335  1.00  0.00    -0.001 C 
BRANCH  53  54
HETATM   54  C27 UNL     1      -1.261  51.590 -19.106  1.00  0.00    -0.000 C 
HETATM   55  C28 UNL     1      -0.176  50.994 -18.587  1.00  0.00     0.000 C 
BRANCH  55  56
HETATM   56  C29 UNL     1       0.435  51.428 -17.348  1.00  0.00     0.007 C 
HETATM   57  C30 UNL     1       1.568  52.145 -17.297  1.00  0.00     0.081 C 
BRANCH  57  58
HETATM   58  C31 UNL     1       2.120  52.531 -15.992  1.00  0.00     0.165 C 
HETATM   59  O6  UNL     1       3.289  52.556 -15.661  1.00  0.00    -0.647 OA
BRANCH  58  60
HETATM   60  O7  UNL     1       1.130  52.868 -15.151  1.00  0.00    -0.773 OA
HETATM   61  H43 UNL     1       1.602  53.095 -14.322  1.00  0.00     0.167 HD
ENDBRANCH  58  60
ENDBRANCH  57  58
ENDBRANCH  55  56
ENDBRANCH  53  54
ENDBRANCH  48  52
ENDBRANCH  43  45
ENDBRANCH  40  43
ENDBRANCH  38  40
ENDBRANCH  36  37
ENDBRANCH  34  35
ENDBRANCH   3  34
TORSDOF 23
ENDMDL
MODEL 8
REMARK minimizedAffinity -9.10817814
REMARK CNNscore 0.151772648
REMARK CNNaffinity 6.87214136
REMARK  23 active torsions:
REMARK  status: ('A' for Active; 'I' for Inactive)
REMARK    1  A    between atoms: C3_3  and  C4_4 
REMARK    2  A    between atoms: C5_5  and  C6_6 
REMARK    3  A    between atoms: C7_8  and  O2_9 
REMARK    4  A    between atoms: C7_8  and  C8_10 
REMARK    5  A    between atoms: C8_10  and  C10_12 
REMARK       I    between atoms: C10_12  and  N1_14 
REMARK    6  A    between atoms: N1_14  and  C11_15 
REMARK    7  A    between atoms: C11_15  and  C12_16 
REMARK    8  A    between atoms: C13_17  and  C14_18 
REMARK    9  A    between atoms: C15_19  and  C17_21 
REMARK   10  A    between atoms: C17_21  and  O4_22 
REMARK   11  A    between atoms: C17_21  and  C19_24 
REMARK   12  A    between atoms: C19_24  and  C21_26 
REMARK   13  A    between atoms: C23_28  and  O5_29 
REMARK   14  A    between atoms: C24_30  and  C25_31 
REMARK   15  A    between atoms: C26_32  and  C27_33 
REMARK   16  A    between atoms: C28_34  and  C29_35 
REMARK   17  A    between atoms: C30_36  and  C31_37 
REMARK   18  A    between atoms: C31_37  and  O7_39 
REMARK   19  A    between atoms: C32_41  and  O9_42 
REMARK   20  A    between atoms: O9_42  and  C33_43 
REMARK   21  A    between atoms: C33_43  and  C34_45 
REMARK   22  A    between atoms: C34_45  and  C35_46 
REMARK   23  A    between atoms: C41_52  and  O11_53 
ROOT
HETATM    1  C10 UNL     1      -5.316  49.182 -23.702  1.00  0.00     0.227 C 
HETATM    2  O3  UNL     1      -4.744  48.315 -23.045  1.00  0.00    -0.273 OA
HETATM    3  N1  UNL     1      -5.456  49.123 -25.068  1.00  0.00    -0.357 N 
HETATM    4  H14 UNL     1      -5.696  49.988 -25.535  1.00  0.00     0.162 HD
ENDROOT
BRANCH   1   5
HETATM    5  C8  UNL     1      -5.832  50.463 -23.050  1.00  0.00     0.139 C 
HETATM    6  C9  UNL     1      -6.748  50.047 -21.898  1.00  0.00     0.026 C 
BRANCH   5   7
HETATM    7  C7  UNL     1      -4.585  51.312 -22.660  1.00  0.00     0.204 C 
HETATM    8  O1  UNL     1      -4.041  50.694 -21.468  1.00  0.00    -0.342 OA
HETATM    9  C6  UNL     1      -2.690  51.062 -21.200  1.00  0.00     0.158 C 
HETATM   10  C42 UNL     1      -1.743  50.356 -22.231  1.00  0.00     0.011 C 
HETATM   11  C41 UNL     1      -2.438  50.324 -23.631  1.00  0.00     0.163 C 
HETATM   12  C43 UNL     1      -0.441  51.188 -22.340  1.00  0.00     0.020 C 
HETATM   13  C44 UNL     1      -1.346  48.929 -21.790  1.00  0.00     0.020 C 
HETATM   14  C32 UNL     1      -3.461  51.463 -23.747  1.00  0.00     0.224 C 
BRANCH   9  15
HETATM   15  C5  UNL     1      -2.356  50.793 -19.751  1.00  0.00     0.006 C 
HETATM   16  C4  UNL     1      -1.188  51.057 -19.140  1.00  0.00    -0.002 C 
BRANCH  16  17
HETATM   17  C3  UNL     1      -0.957  50.756 -17.746  1.00  0.00    -0.005 C 
HETATM   18  C2  UNL     1       0.010  51.254 -16.962  1.00  0.00    -0.031 C 
HETATM   19  C1  UNL     1       1.064  52.256 -17.305  1.00  0.00     0.036 C 
ENDBRANCH  16  17
ENDBRANCH   9  15
BRANCH  11  20
HETATM   20  O11 UNL     1      -3.109  49.079 -23.881  1.00  0.00    -0.392 OA
HETATM   21  H53 UNL     1      -2.429  48.425 -24.119  1.00  0.00     0.210 HD
ENDBRANCH  11  20
BRANCH  14  22
HETATM   22  O9  UNL     1      -3.961  51.519 -25.098  1.00  0.00    -0.307 OA
BRANCH  22  23
HETATM   23  C33 UNL     1      -3.040  51.526 -26.109  1.00  0.00     0.263 C 
HETATM   24  O10 UNL     1      -3.099  50.845 -27.124  1.00  0.00    -0.265 OA
BRANCH  23  25
HETATM   25  C34 UNL     1      -1.978  52.561 -25.806  1.00  0.00     0.149 C 
BRANCH  25  26
HETATM   26  C35 UNL     1      -0.645  52.275 -26.456  1.00  0.00    -0.049 A 
HETATM   27  C36 UNL     1      -0.377  52.726 -27.756  1.00  0.00     0.007 A 
HETATM   28  C37 UNL     1       0.854  52.456 -28.357  1.00  0.00     0.001 A 
HETATM   29  C38 UNL     1       1.831  51.742 -27.663  1.00  0.00     0.000 A 
HETATM   30  C39 UNL     1       1.576  51.298 -26.366  1.00  0.00     0.001 A 
HETATM   31  C40 UNL     1       0.347  51.566 -25.764  1.00  0.00     0.007 A 
ENDBRANCH  25  26
ENDBRANCH  23  25
ENDBRANCH  22  23
ENDBRANCH  14  22
BRANCH   7  32
HETATM   32  O2  UNL     1      -4.975  52.657 -22.336  1.00  0.00    -0.362 OA
HETATM   33  H9  UNL     1      -5.891  52.644 -21.998  1.00  0.00     0.213 HD
ENDBRANCH   7  32
ENDBRANCH   5   7
ENDBRANCH   1   5
BRANCH   3  34
HETATM   34  C11 UNL     1      -4.735  48.149 -25.849  1.00  0.00     0.149 C 
BRANCH  34  35
HETATM   35  C12 UNL     1      -5.226  48.053 -27.259  1.00  0.00    -0.007 C 
HETATM   36  C13 UNL     1      -6.444  47.687 -27.688  1.00  0.00    -0.002 C 
BRANCH  36  37
HETATM   37  C14 UNL     1      -6.760  47.589 -29.097  1.00  0.00     0.005 C 
HETATM   38  C15 UNL     1      -7.375  46.571 -29.735  1.00  0.00    -0.055 C 
HETATM   39  C16 UNL     1      -7.847  45.291 -29.089  1.00  0.00     0.046 C 
BRANCH  38  40
HETATM   40  C17 UNL     1      -7.610  46.661 -31.245  1.00  0.00     0.155 C 
BRANCH  40  41
HETATM   41  O4  UNL     1      -6.723  47.647 -31.783  1.00  0.00    -0.386 OA
HETATM   42  C18 UNL     1      -6.507  47.512 -33.179  1.00  0.00     0.202 C 
ENDBRANCH  40  41
BRANCH  40  43
HETATM   43  C19 UNL     1      -7.386  45.320 -31.995  1.00  0.00     0.044 C 
HETATM   44  C20 UNL     1      -6.380  44.425 -31.246  1.00  0.00     0.015 C 
BRANCH  43  45
HETATM   45  C21 UNL     1      -8.706  44.541 -32.211  1.00  0.00     0.131 C 
HETATM   46  C22 UNL     1      -9.999  45.348 -32.143  1.00  0.00     0.067 C 
HETATM   47  C23 UNL     1     -10.928  44.506 -32.987  1.00  0.00     0.153 C 
HETATM   48  C24 UNL     1      -9.998  44.067 -34.125  1.00  0.00     0.173 C 
HETATM   49  O8  UNL     1      -8.698  43.916 -33.518  1.00  0.00    -0.374 OA
BRANCH  47  50
HETATM   50  O5  UNL     1     -12.101  45.190 -33.398  1.00  0.00    -0.393 OA
HETATM   51  H35 UNL     1     -12.364  45.784 -32.675  1.00  0.00     0.210 HD
ENDBRANCH  47  50
BRANCH  48  52
HETATM   52  C25 UNL     1      -9.931  45.040 -35.278  1.00  0.00     0.007 C 
HETATM   53  C26 UNL     1      -8.941  45.907 -35.552  1.00  0.00    -0.001 C 
BRANCH  53  54
HETATM   54  C27 UNL     1      -9.001  46.821 -36.670  1.00  0.00    -0.000 C 
HETATM   55  C28 UNL     1      -8.023  47.695 -36.954  1.00  0.00     0.000 C 
BRANCH  55  56
HETATM   56  C29 UNL     1      -8.099  48.617 -38.067  1.00  0.00     0.007 C 
HETATM   57  C30 UNL     1      -7.117  48.764 -38.970  1.00  0.00     0.081 C 
BRANCH  57  58
HETATM   58  C31 UNL     1      -7.280  49.733 -40.062  1.00  0.00     0.165 C 
HETATM   59  O6  UNL     1      -7.609  49.507 -41.209  1.00  0.00    -0.647 OA
BRANCH  58  60
HETATM   60  O7  UNL     1      -7.002  50.972 -39.627  1.00  0.00    -0.773 OA
HETATM   61  H43 UNL     1      -7.130  51.527 -40.426  1.00  0.00     0.167 HD
ENDBRANCH  58  60
ENDBRANCH  57  58
ENDBRANCH  55  56
ENDBRANCH  53  54
ENDBRANCH  48  52
ENDBRANCH  43  45
ENDBRANCH  40  43
ENDBRANCH  38  40
ENDBRANCH  36  37
ENDBRANCH  34  35
ENDBRANCH   3  34
TORSDOF 23
ENDMDL
MODEL 9
REMARK minimizedAffinity -9.12105942
REMARK CNNscore 0.147967696
REMARK CNNaffinity 6.59482574
REMARK  23 active torsions:
REMARK  status: ('A' for Active; 'I' for Inactive)
REMARK    1  A    between atoms: C3_3  and  C4_4 
REMARK    2  A    between atoms: C5_5  and  C6_6 
REMARK    3  A    between atoms: C7_8  and  O2_9 
REMARK    4  A    between atoms: C7_8  and  C8_10 
REMARK    5  A    between atoms: C8_10  and  C10_12 
REMARK       I    between atoms: C10_12  and  N1_14 
REMARK    6  A    between atoms: N1_14  and  C11_15 
REMARK    7  A    between atoms: C11_15  and  C12_16 
REMARK    8  A    between atoms: C13_17  and  C14_18 
REMARK    9  A    between atoms: C15_19  and  C17_21 
REMARK   10  A    between atoms: C17_21  and  O4_22 
REMARK   11  A    between atoms: C17_21  and  C19_24 
REMARK   12  A    between atoms: C19_24  and  C21_26 
REMARK   13  A    between atoms: C23_28  and  O5_29 
REMARK   14  A    between atoms: C24_30  and  C25_31 
REMARK   15  A    between atoms: C26_32  and  C27_33 
REMARK   16  A    between atoms: C28_34  and  C29_35 
REMARK   17  A    between atoms: C30_36  and  C31_37 
REMARK   18  A    between atoms: C31_37  and  O7_39 
REMARK   19  A    between atoms: C32_41  and  O9_42 
REMARK   20  A    between atoms: O9_42  and  C33_43 
REMARK   21  A    between atoms: C33_43  and  C34_45 
REMARK   22  A    between atoms: C34_45  and  C35_46 
REMARK   23  A    between atoms: C41_52  and  O11_53 
ROOT
HETATM    1  C10 UNL     1      -0.496  50.622 -19.167  1.00  0.00     0.227 C 
HETATM    2  O3  UNL     1      -0.289  50.236 -20.315  1.00  0.00    -0.273 OA
HETATM    3  N1  UNL     1      -0.328  51.925 -18.769  1.00  0.00    -0.357 N 
HETATM    4  H14 UNL     1      -0.265  52.088 -17.772  1.00  0.00     0.162 HD
ENDROOT
BRANCH   1   5
HETATM    5  C8  UNL     1      -0.863  49.642 -18.054  1.00  0.00     0.139 C 
HETATM    6  C9  UNL     1       0.051  49.948 -16.865  1.00  0.00     0.026 C 
BRANCH   5   7
HETATM    7  C7  UNL     1      -2.392  49.793 -17.797  1.00  0.00     0.204 C 
HETATM    8  O1  UNL     1      -3.034  49.555 -19.075  1.00  0.00    -0.342 OA
HETATM    9  C6  UNL     1      -4.421  49.241 -18.966  1.00  0.00     0.158 C 
HETATM   10  C42 UNL     1      -4.585  47.790 -18.395  1.00  0.00     0.011 C 
HETATM   11  C41 UNL     1      -3.487  47.536 -17.312  1.00  0.00     0.163 C 
HETATM   12  C43 UNL     1      -5.979  47.690 -17.727  1.00  0.00     0.020 C 
HETATM   13  C44 UNL     1      -4.521  46.709 -19.499  1.00  0.00     0.020 C 
HETATM   14  C32 UNL     1      -3.022  48.864 -16.698  1.00  0.00     0.224 C 
BRANCH   9  15
HETATM   15  C5  UNL     1      -5.111  49.481 -20.289  1.00  0.00     0.006 C 
HETATM   16  C4  UNL     1      -6.400  49.822 -20.465  1.00  0.00    -0.002 C 
BRANCH  16  17
HETATM   17  C3  UNL     1      -6.977  50.022 -21.774  1.00  0.00    -0.005 C 
HETATM   18  C2  UNL     1      -7.331  49.074 -22.654  1.00  0.00    -0.031 C 
HETATM   19  C1  UNL     1      -7.257  47.589 -22.504  1.00  0.00     0.036 C 
ENDBRANCH  16  17
ENDBRANCH   9  15
BRANCH  11  20
HETATM   20  O11 UNL     1      -2.341  46.852 -17.844  1.00  0.00    -0.392 OA
HETATM   21  H53 UNL     1      -2.580  45.912 -17.933  1.00  0.00     0.210 HD
ENDBRANCH  11  20
BRANCH  14  22
HETATM   22  O9  UNL     1      -2.141  48.594 -15.589  1.00  0.00    -0.307 OA
BRANCH  22  23
HETATM   23  C33 UNL     1      -2.593  48.908 -14.337  1.00  0.00     0.263 C 
HETATM   24  O10 UNL     1      -3.282  48.183 -13.632  1.00  0.00    -0.265 OA
BRANCH  23  25
HETATM   25  C34 UNL     1      -2.045  50.260 -13.936  1.00  0.00     0.149 C 
BRANCH  25  26
HETATM   26  C35 UNL     1      -2.844  50.945 -12.852  1.00  0.00    -0.049 A 
HETATM   27  C36 UNL     1      -3.139  52.313 -12.944  1.00  0.00     0.007 A 
HETATM   28  C37 UNL     1      -3.874  52.944 -11.939  1.00  0.00     0.001 A 
HETATM   29  C38 UNL     1      -4.326  52.216 -10.839  1.00  0.00     0.000 A 
HETATM   30  C39 UNL     1      -4.045  50.854 -10.744  1.00  0.00     0.001 A 
HETATM   31  C40 UNL     1      -3.311  50.220 -11.747  1.00  0.00     0.007 A 
ENDBRANCH  25  26
ENDBRANCH  23  25
ENDBRANCH  22  23
ENDBRANCH  14  22
BRANCH   7  32
HETATM   32  O2  UNL     1      -2.702  51.132 -17.377  1.00  0.00    -0.362 OA
HETATM   33  H9  UNL     1      -2.037  51.740 -17.756  1.00  0.00     0.213 HD
ENDBRANCH   7  32
ENDBRANCH   5   7
ENDBRANCH   1   5
BRANCH   3  34
HETATM   34  C11 UNL     1       0.328  52.886 -19.620  1.00  0.00     0.149 C 
BRANCH  34  35
HETATM   35  C12 UNL     1       0.346  52.475 -21.058  1.00  0.00    -0.007 C 
HETATM   36  C13 UNL     1       0.790  53.175 -22.115  1.00  0.00    -0.002 C 
BRANCH  36  37
HETATM   37  C14 UNL     1       0.693  52.664 -23.465  1.00  0.00     0.005 C 
HETATM   38  C15 UNL     1       0.565  53.372 -24.607  1.00  0.00    -0.055 C 
HETATM   39  C16 UNL     1       0.474  54.876 -24.700  1.00  0.00     0.046 C 
BRANCH  38  40
HETATM   40  C17 UNL     1       0.471  52.633 -25.945  1.00  0.00     0.155 C 
BRANCH  40  41
HETATM   41  O4  UNL     1       1.183  51.397 -25.829  1.00  0.00    -0.386 OA
HETATM   42  C18 UNL     1       2.438  51.403 -26.493  1.00  0.00     0.202 C 
ENDBRANCH  40  41
BRANCH  40  43
HETATM   43  C19 UNL     1      -0.985  52.336 -26.394  1.00  0.00     0.044 C 
HETATM   44  C20 UNL     1      -1.021  51.246 -27.481  1.00  0.00     0.015 C 
BRANCH  43  45
HETATM   45  C21 UNL     1      -1.889  51.913 -25.210  1.00  0.00     0.131 C 
HETATM   46  C22 UNL     1      -3.322  52.433 -25.219  1.00  0.00     0.067 C 
HETATM   47  C23 UNL     1      -4.030  51.386 -24.389  1.00  0.00     0.153 C 
HETATM   48  C24 UNL     1      -3.356  50.098 -24.877  1.00  0.00     0.173 C 
HETATM   49  O8  UNL     1      -1.992  50.468 -25.165  1.00  0.00    -0.374 OA
BRANCH  47  50
HETATM   50  O5  UNL     1      -5.443  51.414 -24.523  1.00  0.00    -0.393 OA
HETATM   51  H35 UNL     1      -5.711  52.343 -24.625  1.00  0.00     0.210 HD
ENDBRANCH  47  50
BRANCH  48  52
HETATM   52  C25 UNL     1      -4.004  49.484 -26.095  1.00  0.00     0.007 C 
HETATM   53  C26 UNL     1      -3.473  48.566 -26.920  1.00  0.00    -0.001 C 
BRANCH  53  54
HETATM   54  C27 UNL     1      -4.176  48.074 -28.084  1.00  0.00    -0.000 C 
HETATM   55  C28 UNL     1      -5.515  48.005 -28.154  1.00  0.00     0.000 C 
BRANCH  55  56
HETATM   56  C29 UNL     1      -6.209  47.497 -29.318  1.00  0.00     0.007 C 
HETATM   57  C30 UNL     1      -5.584  47.132 -30.448  1.00  0.00     0.081 C 
BRANCH  57  58
HETATM   58  C31 UNL     1      -6.374  46.637 -31.583  1.00  0.00     0.165 C 
HETATM   59  O6  UNL     1      -6.233  45.590 -32.182  1.00  0.00    -0.647 OA
BRANCH  58  60
HETATM   60  O7  UNL     1      -7.325  47.527 -31.909  1.00  0.00    -0.773 OA
HETATM   61  H43 UNL     1      -7.778  47.107 -32.671  1.00  0.00     0.167 HD
ENDBRANCH  58  60
ENDBRANCH  57  58
ENDBRANCH  55  56
ENDBRANCH  53  54
ENDBRANCH  48  52
ENDBRANCH  43  45
ENDBRANCH  40  43
ENDBRANCH  38  40
ENDBRANCH  36  37
ENDBRANCH  34  35
ENDBRANCH   3  34
TORSDOF 23
ENDMDL
