MODEL 1
REMARK minimizedAffinity -6.12043095
REMARK CNNscore 0.772612154
REMARK CNNaffinity 6.9499855
REMARK  10 active torsions:
REMARK  status: ('A' for Active; 'I' for Inactive)
REMARK    1  A    between atoms: C2_2  and  O1_3 
REMARK    2  A    between atoms: O1_3  and  C3_4 
REMARK    3  A    between atoms: C3_4  and  C4_6 
REMARK    4  A    between atoms: C4_6  and  C5_7 
REMARK    5  A    between atoms: C5_7  and  C6_8 
REMARK    6  A    between atoms: C6_8  and  C8_10 
REMARK    7  A    between atoms: C13_15  and  O3_16 
REMARK    8  A    between atoms: C17_21  and  O4_22 
REMARK    9  A    between atoms: C24_29  and  O5_30 
REMARK   10  A    between atoms: O5_30  and  C25_31 
ROOT
HETATM    1  C8  UNL     1      -0.716  10.949  18.122  1.00  0.00     0.000 C 
HETATM    2  C9  UNL     1      -1.911  10.268  18.851  1.00  0.00     0.006 C 
HETATM    3  C10 UNL     1      -2.536   9.267  17.879  1.00  0.00     0.006 C 
HETATM    4  C11 UNL     1      -1.580   9.238  16.696  1.00  0.00     0.003 C 
HETATM    5  C12 UNL     1      -2.055   8.609  15.368  1.00  0.00     0.025 C 
HETATM    6  C13 UNL     1      -3.570   8.648  15.069  1.00  0.00     0.137 C 
HETATM    7  C14 UNL     1      -3.839   8.520  13.555  1.00  0.00     0.092 C 
HETATM    8 BR1  UNL     1      -5.714   8.086  13.204  1.00  0.00    -0.088 Br
HETATM    9  C15 UNL     1      -2.868   7.585  12.807  1.00  0.00     0.013 C 
HETATM   10  C16 UNL     1      -2.970   6.107  13.235  1.00  0.00     0.038 C 
HETATM   11  C17 UNL     1      -2.069   5.206  12.387  1.00  0.00     0.118 C 
HETATM   12  C18 UNL     1      -0.681   5.789  12.127  1.00  0.00     0.032 C 
HETATM   13  C19 UNL     1      -0.362   6.964  13.051  1.00  0.00     0.012 C 
HETATM   14  C20 UNL     1      -1.381   8.132  12.933  1.00  0.00    -0.035 C 
HETATM   15  C21 UNL     1      -1.061   8.928  11.638  1.00  0.00     0.016 C 
HETATM   16  C22 UNL     1      -1.251   9.131  14.151  1.00  0.00     0.003 C 
HETATM   17  C23 UNL     1       0.175   9.501  14.577  1.00  0.00     0.039 C 
HETATM   18  C24 UNL     1       0.231  10.640  15.637  1.00  0.00     0.141 C 
HETATM   19  C27 UNL     1      -1.009  10.676  16.599  1.00  0.00    -0.009 C 
HETATM   20  C28 UNL     1      -2.059  11.690  16.079  1.00  0.00     0.018 C 
ENDROOT
BRANCH   1  21
HETATM   21  C6  UNL     1      -0.511  12.419  18.610  1.00  0.00    -0.013 C 
HETATM   22  C7  UNL     1      -1.830  12.982  19.171  1.00  0.00     0.010 C 
BRANCH  21  23
HETATM   23  C5  UNL     1       0.613  12.546  19.664  1.00  0.00     0.014 C 
BRANCH  23  24
HETATM   24  C4  UNL     1       0.938  11.267  20.442  1.00  0.00     0.111 C 
BRANCH  24  25
HETATM   25  C3  UNL     1       2.377  10.838  20.284  1.00  0.00     0.258 C 
HETATM   26  O2  UNL     1       2.745   9.817  19.720  1.00  0.00    -0.265 OA
BRANCH  25  27
HETATM   27  O1  UNL     1       3.198  11.739  20.889  1.00  0.00    -0.322 OA
BRANCH  27  28
HETATM   28  C2  UNL     1       3.147  11.714  22.321  1.00  0.00     0.174 C 
HETATM   29  C1  UNL     1       4.440  11.109  22.830  1.00  0.00     0.034 C 
ENDBRANCH  27  28
ENDBRANCH  25  27
ENDBRANCH  24  25
ENDBRANCH  23  24
ENDBRANCH  21  23
ENDBRANCH   1  21
BRANCH  18  30
HETATM   30  O5  UNL     1       1.444  10.436  16.397  1.00  0.00    -0.316 OA
BRANCH  30  31
HETATM   31  C25 UNL     1       2.380  11.423  16.331  1.00  0.00     0.255 C 
HETATM   32  C26 UNL     1       3.755  10.832  16.396  1.00  0.00     0.126 C 
HETATM   33  O6  UNL     1       2.148  12.621  16.256  1.00  0.00    -0.266 OA
ENDBRANCH  30  31
ENDBRANCH  18  30
BRANCH   6  34
HETATM   34  O3  UNL     1      -4.172   7.587  15.814  1.00  0.00    -0.394 OA
HETATM   35  H22 UNL     1      -5.094   7.503  15.507  1.00  0.00     0.210 HD
ENDBRANCH   6  34
BRANCH  11  36
HETATM   36  O4  UNL     1      -1.943   3.942  13.035  1.00  0.00    -0.396 OA
HETATM   37  H28 UNL     1      -1.529   4.090  13.903  1.00  0.00     0.210 HD
ENDBRANCH  11  36
TORSDOF 10
ENDMDL
MODEL 2
REMARK minimizedAffinity -6.67099333
REMARK CNNscore 0.566509724
REMARK CNNaffinity 6.22569609
REMARK  10 active torsions:
REMARK  status: ('A' for Active; 'I' for Inactive)
REMARK    1  A    between atoms: C2_2  and  O1_3 
REMARK    2  A    between atoms: O1_3  and  C3_4 
REMARK    3  A    between atoms: C3_4  and  C4_6 
REMARK    4  A    between atoms: C4_6  and  C5_7 
REMARK    5  A    between atoms: C5_7  and  C6_8 
REMARK    6  A    between atoms: C6_8  and  C8_10 
REMARK    7  A    between atoms: C13_15  and  O3_16 
REMARK    8  A    between atoms: C17_21  and  O4_22 
REMARK    9  A    between atoms: C24_29  and  O5_30 
REMARK   10  A    between atoms: O5_30  and  C25_31 
ROOT
HETATM    1  C8  UNL     1       4.435  12.975  22.297  1.00  0.00     0.000 C 
HETATM    2  C9  UNL     1       3.563  13.963  23.125  1.00  0.00     0.006 C 
HETATM    3  C10 UNL     1       2.221  14.109  22.406  1.00  0.00     0.006 C 
HETATM    4  C11 UNL     1       2.263  13.061  21.305  1.00  0.00     0.003 C 
HETATM    5  C12 UNL     1       1.235  13.144  20.156  1.00  0.00     0.025 C 
HETATM    6  C13 UNL     1       0.686  14.542  19.797  1.00  0.00     0.137 C 
HETATM    7  C14 UNL     1       0.146  14.572  18.353  1.00  0.00     0.092 C 
HETATM    8 BR1  UNL     1      -0.971  16.150  18.047  1.00  0.00    -0.088 Br
HETATM    9  C15 UNL     1      -0.540  13.268  17.897  1.00  0.00     0.013 C 
HETATM   10  C16 UNL     1      -1.831  12.937  18.671  1.00  0.00     0.038 C 
HETATM   11  C17 UNL     1      -2.530  11.699  18.107  1.00  0.00     0.118 C 
HETATM   12  C18 UNL     1      -1.579  10.553  17.765  1.00  0.00     0.032 C 
HETATM   13  C19 UNL     1      -0.194  10.745  18.383  1.00  0.00     0.012 C 
HETATM   14  C20 UNL     1       0.498  12.065  17.941  1.00  0.00    -0.035 C 
HETATM   15  C21 UNL     1       1.051  11.867  16.503  1.00  0.00     0.016 C 
HETATM   16  C22 UNL     1       1.721  12.413  18.879  1.00  0.00     0.003 C 
HETATM   17  C23 UNL     1       2.642  11.244  19.256  1.00  0.00     0.039 C 
HETATM   18  C24 UNL     1       3.933  11.688  20.003  1.00  0.00     0.141 C 
HETATM   19  C27 UNL     1       3.752  12.979  20.878  1.00  0.00    -0.009 C 
HETATM   20  C28 UNL     1       4.204  14.231  20.084  1.00  0.00     0.018 C 
ENDROOT
BRANCH   1  21
HETATM   21  C6  UNL     1       5.954  13.317  22.415  1.00  0.00    -0.013 C 
HETATM   22  C7  UNL     1       6.142  14.661  23.143  1.00  0.00     0.010 C 
BRANCH  21  23
HETATM   23  C5  UNL     1       6.762  12.207  23.129  1.00  0.00     0.014 C 
BRANCH  23  24
HETATM   24  C4  UNL     1       8.156  11.933  22.557  1.00  0.00     0.111 C 
BRANCH  24  25
HETATM   25  C3  UNL     1       9.160  12.999  22.929  1.00  0.00     0.258 C 
HETATM   26  O2  UNL     1       9.187  13.592  23.998  1.00  0.00    -0.265 OA
BRANCH  25  27
HETATM   27  O1  UNL     1      10.009  13.219  21.888  1.00  0.00    -0.322 OA
BRANCH  27  28
HETATM   28  C2  UNL     1       9.964  12.211  20.869  1.00  0.00     0.174 C 
HETATM   29  C1  UNL     1      11.363  12.034  20.315  1.00  0.00     0.034 C 
ENDBRANCH  27  28
ENDBRANCH  25  27
ENDBRANCH  24  25
ENDBRANCH  23  24
ENDBRANCH  21  23
ENDBRANCH   1  21
BRANCH  18  30
HETATM   30  O5  UNL     1       4.330  10.575  20.837  1.00  0.00    -0.316 OA
BRANCH  30  31
HETATM   31  C25 UNL     1       3.332   9.780  21.312  1.00  0.00     0.255 C 
HETATM   32  C26 UNL     1       3.354   9.767  22.810  1.00  0.00     0.126 C 
HETATM   33  O6  UNL     1       2.542   9.144  20.629  1.00  0.00    -0.266 OA
ENDBRANCH  30  31
ENDBRANCH  18  30
BRANCH   6  34
HETATM   34  O3  UNL     1      -0.327  14.853  20.757  1.00  0.00    -0.394 OA
HETATM   35  H22 UNL     1      -0.787  15.655  20.445  1.00  0.00     0.210 HD
ENDBRANCH   6  34
BRANCH  11  36
HETATM   36  O4  UNL     1      -3.500  11.249  19.051  1.00  0.00    -0.396 OA
HETATM   37  H28 UNL     1      -3.033  11.012  19.871  1.00  0.00     0.210 HD
ENDBRANCH  11  36
TORSDOF 10
ENDMDL
MODEL 3
REMARK minimizedAffinity -9.06410122
REMARK CNNscore 0.559037685
REMARK CNNaffinity 7.0355382
REMARK  10 active torsions:
REMARK  status: ('A' for Active; 'I' for Inactive)
REMARK    1  A    between atoms: C2_2  and  O1_3 
REMARK    2  A    between atoms: O1_3  and  C3_4 
REMARK    3  A    between atoms: C3_4  and  C4_6 
REMARK    4  A    between atoms: C4_6  and  C5_7 
REMARK    5  A    between atoms: C5_7  and  C6_8 
REMARK    6  A    between atoms: C6_8  and  C8_10 
REMARK    7  A    between atoms: C13_15  and  O3_16 
REMARK    8  A    between atoms: C17_21  and  O4_22 
REMARK    9  A    between atoms: C24_29  and  O5_30 
REMARK   10  A    between atoms: O5_30  and  C25_31 
ROOT
HETATM    1  C8  UNL     1      -5.625   6.357  13.835  1.00  0.00     0.000 C 
HETATM    2  C9  UNL     1      -5.788   7.904  13.869  1.00  0.00     0.006 C 
HETATM    3  C10 UNL     1      -4.462   8.520  13.419  1.00  0.00     0.006 C 
HETATM    4  C11 UNL     1      -3.636   7.335  12.942  1.00  0.00     0.003 C 
HETATM    5  C12 UNL     1      -2.115   7.518  12.743  1.00  0.00     0.025 C 
HETATM    6  C13 UNL     1      -1.411   8.584  13.611  1.00  0.00     0.137 C 
HETATM    7  C14 UNL     1       0.099   8.291  13.732  1.00  0.00     0.092 C 
HETATM    8 BR1  UNL     1       1.071   9.852  14.400  1.00  0.00    -0.088 Br
HETATM    9  C15 UNL     1       0.741   7.697  12.462  1.00  0.00     0.013 C 
HETATM   10  C16 UNL     1       0.737   8.654  11.254  1.00  0.00     0.038 C 
HETATM   11  C17 UNL     1       1.484   8.061  10.057  1.00  0.00     0.118 C 
HETATM   12  C18 UNL     1       1.181   6.584   9.809  1.00  0.00     0.032 C 
HETATM   13  C19 UNL     1      -0.055   6.109  10.573  1.00  0.00     0.012 C 
HETATM   14  C20 UNL     1       0.062   6.304  12.111  1.00  0.00    -0.035 C 
HETATM   15  C21 UNL     1       0.972   5.180  12.676  1.00  0.00     0.016 C 
HETATM   16  C22 UNL     1      -1.349   6.173  12.813  1.00  0.00     0.003 C 
HETATM   17  C23 UNL     1      -2.245   5.026  12.329  1.00  0.00     0.039 C 
HETATM   18  C24 UNL     1      -3.521   4.827  13.198  1.00  0.00     0.141 C 
HETATM   19  C27 UNL     1      -4.064   6.150  13.847  1.00  0.00    -0.009 C 
HETATM   20  C28 UNL     1      -3.528   6.294  15.294  1.00  0.00     0.018 C 
ENDROOT
BRANCH   1  21
HETATM   21  C6  UNL     1      -6.496   5.665  14.931  1.00  0.00    -0.013 C 
HETATM   22  C7  UNL     1      -7.046   6.715  15.914  1.00  0.00     0.010 C 
BRANCH  21  23
HETATM   23  C5  UNL     1      -7.656   4.835  14.335  1.00  0.00     0.014 C 
BRANCH  23  24
HETATM   24  C4  UNL     1      -7.786   4.880  12.810  1.00  0.00     0.111 C 
BRANCH  24  25
HETATM   25  C3  UNL     1      -8.871   5.821  12.343  1.00  0.00     0.258 C 
HETATM   26  O2  UNL     1      -9.117   6.079  11.173  1.00  0.00    -0.265 OA
BRANCH  25  27
HETATM   27  O1  UNL     1      -9.510   6.359  13.417  1.00  0.00    -0.322 OA
BRANCH  27  28
HETATM   28  C2  UNL     1     -10.747   7.011  13.099  1.00  0.00     0.174 C 
HETATM   29  C1  UNL     1     -11.143   7.877  14.279  1.00  0.00     0.034 C 
ENDBRANCH  27  28
ENDBRANCH  25  27
ENDBRANCH  24  25
ENDBRANCH  23  24
ENDBRANCH  21  23
ENDBRANCH   1  21
BRANCH  18  30
HETATM   30  O5  UNL     1      -4.525   4.252  12.330  1.00  0.00    -0.316 OA
BRANCH  30  31
HETATM   31  C25 UNL     1      -4.326   2.964  11.935  1.00  0.00     0.255 C 
HETATM   32  C26 UNL     1      -5.474   2.504  11.090  1.00  0.00     0.126 C 
HETATM   33  O6  UNL     1      -3.371   2.265  12.238  1.00  0.00    -0.266 OA
ENDBRANCH  30  31
ENDBRANCH  18  30
BRANCH   6  34
HETATM   34  O3  UNL     1      -1.666   9.853  13.006  1.00  0.00    -0.394 OA
HETATM   35  H22 UNL     1      -1.096  10.508  13.451  1.00  0.00     0.210 HD
ENDBRANCH   6  34
BRANCH  11  36
HETATM   36  O4  UNL     1       1.157   8.817   8.892  1.00  0.00    -0.396 OA
HETATM   37  H28 UNL     1       0.199   8.744   8.745  1.00  0.00     0.210 HD
ENDBRANCH  11  36
TORSDOF 10
ENDMDL
MODEL 4
REMARK minimizedAffinity -5.73841476
REMARK CNNscore 0.558766603
REMARK CNNaffinity 6.40333319
REMARK  10 active torsions:
REMARK  status: ('A' for Active; 'I' for Inactive)
REMARK    1  A    between atoms: C2_2  and  O1_3 
REMARK    2  A    between atoms: O1_3  and  C3_4 
REMARK    3  A    between atoms: C3_4  and  C4_6 
REMARK    4  A    between atoms: C4_6  and  C5_7 
REMARK    5  A    between atoms: C5_7  and  C6_8 
REMARK    6  A    between atoms: C6_8  and  C8_10 
REMARK    7  A    between atoms: C13_15  and  O3_16 
REMARK    8  A    between atoms: C17_21  and  O4_22 
REMARK    9  A    between atoms: C24_29  and  O5_30 
REMARK   10  A    between atoms: O5_30  and  C25_31 
ROOT
HETATM    1  C8  UNL     1     -17.939   0.451  15.189  1.00  0.00     0.000 C 
HETATM    2  C9  UNL     1     -18.699   0.371  13.833  1.00  0.00     0.006 C 
HETATM    3  C10 UNL     1     -18.102  -0.790  13.036  1.00  0.00     0.006 C 
HETATM    4  C11 UNL     1     -17.163  -1.479  14.014  1.00  0.00     0.003 C 
HETATM    5  C12 UNL     1     -16.120  -2.479  13.467  1.00  0.00     0.025 C 
HETATM    6  C13 UNL     1     -15.622  -2.263  12.021  1.00  0.00     0.137 C 
HETATM    7  C14 UNL     1     -14.248  -2.929  11.803  1.00  0.00     0.092 C 
HETATM    8 BR1  UNL     1     -13.832  -3.086   9.897  1.00  0.00    -0.088 Br
HETATM    9  C15 UNL     1     -14.053  -4.259  12.559  1.00  0.00     0.013 C 
HETATM   10  C16 UNL     1     -14.989  -5.389  12.089  1.00  0.00     0.038 C 
HETATM   11  C17 UNL     1     -14.679  -6.713  12.790  1.00  0.00     0.118 C 
HETATM   12  C18 UNL     1     -14.412  -6.573  14.288  1.00  0.00     0.032 C 
HETATM   13  C19 UNL     1     -14.857  -5.215  14.831  1.00  0.00     0.012 C 
HETATM   14  C20 UNL     1     -14.165  -4.015  14.125  1.00  0.00    -0.035 C 
HETATM   15  C21 UNL     1     -12.723  -3.885  14.687  1.00  0.00     0.016 C 
HETATM   16  C22 UNL     1     -14.920  -2.659  14.430  1.00  0.00     0.003 C 
HETATM   17  C23 UNL     1     -15.367  -2.442  15.881  1.00  0.00     0.039 C 
HETATM   18  C24 UNL     1     -15.912  -1.009  16.154  1.00  0.00     0.141 C 
HETATM   19  C27 UNL     1     -16.608  -0.345  14.914  1.00  0.00    -0.009 C 
HETATM   20  C28 UNL     1     -15.603   0.563  14.160  1.00  0.00     0.018 C 
ENDROOT
BRANCH   1  21
HETATM   21  C6  UNL     1     -17.856   1.920  15.713  1.00  0.00    -0.013 C 
HETATM   22  C7  UNL     1     -16.564   2.123  16.525  1.00  0.00     0.010 C 
BRANCH  21  23
HETATM   23  C5  UNL     1     -17.939   2.965  14.575  1.00  0.00     0.014 C 
BRANCH  23  24
HETATM   24  C4  UNL     1     -16.658   3.763  14.316  1.00  0.00     0.111 C 
BRANCH  24  25
HETATM   25  C3  UNL     1     -16.899   5.253  14.263  1.00  0.00     0.258 C 
HETATM   26  O2  UNL     1     -17.759   5.846  14.900  1.00  0.00    -0.265 OA
BRANCH  25  27
HETATM   27  O1  UNL     1     -16.038   5.830  13.381  1.00  0.00    -0.322 OA
BRANCH  27  28
HETATM   28  C2  UNL     1     -15.172   6.814  13.962  1.00  0.00     0.174 C 
HETATM   29  C1  UNL     1     -13.829   6.164  14.227  1.00  0.00     0.034 C 
ENDBRANCH  27  28
ENDBRANCH  25  27
ENDBRANCH  24  25
ENDBRANCH  23  24
ENDBRANCH  21  23
ENDBRANCH   1  21
BRANCH  18  30
HETATM   30  O5  UNL     1     -16.853  -1.128  17.246  1.00  0.00    -0.316 OA
BRANCH  30  31
HETATM   31  C25 UNL     1     -16.785  -2.266  17.990  1.00  0.00     0.255 C 
HETATM   32  C26 UNL     1     -17.673  -3.319  17.400  1.00  0.00     0.126 C 
HETATM   33  O6  UNL     1     -16.124  -2.414  19.008  1.00  0.00    -0.266 OA
ENDBRANCH  30  31
ENDBRANCH  18  30
BRANCH   6  34
HETATM   34  O3  UNL     1     -16.622  -2.794  11.149  1.00  0.00    -0.394 OA
HETATM   35  H22 UNL     1     -16.246  -2.808  10.249  1.00  0.00     0.210 HD
ENDBRANCH   6  34
BRANCH  11  36
HETATM   36  O4  UNL     1     -15.769  -7.610  12.581  1.00  0.00    -0.396 OA
HETATM   37  H28 UNL     1     -16.564  -7.213  12.976  1.00  0.00     0.210 HD
ENDBRANCH  11  36
TORSDOF 10
ENDMDL
MODEL 5
REMARK minimizedAffinity -5.86134386
REMARK CNNscore 0.521376669
REMARK CNNaffinity 6.14690781
REMARK  10 active torsions:
REMARK  status: ('A' for Active; 'I' for Inactive)
REMARK    1  A    between atoms: C2_2  and  O1_3 
REMARK    2  A    between atoms: O1_3  and  C3_4 
REMARK    3  A    between atoms: C3_4  and  C4_6 
REMARK    4  A    between atoms: C4_6  and  C5_7 
REMARK    5  A    between atoms: C5_7  and  C6_8 
REMARK    6  A    between atoms: C6_8  and  C8_10 
REMARK    7  A    between atoms: C13_15  and  O3_16 
REMARK    8  A    between atoms: C17_21  and  O4_22 
REMARK    9  A    between atoms: C24_29  and  O5_30 
REMARK   10  A    between atoms: O5_30  and  C25_31 
ROOT
HETATM    1  C8  UNL     1     -13.074   1.842  26.983  1.00  0.00     0.000 C 
HETATM    2  C9  UNL     1     -11.801   1.943  27.872  1.00  0.00     0.006 C 
HETATM    3  C10 UNL     1     -12.252   2.310  29.286  1.00  0.00     0.006 C 
HETATM    4  C11 UNL     1     -13.769   2.213  29.238  1.00  0.00     0.003 C 
HETATM    5  C12 UNL     1     -14.593   2.850  30.378  1.00  0.00     0.025 C 
HETATM    6  C13 UNL     1     -13.972   4.060  31.110  1.00  0.00     0.137 C 
HETATM    7  C14 UNL     1     -15.061   4.915  31.791  1.00  0.00     0.092 C 
HETATM    8 BR1  UNL     1     -14.281   6.144  33.099  1.00  0.00    -0.088 Br
HETATM    9  C15 UNL     1     -16.240   4.108  32.371  1.00  0.00     0.013 C 
HETATM   10  C16 UNL     1     -15.848   3.177  33.535  1.00  0.00     0.038 C 
HETATM   11  C17 UNL     1     -17.069   2.487  34.147  1.00  0.00     0.118 C 
HETATM   12  C18 UNL     1     -18.070   1.971  33.114  1.00  0.00     0.032 C 
HETATM   13  C19 UNL     1     -17.481   1.931  31.704  1.00  0.00     0.012 C 
HETATM   14  C20 UNL     1     -16.981   3.318  31.209  1.00  0.00    -0.035 C 
HETATM   15  C21 UNL     1     -18.217   4.156  30.782  1.00  0.00     0.016 C 
HETATM   16  C22 UNL     1     -16.045   3.171  29.944  1.00  0.00     0.003 C 
HETATM   17  C23 UNL     1     -16.508   2.179  28.868  1.00  0.00     0.039 C 
HETATM   18  C24 UNL     1     -15.658   2.236  27.566  1.00  0.00     0.141 C 
HETATM   19  C27 UNL     1     -14.159   2.640  27.799  1.00  0.00    -0.009 C 
HETATM   20  C28 UNL     1     -13.973   4.161  27.568  1.00  0.00     0.018 C 
ENDROOT
BRANCH   1  21
HETATM   21  C6  UNL     1     -12.775   2.252  25.506  1.00  0.00    -0.013 C 
HETATM   22  C7  UNL     1     -11.437   1.645  25.046  1.00  0.00     0.010 C 
BRANCH  21  23
HETATM   23  C5  UNL     1     -13.906   1.846  24.533  1.00  0.00     0.014 C 
BRANCH  23  24
HETATM   24  C4  UNL     1     -14.723   3.002  23.948  1.00  0.00     0.111 C 
BRANCH  24  25
HETATM   25  C3  UNL     1     -14.088   3.600  22.714  1.00  0.00     0.258 C 
HETATM   26  O2  UNL     1     -13.964   3.024  21.643  1.00  0.00    -0.265 OA
BRANCH  25  27
HETATM   27  O1  UNL     1     -13.652   4.861  22.983  1.00  0.00    -0.322 OA
BRANCH  27  28
HETATM   28  C2  UNL     1     -14.353   5.511  24.050  1.00  0.00     0.174 C 
HETATM   29  C1  UNL     1     -13.583   6.759  24.432  1.00  0.00     0.034 C 
ENDBRANCH  27  28
ENDBRANCH  25  27
ENDBRANCH  24  25
ENDBRANCH  23  24
ENDBRANCH  21  23
ENDBRANCH   1  21
BRANCH  18  30
HETATM   30  O5  UNL     1     -15.730   0.921  26.968  1.00  0.00    -0.316 OA
BRANCH  30  31
HETATM   31  C25 UNL     1     -16.198  -0.084  27.758  1.00  0.00     0.255 C 
HETATM   32  C26 UNL     1     -17.573  -0.486  27.319  1.00  0.00     0.126 C 
HETATM   33  O6  UNL     1     -15.607  -0.579  28.707  1.00  0.00    -0.266 OA
ENDBRANCH  30  31
ENDBRANCH  18  30
BRANCH   6  34
HETATM   34  O3  UNL     1     -13.029   3.541  32.051  1.00  0.00    -0.394 OA
HETATM   35  H22 UNL     1     -12.754   4.281  32.625  1.00  0.00     0.210 HD
ENDBRANCH   6  34
BRANCH  11  36
HETATM   36  O4  UNL     1     -16.624   1.405  34.963  1.00  0.00    -0.396 OA
HETATM   37  H28 UNL     1     -16.148   0.776  34.394  1.00  0.00     0.210 HD
ENDBRANCH  11  36
TORSDOF 10
ENDMDL
MODEL 6
REMARK minimizedAffinity -5.58827639
REMARK CNNscore 0.501994371
REMARK CNNaffinity 6.11982727
REMARK  10 active torsions:
REMARK  status: ('A' for Active; 'I' for Inactive)
REMARK    1  A    between atoms: C2_2  and  O1_3 
REMARK    2  A    between atoms: O1_3  and  C3_4 
REMARK    3  A    between atoms: C3_4  and  C4_6 
REMARK    4  A    between atoms: C4_6  and  C5_7 
REMARK    5  A    between atoms: C5_7  and  C6_8 
REMARK    6  A    between atoms: C6_8  and  C8_10 
REMARK    7  A    between atoms: C13_15  and  O3_16 
REMARK    8  A    between atoms: C17_21  and  O4_22 
REMARK    9  A    between atoms: C24_29  and  O5_30 
REMARK   10  A    between atoms: O5_30  and  C25_31 
ROOT
HETATM    1  C8  UNL     1     -16.964   2.438  14.534  1.00  0.00     0.000 C 
HETATM    2  C9  UNL     1     -15.600   2.296  15.270  1.00  0.00     0.006 C 
HETATM    3  C10 UNL     1     -15.048   0.904  14.958  1.00  0.00     0.006 C 
HETATM    4  C11 UNL     1     -15.988   0.352  13.898  1.00  0.00     0.003 C 
HETATM    5  C12 UNL     1     -15.959  -1.161  13.590  1.00  0.00     0.025 C 
HETATM    6  C13 UNL     1     -15.525  -2.107  14.732  1.00  0.00     0.137 C 
HETATM    7  C14 UNL     1     -16.058  -3.536  14.500  1.00  0.00     0.092 C 
HETATM    8 BR1  UNL     1     -15.138  -4.829  15.646  1.00  0.00    -0.088 Br
HETATM    9  C15 UNL     1     -16.089  -3.977  13.023  1.00  0.00     0.013 C 
HETATM   10  C16 UNL     1     -14.696  -4.089  12.374  1.00  0.00     0.038 C 
HETATM   11  C17 UNL     1     -14.775  -4.637  10.947  1.00  0.00     0.118 C 
HETATM   12  C18 UNL     1     -15.912  -4.041  10.118  1.00  0.00     0.032 C 
HETATM   13  C19 UNL     1     -16.499  -2.783  10.758  1.00  0.00     0.012 C 
HETATM   14  C20 UNL     1     -17.050  -3.023  12.192  1.00  0.00    -0.035 C 
HETATM   15  C21 UNL     1     -18.428  -3.730  12.071  1.00  0.00     0.016 C 
HETATM   16  C22 UNL     1     -17.281  -1.656  12.953  1.00  0.00     0.003 C 
HETATM   17  C23 UNL     1     -17.933  -0.529  12.142  1.00  0.00     0.039 C 
HETATM   18  C24 UNL     1     -18.320   0.709  13.003  1.00  0.00     0.141 C 
HETATM   19  C27 UNL     1     -17.379   0.948  14.236  1.00  0.00    -0.009 C 
HETATM   20  C28 UNL     1     -17.995   0.313  15.509  1.00  0.00     0.018 C 
ENDROOT
BRANCH   1  21
HETATM   21  C6  UNL     1     -17.946   3.361  15.323  1.00  0.00    -0.013 C 
HETATM   22  C7  UNL     1     -17.423   3.598  16.751  1.00  0.00     0.010 C 
BRANCH  21  23
HETATM   23  C5  UNL     1     -18.190   4.715  14.615  1.00  0.00     0.014 C 
BRANCH  23  24
HETATM   24  C4  UNL     1     -16.985   5.658  14.557  1.00  0.00     0.111 C 
BRANCH  24  25
HETATM   25  C3  UNL     1     -16.752   6.225  13.177  1.00  0.00     0.258 C 
HETATM   26  O2  UNL     1     -17.076   5.677  12.132  1.00  0.00    -0.265 OA
BRANCH  25  27
HETATM   27  O1  UNL     1     -16.103   7.418  13.269  1.00  0.00    -0.322 OA
BRANCH  27  28
HETATM   28  C2  UNL     1     -14.990   7.553  12.377  1.00  0.00     0.174 C 
HETATM   29  C1  UNL     1     -13.769   6.959  13.050  1.00  0.00     0.034 C 
ENDBRANCH  27  28
ENDBRANCH  25  27
ENDBRANCH  24  25
ENDBRANCH  23  24
ENDBRANCH  21  23
ENDBRANCH   1  21
BRANCH  18  30
HETATM   30  O5  UNL     1     -18.279   1.854  12.119  1.00  0.00    -0.316 OA
BRANCH  30  31
HETATM   31  C25 UNL     1     -19.408   2.114  11.403  1.00  0.00     0.255 C 
HETATM   32  C26 UNL     1     -20.194   3.206  12.062  1.00  0.00     0.126 C 
HETATM   33  O6  UNL     1     -19.756   1.533  10.386  1.00  0.00    -0.266 OA
ENDBRANCH  30  31
ENDBRANCH  18  30
BRANCH   6  34
HETATM   34  O3  UNL     1     -14.098  -2.068  14.790  1.00  0.00    -0.394 OA
HETATM   35  H22 UNL     1     -13.811  -2.779  15.394  1.00  0.00     0.210 HD
ENDBRANCH   6  34
BRANCH  11  36
HETATM   36  O4  UNL     1     -13.530  -4.397  10.293  1.00  0.00    -0.396 OA
HETATM   37  H28 UNL     1     -13.388  -3.435  10.264  1.00  0.00     0.210 HD
ENDBRANCH  11  36
TORSDOF 10
ENDMDL
MODEL 7
REMARK minimizedAffinity -7.69400406
REMARK CNNscore 0.453228146
REMARK CNNaffinity 6.39895248
REMARK  10 active torsions:
REMARK  status: ('A' for Active; 'I' for Inactive)
REMARK    1  A    between atoms: C2_2  and  O1_3 
REMARK    2  A    between atoms: O1_3  and  C3_4 
REMARK    3  A    between atoms: C3_4  and  C4_6 
REMARK    4  A    between atoms: C4_6  and  C5_7 
REMARK    5  A    between atoms: C5_7  and  C6_8 
REMARK    6  A    between atoms: C6_8  and  C8_10 
REMARK    7  A    between atoms: C13_15  and  O3_16 
REMARK    8  A    between atoms: C17_21  and  O4_22 
REMARK    9  A    between atoms: C24_29  and  O5_30 
REMARK   10  A    between atoms: O5_30  and  C25_31 
ROOT
HETATM    1  C8  UNL     1      -3.914   6.777  12.957  1.00  0.00     0.000 C 
HETATM    2  C9  UNL     1      -5.265   7.530  13.128  1.00  0.00     0.006 C 
HETATM    3  C10 UNL     1      -4.987   8.803  13.929  1.00  0.00     0.006 C 
HETATM    4  C11 UNL     1      -3.470   8.867  14.027  1.00  0.00     0.003 C 
HETATM    5  C12 UNL     1      -2.829   9.820  15.059  1.00  0.00     0.025 C 
HETATM    6  C13 UNL     1      -3.646  10.142  16.329  1.00  0.00     0.137 C 
HETATM    7  C14 UNL     1      -2.727  10.608  17.477  1.00  0.00     0.092 C 
HETATM    8 BR1  UNL     1      -3.755  11.467  18.903  1.00  0.00    -0.088 Br
HETATM    9  C15 UNL     1      -1.521  11.457  17.027  1.00  0.00     0.013 C 
HETATM   10  C16 UNL     1      -1.907  12.815  16.410  1.00  0.00     0.038 C 
HETATM   11  C17 UNL     1      -0.676  13.664  16.086  1.00  0.00     0.118 C 
HETATM   12  C18 UNL     1       0.466  12.877  15.444  1.00  0.00     0.032 C 
HETATM   13  C19 UNL     1       0.014  11.507  14.938  1.00  0.00     0.012 C 
HETATM   14  C20 UNL     1      -0.593  10.611  16.054  1.00  0.00    -0.035 C 
HETATM   15  C21 UNL     1       0.573  10.030  16.899  1.00  0.00     0.016 C 
HETATM   16  C22 UNL     1      -1.390   9.391  15.438  1.00  0.00     0.003 C 
HETATM   17  C23 UNL     1      -0.723   8.670  14.260  1.00  0.00     0.039 C 
HETATM   18  C24 UNL     1      -1.454   7.361  13.840  1.00  0.00     0.141 C 
HETATM   19  C27 UNL     1      -3.004   7.389  14.088  1.00  0.00    -0.009 C 
HETATM   20  C28 UNL     1      -3.340   6.724  15.446  1.00  0.00     0.018 C 
ENDROOT
BRANCH   1  21
HETATM   21  C6  UNL     1      -4.124   5.230  12.900  1.00  0.00    -0.013 C 
HETATM   22  C7  UNL     1      -2.914   4.506  13.518  1.00  0.00     0.010 C 
BRANCH  21  23
HETATM   23  C5  UNL     1      -5.428   4.779  13.598  1.00  0.00     0.014 C 
BRANCH  23  24
HETATM   24  C4  UNL     1      -6.236   3.706  12.861  1.00  0.00     0.111 C 
BRANCH  24  25
HETATM   25  C3  UNL     1      -7.720   3.810  13.123  1.00  0.00     0.258 C 
HETATM   26  O2  UNL     1      -8.539   2.941  12.859  1.00  0.00    -0.265 OA
BRANCH  25  27
HETATM   27  O1  UNL     1      -8.011   5.022  13.669  1.00  0.00    -0.322 OA
BRANCH  27  28
HETATM   28  C2  UNL     1      -8.915   5.816  12.890  1.00  0.00     0.174 C 
HETATM   29  C1  UNL     1      -9.673   6.731  13.831  1.00  0.00     0.034 C 
ENDBRANCH  27  28
ENDBRANCH  25  27
ENDBRANCH  24  25
ENDBRANCH  23  24
ENDBRANCH  21  23
ENDBRANCH   1  21
BRANCH  18  30
HETATM   30  O5  UNL     1      -1.180   7.169  12.433  1.00  0.00    -0.316 OA
BRANCH  30  31
HETATM   31  C25 UNL     1      -0.795   8.269  11.729  1.00  0.00     0.255 C 
HETATM   32  C26 UNL     1       0.632   8.129  11.296  1.00  0.00     0.126 C 
HETATM   33  O6  UNL     1      -1.491   9.248  11.499  1.00  0.00    -0.266 OA
ENDBRANCH  30  31
ENDBRANCH  18  30
BRANCH   6  34
HETATM   34  O3  UNL     1      -4.605  11.139  15.969  1.00  0.00    -0.394 OA
HETATM   35  H22 UNL     1      -5.013  11.463  16.794  1.00  0.00     0.210 HD
ENDBRANCH   6  34
BRANCH  11  36
HETATM   36  O4  UNL     1      -1.066  14.730  15.222  1.00  0.00    -0.396 OA
HETATM   37  H28 UNL     1      -1.416  14.339  14.403  1.00  0.00     0.210 HD
ENDBRANCH  11  36
TORSDOF 10
ENDMDL
MODEL 8
REMARK minimizedAffinity -5.66090918
REMARK CNNscore 0.445365489
REMARK CNNaffinity 6.45526314
REMARK  10 active torsions:
REMARK  status: ('A' for Active; 'I' for Inactive)
REMARK    1  A    between atoms: C2_2  and  O1_3 
REMARK    2  A    between atoms: O1_3  and  C3_4 
REMARK    3  A    between atoms: C3_4  and  C4_6 
REMARK    4  A    between atoms: C4_6  and  C5_7 
REMARK    5  A    between atoms: C5_7  and  C6_8 
REMARK    6  A    between atoms: C6_8  and  C8_10 
REMARK    7  A    between atoms: C13_15  and  O3_16 
REMARK    8  A    between atoms: C17_21  and  O4_22 
REMARK    9  A    between atoms: C24_29  and  O5_30 
REMARK   10  A    between atoms: O5_30  and  C25_31 
ROOT
HETATM    1  C8  UNL     1      -2.460  11.943  17.864  1.00  0.00     0.000 C 
HETATM    2  C9  UNL     1      -2.975  10.834  18.827  1.00  0.00     0.006 C 
HETATM    3  C10 UNL     1      -2.913   9.503  18.076  1.00  0.00     0.006 C 
HETATM    4  C11 UNL     1      -2.180   9.830  16.784  1.00  0.00     0.003 C 
HETATM    5  C12 UNL     1      -2.237   8.818  15.618  1.00  0.00     0.025 C 
HETATM    6  C13 UNL     1      -3.482   7.909  15.530  1.00  0.00     0.137 C 
HETATM    7  C14 UNL     1      -3.682   7.381  14.094  1.00  0.00     0.092 C 
HETATM    8 BR1  UNL     1      -4.934   5.877  14.061  1.00  0.00    -0.088 Br
HETATM    9  C15 UNL     1      -2.375   7.077  13.334  1.00  0.00     0.013 C 
HETATM   10  C16 UNL     1      -1.552   5.925  13.943  1.00  0.00     0.038 C 
HETATM   11  C17 UNL     1      -0.327   5.589  13.090  1.00  0.00     0.118 C 
HETATM   12  C18 UNL     1       0.421   6.817  12.573  1.00  0.00     0.032 C 
HETATM   13  C19 UNL     1       0.008   8.097  13.298  1.00  0.00     0.012 C 
HETATM   14  C20 UNL     1      -1.512   8.402  13.186  1.00  0.00    -0.035 C 
HETATM   15  C21 UNL     1      -1.787   8.989  11.775  1.00  0.00     0.016 C 
HETATM   16  C22 UNL     1      -1.958   9.485  14.248  1.00  0.00     0.003 C 
HETATM   17  C23 UNL     1      -1.023  10.689  14.425  1.00  0.00     0.039 C 
HETATM   18  C24 UNL     1      -1.620  11.811  15.325  1.00  0.00     0.141 C 
HETATM   19  C27 UNL     1      -2.592  11.285  16.439  1.00  0.00    -0.009 C 
HETATM   20  C28 UNL     1      -4.062  11.379  15.954  1.00  0.00     0.018 C 
ENDROOT
BRANCH   1  21
HETATM   21  C6  UNL     1      -3.159  13.311  18.141  1.00  0.00    -0.013 C 
HETATM   22  C7  UNL     1      -3.468  14.029  16.814  1.00  0.00     0.010 C 
BRANCH  21  23
HETATM   23  C5  UNL     1      -4.451  13.163  18.979  1.00  0.00     0.014 C 
BRANCH  23  24
HETATM   24  C4  UNL     1      -5.702  13.817  18.386  1.00  0.00     0.111 C 
BRANCH  24  25
HETATM   25  C3  UNL     1      -6.845  13.892  19.371  1.00  0.00     0.258 C 
HETATM   26  O2  UNL     1      -6.840  13.393  20.487  1.00  0.00    -0.265 OA
BRANCH  25  27
HETATM   27  O1  UNL     1      -7.888  14.571  18.819  1.00  0.00    -0.322 OA
BRANCH  27  28
HETATM   28  C2  UNL     1      -8.527  13.887  17.734  1.00  0.00     0.174 C 
HETATM   29  C1  UNL     1      -9.733  13.150  18.283  1.00  0.00     0.034 C 
ENDBRANCH  27  28
ENDBRANCH  25  27
ENDBRANCH  24  25
ENDBRANCH  23  24
ENDBRANCH  21  23
ENDBRANCH   1  21
BRANCH  18  30
HETATM   30  O5  UNL     1      -0.498  12.495  15.928  1.00  0.00    -0.316 OA
BRANCH  30  31
HETATM   31  C25 UNL     1       0.028  13.540  15.230  1.00  0.00     0.255 C 
HETATM   32  C26 UNL     1       1.520  13.417  15.168  1.00  0.00     0.126 C 
HETATM   33  O6  UNL     1      -0.608  14.463  14.742  1.00  0.00    -0.266 OA
ENDBRANCH  30  31
ENDBRANCH  18  30
BRANCH   6  34
HETATM   34  O3  UNL     1      -3.295   6.849  16.471  1.00  0.00    -0.394 OA
HETATM   35  H22 UNL     1      -3.994   6.188  16.308  1.00  0.00     0.210 HD
ENDBRANCH   6  34
BRANCH  11  36
HETATM   36  O4  UNL     1       0.560   4.778  13.859  1.00  0.00    -0.396 OA
HETATM   37  H28 UNL     1       0.837   5.292  14.637  1.00  0.00     0.210 HD
ENDBRANCH  11  36
TORSDOF 10
ENDMDL
MODEL 9
REMARK minimizedAffinity -5.80364704
REMARK CNNscore 0.373405933
REMARK CNNaffinity 6.10581064
REMARK  10 active torsions:
REMARK  status: ('A' for Active; 'I' for Inactive)
REMARK    1  A    between atoms: C2_2  and  O1_3 
REMARK    2  A    between atoms: O1_3  and  C3_4 
REMARK    3  A    between atoms: C3_4  and  C4_6 
REMARK    4  A    between atoms: C4_6  and  C5_7 
REMARK    5  A    between atoms: C5_7  and  C6_8 
REMARK    6  A    between atoms: C6_8  and  C8_10 
REMARK    7  A    between atoms: C13_15  and  O3_16 
REMARK    8  A    between atoms: C17_21  and  O4_22 
REMARK    9  A    between atoms: C24_29  and  O5_30 
REMARK   10  A    between atoms: O5_30  and  C25_31 
ROOT
HETATM    1  C8  UNL     1     -14.193   7.740  22.341  1.00  0.00     0.000 C 
HETATM    2  C9  UNL     1     -14.012   6.711  21.188  1.00  0.00     0.006 C 
HETATM    3  C10 UNL     1     -14.021   5.313  21.810  1.00  0.00     0.006 C 
HETATM    4  C11 UNL     1     -14.408   5.547  23.262  1.00  0.00     0.003 C 
HETATM    5  C12 UNL     1     -14.179   4.413  24.286  1.00  0.00     0.025 C 
HETATM    6  C13 UNL     1     -13.033   3.419  23.997  1.00  0.00     0.137 C 
HETATM    7  C14 UNL     1     -12.559   2.727  25.292  1.00  0.00     0.092 C 
HETATM    8 BR1  UNL     1     -11.474   1.148  24.895  1.00  0.00    -0.088 Br
HETATM    9  C15 UNL     1     -13.681   2.430  26.308  1.00  0.00     0.013 C 
HETATM   10  C16 UNL     1     -14.721   1.408  25.809  1.00  0.00     0.038 C 
HETATM   11  C17 UNL     1     -15.745   1.064  26.893  1.00  0.00     0.118 C 
HETATM   12  C18 UNL     1     -16.243   2.276  27.681  1.00  0.00     0.032 C 
HETATM   13  C19 UNL     1     -15.893   3.597  26.996  1.00  0.00     0.012 C 
HETATM   14  C20 UNL     1     -14.365   3.787  26.773  1.00  0.00    -0.035 C 
HETATM   15  C21 UNL     1     -13.724   4.198  28.127  1.00  0.00     0.016 C 
HETATM   16  C22 UNL     1     -14.077   4.946  25.738  1.00  0.00     0.003 C 
HETATM   17  C23 UNL     1     -14.916   6.221  25.895  1.00  0.00     0.039 C 
HETATM   18  C24 UNL     1     -14.441   7.391  24.984  1.00  0.00     0.141 C 
HETATM   19  C27 UNL     1     -13.799   6.925  23.629  1.00  0.00    -0.009 C 
HETATM   20  C28 UNL     1     -12.256   6.869  23.761  1.00  0.00     0.018 C 
ENDROOT
BRANCH   1  21
HETATM   21  C6  UNL     1     -13.455   9.082  22.030  1.00  0.00    -0.013 C 
HETATM   22  C7  UNL     1     -12.850   9.667  23.320  1.00  0.00     0.010 C 
BRANCH  21  23
HETATM   23  C5  UNL     1     -12.357   8.924  20.952  1.00  0.00     0.014 C 
BRANCH  23  24
HETATM   24  C4  UNL     1     -11.376  10.093  20.832  1.00  0.00     0.111 C 
BRANCH  24  25
HETATM   25  C3  UNL     1     -11.274  10.628  19.423  1.00  0.00     0.258 C 
HETATM   26  O2  UNL     1     -11.397  11.804  19.110  1.00  0.00    -0.265 OA
BRANCH  25  27
HETATM   27  O1  UNL     1     -11.056   9.603  18.554  1.00  0.00    -0.322 OA
BRANCH  27  28
HETATM   28  C2  UNL     1     -10.909  10.012  17.187  1.00  0.00     0.174 C 
HETATM   29  C1  UNL     1     -12.179   9.647  16.445  1.00  0.00     0.034 C 
ENDBRANCH  27  28
ENDBRANCH  25  27
ENDBRANCH  24  25
ENDBRANCH  23  24
ENDBRANCH  21  23
ENDBRANCH   1  21
BRANCH  18  30
HETATM   30  O5  UNL     1     -15.605   8.210  24.726  1.00  0.00    -0.316 OA
BRANCH  30  31
HETATM   31  C25 UNL     1     -15.751   9.324  25.495  1.00  0.00     0.255 C 
HETATM   32  C26 UNL     1     -17.009  10.046  25.119  1.00  0.00     0.126 C 
HETATM   33  O6  UNL     1     -14.968   9.707  26.352  1.00  0.00    -0.266 OA
ENDBRANCH  30  31
ENDBRANCH  18  30
BRANCH   6  34
HETATM   34  O3  UNL     1     -13.524   2.482  23.035  1.00  0.00    -0.394 OA
HETATM   35  H22 UNL     1     -12.868   1.762  22.970  1.00  0.00     0.210 HD
ENDBRANCH   6  34
BRANCH  11  36
HETATM   36  O4  UNL     1     -16.853   0.402  26.285  1.00  0.00    -0.396 OA
HETATM   37  H28 UNL     1     -17.253   1.014  25.644  1.00  0.00     0.210 HD
ENDBRANCH  11  36
TORSDOF 10
ENDMDL
