MODEL 1
REMARK minimizedAffinity -7.2907443
REMARK CNNscore 0.692581415
REMARK CNNaffinity 6.83211088
REMARK  9 active torsions:
REMARK  status: ('A' for Active; 'I' for Inactive)
REMARK    1  A    between atoms: C2_2  and  C3_3 
REMARK    2  A    between atoms: C2_2  and  C9_12 
REMARK    3  A    between atoms: C3_3  and  C4_4 
REMARK    4  A    between atoms: C4_4  and  C5_5 
REMARK    5  A    between atoms: C5_5  and  O1_6 
REMARK    6  A    between atoms: C5_5  and  C6_7 
REMARK    7  A    between atoms: C6_7  and  O2_9 
REMARK    8  A    between atoms: C6_7  and  C8_10 
REMARK    9  A    between atoms: C8_10  and  O3_11 
ROOT
HETATM    1  C9  UNL     1       5.147  55.978  -7.923  1.00  0.00    -0.002 C 
HETATM    2  C10 UNL     1       5.969  55.125  -8.928  1.00  0.00     0.007 C 
HETATM    3  C11 UNL     1       4.960  54.359  -9.803  1.00  0.00     0.015 C 
HETATM    4  C12 UNL     1       3.617  55.087  -9.597  1.00  0.00    -0.005 C 
HETATM    5  C13 UNL     1       3.632  56.344 -10.525  1.00  0.00     0.021 C 
HETATM    6  C14 UNL     1       2.297  54.396  -9.918  1.00  0.00    -0.000 C 
HETATM    7  C15 UNL     1       1.158  54.703  -9.241  1.00  0.00    -0.060 C 
HETATM    8  C16 UNL     1       1.186  55.731  -8.095  1.00  0.00     0.036 C 
HETATM    9  C17 UNL     1       2.552  56.342  -7.710  1.00  0.00     0.015 C 
HETATM   10  C18 UNL     1       3.707  55.392  -8.048  1.00  0.00    -0.028 C 
HETATM   11  C19 UNL     1       3.569  54.115  -7.168  1.00  0.00     0.016 C 
HETATM   12  C20 UNL     1      -0.223  54.065  -9.557  1.00  0.00    -0.014 C 
HETATM   13  C21 UNL     1      -1.044  55.127 -10.326  1.00  0.00     0.020 C 
HETATM   14  C22 UNL     1      -0.965  53.691  -8.240  1.00  0.00     0.021 C 
HETATM   15  C23 UNL     1      -2.046  52.619  -8.348  1.00  0.00     0.080 C 
HETATM   16  C24 UNL     1      -2.475  52.349  -9.766  1.00  0.00     0.135 C 
HETATM   17  O4  UNL     1      -3.671  52.322 -10.058  1.00  0.00    -0.297 OA
HETATM   18  C25 UNL     1      -1.372  52.021 -10.779  1.00  0.00     0.018 C 
HETATM   19  C26 UNL     1      -1.868  52.380 -12.196  1.00  0.00     0.023 C 
HETATM   20  C27 UNL     1      -1.170  50.494 -10.733  1.00  0.00     0.023 C 
HETATM   21  C28 UNL     1      -0.038  52.741 -10.371  1.00  0.00     0.020 C 
HETATM   22  C29 UNL     1       0.914  52.946 -11.549  1.00  0.00     0.090 C 
HETATM   23  C30 UNL     1       2.252  53.462 -11.088  1.00  0.00     0.157 C 
HETATM   24  O5  UNL     1       3.269  53.169 -11.713  1.00  0.00    -0.293 OA
ENDROOT
BRANCH   1  25
HETATM   25  C2  UNL     1       5.871  56.199  -6.560  1.00  0.00    -0.014 C 
HETATM   26  C1  UNL     1       5.141  55.705  -5.303  1.00  0.00     0.010 C 
BRANCH  25  27
HETATM   27  C3  UNL     1       6.323  57.667  -6.393  1.00  0.00     0.007 C 
BRANCH  27  28
HETATM   28  C4  UNL     1       7.095  58.009  -5.108  1.00  0.00     0.035 C 
BRANCH  28  29
HETATM   29  C5  UNL     1       7.782  59.384  -5.001  1.00  0.00     0.154 C 
BRANCH  29  30
HETATM   30  O1  UNL     1       7.061  60.220  -4.084  1.00  0.00    -0.392 OA
HETATM   31  H10 UNL     1       7.316  59.902  -3.194  1.00  0.00     0.210 HD
ENDBRANCH  29  30
BRANCH  29  32
HETATM   32  C6  UNL     1       9.292  59.416  -4.625  1.00  0.00     0.101 C 
HETATM   33  C7  UNL     1       9.574  60.260  -3.383  1.00  0.00     0.051 C 
BRANCH  32  34
HETATM   34  O2  UNL     1      10.024  59.975  -5.735  1.00  0.00    -0.385 OA
HETATM   35  H14 UNL     1      10.501  59.229  -6.156  1.00  0.00     0.210 HD
ENDBRANCH  32  34
BRANCH  32  36
HETATM   36  C8  UNL     1       9.818  57.976  -4.399  1.00  0.00     0.204 C 
BRANCH  36  37
HETATM   37  O3  UNL     1      10.871  57.680  -5.319  1.00  0.00    -0.398 OA
HETATM   38  H17 UNL     1      10.512  57.832  -6.219  1.00  0.00     0.209 HD
ENDBRANCH  36  37
ENDBRANCH  32  36
ENDBRANCH  29  32
ENDBRANCH  28  29
ENDBRANCH  27  28
ENDBRANCH  25  27
ENDBRANCH   1  25
TORSDOF 9
ENDMDL
MODEL 2
REMARK minimizedAffinity -7.14323235
REMARK CNNscore 0.676984191
REMARK CNNaffinity 7.00327253
REMARK  9 active torsions:
REMARK  status: ('A' for Active; 'I' for Inactive)
REMARK    1  A    between atoms: C2_2  and  C3_3 
REMARK    2  A    between atoms: C2_2  and  C9_12 
REMARK    3  A    between atoms: C3_3  and  C4_4 
REMARK    4  A    between atoms: C4_4  and  C5_5 
REMARK    5  A    between atoms: C5_5  and  O1_6 
REMARK    6  A    between atoms: C5_5  and  C6_7 
REMARK    7  A    between atoms: C6_7  and  O2_9 
REMARK    8  A    between atoms: C6_7  and  C8_10 
REMARK    9  A    between atoms: C8_10  and  O3_11 
ROOT
HETATM    1  C9  UNL     1      -2.114  52.369 -10.928  1.00  0.00    -0.002 C 
HETATM    2  C10 UNL     1      -2.838  52.699  -9.594  1.00  0.00     0.007 C 
HETATM    3  C11 UNL     1      -1.863  53.535  -8.744  1.00  0.00     0.015 C 
HETATM    4  C12 UNL     1      -0.795  54.036  -9.737  1.00  0.00    -0.005 C 
HETATM    5  C13 UNL     1      -1.397  55.279 -10.466  1.00  0.00     0.021 C 
HETATM    6  C14 UNL     1       0.568  54.509  -9.244  1.00  0.00    -0.000 C 
HETATM    7  C15 UNL     1       1.679  54.385 -10.017  1.00  0.00    -0.060 C 
HETATM    8  C16 UNL     1       1.593  53.715 -11.402  1.00  0.00     0.036 C 
HETATM    9  C17 UNL     1       0.227  53.143 -11.841  1.00  0.00     0.015 C 
HETATM   10  C18 UNL     1      -0.629  52.744 -10.633  1.00  0.00    -0.028 C 
HETATM   11  C19 UNL     1       0.082  51.576  -9.889  1.00  0.00     0.016 C 
HETATM   12  C20 UNL     1       3.083  54.892  -9.585  1.00  0.00    -0.014 C 
HETATM   13  C21 UNL     1       3.350  56.198 -10.370  1.00  0.00     0.020 C 
HETATM   14  C22 UNL     1       4.175  53.841  -9.943  1.00  0.00     0.021 C 
HETATM   15  C23 UNL     1       5.479  53.919  -9.153  1.00  0.00     0.080 C 
HETATM   16  C24 UNL     1       5.645  55.217  -8.408  1.00  0.00     0.135 C 
HETATM   17  O4  UNL     1       6.697  55.852  -8.494  1.00  0.00    -0.297 OA
HETATM   18  C25 UNL     1       4.499  55.643  -7.484  1.00  0.00     0.018 C 
HETATM   19  C26 UNL     1       4.536  57.176  -7.310  1.00  0.00     0.023 C 
HETATM   20  C27 UNL     1       4.787  55.014  -6.105  1.00  0.00     0.023 C 
HETATM   21  C28 UNL     1       3.134  55.097  -8.036  1.00  0.00     0.020 C 
HETATM   22  C29 UNL     1       1.929  55.899  -7.545  1.00  0.00     0.090 C 
HETATM   23  C30 UNL     1       0.635  55.237  -7.937  1.00  0.00     0.157 C 
HETATM   24  O5  UNL     1      -0.357  55.360  -7.220  1.00  0.00    -0.293 OA
ENDROOT
BRANCH   1  25
HETATM   25  C2  UNL     1      -2.550  51.007 -11.550  1.00  0.00    -0.014 C 
HETATM   26  C1  UNL     1      -1.557  49.842 -11.427  1.00  0.00     0.010 C 
BRANCH  25  27
HETATM   27  C3  UNL     1      -3.017  51.180 -13.013  1.00  0.00     0.007 C 
BRANCH  27  28
HETATM   28  C4  UNL     1      -1.935  51.073 -14.100  1.00  0.00     0.035 C 
BRANCH  28  29
HETATM   29  C5  UNL     1      -2.313  50.464 -15.464  1.00  0.00     0.154 C 
BRANCH  29  30
HETATM   30  O1  UNL     1      -3.489  51.107 -15.975  1.00  0.00    -0.392 OA
HETATM   31  H10 UNL     1      -3.180  51.967 -16.323  1.00  0.00     0.210 HD
ENDBRANCH  29  30
BRANCH  29  32
HETATM   32  C6  UNL     1      -1.227  50.447 -16.579  1.00  0.00     0.101 C 
HETATM   33  C7  UNL     1       0.113  51.008 -16.107  1.00  0.00     0.051 C 
BRANCH  32  34
HETATM   34  O2  UNL     1      -1.697  51.248 -17.682  1.00  0.00    -0.385 OA
HETATM   35  H14 UNL     1      -1.942  50.621 -18.395  1.00  0.00     0.210 HD
ENDBRANCH  32  34
BRANCH  32  36
HETATM   36  C8  UNL     1      -1.023  49.003 -17.105  1.00  0.00     0.204 C 
BRANCH  36  37
HETATM   37  O3  UNL     1       0.012  48.347 -16.369  1.00  0.00    -0.398 OA
HETATM   38  H17 UNL     1       0.812  48.910 -16.441  1.00  0.00     0.209 HD
ENDBRANCH  36  37
ENDBRANCH  32  36
ENDBRANCH  29  32
ENDBRANCH  28  29
ENDBRANCH  27  28
ENDBRANCH  25  27
ENDBRANCH   1  25
TORSDOF 9
ENDMDL
MODEL 3
REMARK minimizedAffinity -7.22487116
REMARK CNNscore 0.671098232
REMARK CNNaffinity 7.08412313
REMARK  9 active torsions:
REMARK  status: ('A' for Active; 'I' for Inactive)
REMARK    1  A    between atoms: C2_2  and  C3_3 
REMARK    2  A    between atoms: C2_2  and  C9_12 
REMARK    3  A    between atoms: C3_3  and  C4_4 
REMARK    4  A    between atoms: C4_4  and  C5_5 
REMARK    5  A    between atoms: C5_5  and  O1_6 
REMARK    6  A    between atoms: C5_5  and  C6_7 
REMARK    7  A    between atoms: C6_7  and  O2_9 
REMARK    8  A    between atoms: C6_7  and  C8_10 
REMARK    9  A    between atoms: C8_10  and  O3_11 
ROOT
HETATM    1  C9  UNL     1      -2.408  52.615 -10.879  1.00  0.00    -0.002 C 
HETATM    2  C10 UNL     1      -3.064  53.017  -9.528  1.00  0.00     0.007 C 
HETATM    3  C11 UNL     1      -2.011  53.808  -8.731  1.00  0.00     0.015 C 
HETATM    4  C12 UNL     1      -0.950  54.221  -9.770  1.00  0.00    -0.005 C 
HETATM    5  C13 UNL     1      -1.499  55.485 -10.506  1.00  0.00     0.021 C 
HETATM    6  C14 UNL     1       0.456  54.619  -9.334  1.00  0.00    -0.000 C 
HETATM    7  C15 UNL     1       1.531  54.410 -10.142  1.00  0.00    -0.060 C 
HETATM    8  C16 UNL     1       1.355  53.719 -11.507  1.00  0.00     0.036 C 
HETATM    9  C17 UNL     1      -0.058  53.224 -11.887  1.00  0.00     0.015 C 
HETATM   10  C18 UNL     1      -0.894  52.903 -10.643  1.00  0.00    -0.028 C 
HETATM   11  C19 UNL     1      -0.231  51.708  -9.897  1.00  0.00     0.016 C 
HETATM   12  C20 UNL     1       2.977  54.837  -9.769  1.00  0.00    -0.014 C 
HETATM   13  C21 UNL     1       3.296  56.108 -10.591  1.00  0.00     0.020 C 
HETATM   14  C22 UNL     1       3.990  53.714 -10.140  1.00  0.00     0.021 C 
HETATM   15  C23 UNL     1       5.323  53.727  -9.397  1.00  0.00     0.080 C 
HETATM   16  C24 UNL     1       5.594  55.026  -8.687  1.00  0.00     0.135 C 
HETATM   17  O4  UNL     1       6.679  55.593  -8.822  1.00  0.00    -0.297 OA
HETATM   18  C25 UNL     1       4.509  55.541  -7.734  1.00  0.00     0.018 C 
HETATM   19  C26 UNL     1       4.646  57.073  -7.596  1.00  0.00     0.023 C 
HETATM   20  C27 UNL     1       4.807  54.925  -6.352  1.00  0.00     0.023 C 
HETATM   21  C28 UNL     1       3.095  55.071  -8.227  1.00  0.00     0.020 C 
HETATM   22  C29 UNL     1       1.960  55.956  -7.714  1.00  0.00     0.090 C 
HETATM   23  C30 UNL     1       0.614  55.367  -8.047  1.00  0.00     0.157 C 
HETATM   24  O5  UNL     1      -0.342  55.567  -7.300  1.00  0.00    -0.293 OA
ENDROOT
BRANCH   1  25
HETATM   25  C2  UNL     1      -2.949  51.271 -11.455  1.00  0.00    -0.014 C 
HETATM   26  C1  UNL     1      -2.837  51.075 -12.973  1.00  0.00     0.010 C 
BRANCH  25  27
HETATM   27  C3  UNL     1      -4.389  50.988 -10.969  1.00  0.00     0.007 C 
BRANCH  27  28
HETATM   28  C4  UNL     1      -4.810  49.512 -10.884  1.00  0.00     0.035 C 
BRANCH  28  29
HETATM   29  C5  UNL     1      -6.166  49.165 -10.237  1.00  0.00     0.154 C 
BRANCH  29  30
HETATM   30  O1  UNL     1      -6.978  50.343 -10.146  1.00  0.00    -0.392 OA
HETATM   31  H10 UNL     1      -7.323  50.487 -11.050  1.00  0.00     0.210 HD
ENDBRANCH  29  30
BRANCH  29  32
HETATM   32  C6  UNL     1      -7.008  48.025 -10.880  1.00  0.00     0.101 C 
HETATM   33  C7  UNL     1      -6.702  46.654 -10.279  1.00  0.00     0.051 C 
BRANCH  32  34
HETATM   34  O2  UNL     1      -6.712  47.983 -12.291  1.00  0.00    -0.385 OA
HETATM   35  H14 UNL     1      -7.498  48.349 -12.749  1.00  0.00     0.210 HD
ENDBRANCH  32  34
BRANCH  32  36
HETATM   36  C8  UNL     1      -8.521  48.326 -10.730  1.00  0.00     0.204 C 
BRANCH  36  37
HETATM   37  O3  UNL     1      -9.049  48.843 -11.954  1.00  0.00    -0.398 OA
HETATM   38  H17 UNL     1      -8.511  49.629 -12.186  1.00  0.00     0.209 HD
ENDBRANCH  36  37
ENDBRANCH  32  36
ENDBRANCH  29  32
ENDBRANCH  28  29
ENDBRANCH  27  28
ENDBRANCH  25  27
ENDBRANCH   1  25
TORSDOF 9
ENDMDL
MODEL 4
REMARK minimizedAffinity -8.38321495
REMARK CNNscore 0.6691221
REMARK CNNaffinity 7.03203821
REMARK  9 active torsions:
REMARK  status: ('A' for Active; 'I' for Inactive)
REMARK    1  A    between atoms: C2_2  and  C3_3 
REMARK    2  A    between atoms: C2_2  and  C9_12 
REMARK    3  A    between atoms: C3_3  and  C4_4 
REMARK    4  A    between atoms: C4_4  and  C5_5 
REMARK    5  A    between atoms: C5_5  and  O1_6 
REMARK    6  A    between atoms: C5_5  and  C6_7 
REMARK    7  A    between atoms: C6_7  and  O2_9 
REMARK    8  A    between atoms: C6_7  and  C8_10 
REMARK    9  A    between atoms: C8_10  and  O3_11 
ROOT
HETATM    1  C9  UNL     1      -2.796  48.022 -19.507  1.00  0.00    -0.002 C 
HETATM    2  C10 UNL     1      -1.515  48.441 -18.735  1.00  0.00     0.007 C 
HETATM    3  C11 UNL     1      -0.782  49.480 -19.604  1.00  0.00     0.015 C 
HETATM    4  C12 UNL     1      -1.832  49.960 -20.625  1.00  0.00    -0.005 C 
HETATM    5  C13 UNL     1      -2.715  51.028 -19.903  1.00  0.00     0.021 C 
HETATM    6  C14 UNL     1      -1.406  50.637 -21.923  1.00  0.00    -0.000 C 
HETATM    7  C15 UNL     1      -2.159  50.534 -23.052  1.00  0.00    -0.060 C 
HETATM    8  C16 UNL     1      -3.445  49.687 -23.055  1.00  0.00     0.036 C 
HETATM    9  C17 UNL     1      -3.805  48.920 -21.763  1.00  0.00     0.015 C 
HETATM   10  C18 UNL     1      -2.554  48.589 -20.940  1.00  0.00    -0.028 C 
HETATM   11  C19 UNL     1      -1.667  47.610 -21.762  1.00  0.00     0.016 C 
HETATM   12  C20 UNL     1      -1.797  51.240 -24.387  1.00  0.00    -0.014 C 
HETATM   13  C21 UNL     1      -2.744  52.456 -24.523  1.00  0.00     0.020 C 
HETATM   14  C22 UNL     1      -2.018  50.276 -25.590  1.00  0.00     0.021 C 
HETATM   15  C23 UNL     1      -1.247  50.595 -26.868  1.00  0.00     0.080 C 
HETATM   16  C24 UNL     1      -0.675  51.988 -26.886  1.00  0.00     0.135 C 
HETATM   17  O4  UNL     1      -0.844  52.715 -27.864  1.00  0.00    -0.297 OA
HETATM   18  C25 UNL     1       0.188  52.403 -25.689  1.00  0.00     0.018 C 
HETATM   19  C26 UNL     1       0.162  53.941 -25.560  1.00  0.00     0.023 C 
HETATM   20  C27 UNL     1       1.635  51.992 -26.025  1.00  0.00     0.023 C 
HETATM   21  C28 UNL     1      -0.287  51.648 -24.397  1.00  0.00     0.020 C 
HETATM   22  C29 UNL     1       0.097  52.372 -23.107  1.00  0.00     0.090 C 
HETATM   23  C30 UNL     1      -0.204  51.530 -21.896  1.00  0.00     0.157 C 
HETATM   24  O5  UNL     1       0.492  51.637 -20.888  1.00  0.00    -0.293 OA
ENDROOT
BRANCH   1  25
HETATM   25  C2  UNL     1      -3.236  46.552 -19.227  1.00  0.00    -0.014 C 
HETATM   26  C1  UNL     1      -3.803  45.763 -20.415  1.00  0.00     0.010 C 
BRANCH  25  27
HETATM   27  C3  UNL     1      -4.185  46.471 -18.009  1.00  0.00     0.007 C 
BRANCH  27  28
HETATM   28  C4  UNL     1      -4.052  47.584 -16.956  1.00  0.00     0.035 C 
BRANCH  28  29
HETATM   29  C5  UNL     1      -3.267  47.289 -15.663  1.00  0.00     0.154 C 
BRANCH  29  30
HETATM   30  O1  UNL     1      -2.189  46.386 -15.942  1.00  0.00    -0.392 OA
HETATM   31  H10 UNL     1      -1.498  46.935 -16.365  1.00  0.00     0.210 HD
ENDBRANCH  29  30
BRANCH  29  32
HETATM   32  C6  UNL     1      -2.711  48.499 -14.857  1.00  0.00     0.101 C 
HETATM   33  C7  UNL     1      -3.094  48.449 -13.379  1.00  0.00     0.051 C 
BRANCH  32  34
HETATM   34  O2  UNL     1      -3.247  49.709 -15.430  1.00  0.00    -0.385 OA
HETATM   35  H14 UNL     1      -2.509  50.137 -15.912  1.00  0.00     0.210 HD
ENDBRANCH  32  34
BRANCH  32  36
HETATM   36  C8  UNL     1      -1.168  48.565 -14.987  1.00  0.00     0.204 C 
BRANCH  36  37
HETATM   37  O3  UNL     1      -0.571  48.797 -13.709  1.00  0.00    -0.398 OA
HETATM   38  H17 UNL     1      -0.973  49.617 -13.352  1.00  0.00     0.209 HD
ENDBRANCH  36  37
ENDBRANCH  32  36
ENDBRANCH  29  32
ENDBRANCH  28  29
ENDBRANCH  27  28
ENDBRANCH  25  27
ENDBRANCH   1  25
TORSDOF 9
ENDMDL
MODEL 5
REMARK minimizedAffinity -7.75290155
REMARK CNNscore 0.664139152
REMARK CNNaffinity 6.85048294
REMARK  9 active torsions:
REMARK  status: ('A' for Active; 'I' for Inactive)
REMARK    1  A    between atoms: C2_2  and  C3_3 
REMARK    2  A    between atoms: C2_2  and  C9_12 
REMARK    3  A    between atoms: C3_3  and  C4_4 
REMARK    4  A    between atoms: C4_4  and  C5_5 
REMARK    5  A    between atoms: C5_5  and  O1_6 
REMARK    6  A    between atoms: C5_5  and  C6_7 
REMARK    7  A    between atoms: C6_7  and  O2_9 
REMARK    8  A    between atoms: C6_7  and  C8_10 
REMARK    9  A    between atoms: C8_10  and  O3_11 
ROOT
HETATM    1  C9  UNL     1       5.258  56.119  -7.961  1.00  0.00    -0.002 C 
HETATM    2  C10 UNL     1       6.078  55.200  -8.908  1.00  0.00     0.007 C 
HETATM    3  C11 UNL     1       5.066  54.393  -9.742  1.00  0.00     0.015 C 
HETATM    4  C12 UNL     1       3.730  55.145  -9.588  1.00  0.00    -0.005 C 
HETATM    5  C13 UNL     1       3.763  56.344 -10.590  1.00  0.00     0.021 C 
HETATM    6  C14 UNL     1       2.404  54.448  -9.877  1.00  0.00    -0.000 C 
HETATM    7  C15 UNL     1       1.264  54.806  -9.227  1.00  0.00    -0.060 C 
HETATM    8  C16 UNL     1       1.296  55.900  -8.144  1.00  0.00     0.036 C 
HETATM    9  C17 UNL     1       2.665  56.520  -7.787  1.00  0.00     0.015 C 
HETATM   10  C18 UNL     1       3.813  55.541  -8.060  1.00  0.00    -0.028 C 
HETATM   11  C19 UNL     1       3.657  54.319  -7.107  1.00  0.00     0.016 C 
HETATM   12  C20 UNL     1      -0.121  54.163  -9.514  1.00  0.00    -0.014 C 
HETATM   13  C21 UNL     1      -0.926  55.186 -10.349  1.00  0.00     0.020 C 
HETATM   14  C22 UNL     1      -0.874  53.875  -8.181  1.00  0.00     0.021 C 
HETATM   15  C23 UNL     1      -1.965  52.809  -8.233  1.00  0.00     0.080 C 
HETATM   16  C24 UNL     1      -2.388  52.459  -9.635  1.00  0.00     0.135 C 
HETATM   17  O4  UNL     1      -3.583  52.426  -9.933  1.00  0.00    -0.297 OA
HETATM   18  C25 UNL     1      -1.282  52.062 -10.619  1.00  0.00     0.018 C 
HETATM   19  C26 UNL     1      -1.766  52.340 -12.058  1.00  0.00     0.023 C 
HETATM   20  C27 UNL     1      -1.096  50.537 -10.481  1.00  0.00     0.023 C 
HETATM   21  C28 UNL     1       0.056  52.792 -10.245  1.00  0.00     0.020 C 
HETATM   22  C29 UNL     1       1.017  52.917 -11.427  1.00  0.00     0.090 C 
HETATM   23  C30 UNL     1       2.357  53.447 -10.989  1.00  0.00     0.157 C 
HETATM   24  O5  UNL     1       3.375  53.107 -11.589  1.00  0.00    -0.293 OA
ENDROOT
BRANCH   1  25
HETATM   25  C2  UNL     1       5.976  56.413  -6.608  1.00  0.00    -0.014 C 
HETATM   26  C1  UNL     1       5.871  57.846  -6.068  1.00  0.00     0.010 C 
BRANCH  25  27
HETATM   27  C3  UNL     1       7.448  55.943  -6.637  1.00  0.00     0.007 C 
BRANCH  27  28
HETATM   28  C4  UNL     1       8.265  56.152  -5.351  1.00  0.00     0.035 C 
BRANCH  28  29
HETATM   29  C5  UNL     1       9.802  56.201  -5.450  1.00  0.00     0.154 C 
BRANCH  29  30
HETATM   30  O1  UNL     1      10.254  57.557  -5.339  1.00  0.00    -0.392 OA
HETATM   31  H10 UNL     1      10.201  57.768  -4.385  1.00  0.00     0.210 HD
ENDBRANCH  29  30
BRANCH  29  32
HETATM   32  C6  UNL     1      10.623  55.317  -4.467  1.00  0.00     0.101 C 
HETATM   33  C7  UNL     1       9.924  54.000  -4.132  1.00  0.00     0.051 C 
BRANCH  32  34
HETATM   34  O2  UNL     1      10.815  56.058  -3.244  1.00  0.00    -0.385 OA
HETATM   35  H14 UNL     1      11.756  56.334  -3.234  1.00  0.00     0.210 HD
ENDBRANCH  32  34
BRANCH  32  36
HETATM   36  C8  UNL     1      12.024  55.019  -5.057  1.00  0.00     0.204 C 
BRANCH  36  37
HETATM   37  O3  UNL     1      12.735  56.238  -5.291  1.00  0.00    -0.398 OA
HETATM   38  H17 UNL     1      12.170  56.788  -5.874  1.00  0.00     0.209 HD
ENDBRANCH  36  37
ENDBRANCH  32  36
ENDBRANCH  29  32
ENDBRANCH  28  29
ENDBRANCH  27  28
ENDBRANCH  25  27
ENDBRANCH   1  25
TORSDOF 9
ENDMDL
MODEL 6
REMARK minimizedAffinity -7.92318678
REMARK CNNscore 0.645964026
REMARK CNNaffinity 7.17698622
REMARK  9 active torsions:
REMARK  status: ('A' for Active; 'I' for Inactive)
REMARK    1  A    between atoms: C2_2  and  C3_3 
REMARK    2  A    between atoms: C2_2  and  C9_12 
REMARK    3  A    between atoms: C3_3  and  C4_4 
REMARK    4  A    between atoms: C4_4  and  C5_5 
REMARK    5  A    between atoms: C5_5  and  O1_6 
REMARK    6  A    between atoms: C5_5  and  C6_7 
REMARK    7  A    between atoms: C6_7  and  O2_9 
REMARK    8  A    between atoms: C6_7  and  C8_10 
REMARK    9  A    between atoms: C8_10  and  O3_11 
ROOT
HETATM    1  C9  UNL     1      -3.017  47.837 -19.556  1.00  0.00    -0.002 C 
HETATM    2  C10 UNL     1      -1.742  48.213 -18.753  1.00  0.00     0.007 C 
HETATM    3  C11 UNL     1      -0.973  49.254 -19.587  1.00  0.00     0.015 C 
HETATM    4  C12 UNL     1      -1.994  49.777 -20.616  1.00  0.00    -0.005 C 
HETATM    5  C13 UNL     1      -2.869  50.847 -19.888  1.00  0.00     0.021 C 
HETATM    6  C14 UNL     1      -1.532  50.471 -21.892  1.00  0.00    -0.000 C 
HETATM    7  C15 UNL     1      -2.266  50.407 -23.036  1.00  0.00    -0.060 C 
HETATM    8  C16 UNL     1      -3.568  49.587 -23.079  1.00  0.00     0.036 C 
HETATM    9  C17 UNL     1      -3.967  48.801 -21.811  1.00  0.00     0.015 C 
HETATM   10  C18 UNL     1      -2.738  48.428 -20.972  1.00  0.00    -0.028 C 
HETATM   11  C19 UNL     1      -1.856  47.447 -21.799  1.00  0.00     0.016 C 
HETATM   12  C20 UNL     1      -1.867  51.133 -24.350  1.00  0.00    -0.014 C 
HETATM   13  C21 UNL     1      -2.786  52.370 -24.477  1.00  0.00     0.020 C 
HETATM   14  C22 UNL     1      -2.084  50.198 -25.576  1.00  0.00     0.021 C 
HETATM   15  C23 UNL     1      -1.284  50.527 -26.834  1.00  0.00     0.080 C 
HETATM   16  C24 UNL     1      -0.685  51.908 -26.812  1.00  0.00     0.135 C 
HETATM   17  O4  UNL     1      -0.821  52.659 -27.778  1.00  0.00    -0.297 OA
HETATM   18  C25 UNL     1       0.165  52.281 -25.591  1.00  0.00     0.018 C 
HETATM   19  C26 UNL     1       0.167  53.817 -25.431  1.00  0.00     0.023 C 
HETATM   20  C27 UNL     1       1.610  51.848 -25.911  1.00  0.00     0.023 C 
HETATM   21  C28 UNL     1      -0.349  51.510 -24.325  1.00  0.00     0.020 C 
HETATM   22  C29 UNL     1       0.027  52.199 -23.013  1.00  0.00     0.090 C 
HETATM   23  C30 UNL     1      -0.313  51.338 -21.825  1.00  0.00     0.157 C 
HETATM   24  O5  UNL     1       0.367  51.411 -20.803  1.00  0.00    -0.293 OA
ENDROOT
BRANCH   1  25
HETATM   25  C2  UNL     1      -3.492  46.371 -19.314  1.00  0.00    -0.014 C 
HETATM   26  C1  UNL     1      -4.131  45.646 -20.507  1.00  0.00     0.010 C 
BRANCH  25  27
HETATM   27  C3  UNL     1      -4.393  46.270 -18.063  1.00  0.00     0.007 C 
BRANCH  27  28
HETATM   28  C4  UNL     1      -5.300  45.032 -17.964  1.00  0.00     0.035 C 
BRANCH  28  29
HETATM   29  C5  UNL     1      -6.739  45.208 -17.444  1.00  0.00     0.154 C 
BRANCH  29  30
HETATM   30  O1  UNL     1      -7.650  44.473 -18.272  1.00  0.00    -0.392 OA
HETATM   31  H10 UNL     1      -7.550  43.539 -17.997  1.00  0.00     0.210 HD
ENDBRANCH  29  30
BRANCH  29  32
HETATM   32  C6  UNL     1      -7.023  44.858 -15.954  1.00  0.00     0.101 C 
HETATM   33  C7  UNL     1      -6.295  43.595 -15.496  1.00  0.00     0.051 C 
BRANCH  32  34
HETATM   34  O2  UNL     1      -8.442  44.651 -15.799  1.00  0.00    -0.385 OA
HETATM   35  H14 UNL     1      -8.784  45.434 -15.318  1.00  0.00     0.210 HD
ENDBRANCH  32  34
BRANCH  32  36
HETATM   36  C8  UNL     1      -6.622  46.043 -15.039  1.00  0.00     0.204 C 
BRANCH  36  37
HETATM   37  O3  UNL     1      -7.770  46.826 -14.707  1.00  0.00    -0.398 OA
HETATM   38  H17 UNL     1      -8.180  47.102 -15.555  1.00  0.00     0.209 HD
ENDBRANCH  36  37
ENDBRANCH  32  36
ENDBRANCH  29  32
ENDBRANCH  28  29
ENDBRANCH  27  28
ENDBRANCH  25  27
ENDBRANCH   1  25
TORSDOF 9
ENDMDL
MODEL 7
REMARK minimizedAffinity -8.4360733
REMARK CNNscore 0.594756365
REMARK CNNaffinity 7.16727304
REMARK  9 active torsions:
REMARK  status: ('A' for Active; 'I' for Inactive)
REMARK    1  A    between atoms: C2_2  and  C3_3 
REMARK    2  A    between atoms: C2_2  and  C9_12 
REMARK    3  A    between atoms: C3_3  and  C4_4 
REMARK    4  A    between atoms: C4_4  and  C5_5 
REMARK    5  A    between atoms: C5_5  and  O1_6 
REMARK    6  A    between atoms: C5_5  and  C6_7 
REMARK    7  A    between atoms: C6_7  and  O2_9 
REMARK    8  A    between atoms: C6_7  and  C8_10 
REMARK    9  A    between atoms: C8_10  and  O3_11 
ROOT
HETATM    1  C9  UNL     1      -2.837  48.105 -19.242  1.00  0.00    -0.002 C 
HETATM    2  C10 UNL     1      -1.555  48.548 -18.483  1.00  0.00     0.007 C 
HETATM    3  C11 UNL     1      -0.822  49.559 -19.384  1.00  0.00     0.015 C 
HETATM    4  C12 UNL     1      -1.873  50.007 -20.419  1.00  0.00    -0.005 C 
HETATM    5  C13 UNL     1      -2.756  51.097 -19.730  1.00  0.00     0.021 C 
HETATM    6  C14 UNL     1      -1.447  50.644 -21.737  1.00  0.00    -0.000 C 
HETATM    7  C15 UNL     1      -2.200  50.506 -22.862  1.00  0.00    -0.060 C 
HETATM    8  C16 UNL     1      -3.486  49.659 -22.839  1.00  0.00     0.036 C 
HETATM    9  C17 UNL     1      -3.846  48.933 -21.524  1.00  0.00     0.015 C 
HETATM   10  C18 UNL     1      -2.595  48.627 -20.691  1.00  0.00    -0.028 C 
HETATM   11  C19 UNL     1      -1.707  47.623 -21.483  1.00  0.00     0.016 C 
HETATM   12  C20 UNL     1      -1.839  51.171 -24.219  1.00  0.00    -0.014 C 
HETATM   13  C21 UNL     1      -2.786  52.381 -24.392  1.00  0.00     0.020 C 
HETATM   14  C22 UNL     1      -2.059  50.170 -25.392  1.00  0.00     0.021 C 
HETATM   15  C23 UNL     1      -1.288  50.449 -26.679  1.00  0.00     0.080 C 
HETATM   16  C24 UNL     1      -0.717  51.840 -26.739  1.00  0.00     0.135 C 
HETATM   17  O4  UNL     1      -0.885  52.538 -27.740  1.00  0.00    -0.297 OA
HETATM   18  C25 UNL     1       0.146  52.293 -25.556  1.00  0.00     0.018 C 
HETATM   19  C26 UNL     1       0.120  53.834 -25.474  1.00  0.00     0.023 C 
HETATM   20  C27 UNL     1       1.594  51.872 -25.880  1.00  0.00     0.023 C 
HETATM   21  C28 UNL     1      -0.329  51.578 -24.242  1.00  0.00     0.020 C 
HETATM   22  C29 UNL     1       0.056  52.342 -22.975  1.00  0.00     0.090 C 
HETATM   23  C30 UNL     1      -0.245  51.537 -21.738  1.00  0.00     0.157 C 
HETATM   24  O5  UNL     1       0.451  51.675 -20.734  1.00  0.00    -0.293 OA
ENDROOT
BRANCH   1  25
HETATM   25  C2  UNL     1      -3.277  46.645 -18.916  1.00  0.00    -0.014 C 
HETATM   26  C1  UNL     1      -4.703  46.247 -19.321  1.00  0.00     0.010 C 
BRANCH  25  27
HETATM   27  C3  UNL     1      -3.007  46.292 -17.436  1.00  0.00     0.007 C 
BRANCH  27  28
HETATM   28  C4  UNL     1      -3.510  44.923 -16.950  1.00  0.00     0.035 C 
BRANCH  28  29
HETATM   29  C5  UNL     1      -2.479  43.884 -16.467  1.00  0.00     0.154 C 
BRANCH  29  30
HETATM   30  O1  UNL     1      -2.556  43.748 -15.041  1.00  0.00    -0.392 OA
HETATM   31  H10 UNL     1      -3.348  43.196 -14.879  1.00  0.00     0.210 HD
ENDBRANCH  29  30
BRANCH  29  32
HETATM   32  C6  UNL     1      -2.518  42.466 -17.108  1.00  0.00     0.101 C 
HETATM   33  C7  UNL     1      -3.221  41.437 -16.224  1.00  0.00     0.051 C 
BRANCH  32  34
HETATM   34  O2  UNL     1      -1.161  42.031 -17.330  1.00  0.00    -0.385 OA
HETATM   35  H14 UNL     1      -1.008  42.084 -18.297  1.00  0.00     0.210 HD
ENDBRANCH  32  34
BRANCH  32  36
HETATM   36  C8  UNL     1      -3.221  42.523 -18.489  1.00  0.00     0.204 C 
BRANCH  36  37
HETATM   37  O3  UNL     1      -2.792  41.434 -19.310  1.00  0.00    -0.398 OA
HETATM   38  H17 UNL     1      -1.814  41.485 -19.362  1.00  0.00     0.209 HD
ENDBRANCH  36  37
ENDBRANCH  32  36
ENDBRANCH  29  32
ENDBRANCH  28  29
ENDBRANCH  27  28
ENDBRANCH  25  27
ENDBRANCH   1  25
TORSDOF 9
ENDMDL
MODEL 8
REMARK minimizedAffinity -8.89209461
REMARK CNNscore 0.489600688
REMARK CNNaffinity 7.10762739
REMARK  9 active torsions:
REMARK  status: ('A' for Active; 'I' for Inactive)
REMARK    1  A    between atoms: C2_2  and  C3_3 
REMARK    2  A    between atoms: C2_2  and  C9_12 
REMARK    3  A    between atoms: C3_3  and  C4_4 
REMARK    4  A    between atoms: C4_4  and  C5_5 
REMARK    5  A    between atoms: C5_5  and  O1_6 
REMARK    6  A    between atoms: C5_5  and  C6_7 
REMARK    7  A    between atoms: C6_7  and  O2_9 
REMARK    8  A    between atoms: C6_7  and  C8_10 
REMARK    9  A    between atoms: C8_10  and  O3_11 
ROOT
HETATM    1  C9  UNL     1      -2.724  48.410 -19.103  1.00  0.00    -0.002 C 
HETATM    2  C10 UNL     1      -1.402  48.825 -18.400  1.00  0.00     0.007 C 
HETATM    3  C11 UNL     1      -0.661  49.778 -19.356  1.00  0.00     0.015 C 
HETATM    4  C12 UNL     1      -1.726  50.235 -20.371  1.00  0.00    -0.005 C 
HETATM    5  C13 UNL     1      -2.544  51.379 -19.691  1.00  0.00     0.021 C 
HETATM    6  C14 UNL     1      -1.319  50.812 -21.723  1.00  0.00    -0.000 C 
HETATM    7  C15 UNL     1      -2.113  50.669 -22.818  1.00  0.00    -0.060 C 
HETATM    8  C16 UNL     1      -3.430  49.875 -22.727  1.00  0.00     0.036 C 
HETATM    9  C17 UNL     1      -3.774  49.204 -21.379  1.00  0.00     0.015 C 
HETATM   10  C18 UNL     1      -2.510  48.876 -20.576  1.00  0.00    -0.028 C 
HETATM   11  C19 UNL     1      -1.687  47.813 -21.361  1.00  0.00     0.016 C 
HETATM   12  C20 UNL     1      -1.771  51.276 -24.207  1.00  0.00    -0.014 C 
HETATM   13  C21 UNL     1      -2.676  52.517 -24.389  1.00  0.00     0.020 C 
HETATM   14  C22 UNL     1      -2.068  50.248 -25.338  1.00  0.00     0.021 C 
HETATM   15  C23 UNL     1      -1.329  50.456 -26.658  1.00  0.00     0.080 C 
HETATM   16  C24 UNL     1      -0.707  51.821 -26.781  1.00  0.00     0.135 C 
HETATM   17  O4  UNL     1      -0.881  52.493 -27.799  1.00  0.00    -0.297 OA
HETATM   18  C25 UNL     1       0.211  52.276 -25.641  1.00  0.00     0.018 C 
HETATM   19  C26 UNL     1       0.246  53.819 -25.609  1.00  0.00     0.023 C 
HETATM   20  C27 UNL     1       1.630  51.788 -25.996  1.00  0.00     0.023 C 
HETATM   21  C28 UNL     1      -0.248  51.622 -24.290  1.00  0.00     0.020 C 
HETATM   22  C29 UNL     1       0.207  52.410 -23.061  1.00  0.00     0.090 C 
HETATM   23  C30 UNL     1      -0.085  51.657 -21.790  1.00  0.00     0.157 C 
HETATM   24  O5  UNL     1       0.649  51.799 -20.813  1.00  0.00    -0.293 OA
ENDROOT
BRANCH   1  25
HETATM   25  C2  UNL     1      -3.209  46.979 -18.716  1.00  0.00    -0.014 C 
HETATM   26  C1  UNL     1      -3.601  46.046 -19.871  1.00  0.00     0.010 C 
BRANCH  25  27
HETATM   27  C3  UNL     1      -4.325  47.032 -17.649  1.00  0.00     0.007 C 
BRANCH  27  28
HETATM   28  C4  UNL     1      -5.431  48.079 -17.859  1.00  0.00     0.035 C 
BRANCH  28  29
HETATM   29  C5  UNL     1      -6.902  47.620 -17.831  1.00  0.00     0.154 C 
BRANCH  29  30
HETATM   30  O1  UNL     1      -7.318  47.400 -16.477  1.00  0.00    -0.392 OA
HETATM   31  H10 UNL     1      -7.478  48.294 -16.110  1.00  0.00     0.210 HD
ENDBRANCH  29  30
BRANCH  29  32
HETATM   32  C6  UNL     1      -7.958  48.515 -18.542  1.00  0.00     0.101 C 
HETATM   33  C7  UNL     1      -7.346  49.406 -19.622  1.00  0.00     0.051 C 
BRANCH  32  34
HETATM   34  O2  UNL     1      -8.578  49.358 -17.549  1.00  0.00    -0.385 OA
HETATM   35  H14 UNL     1      -9.482  49.004 -17.411  1.00  0.00     0.210 HD
ENDBRANCH  32  34
BRANCH  32  36
HETATM   36  C8  UNL     1      -9.070  47.637 -19.168  1.00  0.00     0.204 C 
BRANCH  36  37
HETATM   37  O3  UNL     1     -10.258  48.407 -19.369  1.00  0.00    -0.398 OA
HETATM   38  H17 UNL     1     -10.500  48.789 -18.499  1.00  0.00     0.209 HD
ENDBRANCH  36  37
ENDBRANCH  32  36
ENDBRANCH  29  32
ENDBRANCH  28  29
ENDBRANCH  27  28
ENDBRANCH  25  27
ENDBRANCH   1  25
TORSDOF 9
ENDMDL
MODEL 9
REMARK minimizedAffinity -7.51239252
REMARK CNNscore 0.380143613
REMARK CNNaffinity 5.96603346
REMARK  9 active torsions:
REMARK  status: ('A' for Active; 'I' for Inactive)
REMARK    1  A    between atoms: C2_2  and  C3_3 
REMARK    2  A    between atoms: C2_2  and  C9_12 
REMARK    3  A    between atoms: C3_3  and  C4_4 
REMARK    4  A    between atoms: C4_4  and  C5_5 
REMARK    5  A    between atoms: C5_5  and  O1_6 
REMARK    6  A    between atoms: C5_5  and  C6_7 
REMARK    7  A    between atoms: C6_7  and  O2_9 
REMARK    8  A    between atoms: C6_7  and  C8_10 
REMARK    9  A    between atoms: C8_10  and  O3_11 
ROOT
HETATM    1  C9  UNL     1     -10.085  46.858 -29.791  1.00  0.00    -0.002 C 
HETATM    2  C10 UNL     1      -9.628  47.918 -28.752  1.00  0.00     0.007 C 
HETATM    3  C11 UNL     1     -10.577  47.805 -27.544  1.00  0.00     0.015 C 
HETATM    4  C12 UNL     1     -11.267  46.436 -27.704  1.00  0.00    -0.005 C 
HETATM    5  C13 UNL     1     -10.274  45.358 -27.162  1.00  0.00     0.021 C 
HETATM    6  C14 UNL     1     -12.579  46.135 -26.987  1.00  0.00    -0.000 C 
HETATM    7  C15 UNL     1     -13.489  45.273 -27.516  1.00  0.00    -0.060 C 
HETATM    8  C16 UNL     1     -13.231  44.611 -28.882  1.00  0.00     0.036 C 
HETATM    9  C17 UNL     1     -11.949  45.009 -29.645  1.00  0.00     0.015 C 
HETATM   10  C18 UNL     1     -11.488  46.423 -29.269  1.00  0.00    -0.028 C 
HETATM   11  C19 UNL     1     -12.573  47.436 -29.738  1.00  0.00     0.016 C 
HETATM   12  C20 UNL     1     -14.819  44.894 -26.808  1.00  0.00    -0.014 C 
HETATM   13  C21 UNL     1     -14.628  43.475 -26.223  1.00  0.00     0.020 C 
HETATM   14  C22 UNL     1     -15.994  44.879 -27.830  1.00  0.00     0.021 C 
HETATM   15  C23 UNL     1     -17.398  45.046 -27.255  1.00  0.00     0.080 C 
HETATM   16  C24 UNL     1     -17.458  44.839 -25.765  1.00  0.00     0.135 C 
HETATM   17  O4  UNL     1     -18.310  44.097 -25.275  1.00  0.00    -0.297 OA
HETATM   18  C25 UNL     1     -16.488  45.658 -24.906  1.00  0.00     0.018 C 
HETATM   19  C26 UNL     1     -16.248  44.918 -23.573  1.00  0.00     0.023 C 
HETATM   20  C27 UNL     1     -17.202  46.984 -24.576  1.00  0.00     0.023 C 
HETATM   21  C28 UNL     1     -15.176  45.954 -25.715  1.00  0.00     0.020 C 
HETATM   22  C29 UNL     1     -13.974  46.247 -24.816  1.00  0.00     0.090 C 
HETATM   23  C30 UNL     1     -12.788  46.710 -25.621  1.00  0.00     0.157 C 
HETATM   24  O5  UNL     1     -11.981  47.493 -25.124  1.00  0.00    -0.293 OA
ENDROOT
BRANCH   1  25
HETATM   25  C2  UNL     1      -9.808  47.278 -31.268  1.00  0.00    -0.014 C 
HETATM   26  C1  UNL     1     -10.016  46.202 -32.343  1.00  0.00     0.010 C 
BRANCH  25  27
HETATM   27  C3  UNL     1      -8.419  47.940 -31.414  1.00  0.00     0.007 C 
BRANCH  27  28
HETATM   28  C4  UNL     1      -7.851  48.043 -32.839  1.00  0.00     0.035 C 
BRANCH  28  29
HETATM   29  C5  UNL     1      -6.565  47.266 -33.181  1.00  0.00     0.154 C 
BRANCH  29  30
HETATM   30  O1  UNL     1      -6.303  47.352 -34.589  1.00  0.00    -0.392 OA
HETATM   31  H10 UNL     1      -5.928  48.246 -34.725  1.00  0.00     0.210 HD
ENDBRANCH  29  30
BRANCH  29  32
HETATM   32  C6  UNL     1      -5.266  47.632 -32.406  1.00  0.00     0.101 C 
HETATM   33  C7  UNL     1      -5.543  48.419 -31.127  1.00  0.00     0.051 C 
BRANCH  32  34
HETATM   34  O2  UNL     1      -4.435  48.436 -33.269  1.00  0.00    -0.385 OA
HETATM   35  H14 UNL     1      -3.691  47.862 -33.549  1.00  0.00     0.210 HD
ENDBRANCH  32  34
BRANCH  32  36
HETATM   36  C8  UNL     1      -4.470  46.348 -32.058  1.00  0.00     0.204 C 
BRANCH  36  37
HETATM   37  O3  UNL     1      -4.505  45.429 -33.152  1.00  0.00    -0.398 OA
HETATM   38  H17 UNL     1      -5.451  45.264 -33.355  1.00  0.00     0.209 HD
ENDBRANCH  36  37
ENDBRANCH  32  36
ENDBRANCH  29  32
ENDBRANCH  28  29
ENDBRANCH  27  28
ENDBRANCH  25  27
ENDBRANCH   1  25
TORSDOF 9
ENDMDL
