MODEL 1
REMARK minimizedAffinity -9.65040207
REMARK  6 active torsions:
REMARK  status: ('A' for Active; 'I' for Inactive)
REMARK    1  A    between atoms: C4_4  and  C5_5 
REMARK    2  A    between atoms: C5_5  and  O1_6 
REMARK    3  A    between atoms: C5_5  and  C6_7 
REMARK    4  A    between atoms: C6_7  and  C7_8 
REMARK    5  A    between atoms: C7_8  and  C9_10 
REMARK    6  A    between atoms: C30_32  and  O3_33 
ROOT
HETATM    1  C9  UNL     1      -1.565  51.073 -23.736  1.00  0.00    -0.002 C 
HETATM    2  C10 UNL     1      -2.504  51.747 -24.777  1.00  0.00     0.007 C 
HETATM    3  C11 UNL     1      -3.861  51.033 -24.708  1.00  0.00     0.015 C 
HETATM    4  C12 UNL     1      -3.587  49.713 -23.965  1.00  0.00    -0.010 C 
HETATM    5  C13 UNL     1      -2.990  48.725 -25.018  1.00  0.00     0.021 C 
HETATM    6  C14 UNL     1      -4.733  48.923 -23.310  1.00  0.00    -0.039 C 
HETATM    7  C15 UNL     1      -4.470  48.112 -22.249  1.00  0.00    -0.066 C 
HETATM    8  C16 UNL     1      -3.068  48.083 -21.613  1.00  0.00     0.036 C 
HETATM    9  C17 UNL     1      -1.972  48.988 -22.201  1.00  0.00     0.015 C 
HETATM   10  C18 UNL     1      -2.559  50.225 -22.879  1.00  0.00    -0.029 C 
HETATM   11  C19 UNL     1      -3.221  51.131 -21.797  1.00  0.00     0.016 C 
HETATM   12  C20 UNL     1      -5.541  47.169 -21.602  1.00  0.00    -0.015 C 
HETATM   13  C21 UNL     1      -4.871  45.790 -21.377  1.00  0.00     0.020 C 
HETATM   14  C22 UNL     1      -5.948  47.796 -20.242  1.00  0.00     0.021 C 
HETATM   15  C23 UNL     1      -7.065  47.056 -19.528  1.00  0.00     0.080 C 
HETATM   16  C24 UNL     1      -8.284  46.945 -20.409  1.00  0.00     0.135 C 
HETATM   17  O2  UNL     1      -9.391  47.273 -19.979  1.00  0.00    -0.297 OA
HETATM   18  C25 UNL     1      -8.096  46.329 -21.801  1.00  0.00     0.018 C 
HETATM   19  C26 UNL     1      -7.973  44.798 -21.634  1.00  0.00     0.023 C 
HETATM   20  C27 UNL     1      -9.396  46.546 -22.620  1.00  0.00     0.023 C 
HETATM   21  C28 UNL     1      -6.831  46.985 -22.509  1.00  0.00     0.016 C 
HETATM   22  C29 UNL     1      -7.204  48.344 -23.130  1.00  0.00     0.043 C 
HETATM   23  C30 UNL     1      -6.089  48.969 -23.961  1.00  0.00     0.148 C 
ENDROOT
BRANCH   1  24
HETATM   24  C7  UNL     1      -0.609  52.109 -23.059  1.00  0.00    -0.011 C 
HETATM   25  C8  UNL     1       0.001  51.573 -21.762  1.00  0.00     0.010 C 
BRANCH  24  26
HETATM   26  C6  UNL     1       0.498  52.541 -24.071  1.00  0.00     0.040 C 
BRANCH  26  27
HETATM   27  C5  UNL     1       0.114  53.685 -25.028  1.00  0.00     0.141 C 
BRANCH  27  28
HETATM   28  C4  UNL     1       0.241  53.268 -26.473  1.00  0.00     0.006 C 
HETATM   29  C2  UNL     1       1.079  52.334 -26.969  1.00  0.00    -0.089 C 
HETATM   30  C1  UNL     1       2.032  51.518 -26.137  1.00  0.00     0.042 C 
HETATM   31  C3  UNL     1       1.109  52.022 -28.442  1.00  0.00     0.042 C 
ENDBRANCH  27  28
BRANCH  27  32
HETATM   32  O1  UNL     1       0.988  54.788 -24.813  1.00  0.00    -0.392 OA
HETATM   33  H9  UNL     1       1.712  54.724 -25.459  1.00  0.00     0.210 HD
ENDBRANCH  27  32
ENDBRANCH  26  27
ENDBRANCH  24  26
ENDBRANCH   1  24
BRANCH  23  34
HETATM   34  O3  UNL     1      -6.487  50.314 -24.200  1.00  0.00    -0.391 OA
HETATM   35  H48 UNL     1      -7.359  50.291 -24.625  1.00  0.00     0.210 HD
ENDBRANCH  23  34
TORSDOF 6
ENDMDL
MODEL 2
REMARK minimizedAffinity -9.3966074
REMARK  6 active torsions:
REMARK  status: ('A' for Active; 'I' for Inactive)
REMARK    1  A    between atoms: C4_4  and  C5_5 
REMARK    2  A    between atoms: C5_5  and  O1_6 
REMARK    3  A    between atoms: C5_5  and  C6_7 
REMARK    4  A    between atoms: C6_7  and  C7_8 
REMARK    5  A    between atoms: C7_8  and  C9_10 
REMARK    6  A    between atoms: C30_32  and  O3_33 
ROOT
HETATM    1  C9  UNL     1      -1.067  51.585 -21.486  1.00  0.00    -0.002 C 
HETATM    2  C10 UNL     1      -0.410  50.339 -20.828  1.00  0.00     0.007 C 
HETATM    3  C11 UNL     1      -1.443  49.203 -20.853  1.00  0.00     0.015 C 
HETATM    4  C12 UNL     1      -2.794  49.889 -21.121  1.00  0.00    -0.010 C 
HETATM    5  C13 UNL     1      -3.283  50.459 -19.752  1.00  0.00     0.021 C 
HETATM    6  C14 UNL     1      -3.995  49.088 -21.650  1.00  0.00    -0.039 C 
HETATM    7  C15 UNL     1      -4.959  49.720 -22.374  1.00  0.00    -0.066 C 
HETATM    8  C16 UNL     1      -4.791  51.194 -22.785  1.00  0.00     0.036 C 
HETATM    9  C17 UNL     1      -3.513  51.937 -22.360  1.00  0.00     0.015 C 
HETATM   10  C18 UNL     1      -2.336  50.980 -22.168  1.00  0.00    -0.029 C 
HETATM   11  C19 UNL     1      -1.947  50.372 -23.550  1.00  0.00     0.016 C 
HETATM   12  C20 UNL     1      -6.282  49.020 -22.839  1.00  0.00    -0.015 C 
HETATM   13  C21 UNL     1      -7.451  49.996 -22.549  1.00  0.00     0.020 C 
HETATM   14  C22 UNL     1      -6.160  48.769 -24.365  1.00  0.00     0.021 C 
HETATM   15  C23 UNL     1      -7.323  47.996 -24.961  1.00  0.00     0.080 C 
HETATM   16  C24 UNL     1      -7.510  46.677 -24.253  1.00  0.00     0.135 C 
HETATM   17  O2  UNL     1      -7.603  45.634 -24.901  1.00  0.00    -0.297 OA
HETATM   18  C25 UNL     1      -7.671  46.711 -22.728  1.00  0.00     0.018 C 
HETATM   19  C26 UNL     1      -9.106  47.183 -22.409  1.00  0.00     0.023 C 
HETATM   20  C27 UNL     1      -7.590  45.259 -22.188  1.00  0.00     0.023 C 
HETATM   21  C28 UNL     1      -6.549  47.644 -22.093  1.00  0.00     0.016 C 
HETATM   22  C29 UNL     1      -5.218  46.879 -21.965  1.00  0.00     0.043 C 
HETATM   23  C30 UNL     1      -4.132  47.650 -21.224  1.00  0.00     0.148 C 
ENDROOT
BRANCH   1  24
HETATM   24  C7  UNL     1      -0.034  52.417 -22.314  1.00  0.00    -0.011 C 
HETATM   25  C8  UNL     1       1.398  52.230 -21.810  1.00  0.00     0.010 C 
BRANCH  24  26
HETATM   26  C6  UNL     1      -0.156  52.049 -23.827  1.00  0.00     0.040 C 
BRANCH  26  27
HETATM   27  C5  UNL     1      -0.179  53.241 -24.801  1.00  0.00     0.141 C 
BRANCH  27  28
HETATM   28  C4  UNL     1      -0.146  52.785 -26.239  1.00  0.00     0.006 C 
HETATM   29  C2  UNL     1       0.834  52.070 -26.833  1.00  0.00    -0.089 C 
HETATM   30  C1  UNL     1       2.073  51.579 -26.133  1.00  0.00     0.042 C 
HETATM   31  C3  UNL     1       0.743  51.689 -28.287  1.00  0.00     0.042 C 
ENDBRANCH  27  28
BRANCH  27  32
HETATM   32  O1  UNL     1       0.968  54.053 -24.574  1.00  0.00    -0.392 OA
HETATM   33  H9  UNL     1       1.657  53.777 -25.202  1.00  0.00     0.210 HD
ENDBRANCH  27  32
ENDBRANCH  26  27
ENDBRANCH  24  26
ENDBRANCH   1  24
BRANCH  23  34
HETATM   34  O3  UNL     1      -2.921  46.940 -21.455  1.00  0.00    -0.391 OA
HETATM   35  H48 UNL     1      -3.057  46.025 -21.160  1.00  0.00     0.210 HD
ENDBRANCH  23  34
TORSDOF 6
ENDMDL
MODEL 3
REMARK minimizedAffinity -9.37050152
REMARK  6 active torsions:
REMARK  status: ('A' for Active; 'I' for Inactive)
REMARK    1  A    between atoms: C4_4  and  C5_5 
REMARK    2  A    between atoms: C5_5  and  O1_6 
REMARK    3  A    between atoms: C5_5  and  C6_7 
REMARK    4  A    between atoms: C6_7  and  C7_8 
REMARK    5  A    between atoms: C7_8  and  C9_10 
REMARK    6  A    between atoms: C30_32  and  O3_33 
ROOT
HETATM    1  C9  UNL     1      -2.045  50.469 -24.926  1.00  0.00    -0.002 C 
HETATM    2  C10 UNL     1      -3.108  51.511 -25.379  1.00  0.00     0.007 C 
HETATM    3  C11 UNL     1      -4.408  51.206 -24.622  1.00  0.00     0.015 C 
HETATM    4  C12 UNL     1      -4.234  49.776 -24.077  1.00  0.00    -0.010 C 
HETATM    5  C13 UNL     1      -4.558  48.808 -25.259  1.00  0.00     0.021 C 
HETATM    6  C14 UNL     1      -5.102  49.263 -22.916  1.00  0.00    -0.039 C 
HETATM    7  C15 UNL     1      -4.627  48.279 -22.105  1.00  0.00    -0.066 C 
HETATM    8  C16 UNL     1      -3.180  47.773 -22.252  1.00  0.00     0.036 C 
HETATM    9  C17 UNL     1      -2.284  48.401 -23.333  1.00  0.00     0.015 C 
HETATM   10  C18 UNL     1      -2.710  49.832 -23.663  1.00  0.00    -0.029 C 
HETATM   11  C19 UNL     1      -2.450  50.737 -22.422  1.00  0.00     0.016 C 
HETATM   12  C20 UNL     1      -5.485  47.600 -20.984  1.00  0.00    -0.015 C 
HETATM   13  C21 UNL     1      -5.255  46.071 -21.084  1.00  0.00     0.020 C 
HETATM   14  C22 UNL     1      -4.969  48.132 -19.620  1.00  0.00     0.021 C 
HETATM   15  C23 UNL     1      -5.770  47.650 -18.424  1.00  0.00     0.080 C 
HETATM   16  C24 UNL     1      -7.228  48.004 -18.576  1.00  0.00     0.135 C 
HETATM   17  O2  UNL     1      -7.827  48.571 -17.661  1.00  0.00    -0.297 OA
HETATM   18  C25 UNL     1      -7.935  47.547 -19.859  1.00  0.00     0.018 C 
HETATM   19  C26 UNL     1      -8.228  46.036 -19.731  1.00  0.00     0.023 C 
HETATM   20  C27 UNL     1      -9.328  48.227 -19.926  1.00  0.00     0.023 C 
HETATM   21  C28 UNL     1      -7.036  47.907 -21.121  1.00  0.00     0.016 C 
HETATM   22  C29 UNL     1      -7.220  49.386 -21.512  1.00  0.00     0.043 C 
HETATM   23  C30 UNL     1      -6.514  49.774 -22.805  1.00  0.00     0.148 C 
ENDROOT
BRANCH   1  24
HETATM   24  C7  UNL     1      -0.615  51.095 -24.845  1.00  0.00    -0.011 C 
HETATM   25  C8  UNL     1       0.188  50.874 -26.128  1.00  0.00     0.010 C 
BRANCH  24  26
HETATM   26  C6  UNL     1      -0.725  52.614 -24.500  1.00  0.00     0.040 C 
BRANCH  26  27
HETATM   27  C5  UNL     1       0.613  53.352 -24.313  1.00  0.00     0.141 C 
BRANCH  27  28
HETATM   28  C4  UNL     1       0.725  53.961 -22.936  1.00  0.00     0.006 C 
HETATM   29  C2  UNL     1       0.910  53.295 -21.776  1.00  0.00    -0.089 C 
HETATM   30  C1  UNL     1       1.062  51.802 -21.667  1.00  0.00     0.042 C 
HETATM   31  C3  UNL     1       0.995  54.031 -20.465  1.00  0.00     0.042 C 
ENDBRANCH  27  28
BRANCH  27  32
HETATM   32  O1  UNL     1       0.704  54.407 -25.265  1.00  0.00    -0.392 OA
HETATM   33  H9  UNL     1       0.393  55.221 -24.836  1.00  0.00     0.210 HD
ENDBRANCH  27  32
ENDBRANCH  26  27
ENDBRANCH  24  26
ENDBRANCH   1  24
BRANCH  23  34
HETATM   34  O3  UNL     1      -6.539  51.196 -22.852  1.00  0.00    -0.391 OA
HETATM   35  H48 UNL     1      -7.466  51.476 -22.785  1.00  0.00     0.210 HD
ENDBRANCH  23  34
TORSDOF 6
ENDMDL
MODEL 4
REMARK minimizedAffinity -9.29930019
REMARK  6 active torsions:
REMARK  status: ('A' for Active; 'I' for Inactive)
REMARK    1  A    between atoms: C4_4  and  C5_5 
REMARK    2  A    between atoms: C5_5  and  O1_6 
REMARK    3  A    between atoms: C5_5  and  C6_7 
REMARK    4  A    between atoms: C6_7  and  C7_8 
REMARK    5  A    between atoms: C7_8  and  C9_10 
REMARK    6  A    between atoms: C30_32  and  O3_33 
ROOT
HETATM    1  C9  UNL     1      -5.887  48.140 -22.769  1.00  0.00    -0.002 C 
HETATM    2  C10 UNL     1      -5.591  48.678 -21.340  1.00  0.00     0.007 C 
HETATM    3  C11 UNL     1      -4.337  49.560 -21.428  1.00  0.00     0.015 C 
HETATM    4  C12 UNL     1      -3.680  49.197 -22.771  1.00  0.00    -0.010 C 
HETATM    5  C13 UNL     1      -2.877  47.878 -22.532  1.00  0.00     0.021 C 
HETATM    6  C14 UNL     1      -2.665  50.144 -23.435  1.00  0.00    -0.039 C 
HETATM    7  C15 UNL     1      -2.505  50.117 -24.786  1.00  0.00    -0.066 C 
HETATM    8  C16 UNL     1      -3.423  49.250 -25.668  1.00  0.00     0.036 C 
HETATM    9  C17 UNL     1      -4.523  48.416 -24.990  1.00  0.00     0.015 C 
HETATM   10  C18 UNL     1      -4.972  49.034 -23.666  1.00  0.00    -0.029 C 
HETATM   11  C19 UNL     1      -5.686  50.389 -23.956  1.00  0.00     0.016 C 
HETATM   12  C20 UNL     1      -1.406  50.944 -25.537  1.00  0.00    -0.015 C 
HETATM   13  C21 UNL     1      -0.744  50.002 -26.575  1.00  0.00     0.020 C 
HETATM   14  C22 UNL     1      -2.123  52.116 -26.259  1.00  0.00     0.021 C 
HETATM   15  C23 UNL     1      -1.182  53.084 -26.953  1.00  0.00     0.080 C 
HETATM   16  C24 UNL     1      -0.171  53.641 -25.982  1.00  0.00     0.135 C 
HETATM   17  O2  UNL     1       0.014  54.857 -25.909  1.00  0.00    -0.297 OA
HETATM   18  C25 UNL     1       0.662  52.636 -25.176  1.00  0.00     0.018 C 
HETATM   19  C26 UNL     1       1.750  52.061 -26.109  1.00  0.00     0.023 C 
HETATM   20  C27 UNL     1       1.437  53.405 -24.074  1.00  0.00     0.023 C 
HETATM   21  C28 UNL     1      -0.293  51.520 -24.564  1.00  0.00     0.016 C 
HETATM   22  C29 UNL     1      -0.969  52.033 -23.279  1.00  0.00     0.043 C 
HETATM   23  C30 UNL     1      -1.780  50.973 -22.543  1.00  0.00     0.148 C 
ENDROOT
BRANCH   1  24
HETATM   24  C7  UNL     1      -7.423  48.039 -23.045  1.00  0.00    -0.011 C 
HETATM   25  C8  UNL     1      -8.244  48.021 -21.754  1.00  0.00     0.010 C 
BRANCH  24  26
HETATM   26  C6  UNL     1      -7.866  49.206 -23.984  1.00  0.00     0.040 C 
BRANCH  26  27
HETATM   27  C5  UNL     1      -8.849  48.821 -25.104  1.00  0.00     0.141 C 
BRANCH  27  28
HETATM   28  C4  UNL     1      -8.141  48.171 -26.267  1.00  0.00     0.006 C 
HETATM   29  C2  UNL     1      -8.058  46.847 -26.519  1.00  0.00    -0.089 C 
HETATM   30  C1  UNL     1      -8.694  45.778 -25.671  1.00  0.00     0.042 C 
HETATM   31  C3  UNL     1      -7.308  46.331 -27.718  1.00  0.00     0.042 C 
ENDBRANCH  27  28
BRANCH  27  32
HETATM   32  O1  UNL     1      -9.493  49.996 -25.586  1.00  0.00    -0.392 OA
HETATM   33  H9  UNL     1      -9.000  50.307 -26.363  1.00  0.00     0.210 HD
ENDBRANCH  27  32
ENDBRANCH  26  27
ENDBRANCH  24  26
ENDBRANCH   1  24
BRANCH  23  34
HETATM   34  O3  UNL     1      -2.554  51.674 -21.577  1.00  0.00    -0.391 OA
HETATM   35  H48 UNL     1      -1.941  52.185 -21.025  1.00  0.00     0.210 HD
ENDBRANCH  23  34
TORSDOF 6
ENDMDL
MODEL 5
REMARK minimizedAffinity -9.10253525
REMARK  6 active torsions:
REMARK  status: ('A' for Active; 'I' for Inactive)
REMARK    1  A    between atoms: C4_4  and  C5_5 
REMARK    2  A    between atoms: C5_5  and  O1_6 
REMARK    3  A    between atoms: C5_5  and  C6_7 
REMARK    4  A    between atoms: C6_7  and  C7_8 
REMARK    5  A    between atoms: C7_8  and  C9_10 
REMARK    6  A    between atoms: C30_32  and  O3_33 
ROOT
HETATM    1  C9  UNL     1      -2.297  51.514 -24.696  1.00  0.00    -0.002 C 
HETATM    2  C10 UNL     1      -2.485  52.609 -23.608  1.00  0.00     0.007 C 
HETATM    3  C11 UNL     1      -3.624  52.154 -22.684  1.00  0.00     0.015 C 
HETATM    4  C12 UNL     1      -4.358  51.047 -23.462  1.00  0.00    -0.010 C 
HETATM    5  C13 UNL     1      -5.309  51.768 -24.471  1.00  0.00     0.021 C 
HETATM    6  C14 UNL     1      -5.268  50.042 -22.735  1.00  0.00    -0.039 C 
HETATM    7  C15 UNL     1      -5.468  48.807 -23.270  1.00  0.00    -0.066 C 
HETATM    8  C16 UNL     1      -4.688  48.358 -24.520  1.00  0.00     0.036 C 
HETATM    9  C17 UNL     1      -3.678  49.333 -25.150  1.00  0.00     0.015 C 
HETATM   10  C18 UNL     1      -3.121  50.318 -24.121  1.00  0.00    -0.029 C 
HETATM   11  C19 UNL     1      -2.256  49.535 -23.088  1.00  0.00     0.016 C 
HETATM   12  C20 UNL     1      -6.478  47.767 -22.677  1.00  0.00    -0.015 C 
HETATM   13  C21 UNL     1      -7.279  47.168 -23.861  1.00  0.00     0.020 C 
HETATM   14  C22 UNL     1      -5.645  46.658 -21.980  1.00  0.00     0.021 C 
HETATM   15  C23 UNL     1      -6.480  45.618 -21.255  1.00  0.00     0.080 C 
HETATM   16  C24 UNL     1      -7.387  46.269 -20.242  1.00  0.00     0.135 C 
HETATM   17  O2  UNL     1      -7.421  45.854 -19.082  1.00  0.00    -0.297 OA
HETATM   18  C25 UNL     1      -8.314  47.386 -20.739  1.00  0.00     0.018 C 
HETATM   19  C26 UNL     1      -9.489  46.731 -21.496  1.00  0.00     0.023 C 
HETATM   20  C27 UNL     1      -8.958  48.080 -19.510  1.00  0.00     0.023 C 
HETATM   21  C28 UNL     1      -7.486  48.410 -21.632  1.00  0.00     0.016 C 
HETATM   22  C29 UNL     1      -6.717  49.404 -20.743  1.00  0.00     0.043 C 
HETATM   23  C30 UNL     1      -6.020  50.515 -21.520  1.00  0.00     0.148 C 
ENDROOT
BRANCH   1  24
HETATM   24  C7  UNL     1      -0.793  51.334 -25.085  1.00  0.00    -0.011 C 
HETATM   25  C8  UNL     1      -0.622  50.553 -26.390  1.00  0.00     0.010 C 
BRANCH  24  26
HETATM   26  C6  UNL     1      -0.101  52.731 -25.166  1.00  0.00     0.040 C 
BRANCH  26  27
HETATM   27  C5  UNL     1       0.991  52.994 -24.112  1.00  0.00     0.141 C 
BRANCH  27  28
HETATM   28  C4  UNL     1       0.605  52.440 -22.762  1.00  0.00     0.006 C 
HETATM   29  C2  UNL     1       0.892  52.983 -21.559  1.00  0.00    -0.089 C 
HETATM   30  C1  UNL     1       1.641  54.274 -21.365  1.00  0.00     0.042 C 
HETATM   31  C3  UNL     1       0.453  52.316 -20.283  1.00  0.00     0.042 C 
ENDBRANCH  27  28
BRANCH  27  32
HETATM   32  O1  UNL     1       1.177  54.398 -23.970  1.00  0.00    -0.392 OA
HETATM   33  H9  UNL     1       0.630  54.696 -23.225  1.00  0.00     0.210 HD
ENDBRANCH  27  32
ENDBRANCH  26  27
ENDBRANCH  24  26
ENDBRANCH   1  24
BRANCH  23  34
HETATM   34  O3  UNL     1      -5.140  51.146 -20.597  1.00  0.00    -0.391 OA
HETATM   35  H48 UNL     1      -5.670  51.438 -19.838  1.00  0.00     0.210 HD
ENDBRANCH  23  34
TORSDOF 6
ENDMDL
MODEL 6
REMARK minimizedAffinity -9.07189465
REMARK  6 active torsions:
REMARK  status: ('A' for Active; 'I' for Inactive)
REMARK    1  A    between atoms: C4_4  and  C5_5 
REMARK    2  A    between atoms: C5_5  and  O1_6 
REMARK    3  A    between atoms: C5_5  and  C6_7 
REMARK    4  A    between atoms: C6_7  and  C7_8 
REMARK    5  A    between atoms: C7_8  and  C9_10 
REMARK    6  A    between atoms: C30_32  and  O3_33 
ROOT
HETATM    1  C9  UNL     1      -5.766  48.366 -21.163  1.00  0.00    -0.002 C 
HETATM    2  C10 UNL     1      -4.949  48.966 -19.983  1.00  0.00     0.007 C 
HETATM    3  C11 UNL     1      -3.725  49.674 -20.579  1.00  0.00     0.015 C 
HETATM    4  C12 UNL     1      -3.604  49.135 -22.016  1.00  0.00    -0.010 C 
HETATM    5  C13 UNL     1      -2.895  47.747 -21.912  1.00  0.00     0.021 C 
HETATM    6  C14 UNL     1      -2.795  49.897 -23.079  1.00  0.00    -0.039 C 
HETATM    7  C15 UNL     1      -3.110  49.753 -24.395  1.00  0.00    -0.066 C 
HETATM    8  C16 UNL     1      -4.351  48.946 -24.820  1.00  0.00     0.036 C 
HETATM    9  C17 UNL     1      -5.226  48.308 -23.727  1.00  0.00     0.015 C 
HETATM   10  C18 UNL     1      -5.134  49.071 -22.406  1.00  0.00    -0.029 C 
HETATM   11  C19 UNL     1      -5.774  50.481 -22.590  1.00  0.00     0.016 C 
HETATM   12  C20 UNL     1      -2.263  50.379 -25.555  1.00  0.00    -0.015 C 
HETATM   13  C21 UNL     1      -2.087  49.289 -26.643  1.00  0.00     0.020 C 
HETATM   14  C22 UNL     1      -3.070  51.577 -26.122  1.00  0.00     0.021 C 
HETATM   15  C23 UNL     1      -2.338  52.366 -27.193  1.00  0.00     0.080 C 
HETATM   16  C24 UNL     1      -1.009  52.860 -26.680  1.00  0.00     0.135 C 
HETATM   17  O2  UNL     1      -0.697  54.046 -26.808  1.00  0.00    -0.297 OA
HETATM   18  C25 UNL     1      -0.048  51.820 -26.091  1.00  0.00     0.018 C 
HETATM   19  C26 UNL     1       0.596  51.047 -27.263  1.00  0.00     0.023 C 
HETATM   20  C27 UNL     1       1.126  52.563 -25.401  1.00  0.00     0.023 C 
HETATM   21  C28 UNL     1      -0.835  50.880 -25.077  1.00  0.00     0.016 C 
HETATM   22  C29 UNL     1      -0.978  51.565 -23.705  1.00  0.00     0.043 C 
HETATM   23  C30 UNL     1      -1.584  50.671 -22.630  1.00  0.00     0.148 C 
ENDROOT
BRANCH   1  24
HETATM   24  C7  UNL     1      -7.305  48.439 -20.901  1.00  0.00    -0.011 C 
HETATM   25  C8  UNL     1      -7.990  47.083 -21.086  1.00  0.00     0.010 C 
BRANCH  24  26
HETATM   26  C6  UNL     1      -7.568  49.017 -19.474  1.00  0.00     0.040 C 
BRANCH  26  27
HETATM   27  C5  UNL     1      -8.422  48.134 -18.546  1.00  0.00     0.141 C 
BRANCH  27  28
HETATM   28  C4  UNL     1      -9.895  48.423 -18.704  1.00  0.00     0.006 C 
HETATM   29  C2  UNL     1     -10.885  47.512 -18.817  1.00  0.00    -0.089 C 
HETATM   30  C1  UNL     1     -10.677  46.021 -18.781  1.00  0.00     0.042 C 
HETATM   31  C3  UNL     1     -12.319  47.940 -18.980  1.00  0.00     0.042 C 
ENDBRANCH  27  28
BRANCH  27  32
HETATM   32  O1  UNL     1      -8.068  48.397 -17.193  1.00  0.00    -0.392 OA
HETATM   33  H9  UNL     1      -8.689  49.060 -16.847  1.00  0.00     0.210 HD
ENDBRANCH  27  32
ENDBRANCH  26  27
ENDBRANCH  24  26
ENDBRANCH   1  24
BRANCH  23  34
HETATM   34  O3  UNL     1      -1.911  51.531 -21.545  1.00  0.00    -0.391 OA
HETATM   35  H48 UNL     1      -1.102  52.001 -21.288  1.00  0.00     0.210 HD
ENDBRANCH  23  34
TORSDOF 6
ENDMDL
MODEL 7
REMARK minimizedAffinity -9.06318378
REMARK  6 active torsions:
REMARK  status: ('A' for Active; 'I' for Inactive)
REMARK    1  A    between atoms: C4_4  and  C5_5 
REMARK    2  A    between atoms: C5_5  and  O1_6 
REMARK    3  A    between atoms: C5_5  and  C6_7 
REMARK    4  A    between atoms: C6_7  and  C7_8 
REMARK    5  A    between atoms: C7_8  and  C9_10 
REMARK    6  A    between atoms: C30_32  and  O3_33 
ROOT
HETATM    1  C9  UNL     1      -3.916  48.903 -20.760  1.00  0.00    -0.002 C 
HETATM    2  C10 UNL     1      -5.214  48.834 -21.615  1.00  0.00     0.007 C 
HETATM    3  C11 UNL     1      -4.958  49.621 -22.909  1.00  0.00     0.015 C 
HETATM    4  C12 UNL     1      -3.711  50.477 -22.623  1.00  0.00    -0.010 C 
HETATM    5  C13 UNL     1      -4.203  51.726 -21.824  1.00  0.00     0.021 C 
HETATM    6  C14 UNL     1      -2.877  51.066 -23.773  1.00  0.00    -0.039 C 
HETATM    7  C15 UNL     1      -1.557  51.333 -23.579  1.00  0.00    -0.066 C 
HETATM    8  C16 UNL     1      -0.860  50.926 -22.268  1.00  0.00     0.036 C 
HETATM    9  C17 UNL     1      -1.685  50.211 -21.184  1.00  0.00     0.015 C 
HETATM   10  C18 UNL     1      -2.864  49.443 -21.781  1.00  0.00    -0.029 C 
HETATM   11  C19 UNL     1      -2.316  48.263 -22.641  1.00  0.00     0.016 C 
HETATM   12  C20 UNL     1      -0.661  52.055 -24.642  1.00  0.00    -0.015 C 
HETATM   13  C21 UNL     1       0.173  53.128 -23.896  1.00  0.00     0.020 C 
HETATM   14  C22 UNL     1       0.275  50.984 -25.262  1.00  0.00     0.021 C 
HETATM   15  C23 UNL     1       1.143  51.500 -26.395  1.00  0.00     0.080 C 
HETATM   16  C24 UNL     1       0.297  52.111 -27.484  1.00  0.00     0.135 C 
HETATM   17  O2  UNL     1       0.462  51.776 -28.658  1.00  0.00    -0.297 OA
HETATM   18  C25 UNL     1      -0.689  53.214 -27.077  1.00  0.00     0.018 C 
HETATM   19  C26 UNL     1       0.114  54.514 -26.854  1.00  0.00     0.023 C 
HETATM   20  C27 UNL     1      -1.622  53.513 -28.280  1.00  0.00     0.023 C 
HETATM   21  C28 UNL     1      -1.505  52.752 -25.792  1.00  0.00     0.016 C 
HETATM   22  C29 UNL     1      -2.666  51.823 -26.193  1.00  0.00     0.043 C 
HETATM   23  C30 UNL     1      -3.592  51.459 -25.039  1.00  0.00     0.148 C 
ENDROOT
BRANCH   1  24
HETATM   24  C7  UNL     1      -3.663  47.571 -19.981  1.00  0.00    -0.011 C 
HETATM   25  C8  UNL     1      -3.775  46.341 -20.884  1.00  0.00     0.010 C 
BRANCH  24  26
HETATM   26  C6  UNL     1      -2.272  47.632 -19.274  1.00  0.00     0.040 C 
BRANCH  26  27
HETATM   27  C5  UNL     1      -2.258  48.308 -17.891  1.00  0.00     0.141 C 
BRANCH  27  28
HETATM   28  C4  UNL     1      -1.389  49.542 -17.884  1.00  0.00     0.006 C 
HETATM   29  C2  UNL     1      -0.301  49.753 -17.111  1.00  0.00    -0.089 C 
HETATM   30  C1  UNL     1       0.248  48.758 -16.124  1.00  0.00     0.042 C 
HETATM   31  C3  UNL     1       0.473  51.041 -17.199  1.00  0.00     0.042 C 
ENDBRANCH  27  28
BRANCH  27  32
HETATM   32  O1  UNL     1      -1.734  47.398 -16.930  1.00  0.00    -0.392 OA
HETATM   33  H9  UNL     1      -0.784  47.581 -16.836  1.00  0.00     0.210 HD
ENDBRANCH  27  32
ENDBRANCH  26  27
ENDBRANCH  24  26
ENDBRANCH   1  24
BRANCH  23  34
HETATM   34  O3  UNL     1      -4.403  50.390 -25.511  1.00  0.00    -0.391 OA
HETATM   35  H48 UNL     1      -4.846  50.692 -26.320  1.00  0.00     0.210 HD
ENDBRANCH  23  34
TORSDOF 6
ENDMDL
MODEL 8
REMARK minimizedAffinity -9.0303154
REMARK  6 active torsions:
REMARK  status: ('A' for Active; 'I' for Inactive)
REMARK    1  A    between atoms: C4_4  and  C5_5 
REMARK    2  A    between atoms: C5_5  and  O1_6 
REMARK    3  A    between atoms: C5_5  and  C6_7 
REMARK    4  A    between atoms: C6_7  and  C7_8 
REMARK    5  A    between atoms: C7_8  and  C9_10 
REMARK    6  A    between atoms: C30_32  and  O3_33 
ROOT
HETATM    1  C9  UNL     1      -1.205  51.898 -21.346  1.00  0.00    -0.002 C 
HETATM    2  C10 UNL     1      -0.220  51.142 -20.410  1.00  0.00     0.007 C 
HETATM    3  C11 UNL     1      -0.952  49.907 -19.866  1.00  0.00     0.015 C 
HETATM    4  C12 UNL     1      -2.445  50.171 -20.134  1.00  0.00    -0.010 C 
HETATM    5  C13 UNL     1      -2.942  51.112 -18.990  1.00  0.00     0.021 C 
HETATM    6  C14 UNL     1      -3.461  49.016 -20.144  1.00  0.00    -0.039 C 
HETATM    7  C15 UNL     1      -4.603  49.132 -20.876  1.00  0.00    -0.066 C 
HETATM    8  C16 UNL     1      -4.823  50.345 -21.799  1.00  0.00     0.036 C 
HETATM    9  C17 UNL     1      -3.727  51.422 -21.876  1.00  0.00     0.015 C 
HETATM   10  C18 UNL     1      -2.346  50.851 -21.557  1.00  0.00    -0.029 C 
HETATM   11  C19 UNL     1      -1.937  49.851 -22.681  1.00  0.00     0.016 C 
HETATM   12  C20 UNL     1      -5.755  48.071 -20.844  1.00  0.00    -0.015 C 
HETATM   13  C21 UNL     1      -7.095  48.842 -20.727  1.00  0.00     0.020 C 
HETATM   14  C22 UNL     1      -5.702  47.290 -22.183  1.00  0.00     0.021 C 
HETATM   15  C23 UNL     1      -6.694  46.144 -22.272  1.00  0.00     0.080 C 
HETATM   16  C24 UNL     1      -6.505  45.181 -21.127  1.00  0.00     0.135 C 
HETATM   17  O2  UNL     1      -6.400  43.972 -21.344  1.00  0.00    -0.297 OA
HETATM   18  C25 UNL     1      -6.544  45.757 -19.706  1.00  0.00     0.018 C 
HETATM   19  C26 UNL     1      -8.019  46.032 -19.342  1.00  0.00     0.023 C 
HETATM   20  C27 UNL     1      -6.077  44.660 -18.713  1.00  0.00     0.023 C 
HETATM   21  C28 UNL     1      -5.627  47.055 -19.631  1.00  0.00     0.016 C 
HETATM   22  C29 UNL     1      -4.147  46.663 -19.462  1.00  0.00     0.043 C 
HETATM   23  C30 UNL     1      -3.218  47.848 -19.226  1.00  0.00     0.148 C 
ENDROOT
BRANCH   1  24
HETATM   24  C7  UNL     1      -0.470  52.535 -22.570  1.00  0.00    -0.011 C 
HETATM   25  C8  UNL     1       0.958  52.968 -22.228  1.00  0.00     0.010 C 
BRANCH  24  26
HETATM   26  C6  UNL     1      -0.487  51.537 -23.771  1.00  0.00     0.040 C 
BRANCH  26  27
HETATM   27  C5  UNL     1      -0.396  52.177 -25.168  1.00  0.00     0.141 C 
BRANCH  27  28
HETATM   28  C4  UNL     1       0.990  52.046 -25.751  1.00  0.00     0.006 C 
HETATM   29  C2  UNL     1       1.300  51.859 -27.052  1.00  0.00    -0.089 C 
HETATM   30  C1  UNL     1       0.288  51.772 -28.164  1.00  0.00     0.042 C 
HETATM   31  C3  UNL     1       2.733  51.735 -27.498  1.00  0.00     0.042 C 
ENDBRANCH  27  28
BRANCH  27  32
HETATM   32  O1  UNL     1      -0.698  53.565 -25.068  1.00  0.00    -0.392 OA
HETATM   33  H9  UNL     1       0.142  54.046 -24.983  1.00  0.00     0.210 HD
ENDBRANCH  27  32
ENDBRANCH  26  27
ENDBRANCH  24  26
ENDBRANCH   1  24
BRANCH  23  34
HETATM   34  O3  UNL     1      -1.897  47.347 -19.388  1.00  0.00    -0.391 OA
HETATM   35  H48 UNL     1      -1.786  46.604 -18.773  1.00  0.00     0.210 HD
ENDBRANCH  23  34
TORSDOF 6
ENDMDL
MODEL 9
REMARK minimizedAffinity -8.93270206
REMARK  6 active torsions:
REMARK  status: ('A' for Active; 'I' for Inactive)
REMARK    1  A    between atoms: C4_4  and  C5_5 
REMARK    2  A    between atoms: C5_5  and  O1_6 
REMARK    3  A    between atoms: C5_5  and  C6_7 
REMARK    4  A    between atoms: C6_7  and  C7_8 
REMARK    5  A    between atoms: C7_8  and  C9_10 
REMARK    6  A    between atoms: C30_32  and  O3_33 
ROOT
HETATM    1  C9  UNL     1      -1.307  50.696 -22.509  1.00  0.00    -0.002 C 
HETATM    2  C10 UNL     1      -1.607  50.119 -23.922  1.00  0.00     0.007 C 
HETATM    3  C11 UNL     1      -2.847  49.221 -23.802  1.00  0.00     0.015 C 
HETATM    4  C12 UNL     1      -3.002  48.944 -22.295  1.00  0.00    -0.010 C 
HETATM    5  C13 UNL     1      -1.998  47.799 -21.948  1.00  0.00     0.021 C 
HETATM    6  C14 UNL     1      -4.343  48.462 -21.715  1.00  0.00    -0.039 C 
HETATM    7  C15 UNL     1      -4.648  48.727 -20.416  1.00  0.00    -0.066 C 
HETATM    8  C16 UNL     1      -3.730  49.621 -19.562  1.00  0.00     0.036 C 
HETATM    9  C17 UNL     1      -2.462  50.207 -20.208  1.00  0.00     0.015 C 
HETATM   10  C18 UNL     1      -2.615  50.364 -21.720  1.00  0.00    -0.029 C 
HETATM   11  C19 UNL     1      -3.692  51.452 -22.011  1.00  0.00     0.016 C 
HETATM   12  C20 UNL     1      -5.924  48.165 -19.701  1.00  0.00    -0.015 C 
HETATM   13  C21 UNL     1      -5.483  47.640 -18.310  1.00  0.00     0.020 C 
HETATM   14  C22 UNL     1      -6.920  49.343 -19.538  1.00  0.00     0.021 C 
HETATM   15  C23 UNL     1      -8.263  48.943 -18.952  1.00  0.00     0.080 C 
HETATM   16  C24 UNL     1      -8.906  47.857 -19.778  1.00  0.00     0.135 C 
HETATM   17  O2  UNL     1     -10.074  47.974 -20.154  1.00  0.00    -0.297 OA
HETATM   18  C25 UNL     1      -8.085  46.588 -20.040  1.00  0.00     0.018 C 
HETATM   19  C26 UNL     1      -8.100  45.735 -18.753  1.00  0.00     0.023 C 
HETATM   20  C27 UNL     1      -8.820  45.732 -21.104  1.00  0.00     0.023 C 
HETATM   21  C28 UNL     1      -6.618  46.989 -20.509  1.00  0.00     0.016 C 
HETATM   22  C29 UNL     1      -6.608  47.339 -22.009  1.00  0.00     0.043 C 
HETATM   23  C30 UNL     1      -5.214  47.585 -22.575  1.00  0.00     0.148 C 
ENDROOT
BRANCH   1  24
HETATM   24  C7  UNL     1      -0.771  52.163 -22.583  1.00  0.00    -0.011 C 
HETATM   25  C8  UNL     1      -0.142  52.618 -21.264  1.00  0.00     0.010 C 
BRANCH  24  26
HETATM   26  C6  UNL     1       0.238  52.294 -23.768  1.00  0.00     0.040 C 
BRANCH  26  27
HETATM   27  C5  UNL     1      -0.030  53.453 -24.745  1.00  0.00     0.141 C 
BRANCH  27  28
HETATM   28  C4  UNL     1      -0.116  52.970 -26.172  1.00  0.00     0.006 C 
HETATM   29  C2  UNL     1       0.777  52.182 -26.808  1.00  0.00    -0.089 C 
HETATM   30  C1  UNL     1       2.024  51.624 -26.173  1.00  0.00     0.042 C 
HETATM   31  C3  UNL     1       0.573  51.780 -28.245  1.00  0.00     0.042 C 
ENDBRANCH  27  28
BRANCH  27  32
HETATM   32  O1  UNL     1       1.038  54.391 -24.664  1.00  0.00    -0.392 OA
HETATM   33  H9  UNL     1       1.675  54.176 -25.367  1.00  0.00     0.210 HD
ENDBRANCH  27  32
ENDBRANCH  26  27
ENDBRANCH  24  26
ENDBRANCH   1  24
BRANCH  23  34
HETATM   34  O3  UNL     1      -5.410  48.172 -23.856  1.00  0.00    -0.391 OA
HETATM   35  H48 UNL     1      -5.968  47.569 -24.373  1.00  0.00     0.210 HD
ENDBRANCH  23  34
TORSDOF 6
ENDMDL
