MODEL 1
REMARK minimizedAffinity -7.57983494
REMARK CNNscore 0.798528254
REMARK CNNaffinity 7.35053635
REMARK  4 active torsions:
REMARK  status: ('A' for Active; 'I' for Inactive)
REMARK    1  A    between atoms: C4_4  and  C5_5 
REMARK    2  A    between atoms: C5_5  and  C6_6 
REMARK    3  A    between atoms: C6_6  and  C7_7 
REMARK    4  A    between atoms: C7_7  and  C9_9 
ROOT
HETATM    1  C9  UNL     1       3.612  55.551  -8.237  1.00  0.00    -0.002 C 
HETATM    2  C10 UNL     1       2.710  56.665  -7.644  1.00  0.00     0.007 C 
HETATM    3  C11 UNL     1       1.249  56.259  -7.950  1.00  0.00     0.015 C 
HETATM    4  C12 UNL     1       1.329  54.781  -8.400  1.00  0.00    -0.013 C 
HETATM    5  C13 UNL     1       1.352  53.942  -7.080  1.00  0.00     0.021 C 
HETATM    6  C14 UNL     1       0.220  54.172  -9.256  1.00  0.00    -0.070 C 
HETATM    7  C15 UNL     1      -0.977  54.761  -9.421  1.00  0.00    -0.022 C 
HETATM    8  C16 UNL     1      -2.140  54.137 -10.135  1.00  0.00     0.038 C 
HETATM    9  C17 UNL     1      -2.048  52.584 -10.295  1.00  0.00    -0.019 C 
HETATM   10  C18 UNL     1      -2.231  51.982  -8.857  1.00  0.00     0.017 C 
HETATM   11  C19 UNL     1      -3.211  52.023 -11.267  1.00  0.00     0.021 C 
HETATM   12  C20 UNL     1      -3.748  53.073 -12.277  1.00  0.00     0.024 C 
HETATM   13  C21 UNL     1      -4.468  51.518 -10.516  1.00  0.00     0.024 C 
HETATM   14  C22 UNL     1      -2.700  50.812 -12.071  1.00  0.00     0.135 C 
HETATM   15  O1  UNL     1      -3.174  50.503 -13.167  1.00  0.00    -0.297 OA
HETATM   16  C23 UNL     1      -1.657  49.932 -11.433  1.00  0.00     0.080 C 
HETATM   17  C24 UNL     1      -0.420  50.692 -10.971  1.00  0.00     0.018 C 
HETATM   18  C25 UNL     1      -0.582  52.235 -10.842  1.00  0.00    -0.028 C 
HETATM   19  C26 UNL     1      -0.338  52.852 -12.251  1.00  0.00     0.016 C 
HETATM   20  C27 UNL     1       0.532  52.777  -9.830  1.00  0.00     0.024 C 
HETATM   21  C28 UNL     1       1.994  52.634 -10.365  1.00  0.00     0.010 C 
HETATM   22  C29 UNL     1       3.079  53.354  -9.542  1.00  0.00     0.011 C 
HETATM   23  C30 UNL     1       2.665  54.801  -9.220  1.00  0.00    -0.029 C 
HETATM   24  C31 UNL     1       2.533  55.581 -10.562  1.00  0.00     0.016 C 
ENDROOT
BRANCH   1  25
HETATM   25  C7  UNL     1       5.025  55.987  -8.734  1.00  0.00    -0.014 C 
HETATM   26  C8  UNL     1       5.429  55.060  -9.897  1.00  0.00     0.010 C 
BRANCH  25  27
HETATM   27  C6  UNL     1       6.137  55.992  -7.657  1.00  0.00     0.008 C 
BRANCH  27  28
HETATM   28  C5  UNL     1       5.666  56.398  -6.249  1.00  0.00     0.028 C 
BRANCH  28  29
HETATM   29  C4  UNL     1       6.182  57.733  -5.790  1.00  0.00    -0.025 C 
HETATM   30  C2  UNL     1       7.378  58.024  -5.242  1.00  0.00    -0.091 C 
HETATM   31  C1  UNL     1       8.472  57.033  -4.954  1.00  0.00     0.042 C 
HETATM   32  C3  UNL     1       7.713  59.440  -4.850  1.00  0.00     0.042 C 
ENDBRANCH  28  29
ENDBRANCH  27  28
ENDBRANCH  25  27
ENDBRANCH   1  25
TORSDOF 4
ENDMDL
MODEL 2
REMARK minimizedAffinity -7.61765289
REMARK CNNscore 0.727274299
REMARK CNNaffinity 7.31689072
REMARK  4 active torsions:
REMARK  status: ('A' for Active; 'I' for Inactive)
REMARK    1  A    between atoms: C4_4  and  C5_5 
REMARK    2  A    between atoms: C5_5  and  C6_6 
REMARK    3  A    between atoms: C6_6  and  C7_7 
REMARK    4  A    between atoms: C7_7  and  C9_9 
ROOT
HETATM    1  C9  UNL     1      -2.030  51.984 -11.113  1.00  0.00    -0.002 C 
HETATM    2  C10 UNL     1      -1.332  52.262 -12.470  1.00  0.00     0.007 C 
HETATM    3  C11 UNL     1      -0.047  53.061 -12.150  1.00  0.00     0.015 C 
HETATM    4  C12 UNL     1       0.138  52.929 -10.620  1.00  0.00    -0.013 C 
HETATM    5  C13 UNL     1       0.860  51.558 -10.402  1.00  0.00     0.021 C 
HETATM    6  C14 UNL     1       0.963  53.956  -9.849  1.00  0.00    -0.070 C 
HETATM    7  C15 UNL     1       1.784  54.832 -10.454  1.00  0.00    -0.022 C 
HETATM    8  C16 UNL     1       2.716  55.762  -9.734  1.00  0.00     0.038 C 
HETATM    9  C17 UNL     1       3.020  55.361  -8.254  1.00  0.00    -0.019 C 
HETATM   10  C18 UNL     1       3.899  54.062  -8.323  1.00  0.00     0.017 C 
HETATM   11  C19 UNL     1       3.835  56.525  -7.484  1.00  0.00     0.021 C 
HETATM   12  C20 UNL     1       3.623  57.942  -8.081  1.00  0.00     0.024 C 
HETATM   13  C21 UNL     1       5.371  56.321  -7.486  1.00  0.00     0.024 C 
HETATM   14  C22 UNL     1       3.430  56.571  -5.999  1.00  0.00     0.135 C 
HETATM   15  O1  UNL     1       3.520  57.600  -5.325  1.00  0.00    -0.297 OA
HETATM   16  C23 UNL     1       3.008  55.282  -5.342  1.00  0.00     0.080 C 
HETATM   17  C24 UNL     1       1.876  54.570  -6.073  1.00  0.00     0.018 C 
HETATM   18  C25 UNL     1       1.624  55.026  -7.540  1.00  0.00    -0.028 C 
HETATM   19  C26 UNL     1       0.697  56.277  -7.489  1.00  0.00     0.016 C 
HETATM   20  C27 UNL     1       0.872  53.846  -8.314  1.00  0.00     0.024 C 
HETATM   21  C28 UNL     1      -0.575  53.570  -7.792  1.00  0.00     0.010 C 
HETATM   22  C29 UNL     1      -1.424  52.615  -8.654  1.00  0.00     0.011 C 
HETATM   23  C30 UNL     1      -1.354  52.998 -10.143  1.00  0.00    -0.029 C 
HETATM   24  C31 UNL     1      -1.972  54.418 -10.312  1.00  0.00     0.016 C 
ENDROOT
BRANCH   1  25
HETATM   25  C7  UNL     1      -3.586  51.883 -11.136  1.00  0.00    -0.014 C 
HETATM   26  C8  UNL     1      -4.160  53.295 -10.907  1.00  0.00     0.010 C 
BRANCH  25  27
HETATM   27  C6  UNL     1      -4.204  50.896 -10.115  1.00  0.00     0.008 C 
BRANCH  27  28
HETATM   28  C5  UNL     1      -5.462  50.161 -10.613  1.00  0.00     0.028 C 
BRANCH  28  29
HETATM   29  C4  UNL     1      -6.507  49.946  -9.554  1.00  0.00    -0.025 C 
HETATM   30  C2  UNL     1      -7.796  49.588  -9.713  1.00  0.00    -0.091 C 
HETATM   31  C1  UNL     1      -8.479  49.337 -11.029  1.00  0.00     0.042 C 
HETATM   32  C3  UNL     1      -8.692  49.416  -8.513  1.00  0.00     0.042 C 
ENDBRANCH  28  29
ENDBRANCH  27  28
ENDBRANCH  25  27
ENDBRANCH   1  25
TORSDOF 4
ENDMDL
MODEL 3
REMARK minimizedAffinity -7.49305868
REMARK CNNscore 0.720933914
REMARK CNNaffinity 7.27411985
REMARK  4 active torsions:
REMARK  status: ('A' for Active; 'I' for Inactive)
REMARK    1  A    between atoms: C4_4  and  C5_5 
REMARK    2  A    between atoms: C5_5  and  C6_6 
REMARK    3  A    between atoms: C6_6  and  C7_7 
REMARK    4  A    between atoms: C7_7  and  C9_9 
ROOT
HETATM    1  C9  UNL     1      -1.456  52.504 -11.498  1.00  0.00    -0.002 C 
HETATM    2  C10 UNL     1      -2.575  52.268 -10.451  1.00  0.00     0.007 C 
HETATM    3  C11 UNL     1      -2.152  53.030  -9.173  1.00  0.00     0.015 C 
HETATM    4  C12 UNL     1      -0.991  53.950  -9.621  1.00  0.00    -0.013 C 
HETATM    5  C13 UNL     1      -1.673  55.220 -10.229  1.00  0.00     0.021 C 
HETATM    6  C14 UNL     1       0.018  54.474  -8.601  1.00  0.00    -0.070 C 
HETATM    7  C15 UNL     1      -0.191  54.414  -7.274  1.00  0.00    -0.022 C 
HETATM    8  C16 UNL     1       0.703  55.038  -6.243  1.00  0.00     0.038 C 
HETATM    9  C17 UNL     1       1.657  56.147  -6.795  1.00  0.00    -0.019 C 
HETATM   10  C18 UNL     1       0.743  57.368  -7.166  1.00  0.00     0.017 C 
HETATM   11  C19 UNL     1       2.738  56.599  -5.683  1.00  0.00     0.021 C 
HETATM   12  C20 UNL     1       3.028  55.516  -4.609  1.00  0.00     0.024 C 
HETATM   13  C21 UNL     1       2.320  57.854  -4.875  1.00  0.00     0.024 C 
HETATM   14  C22 UNL     1       4.074  56.971  -6.353  1.00  0.00     0.135 C 
HETATM   15  O1  UNL     1       5.152  56.891  -5.760  1.00  0.00    -0.297 OA
HETATM   16  C23 UNL     1       4.029  57.543  -7.746  1.00  0.00     0.080 C 
HETATM   17  C24 UNL     1       3.280  56.665  -8.741  1.00  0.00     0.018 C 
HETATM   18  C25 UNL     1       2.355  55.576  -8.121  1.00  0.00    -0.028 C 
HETATM   19  C26 UNL     1       3.239  54.333  -7.808  1.00  0.00     0.016 C 
HETATM   20  C27 UNL     1       1.249  55.177  -9.205  1.00  0.00     0.024 C 
HETATM   21  C28 UNL     1       1.830  54.451 -10.461  1.00  0.00     0.010 C 
HETATM   22  C29 UNL     1       0.788  53.835 -11.416  1.00  0.00     0.011 C 
HETATM   23  C30 UNL     1      -0.259  53.014 -10.642  1.00  0.00    -0.029 C 
HETATM   24  C31 UNL     1       0.469  51.824  -9.949  1.00  0.00     0.016 C 
ENDROOT
BRANCH   1  25
HETATM   25  C7  UNL     1      -1.213  51.360 -12.530  1.00  0.00    -0.014 C 
HETATM   26  C8  UNL     1      -1.756  50.050 -11.928  1.00  0.00     0.010 C 
BRANCH  25  27
HETATM   27  C6  UNL     1       0.259  51.163 -12.971  1.00  0.00     0.008 C 
BRANCH  27  28
HETATM   28  C5  UNL     1       0.568  51.628 -14.406  1.00  0.00     0.028 C 
BRANCH  28  29
HETATM   29  C4  UNL     1       2.033  51.801 -14.694  1.00  0.00    -0.025 C 
HETATM   30  C2  UNL     1       2.618  52.192 -15.843  1.00  0.00    -0.091 C 
HETATM   31  C1  UNL     1       1.899  52.532 -17.119  1.00  0.00     0.042 C 
HETATM   32  C3  UNL     1       4.118  52.312 -15.931  1.00  0.00     0.042 C 
ENDBRANCH  28  29
ENDBRANCH  27  28
ENDBRANCH  25  27
ENDBRANCH   1  25
TORSDOF 4
ENDMDL
MODEL 4
REMARK minimizedAffinity -7.26957226
REMARK CNNscore 0.712734163
REMARK CNNaffinity 7.15681648
REMARK  4 active torsions:
REMARK  status: ('A' for Active; 'I' for Inactive)
REMARK    1  A    between atoms: C4_4  and  C5_5 
REMARK    2  A    between atoms: C5_5  and  C6_6 
REMARK    3  A    between atoms: C6_6  and  C7_7 
REMARK    4  A    between atoms: C7_7  and  C9_9 
ROOT
HETATM    1  C9  UNL     1       3.435  56.238  -8.186  1.00  0.00    -0.002 C 
HETATM    2  C10 UNL     1       4.498  55.245  -8.724  1.00  0.00     0.007 C 
HETATM    3  C11 UNL     1       3.723  54.122  -9.454  1.00  0.00     0.015 C 
HETATM    4  C12 UNL     1       2.283  54.666  -9.612  1.00  0.00    -0.013 C 
HETATM    5  C13 UNL     1       2.312  55.565 -10.891  1.00  0.00     0.021 C 
HETATM    6  C14 UNL     1       1.112  53.706  -9.809  1.00  0.00    -0.070 C 
HETATM    7  C15 UNL     1       1.279  52.413 -10.136  1.00  0.00    -0.022 C 
HETATM    8  C16 UNL     1       0.161  51.470 -10.476  1.00  0.00     0.038 C 
HETATM    9  C17 UNL     1      -1.181  52.168 -10.869  1.00  0.00    -0.019 C 
HETATM   10  C18 UNL     1      -0.933  52.842 -12.266  1.00  0.00     0.017 C 
HETATM   11  C19 UNL     1      -2.386  51.098 -10.993  1.00  0.00     0.021 C 
HETATM   12  C20 UNL     1      -2.172  49.810 -10.154  1.00  0.00     0.024 C 
HETATM   13  C21 UNL     1      -2.632  50.594 -12.437  1.00  0.00     0.024 C 
HETATM   14  C22 UNL     1      -3.716  51.736 -10.550  1.00  0.00     0.135 C 
HETATM   15  O1  UNL     1      -4.651  51.065 -10.106  1.00  0.00    -0.297 OA
HETATM   16  C23 UNL     1      -3.897  53.216 -10.768  1.00  0.00     0.080 C 
HETATM   17  C24 UNL     1      -2.790  54.061 -10.150  1.00  0.00     0.018 C 
HETATM   18  C25 UNL     1      -1.485  53.299  -9.774  1.00  0.00    -0.028 C 
HETATM   19  C26 UNL     1      -1.694  52.679  -8.361  1.00  0.00     0.016 C 
HETATM   20  C27 UNL     1      -0.283  54.353  -9.715  1.00  0.00     0.024 C 
HETATM   21  C28 UNL     1      -0.413  55.393  -8.555  1.00  0.00     0.010 C 
HETATM   22  C29 UNL     1       0.827  56.272  -8.306  1.00  0.00     0.011 C 
HETATM   23  C30 UNL     1       2.110  55.422  -8.250  1.00  0.00    -0.029 C 
HETATM   24  C31 UNL     1       2.000  54.453  -7.035  1.00  0.00     0.016 C 
ENDROOT
BRANCH   1  25
HETATM   25  C7  UNL     1       3.791  56.997  -6.870  1.00  0.00    -0.014 C 
HETATM   26  C8  UNL     1       2.846  58.208  -6.746  1.00  0.00     0.010 C 
BRANCH  25  27
HETATM   27  C6  UNL     1       5.262  57.468  -6.751  1.00  0.00     0.008 C 
BRANCH  27  28
HETATM   28  C5  UNL     1       5.944  57.113  -5.417  1.00  0.00     0.028 C 
BRANCH  28  29
HETATM   29  C4  UNL     1       7.225  57.857  -5.165  1.00  0.00    -0.025 C 
HETATM   30  C2  UNL     1       8.483  57.376  -5.157  1.00  0.00    -0.091 C 
HETATM   31  C1  UNL     1       8.874  55.943  -5.391  1.00  0.00     0.042 C 
HETATM   32  C3  UNL     1       9.649  58.294  -4.886  1.00  0.00     0.042 C 
ENDBRANCH  28  29
ENDBRANCH  27  28
ENDBRANCH  25  27
ENDBRANCH   1  25
TORSDOF 4
ENDMDL
MODEL 5
REMARK minimizedAffinity -7.56263256
REMARK CNNscore 0.509444952
REMARK CNNaffinity 6.86437368
REMARK  4 active torsions:
REMARK  status: ('A' for Active; 'I' for Inactive)
REMARK    1  A    between atoms: C4_4  and  C5_5 
REMARK    2  A    between atoms: C5_5  and  C6_6 
REMARK    3  A    between atoms: C6_6  and  C7_7 
REMARK    4  A    between atoms: C7_7  and  C9_9 
ROOT
HETATM    1  C9  UNL     1       5.814  55.955  -8.171  1.00  0.00    -0.002 C 
HETATM    2  C10 UNL     1       6.608  54.743  -8.725  1.00  0.00     0.007 C 
HETATM    3  C11 UNL     1       5.573  53.804  -9.388  1.00  0.00     0.015 C 
HETATM    4  C12 UNL     1       4.280  54.646  -9.500  1.00  0.00    -0.013 C 
HETATM    5  C13 UNL     1       4.443  55.493 -10.806  1.00  0.00     0.021 C 
HETATM    6  C14 UNL     1       2.920  53.963  -9.620  1.00  0.00    -0.070 C 
HETATM    7  C15 UNL     1       2.785  52.659  -9.916  1.00  0.00    -0.022 C 
HETATM    8  C16 UNL     1       1.474  51.978 -10.180  1.00  0.00     0.038 C 
HETATM    9  C17 UNL     1       0.299  52.946 -10.536  1.00  0.00    -0.019 C 
HETATM   10  C18 UNL     1       0.621  53.522 -11.961  1.00  0.00     0.017 C 
HETATM   11  C19 UNL     1      -1.115  52.164 -10.577  1.00  0.00     0.021 C 
HETATM   12  C20 UNL     1      -1.148  50.876  -9.711  1.00  0.00     0.024 C 
HETATM   13  C21 UNL     1      -1.534  51.698 -11.994  1.00  0.00     0.024 C 
HETATM   14  C22 UNL     1      -2.252  53.086 -10.097  1.00  0.00     0.135 C 
HETATM   15  O1  UNL     1      -3.288  52.645  -9.595  1.00  0.00    -0.297 OA
HETATM   16  C23 UNL     1      -2.115  54.565 -10.350  1.00  0.00     0.080 C 
HETATM   17  C24 UNL     1      -0.822  55.158  -9.804  1.00  0.00     0.018 C 
HETATM   18  C25 UNL     1       0.301  54.136  -9.463  1.00  0.00    -0.028 C 
HETATM   19  C26 UNL     1       0.030  53.604  -8.024  1.00  0.00     0.016 C 
HETATM   20  C27 UNL     1       1.705  54.902  -9.485  1.00  0.00     0.024 C 
HETATM   21  C28 UNL     1       1.861  55.967  -8.352  1.00  0.00     0.010 C 
HETATM   22  C29 UNL     1       3.274  56.557  -8.182  1.00  0.00     0.011 C 
HETATM   23  C30 UNL     1       4.342  55.448  -8.155  1.00  0.00    -0.029 C 
HETATM   24  C31 UNL     1       4.081  54.550  -6.909  1.00  0.00     0.016 C 
ENDROOT
BRANCH   1  25
HETATM   25  C7  UNL     1       6.390  56.643  -6.895  1.00  0.00    -0.014 C 
HETATM   26  C8  UNL     1       7.148  55.578  -6.079  1.00  0.00     0.010 C 
BRANCH  25  27
HETATM   27  C6  UNL     1       5.348  57.349  -5.992  1.00  0.00     0.008 C 
BRANCH  27  28
HETATM   28  C5  UNL     1       5.949  58.299  -4.939  1.00  0.00     0.028 C 
BRANCH  28  29
HETATM   29  C4  UNL     1       7.356  58.736  -5.238  1.00  0.00    -0.025 C 
HETATM   30  C2  UNL     1       7.996  59.840  -4.808  1.00  0.00    -0.091 C 
HETATM   31  C1  UNL     1       7.408  60.905  -3.924  1.00  0.00     0.042 C 
HETATM   32  C3  UNL     1       9.424  60.101  -5.217  1.00  0.00     0.042 C 
ENDBRANCH  28  29
ENDBRANCH  27  28
ENDBRANCH  25  27
ENDBRANCH   1  25
TORSDOF 4
ENDMDL
MODEL 6
REMARK minimizedAffinity -7.57468176
REMARK CNNscore 0.384972453
REMARK CNNaffinity 6.51406813
REMARK  4 active torsions:
REMARK  status: ('A' for Active; 'I' for Inactive)
REMARK    1  A    between atoms: C4_4  and  C5_5 
REMARK    2  A    between atoms: C5_5  and  C6_6 
REMARK    3  A    between atoms: C6_6  and  C7_7 
REMARK    4  A    between atoms: C7_7  and  C9_9 
ROOT
HETATM    1  C9  UNL     1      -3.203  48.695 -23.174  1.00  0.00    -0.002 C 
HETATM    2  C10 UNL     1      -2.319  49.108 -21.969  1.00  0.00     0.007 C 
HETATM    3  C11 UNL     1      -3.109  48.734 -20.693  1.00  0.00     0.015 C 
HETATM    4  C12 UNL     1      -4.256  47.820 -21.185  1.00  0.00    -0.013 C 
HETATM    5  C13 UNL     1      -3.634  46.389 -21.295  1.00  0.00     0.021 C 
HETATM    6  C14 UNL     1      -5.524  47.654 -20.350  1.00  0.00    -0.070 C 
HETATM    7  C15 UNL     1      -5.604  48.037 -19.065  1.00  0.00    -0.022 C 
HETATM    8  C16 UNL     1      -6.778  47.768 -18.168  1.00  0.00     0.038 C 
HETATM    9  C17 UNL     1      -7.727  46.630 -18.664  1.00  0.00    -0.019 C 
HETATM   10  C18 UNL     1      -6.926  45.289 -18.505  1.00  0.00     0.017 C 
HETATM   11  C19 UNL     1      -9.076  46.561 -17.776  1.00  0.00     0.021 C 
HETATM   12  C20 UNL     1      -9.446  47.903 -17.089  1.00  0.00     0.024 C 
HETATM   13  C21 UNL     1      -9.016  45.528 -16.622  1.00  0.00     0.024 C 
HETATM   14  C22 UNL     1     -10.271  46.131 -18.649  1.00  0.00     0.135 C 
HETATM   15  O1  UNL     1     -11.432  46.442 -18.373  1.00  0.00    -0.297 OA
HETATM   16  C23 UNL     1      -9.999  45.217 -19.816  1.00  0.00     0.080 C 
HETATM   17  C24 UNL     1      -8.940  45.752 -20.773  1.00  0.00     0.018 C 
HETATM   18  C25 UNL     1      -8.036  46.890 -20.215  1.00  0.00    -0.028 C 
HETATM   19  C26 UNL     1      -8.793  48.235 -20.426  1.00  0.00     0.016 C 
HETATM   20  C27 UNL     1      -6.676  46.913 -21.057  1.00  0.00     0.024 C 
HETATM   21  C28 UNL     1      -6.866  47.332 -22.551  1.00  0.00     0.010 C 
HETATM   22  C29 UNL     1      -5.569  47.602 -23.337  1.00  0.00     0.011 C 
HETATM   23  C30 UNL     1      -4.616  48.514 -22.543  1.00  0.00    -0.029 C 
HETATM   24  C31 UNL     1      -5.312  49.893 -22.345  1.00  0.00     0.016 C 
ENDROOT
BRANCH   1  25
HETATM   25  C7  UNL     1      -3.060  49.549 -24.471  1.00  0.00    -0.014 C 
HETATM   26  C8  UNL     1      -2.962  48.586 -25.670  1.00  0.00     0.010 C 
BRANCH  25  27
HETATM   27  C6  UNL     1      -1.863  50.533 -24.491  1.00  0.00     0.008 C 
BRANCH  27  28
HETATM   28  C5  UNL     1      -1.256  50.778 -25.885  1.00  0.00     0.028 C 
BRANCH  28  29
HETATM   29  C4  UNL     1       0.234  50.968 -25.881  1.00  0.00    -0.025 C 
HETATM   30  C2  UNL     1       1.027  51.379 -26.890  1.00  0.00    -0.091 C 
HETATM   31  C1  UNL     1       0.566  51.728 -28.278  1.00  0.00     0.042 C 
HETATM   32  C3  UNL     1       2.515  51.512 -26.684  1.00  0.00     0.042 C 
ENDBRANCH  28  29
ENDBRANCH  27  28
ENDBRANCH  25  27
ENDBRANCH   1  25
TORSDOF 4
ENDMDL
MODEL 7
REMARK minimizedAffinity -8.10179806
REMARK CNNscore 0.29887563
REMARK CNNaffinity 6.47195005
REMARK  4 active torsions:
REMARK  status: ('A' for Active; 'I' for Inactive)
REMARK    1  A    between atoms: C4_4  and  C5_5 
REMARK    2  A    between atoms: C5_5  and  C6_6 
REMARK    3  A    between atoms: C6_6  and  C7_7 
REMARK    4  A    between atoms: C7_7  and  C9_9 
ROOT
HETATM    1  C9  UNL     1      -2.823  50.558 -24.691  1.00  0.00    -0.002 C 
HETATM    2  C10 UNL     1      -2.225  51.502 -23.616  1.00  0.00     0.007 C 
HETATM    3  C11 UNL     1      -2.829  51.066 -22.260  1.00  0.00     0.015 C 
HETATM    4  C12 UNL     1      -3.481  49.691 -22.535  1.00  0.00    -0.013 C 
HETATM    5  C13 UNL     1      -2.321  48.647 -22.426  1.00  0.00     0.021 C 
HETATM    6  C14 UNL     1      -4.592  49.167 -21.628  1.00  0.00    -0.070 C 
HETATM    7  C15 UNL     1      -4.862  49.702 -20.425  1.00  0.00    -0.022 C 
HETATM    8  C16 UNL     1      -5.846  49.136 -19.444  1.00  0.00     0.038 C 
HETATM    9  C17 UNL     1      -6.226  47.640 -19.693  1.00  0.00    -0.019 C 
HETATM   10  C18 UNL     1      -4.949  46.798 -19.342  1.00  0.00     0.017 C 
HETATM   11  C19 UNL     1      -7.453  47.180 -18.746  1.00  0.00     0.021 C 
HETATM   12  C20 UNL     1      -8.364  48.348 -18.283  1.00  0.00     0.024 C 
HETATM   13  C21 UNL     1      -7.007  46.483 -17.436  1.00  0.00     0.024 C 
HETATM   14  C22 UNL     1      -8.337  46.151 -19.477  1.00  0.00     0.135 C 
HETATM   15  O1  UNL     1      -9.530  46.000 -19.206  1.00  0.00    -0.297 OA
HETATM   16  C23 UNL     1      -7.678  45.241 -20.480  1.00  0.00     0.080 C 
HETATM   17  C24 UNL     1      -6.905  45.987 -21.562  1.00  0.00     0.018 C 
HETATM   18  C25 UNL     1      -6.568  47.475 -21.250  1.00  0.00    -0.028 C 
HETATM   19  C26 UNL     1      -7.806  48.330 -21.655  1.00  0.00     0.016 C 
HETATM   20  C27 UNL     1      -5.314  47.907 -22.144  1.00  0.00     0.024 C 
HETATM   21  C28 UNL     1      -5.615  47.942 -23.677  1.00  0.00     0.010 C 
HETATM   22  C29 UNL     1      -4.521  48.579 -24.556  1.00  0.00     0.011 C 
HETATM   23  C30 UNL     1      -4.054  49.926 -23.975  1.00  0.00    -0.029 C 
HETATM   24  C31 UNL     1      -5.263  50.908 -23.986  1.00  0.00     0.016 C 
ENDROOT
BRANCH   1  25
HETATM   25  C7  UNL     1      -3.006  51.154 -26.121  1.00  0.00    -0.014 C 
HETATM   26  C8  UNL     1      -3.042  49.986 -27.125  1.00  0.00     0.010 C 
BRANCH  25  27
HETATM   27  C6  UNL     1      -1.934  52.184 -26.554  1.00  0.00     0.008 C 
BRANCH  27  28
HETATM   28  C5  UNL     1      -0.896  52.526 -25.469  1.00  0.00     0.028 C 
BRANCH  28  29
HETATM   29  C4  UNL     1       0.487  52.016 -25.759  1.00  0.00    -0.025 C 
HETATM   30  C2  UNL     1       1.152  52.025 -26.931  1.00  0.00    -0.091 C 
HETATM   31  C1  UNL     1       0.620  52.552 -28.235  1.00  0.00     0.042 C 
HETATM   32  C3  UNL     1       2.550  51.466 -27.018  1.00  0.00     0.042 C 
ENDBRANCH  28  29
ENDBRANCH  27  28
ENDBRANCH  25  27
ENDBRANCH   1  25
TORSDOF 4
ENDMDL
MODEL 8
REMARK minimizedAffinity -8.85123348
REMARK CNNscore 0.294030547
REMARK CNNaffinity 6.79918146
REMARK  4 active torsions:
REMARK  status: ('A' for Active; 'I' for Inactive)
REMARK    1  A    between atoms: C4_4  and  C5_5 
REMARK    2  A    between atoms: C5_5  and  C6_6 
REMARK    3  A    between atoms: C6_6  and  C7_7 
REMARK    4  A    between atoms: C7_7  and  C9_9 
ROOT
HETATM    1  C9  UNL     1      -0.084  51.402 -20.667  1.00  0.00    -0.002 C 
HETATM    2  C10 UNL     1      -0.613  52.316 -19.531  1.00  0.00     0.007 C 
HETATM    3  C11 UNL     1      -1.909  51.658 -19.002  1.00  0.00     0.015 C 
HETATM    4  C12 UNL     1      -1.910  50.232 -19.602  1.00  0.00    -0.013 C 
HETATM    5  C13 UNL     1      -1.012  49.376 -18.649  1.00  0.00     0.021 C 
HETATM    6  C14 UNL     1      -3.216  49.454 -19.746  1.00  0.00    -0.070 C 
HETATM    7  C15 UNL     1      -4.351  49.818 -19.126  1.00  0.00    -0.022 C 
HETATM    8  C16 UNL     1      -5.617  49.011 -19.125  1.00  0.00     0.038 C 
HETATM    9  C17 UNL     1      -5.429  47.507 -19.507  1.00  0.00    -0.019 C 
HETATM   10  C18 UNL     1      -4.659  46.843 -18.310  1.00  0.00     0.017 C 
HETATM   11  C19 UNL     1      -6.853  46.769 -19.708  1.00  0.00     0.021 C 
HETATM   12  C20 UNL     1      -8.011  47.730 -20.090  1.00  0.00     0.024 C 
HETATM   13  C21 UNL     1      -7.357  46.023 -18.448  1.00  0.00     0.024 C 
HETATM   14  C22 UNL     1      -6.748  45.694 -20.806  1.00  0.00     0.135 C 
HETATM   15  O1  UNL     1      -7.725  45.333 -21.468  1.00  0.00    -0.297 OA
HETATM   16  C23 UNL     1      -5.423  45.002 -20.992  1.00  0.00     0.080 C 
HETATM   17  C24 UNL     1      -4.262  45.963 -21.222  1.00  0.00     0.018 C 
HETATM   18  C25 UNL     1      -4.523  47.446 -20.828  1.00  0.00    -0.028 C 
HETATM   19  C26 UNL     1      -5.229  48.134 -22.034  1.00  0.00     0.016 C 
HETATM   20  C27 UNL     1      -3.113  48.155 -20.569  1.00  0.00     0.024 C 
HETATM   21  C28 UNL     1      -2.232  48.296 -21.852  1.00  0.00     0.010 C 
HETATM   22  C29 UNL     1      -0.978  49.180 -21.706  1.00  0.00     0.011 C 
HETATM   23  C30 UNL     1      -1.316  50.518 -21.024  1.00  0.00    -0.029 C 
HETATM   24  C31 UNL     1      -2.306  51.296 -21.941  1.00  0.00     0.016 C 
ENDROOT
BRANCH   1  25
HETATM   25  C7  UNL     1       0.702  52.102 -21.818  1.00  0.00    -0.014 C 
HETATM   26  C8  UNL     1       1.007  53.546 -21.378  1.00  0.00     0.010 C 
BRANCH  25  27
HETATM   27  C6  UNL     1      -0.006  52.112 -23.196  1.00  0.00     0.008 C 
BRANCH  27  28
HETATM   28  C5  UNL     1       0.667  53.003 -24.257  1.00  0.00     0.028 C 
BRANCH  28  29
HETATM   29  C4  UNL     1       0.315  52.645 -25.673  1.00  0.00    -0.025 C 
HETATM   30  C2  UNL     1       1.034  51.924 -26.556  1.00  0.00    -0.091 C 
HETATM   31  C1  UNL     1       2.389  51.325 -26.299  1.00  0.00     0.042 C 
HETATM   32  C3  UNL     1       0.500  51.666 -27.942  1.00  0.00     0.042 C 
ENDBRANCH  28  29
ENDBRANCH  27  28
ENDBRANCH  25  27
ENDBRANCH   1  25
TORSDOF 4
ENDMDL
MODEL 9
REMARK minimizedAffinity -7.77852249
REMARK CNNscore 0.293777198
REMARK CNNaffinity 5.65810442
REMARK  4 active torsions:
REMARK  status: ('A' for Active; 'I' for Inactive)
REMARK    1  A    between atoms: C4_4  and  C5_5 
REMARK    2  A    between atoms: C5_5  and  C6_6 
REMARK    3  A    between atoms: C6_6  and  C7_7 
REMARK    4  A    between atoms: C7_7  and  C9_9 
ROOT
HETATM    1  C9  UNL     1     -13.162  45.618 -27.279  1.00  0.00    -0.002 C 
HETATM    2  C10 UNL     1     -13.560  44.642 -28.417  1.00  0.00     0.007 C 
HETATM    3  C11 UNL     1     -12.352  44.571 -29.380  1.00  0.00     0.015 C 
HETATM    4  C12 UNL     1     -11.183  45.228 -28.608  1.00  0.00    -0.013 C 
HETATM    5  C13 UNL     1     -10.600  44.101 -27.692  1.00  0.00     0.021 C 
HETATM    6  C14 UNL     1      -9.987  45.807 -29.360  1.00  0.00    -0.070 C 
HETATM    7  C15 UNL     1      -9.743  45.538 -30.654  1.00  0.00    -0.022 C 
HETATM    8  C16 UNL     1      -8.511  45.970 -31.395  1.00  0.00     0.038 C 
HETATM    9  C17 UNL     1      -7.308  46.366 -30.479  1.00  0.00    -0.019 C 
HETATM   10  C18 UNL     1      -6.801  45.035 -29.819  1.00  0.00     0.017 C 
HETATM   11  C19 UNL     1      -6.111  47.034 -31.337  1.00  0.00     0.021 C 
HETATM   12  C20 UNL     1      -6.578  47.690 -32.664  1.00  0.00     0.024 C 
HETATM   13  C21 UNL     1      -5.006  46.032 -31.757  1.00  0.00     0.024 C 
HETATM   14  C22 UNL     1      -5.391  48.111 -30.504  1.00  0.00     0.135 C 
HETATM   15  O1  UNL     1      -4.797  49.058 -31.026  1.00  0.00    -0.297 OA
HETATM   16  C23 UNL     1      -5.337  47.929 -29.009  1.00  0.00     0.080 C 
HETATM   17  C24 UNL     1      -6.708  47.739 -28.370  1.00  0.00     0.018 C 
HETATM   18  C25 UNL     1      -7.861  47.353 -29.343  1.00  0.00    -0.028 C 
HETATM   19  C26 UNL     1      -8.417  48.672 -29.957  1.00  0.00     0.016 C 
HETATM   20  C27 UNL     1      -9.015  46.637 -28.499  1.00  0.00     0.024 C 
HETATM   21  C28 UNL     1      -9.733  47.582 -27.482  1.00  0.00     0.010 C 
HETATM   22  C29 UNL     1     -11.002  47.011 -26.821  1.00  0.00     0.011 C 
HETATM   23  C30 UNL     1     -11.941  46.384 -27.868  1.00  0.00    -0.029 C 
HETATM   24  C31 UNL     1     -12.411  47.509 -28.838  1.00  0.00     0.016 C 
ENDROOT
BRANCH   1  25
HETATM   25  C7  UNL     1     -14.319  46.433 -26.622  1.00  0.00    -0.014 C 
HETATM   26  C8  UNL     1     -13.992  46.604 -25.126  1.00  0.00     0.010 C 
BRANCH  25  27
HETATM   27  C6  UNL     1     -15.735  45.827 -26.783  1.00  0.00     0.008 C 
BRANCH  27  28
HETATM   28  C5  UNL     1     -16.278  45.122 -25.526  1.00  0.00     0.028 C 
BRANCH  28  29
HETATM   29  C4  UNL     1     -17.613  45.635 -25.063  1.00  0.00    -0.025 C 
HETATM   30  C2  UNL     1     -18.823  45.436 -25.619  1.00  0.00    -0.091 C 
HETATM   31  C1  UNL     1     -19.092  44.645 -26.870  1.00  0.00     0.042 C 
HETATM   32  C3  UNL     1     -20.057  46.036 -24.995  1.00  0.00     0.042 C 
ENDBRANCH  28  29
ENDBRANCH  27  28
ENDBRANCH  25  27
ENDBRANCH   1  25
TORSDOF 4
ENDMDL
