MODEL 1
REMARK minimizedAffinity -9.80951118
REMARK  6 active torsions:
REMARK  status: ('A' for Active; 'I' for Inactive)
REMARK    1  A    between atoms: C2_2  and  C30_32 
REMARK    2  A    between atoms: C3_3  and  C4_4 
REMARK    3  A    between atoms: C4_4  and  C5_5 
REMARK    4  A    between atoms: C5_5  and  C6_6 
REMARK    5  A    between atoms: C6_6  and  C8_8 
REMARK    6  A    between atoms: C30_32  and  O4_34 
ROOT
HETATM    1  C8  UNL     1       0.085  50.948 -21.402  1.00  0.00    -0.002 C 
HETATM    2  C9  UNL     1       0.140  51.150 -19.861  1.00  0.00     0.007 C 
HETATM    3  C10 UNL     1      -1.094  50.451 -19.260  1.00  0.00     0.015 C 
HETATM    4  C11 UNL     1      -1.653  49.576 -20.396  1.00  0.00    -0.005 C 
HETATM    5  C12 UNL     1      -0.826  48.250 -20.399  1.00  0.00     0.021 C 
HETATM    6  C13 UNL     1      -3.108  49.121 -20.375  1.00  0.00    -0.000 C 
HETATM    7  C14 UNL     1      -3.807  48.928 -21.524  1.00  0.00    -0.060 C 
HETATM    8  C15 UNL     1      -3.145  49.186 -22.890  1.00  0.00     0.036 C 
HETATM    9  C16 UNL     1      -1.698  49.720 -22.896  1.00  0.00     0.015 C 
HETATM   10  C17 UNL     1      -1.399  50.530 -21.629  1.00  0.00    -0.028 C 
HETATM   11  C18 UNL     1      -2.302  51.805 -21.621  1.00  0.00     0.016 C 
HETATM   12  C19 UNL     1      -5.283  48.441 -21.557  1.00  0.00    -0.014 C 
HETATM   13  C20 UNL     1      -5.260  46.957 -21.994  1.00  0.00     0.020 C 
HETATM   14  C21 UNL     1      -6.107  49.270 -22.589  1.00  0.00     0.021 C 
HETATM   15  C22 UNL     1      -7.616  49.318 -22.371  1.00  0.00     0.080 C 
HETATM   16  C23 UNL     1      -8.116  48.248 -21.436  1.00  0.00     0.135 C 
HETATM   17  O1  UNL     1      -9.073  47.543 -21.752  1.00  0.00    -0.297 OA
HETATM   18  C24 UNL     1      -7.444  48.156 -20.061  1.00  0.00     0.018 C 
HETATM   19  C25 UNL     1      -8.236  49.087 -19.118  1.00  0.00     0.023 C 
HETATM   20  C26 UNL     1      -7.591  46.718 -19.521  1.00  0.00     0.023 C 
HETATM   21  C27 UNL     1      -5.958  48.650 -20.161  1.00  0.00     0.020 C 
HETATM   22  C28 UNL     1      -5.074  48.115 -19.037  1.00  0.00     0.090 C 
HETATM   23  C29 UNL     1      -3.718  48.768 -19.053  1.00  0.00     0.157 C 
HETATM   24  O2  UNL     1      -3.107  48.936 -17.999  1.00  0.00    -0.293 OA
ENDROOT
BRANCH   1  25
HETATM   25  C6  UNL     1       0.678  52.163 -22.171  1.00  0.00    -0.014 C 
HETATM   26  C7  UNL     1       0.666  53.455 -21.349  1.00  0.00     0.010 C 
BRANCH  25  27
HETATM   27  C5  UNL     1       0.015  52.386 -23.561  1.00  0.00     0.008 C 
BRANCH  27  28
HETATM   28  C4  UNL     1       0.828  53.127 -24.635  1.00  0.00     0.028 C 
BRANCH  28  29
HETATM   29  C3  UNL     1       0.435  52.785 -26.045  1.00  0.00    -0.013 C 
HETATM   30  C2  UNL     1       1.141  52.094 -26.962  1.00  0.00     0.008 C 
HETATM   31  C1  UNL     1       0.589  51.753 -28.313  1.00  0.00     0.055 C 
BRANCH  30  32
HETATM   32  C30 UNL     1       2.500  51.566 -26.719  1.00  0.00     0.171 C 
HETATM   33  O3  UNL     1       2.772  50.612 -26.012  1.00  0.00    -0.646 OA
BRANCH  32  34
HETATM   34  O4  UNL     1       3.430  52.192 -27.452  1.00  0.00    -0.773 OA
HETATM   35  H44 UNL     1       4.259  51.717 -27.240  1.00  0.00     0.167 HD
ENDBRANCH  32  34
ENDBRANCH  30  32
ENDBRANCH  28  29
ENDBRANCH  27  28
ENDBRANCH  25  27
ENDBRANCH   1  25
TORSDOF 6
ENDMDL
MODEL 2
REMARK minimizedAffinity -9.61523247
REMARK  6 active torsions:
REMARK  status: ('A' for Active; 'I' for Inactive)
REMARK    1  A    between atoms: C2_2  and  C30_32 
REMARK    2  A    between atoms: C3_3  and  C4_4 
REMARK    3  A    between atoms: C4_4  and  C5_5 
REMARK    4  A    between atoms: C5_5  and  C6_6 
REMARK    5  A    between atoms: C6_6  and  C8_8 
REMARK    6  A    between atoms: C30_32  and  O4_34 
ROOT
HETATM    1  C8  UNL     1       0.622  52.049 -20.484  1.00  0.00    -0.002 C 
HETATM    2  C9  UNL     1       0.033  53.093 -19.492  1.00  0.00     0.007 C 
HETATM    3  C10 UNL     1      -1.135  52.417 -18.750  1.00  0.00     0.015 C 
HETATM    4  C11 UNL     1      -0.993  50.915 -19.060  1.00  0.00    -0.005 C 
HETATM    5  C12 UNL     1       0.060  50.341 -18.058  1.00  0.00     0.021 C 
HETATM    6  C13 UNL     1      -2.192  49.984 -18.932  1.00  0.00    -0.000 C 
HETATM    7  C14 UNL     1      -2.331  48.893 -19.731  1.00  0.00    -0.060 C 
HETATM    8  C15 UNL     1      -1.278  48.579 -20.809  1.00  0.00     0.036 C 
HETATM    9  C16 UNL     1      -0.109  49.571 -20.980  1.00  0.00     0.015 C 
HETATM   10  C17 UNL     1      -0.518  50.989 -20.565  1.00  0.00    -0.028 C 
HETATM   11  C18 UNL     1      -1.629  51.498 -21.539  1.00  0.00     0.016 C 
HETATM   12  C19 UNL     1      -3.522  47.899 -19.624  1.00  0.00    -0.014 C 
HETATM   13  C20 UNL     1      -2.983  46.621 -18.939  1.00  0.00     0.020 C 
HETATM   14  C21 UNL     1      -4.057  47.537 -21.043  1.00  0.00     0.021 C 
HETATM   15  C22 UNL     1      -5.500  47.046 -21.118  1.00  0.00     0.080 C 
HETATM   16  C23 UNL     1      -6.052  46.616 -19.784  1.00  0.00     0.135 C 
HETATM   17  O1  UNL     1      -6.619  45.530 -19.667  1.00  0.00    -0.297 OA
HETATM   18  C24 UNL     1      -5.958  47.624 -18.634  1.00  0.00     0.018 C 
HETATM   19  C25 UNL     1      -7.245  48.474 -18.681  1.00  0.00     0.023 C 
HETATM   20  C26 UNL     1      -5.956  46.862 -17.292  1.00  0.00     0.023 C 
HETATM   21  C27 UNL     1      -4.708  48.552 -18.841  1.00  0.00     0.020 C 
HETATM   22  C28 UNL     1      -4.223  49.198 -17.545  1.00  0.00     0.090 C 
HETATM   23  C29 UNL     1      -3.160  50.229 -17.815  1.00  0.00     0.157 C 
HETATM   24  O2  UNL     1      -3.059  51.210 -17.082  1.00  0.00    -0.293 OA
ENDROOT
BRANCH   1  25
HETATM   25  C6  UNL     1       1.159  52.716 -21.781  1.00  0.00    -0.014 C 
HETATM   26  C7  UNL     1       1.305  54.235 -21.658  1.00  0.00     0.010 C 
BRANCH  25  27
HETATM   27  C5  UNL     1       0.332  52.341 -23.046  1.00  0.00     0.008 C 
BRANCH  27  28
HETATM   28  C4  UNL     1       0.498  53.215 -24.299  1.00  0.00     0.028 C 
BRANCH  28  29
HETATM   29  C3  UNL     1       0.931  52.456 -25.522  1.00  0.00    -0.013 C 
HETATM   30  C2  UNL     1       0.580  52.674 -26.805  1.00  0.00     0.008 C 
HETATM   31  C1  UNL     1       1.156  51.885 -27.942  1.00  0.00     0.055 C 
BRANCH  30  32
HETATM   32  C30 UNL     1      -0.363  53.731 -27.226  1.00  0.00     0.171 C 
HETATM   33  O3  UNL     1      -1.497  53.547 -27.632  1.00  0.00    -0.646 OA
BRANCH  32  34
HETATM   34  O4  UNL     1       0.124  54.962 -27.018  1.00  0.00    -0.773 OA
HETATM   35  H44 UNL     1      -0.609  55.555 -27.284  1.00  0.00     0.167 HD
ENDBRANCH  32  34
ENDBRANCH  30  32
ENDBRANCH  28  29
ENDBRANCH  27  28
ENDBRANCH  25  27
ENDBRANCH   1  25
TORSDOF 6
ENDMDL
MODEL 3
REMARK minimizedAffinity -9.60426807
REMARK  6 active torsions:
REMARK  status: ('A' for Active; 'I' for Inactive)
REMARK    1  A    between atoms: C2_2  and  C30_32 
REMARK    2  A    between atoms: C3_3  and  C4_4 
REMARK    3  A    between atoms: C4_4  and  C5_5 
REMARK    4  A    between atoms: C5_5  and  C6_6 
REMARK    5  A    between atoms: C6_6  and  C8_8 
REMARK    6  A    between atoms: C30_32  and  O4_34 
ROOT
HETATM    1  C8  UNL     1      -0.003  51.003 -21.444  1.00  0.00    -0.002 C 
HETATM    2  C9  UNL     1       0.057  51.207 -19.903  1.00  0.00     0.007 C 
HETATM    3  C10 UNL     1      -1.163  50.491 -19.294  1.00  0.00     0.015 C 
HETATM    4  C11 UNL     1      -1.714  49.605 -20.427  1.00  0.00    -0.005 C 
HETATM    5  C12 UNL     1      -0.866  48.292 -20.432  1.00  0.00     0.021 C 
HETATM    6  C13 UNL     1      -3.161  49.127 -20.398  1.00  0.00    -0.000 C 
HETATM    7  C14 UNL     1      -3.864  48.922 -21.543  1.00  0.00    -0.060 C 
HETATM    8  C15 UNL     1      -3.213  49.188 -22.912  1.00  0.00     0.036 C 
HETATM    9  C16 UNL     1      -1.774  49.745 -22.927  1.00  0.00     0.015 C 
HETATM   10  C17 UNL     1      -1.481  50.561 -21.662  1.00  0.00    -0.028 C 
HETATM   11  C18 UNL     1      -2.405  51.822 -21.651  1.00  0.00     0.016 C 
HETATM   12  C19 UNL     1      -5.332  48.412 -21.567  1.00  0.00    -0.014 C 
HETATM   13  C20 UNL     1      -5.287  46.928 -22.003  1.00  0.00     0.020 C 
HETATM   14  C21 UNL     1      -6.173  49.226 -22.597  1.00  0.00     0.021 C 
HETATM   15  C22 UNL     1      -7.682  49.251 -22.371  1.00  0.00     0.080 C 
HETATM   16  C23 UNL     1      -8.160  48.174 -21.431  1.00  0.00     0.135 C 
HETATM   17  O1  UNL     1      -9.108  47.453 -21.742  1.00  0.00    -0.297 OA
HETATM   18  C24 UNL     1      -7.481  48.095 -20.060  1.00  0.00     0.018 C 
HETATM   19  C25 UNL     1      -8.281  49.014 -19.114  1.00  0.00     0.023 C 
HETATM   20  C26 UNL     1      -7.602  46.655 -19.518  1.00  0.00     0.023 C 
HETATM   21  C27 UNL     1      -6.002  48.612 -20.168  1.00  0.00     0.020 C 
HETATM   22  C28 UNL     1      -5.104  48.092 -19.048  1.00  0.00     0.090 C 
HETATM   23  C29 UNL     1      -3.759  48.766 -19.072  1.00  0.00     0.157 C 
HETATM   24  O2  UNL     1      -3.146  48.946 -18.021  1.00  0.00    -0.293 OA
ENDROOT
BRANCH   1  25
HETATM   25  C6  UNL     1       0.567  52.225 -22.217  1.00  0.00    -0.014 C 
HETATM   26  C7  UNL     1       0.725  53.469 -21.338  1.00  0.00     0.010 C 
BRANCH  25  27
HETATM   27  C5  UNL     1      -0.238  52.559 -23.507  1.00  0.00     0.008 C 
BRANCH  27  28
HETATM   28  C4  UNL     1       0.504  53.261 -24.656  1.00  0.00     0.028 C 
BRANCH  28  29
HETATM   29  C3  UNL     1       0.655  52.420 -25.892  1.00  0.00    -0.013 C 
HETATM   30  C2  UNL     1       0.205  52.680 -27.136  1.00  0.00     0.008 C 
HETATM   31  C1  UNL     1       0.501  51.784 -28.302  1.00  0.00     0.055 C 
BRANCH  30  32
HETATM   32  C30 UNL     1      -0.576  53.883 -27.488  1.00  0.00     0.171 C 
HETATM   33  O3  UNL     1      -0.163  55.029 -27.460  1.00  0.00    -0.646 OA
BRANCH  32  34
HETATM   34  O4  UNL     1      -1.796  53.582 -27.954  1.00  0.00    -0.773 OA
HETATM   35  H44 UNL     1      -2.179  54.450 -28.196  1.00  0.00     0.167 HD
ENDBRANCH  32  34
ENDBRANCH  30  32
ENDBRANCH  28  29
ENDBRANCH  27  28
ENDBRANCH  25  27
ENDBRANCH   1  25
TORSDOF 6
ENDMDL
MODEL 4
REMARK minimizedAffinity -9.29762936
REMARK  6 active torsions:
REMARK  status: ('A' for Active; 'I' for Inactive)
REMARK    1  A    between atoms: C2_2  and  C30_32 
REMARK    2  A    between atoms: C3_3  and  C4_4 
REMARK    3  A    between atoms: C4_4  and  C5_5 
REMARK    4  A    between atoms: C5_5  and  C6_6 
REMARK    5  A    between atoms: C6_6  and  C8_8 
REMARK    6  A    between atoms: C30_32  and  O4_34 
ROOT
HETATM    1  C8  UNL     1      -1.509  51.507 -23.211  1.00  0.00    -0.002 C 
HETATM    2  C9  UNL     1      -1.262  50.738 -24.540  1.00  0.00     0.007 C 
HETATM    3  C10 UNL     1      -2.459  49.794 -24.758  1.00  0.00     0.015 C 
HETATM    4  C11 UNL     1      -3.528  50.264 -23.756  1.00  0.00    -0.005 C 
HETATM    5  C12 UNL     1      -4.276  51.466 -24.418  1.00  0.00     0.021 C 
HETATM    6  C13 UNL     1      -4.639  49.319 -23.311  1.00  0.00    -0.000 C 
HETATM    7  C14 UNL     1      -5.184  49.400 -22.069  1.00  0.00    -0.060 C 
HETATM    8  C15 UNL     1      -4.673  50.447 -21.062  1.00  0.00     0.036 C 
HETATM    9  C16 UNL     1      -3.497  51.346 -21.496  1.00  0.00     0.015 C 
HETATM   10  C17 UNL     1      -2.609  50.640 -22.527  1.00  0.00    -0.028 C 
HETATM   11  C18 UNL     1      -1.943  49.398 -21.852  1.00  0.00     0.016 C 
HETATM   12  C19 UNL     1      -6.334  48.477 -21.576  1.00  0.00    -0.014 C 
HETATM   13  C20 UNL     1      -7.626  49.327 -21.577  1.00  0.00     0.020 C 
HETATM   14  C21 UNL     1      -6.046  47.975 -20.128  1.00  0.00     0.021 C 
HETATM   15  C22 UNL     1      -6.740  46.683 -19.709  1.00  0.00     0.080 C 
HETATM   16  C23 UNL     1      -7.890  46.306 -20.606  1.00  0.00     0.135 C 
HETATM   17  O1  UNL     1      -8.984  46.011 -20.126  1.00  0.00    -0.297 OA
HETATM   18  C24 UNL     1      -7.601  46.218 -22.109  1.00  0.00     0.018 C 
HETATM   19  C25 UNL     1      -7.152  44.768 -22.390  1.00  0.00     0.023 C 
HETATM   20  C26 UNL     1      -8.909  46.457 -22.891  1.00  0.00     0.023 C 
HETATM   21  C27 UNL     1      -6.443  47.209 -22.486  1.00  0.00     0.020 C 
HETATM   22  C28 UNL     1      -6.442  47.591 -23.965  1.00  0.00     0.090 C 
HETATM   23  C29 UNL     1      -5.207  48.373 -24.324  1.00  0.00     0.157 C 
HETATM   24  O2  UNL     1      -4.730  48.279 -25.453  1.00  0.00    -0.293 OA
ENDROOT
BRANCH   1  25
HETATM   25  C6  UNL     1      -0.183  51.815 -22.461  1.00  0.00    -0.014 C 
HETATM   26  C7  UNL     1      -0.407  52.373 -21.052  1.00  0.00     0.010 C 
BRANCH  25  27
HETATM   27  C5  UNL     1       0.777  52.733 -23.273  1.00  0.00     0.008 C 
BRANCH  27  28
HETATM   28  C4  UNL     1       0.243  53.367 -24.567  1.00  0.00     0.028 C 
BRANCH  28  29
HETATM   29  C3  UNL     1       0.662  52.649 -25.819  1.00  0.00    -0.013 C 
HETATM   30  C2  UNL     1       0.367  52.961 -27.097  1.00  0.00     0.008 C 
HETATM   31  C1  UNL     1       0.925  52.198 -28.260  1.00  0.00     0.055 C 
BRANCH  30  32
HETATM   32  C30 UNL     1      -0.488  54.102 -27.482  1.00  0.00     0.171 C 
HETATM   33  O3  UNL     1      -1.608  54.019 -27.954  1.00  0.00    -0.646 OA
BRANCH  32  34
HETATM   34  O4  UNL     1       0.060  55.282 -27.162  1.00  0.00    -0.773 OA
HETATM   35  H44 UNL     1      -0.621  55.937 -27.417  1.00  0.00     0.167 HD
ENDBRANCH  32  34
ENDBRANCH  30  32
ENDBRANCH  28  29
ENDBRANCH  27  28
ENDBRANCH  25  27
ENDBRANCH   1  25
TORSDOF 6
ENDMDL
MODEL 5
REMARK minimizedAffinity -9.09214211
REMARK  6 active torsions:
REMARK  status: ('A' for Active; 'I' for Inactive)
REMARK    1  A    between atoms: C2_2  and  C30_32 
REMARK    2  A    between atoms: C3_3  and  C4_4 
REMARK    3  A    between atoms: C4_4  and  C5_5 
REMARK    4  A    between atoms: C5_5  and  C6_6 
REMARK    5  A    between atoms: C6_6  and  C8_8 
REMARK    6  A    between atoms: C30_32  and  O4_34 
ROOT
HETATM    1  C8  UNL     1      -1.264  50.314 -18.065  1.00  0.00    -0.002 C 
HETATM    2  C9  UNL     1       0.209  50.772 -17.865  1.00  0.00     0.007 C 
HETATM    3  C10 UNL     1       0.677  51.414 -19.184  1.00  0.00     0.015 C 
HETATM    4  C11 UNL     1      -0.609  51.631 -20.003  1.00  0.00    -0.005 C 
HETATM    5  C12 UNL     1      -1.246  52.968 -19.505  1.00  0.00     0.021 C 
HETATM    6  C13 UNL     1      -0.543  51.778 -21.519  1.00  0.00    -0.000 C 
HETATM    7  C14 UNL     1      -1.557  51.354 -22.317  1.00  0.00    -0.060 C 
HETATM    8  C15 UNL     1      -2.803  50.688 -21.705  1.00  0.00     0.036 C 
HETATM    9  C16 UNL     1      -2.824  50.475 -20.177  1.00  0.00     0.015 C 
HETATM   10  C17 UNL     1      -1.405  50.322 -19.617  1.00  0.00    -0.028 C 
HETATM   11  C18 UNL     1      -0.771  49.019 -20.201  1.00  0.00     0.016 C 
HETATM   12  C19 UNL     1      -1.549  51.504 -23.865  1.00  0.00    -0.014 C 
HETATM   13  C20 UNL     1      -2.520  52.657 -24.212  1.00  0.00     0.020 C 
HETATM   14  C21 UNL     1      -2.046  50.190 -24.541  1.00  0.00     0.021 C 
HETATM   15  C22 UNL     1      -1.599  49.958 -25.982  1.00  0.00     0.080 C 
HETATM   16  C23 UNL     1      -1.082  51.204 -26.652  1.00  0.00     0.135 C 
HETATM   17  O1  UNL     1      -1.495  51.529 -27.764  1.00  0.00    -0.297 OA
HETATM   18  C24 UNL     1       0.033  51.970 -25.931  1.00  0.00     0.018 C 
HETATM   19  C25 UNL     1       1.370  51.376 -26.423  1.00  0.00     0.023 C 
HETATM   20  C26 UNL     1      -0.005  53.449 -26.369  1.00  0.00     0.023 C 
HETATM   21  C27 UNL     1      -0.095  51.761 -24.380  1.00  0.00     0.020 C 
HETATM   22  C28 UNL     1       0.589  52.861 -23.571  1.00  0.00     0.090 C 
HETATM   23  C29 UNL     1       0.619  52.520 -22.106  1.00  0.00     0.157 C 
HETATM   24  O2  UNL     1       1.551  52.912 -21.405  1.00  0.00    -0.293 OA
ENDROOT
BRANCH   1  25
HETATM   25  C6  UNL     1      -1.588  49.024 -17.261  1.00  0.00    -0.014 C 
HETATM   26  C7  UNL     1      -2.940  49.088 -16.545  1.00  0.00     0.010 C 
BRANCH  25  27
HETATM   27  C5  UNL     1      -0.456  48.623 -16.271  1.00  0.00     0.008 C 
BRANCH  27  28
HETATM   28  C4  UNL     1      -0.399  49.342 -14.914  1.00  0.00     0.028 C 
BRANCH  28  29
HETATM   29  C3  UNL     1       0.992  49.697 -14.467  1.00  0.00    -0.013 C 
HETATM   30  C2  UNL     1       1.504  50.922 -14.233  1.00  0.00     0.008 C 
HETATM   31  C1  UNL     1       2.893  51.126 -13.708  1.00  0.00     0.055 C 
BRANCH  30  32
HETATM   32  C30 UNL     1       0.743  52.175 -14.420  1.00  0.00     0.171 C 
HETATM   33  O3  UNL     1      -0.185  52.550 -13.726  1.00  0.00    -0.646 OA
BRANCH  32  34
HETATM   34  O4  UNL     1       1.251  52.939 -15.397  1.00  0.00    -0.773 OA
HETATM   35  H44 UNL     1       0.697  53.746 -15.379  1.00  0.00     0.167 HD
ENDBRANCH  32  34
ENDBRANCH  30  32
ENDBRANCH  28  29
ENDBRANCH  27  28
ENDBRANCH  25  27
ENDBRANCH   1  25
TORSDOF 6
ENDMDL
MODEL 6
REMARK minimizedAffinity -9.02553844
REMARK  6 active torsions:
REMARK  status: ('A' for Active; 'I' for Inactive)
REMARK    1  A    between atoms: C2_2  and  C30_32 
REMARK    2  A    between atoms: C3_3  and  C4_4 
REMARK    3  A    between atoms: C4_4  and  C5_5 
REMARK    4  A    between atoms: C5_5  and  C6_6 
REMARK    5  A    between atoms: C6_6  and  C8_8 
REMARK    6  A    between atoms: C30_32  and  O4_34 
ROOT
HETATM    1  C8  UNL     1      -2.481  50.251 -22.773  1.00  0.00    -0.002 C 
HETATM    2  C9  UNL     1      -2.599  48.704 -22.885  1.00  0.00     0.007 C 
HETATM    3  C10 UNL     1      -2.462  48.126 -21.464  1.00  0.00     0.015 C 
HETATM    4  C11 UNL     1      -2.610  49.335 -20.523  1.00  0.00    -0.005 C 
HETATM    5  C12 UNL     1      -4.142  49.586 -20.341  1.00  0.00     0.021 C 
HETATM    6  C13 UNL     1      -2.059  49.281 -19.103  1.00  0.00    -0.000 C 
HETATM    7  C14 UNL     1      -1.595  50.395 -18.479  1.00  0.00    -0.060 C 
HETATM    8  C15 UNL     1      -1.596  51.751 -19.206  1.00  0.00     0.036 C 
HETATM    9  C16 UNL     1      -2.084  51.780 -20.670  1.00  0.00     0.015 C 
HETATM   10  C17 UNL     1      -1.845  50.433 -21.362  1.00  0.00    -0.028 C 
HETATM   11  C18 UNL     1      -0.305  50.180 -21.452  1.00  0.00     0.016 C 
HETATM   12  C19 UNL     1      -1.046  50.396 -17.024  1.00  0.00    -0.014 C 
HETATM   13  C20 UNL     1      -2.132  51.043 -16.132  1.00  0.00     0.020 C 
HETATM   14  C21 UNL     1       0.262  51.240 -16.937  1.00  0.00     0.021 C 
HETATM   15  C22 UNL     1       1.203  50.914 -15.781  1.00  0.00     0.080 C 
HETATM   16  C23 UNL     1       0.547  50.110 -14.689  1.00  0.00     0.135 C 
HETATM   17  O1  UNL     1       0.650  50.458 -13.513  1.00  0.00    -0.297 OA
HETATM   18  C24 UNL     1      -0.154  48.812 -15.105  1.00  0.00     0.018 C 
HETATM   19  C25 UNL     1       0.907  47.693 -15.034  1.00  0.00     0.023 C 
HETATM   20  C26 UNL     1      -1.250  48.476 -14.073  1.00  0.00     0.023 C 
HETATM   21  C27 UNL     1      -0.682  48.941 -16.577  1.00  0.00     0.020 C 
HETATM   22  C28 UNL     1      -1.817  47.969 -16.892  1.00  0.00     0.090 C 
HETATM   23  C29 UNL     1      -2.156  47.984 -18.358  1.00  0.00     0.157 C 
HETATM   24  O2  UNL     1      -2.569  46.961 -18.901  1.00  0.00    -0.293 OA
ENDROOT
BRANCH   1  25
HETATM   25  C6  UNL     1      -1.798  50.876 -24.022  1.00  0.00    -0.014 C 
HETATM   26  C7  UNL     1      -2.091  52.371 -24.180  1.00  0.00     0.010 C 
BRANCH  25  27
HETATM   27  C5  UNL     1      -2.114  50.107 -25.338  1.00  0.00     0.008 C 
BRANCH  27  28
HETATM   28  C4  UNL     1      -1.430  50.582 -26.630  1.00  0.00     0.028 C 
BRANCH  28  29
HETATM   29  C3  UNL     1       0.070  50.624 -26.550  1.00  0.00    -0.013 C 
HETATM   30  C2  UNL     1       0.889  51.663 -26.808  1.00  0.00     0.008 C 
HETATM   31  C1  UNL     1       2.372  51.588 -26.606  1.00  0.00     0.055 C 
BRANCH  30  32
HETATM   32  C30 UNL     1       0.412  52.984 -27.268  1.00  0.00     0.171 C 
HETATM   33  O3  UNL     1       0.401  54.003 -26.602  1.00  0.00    -0.646 OA
BRANCH  32  34
HETATM   34  O4  UNL     1       0.076  52.982 -28.565  1.00  0.00    -0.773 OA
HETATM   35  H44 UNL     1      -0.165  53.913 -28.749  1.00  0.00     0.167 HD
ENDBRANCH  32  34
ENDBRANCH  30  32
ENDBRANCH  28  29
ENDBRANCH  27  28
ENDBRANCH  25  27
ENDBRANCH   1  25
TORSDOF 6
ENDMDL
MODEL 7
REMARK minimizedAffinity -8.99376774
REMARK  6 active torsions:
REMARK  status: ('A' for Active; 'I' for Inactive)
REMARK    1  A    between atoms: C2_2  and  C30_32 
REMARK    2  A    between atoms: C3_3  and  C4_4 
REMARK    3  A    between atoms: C4_4  and  C5_5 
REMARK    4  A    between atoms: C5_5  and  C6_6 
REMARK    5  A    between atoms: C6_6  and  C8_8 
REMARK    6  A    between atoms: C30_32  and  O4_34 
ROOT
HETATM    1  C8  UNL     1      -2.795  48.494 -19.089  1.00  0.00    -0.002 C 
HETATM    2  C9  UNL     1      -1.415  48.804 -18.442  1.00  0.00     0.007 C 
HETATM    3  C10 UNL     1      -0.671  49.771 -19.382  1.00  0.00     0.015 C 
HETATM    4  C11 UNL     1      -1.741  50.274 -20.368  1.00  0.00    -0.005 C 
HETATM    5  C12 UNL     1      -2.499  51.444 -19.662  1.00  0.00     0.021 C 
HETATM    6  C13 UNL     1      -1.335  50.844 -21.723  1.00  0.00    -0.000 C 
HETATM    7  C14 UNL     1      -2.133  50.713 -22.815  1.00  0.00    -0.060 C 
HETATM    8  C15 UNL     1      -3.473  49.963 -22.714  1.00  0.00     0.036 C 
HETATM    9  C16 UNL     1      -3.837  49.325 -21.357  1.00  0.00     0.015 C 
HETATM   10  C17 UNL     1      -2.580  48.951 -20.563  1.00  0.00    -0.028 C 
HETATM   11  C18 UNL     1      -1.806  47.837 -21.341  1.00  0.00     0.016 C 
HETATM   12  C19 UNL     1      -1.776  51.297 -24.212  1.00  0.00    -0.014 C 
HETATM   13  C20 UNL     1      -2.664  52.547 -24.419  1.00  0.00     0.020 C 
HETATM   14  C21 UNL     1      -2.082  50.255 -25.330  1.00  0.00     0.021 C 
HETATM   15  C22 UNL     1      -1.316  50.421 -26.639  1.00  0.00     0.080 C 
HETATM   16  C23 UNL     1      -0.682  51.779 -26.789  1.00  0.00     0.135 C 
HETATM   17  O1  UNL     1      -0.837  52.427 -27.824  1.00  0.00    -0.297 OA
HETATM   18  C24 UNL     1       0.226  52.254 -25.649  1.00  0.00     0.018 C 
HETATM   19  C25 UNL     1       1.650  51.760 -25.981  1.00  0.00     0.023 C 
HETATM   20  C26 UNL     1       0.262  53.796 -25.640  1.00  0.00     0.023 C 
HETATM   21  C27 UNL     1      -0.248  51.619 -24.293  1.00  0.00     0.020 C 
HETATM   22  C28 UNL     1       0.214  52.409 -23.071  1.00  0.00     0.090 C 
HETATM   23  C29 UNL     1      -0.084  51.664 -21.797  1.00  0.00     0.157 C 
HETATM   24  O2  UNL     1       0.657  51.795 -20.825  1.00  0.00    -0.293 OA
ENDROOT
BRANCH   1  25
HETATM   25  C6  UNL     1      -3.270  47.046 -18.784  1.00  0.00    -0.014 C 
HETATM   26  C7  UNL     1      -3.425  46.188 -20.043  1.00  0.00     0.010 C 
BRANCH  25  27
HETATM   27  C5  UNL     1      -4.564  46.999 -17.920  1.00  0.00     0.008 C 
BRANCH  27  28
HETATM   28  C4  UNL     1      -5.910  46.852 -18.647  1.00  0.00     0.028 C 
BRANCH  28  29
HETATM   29  C3  UNL     1      -7.004  47.722 -18.094  1.00  0.00    -0.013 C 
HETATM   30  C2  UNL     1      -7.678  48.709 -18.717  1.00  0.00     0.008 C 
HETATM   31  C1  UNL     1      -8.810  49.445 -18.065  1.00  0.00     0.055 C 
BRANCH  30  32
HETATM   32  C30 UNL     1      -7.409  49.131 -20.107  1.00  0.00     0.171 C 
HETATM   33  O3  UNL     1      -7.656  48.478 -21.105  1.00  0.00    -0.646 OA
BRANCH  32  34
HETATM   34  O4  UNL     1      -6.944  50.386 -20.178  1.00  0.00    -0.773 OA
HETATM   35  H44 UNL     1      -6.862  50.554 -21.139  1.00  0.00     0.167 HD
ENDBRANCH  32  34
ENDBRANCH  30  32
ENDBRANCH  28  29
ENDBRANCH  27  28
ENDBRANCH  25  27
ENDBRANCH   1  25
TORSDOF 6
ENDMDL
MODEL 8
REMARK minimizedAffinity -8.98857403
REMARK  6 active torsions:
REMARK  status: ('A' for Active; 'I' for Inactive)
REMARK    1  A    between atoms: C2_2  and  C30_32 
REMARK    2  A    between atoms: C3_3  and  C4_4 
REMARK    3  A    between atoms: C4_4  and  C5_5 
REMARK    4  A    between atoms: C5_5  and  C6_6 
REMARK    5  A    between atoms: C6_6  and  C8_8 
REMARK    6  A    between atoms: C30_32  and  O4_34 
ROOT
HETATM    1  C8  UNL     1      -3.023  50.307 -21.926  1.00  0.00    -0.002 C 
HETATM    2  C9  UNL     1      -2.022  49.726 -22.965  1.00  0.00     0.007 C 
HETATM    3  C10 UNL     1      -2.849  49.081 -24.093  1.00  0.00     0.015 C 
HETATM    4  C11 UNL     1      -4.286  49.587 -23.876  1.00  0.00    -0.005 C 
HETATM    5  C12 UNL     1      -4.376  51.001 -24.534  1.00  0.00     0.021 C 
HETATM    6  C13 UNL     1      -5.470  48.819 -24.454  1.00  0.00    -0.000 C 
HETATM    7  C14 UNL     1      -6.679  48.806 -23.832  1.00  0.00    -0.060 C 
HETATM    8  C15 UNL     1      -6.878  49.559 -22.504  1.00  0.00     0.036 C 
HETATM    9  C16 UNL     1      -5.653  50.268 -21.890  1.00  0.00     0.015 C 
HETATM   10  C17 UNL     1      -4.348  49.575 -22.298  1.00  0.00    -0.028 C 
HETATM   11  C18 UNL     1      -4.331  48.135 -21.690  1.00  0.00     0.016 C 
HETATM   12  C19 UNL     1      -7.922  48.060 -24.392  1.00  0.00    -0.014 C 
HETATM   13  C20 UNL     1      -8.871  49.136 -24.972  1.00  0.00     0.020 C 
HETATM   14  C21 UNL     1      -8.653  47.288 -23.252  1.00  0.00     0.021 C 
HETATM   15  C22 UNL     1      -9.519  46.107 -23.679  1.00  0.00     0.080 C 
HETATM   16  C23 UNL     1      -9.846  46.111 -25.150  1.00  0.00     0.135 C 
HETATM   17  O1  UNL     1     -11.007  45.963 -25.529  1.00  0.00    -0.297 OA
HETATM   18  C24 UNL     1      -8.667  46.207 -26.125  1.00  0.00     0.018 C 
HETATM   19  C25 UNL     1      -8.216  44.761 -26.420  1.00  0.00     0.023 C 
HETATM   20  C26 UNL     1      -9.158  46.819 -27.453  1.00  0.00     0.023 C 
HETATM   21  C27 UNL     1      -7.488  46.999 -25.457  1.00  0.00     0.020 C 
HETATM   22  C28 UNL     1      -6.522  47.603 -26.474  1.00  0.00     0.090 C 
HETATM   23  C29 UNL     1      -5.306  48.176 -25.797  1.00  0.00     0.157 C 
HETATM   24  O2  UNL     1      -4.223  48.171 -26.378  1.00  0.00    -0.293 OA
ENDROOT
BRANCH   1  25
HETATM   25  C6  UNL     1      -2.470  50.226 -20.475  1.00  0.00    -0.014 C 
HETATM   26  C7  UNL     1      -3.122  51.238 -19.528  1.00  0.00     0.010 C 
BRANCH  25  27
HETATM   27  C5  UNL     1      -0.918  50.327 -20.408  1.00  0.00     0.008 C 
BRANCH  27  28
HETATM   28  C4  UNL     1      -0.283  51.724 -20.497  1.00  0.00     0.028 C 
BRANCH  28  29
HETATM   29  C3  UNL     1      -0.074  52.213 -21.903  1.00  0.00    -0.013 C 
HETATM   30  C2  UNL     1       0.672  53.256 -22.320  1.00  0.00     0.008 C 
HETATM   31  C1  UNL     1       0.859  53.582 -23.771  1.00  0.00     0.055 C 
BRANCH  30  32
HETATM   32  C30 UNL     1       1.414  54.147 -21.404  1.00  0.00     0.171 C 
HETATM   33  O3  UNL     1       1.472  54.028 -20.193  1.00  0.00    -0.646 OA
BRANCH  32  34
HETATM   34  O4  UNL     1       2.128  55.073 -22.059  1.00  0.00    -0.773 OA
HETATM   35  H44 UNL     1       2.604  55.551 -21.350  1.00  0.00     0.167 HD
ENDBRANCH  32  34
ENDBRANCH  30  32
ENDBRANCH  28  29
ENDBRANCH  27  28
ENDBRANCH  25  27
ENDBRANCH   1  25
TORSDOF 6
ENDMDL
MODEL 9
REMARK minimizedAffinity -8.94482613
REMARK  6 active torsions:
REMARK  status: ('A' for Active; 'I' for Inactive)
REMARK    1  A    between atoms: C2_2  and  C30_32 
REMARK    2  A    between atoms: C3_3  and  C4_4 
REMARK    3  A    between atoms: C4_4  and  C5_5 
REMARK    4  A    between atoms: C5_5  and  C6_6 
REMARK    5  A    between atoms: C6_6  and  C8_8 
REMARK    6  A    between atoms: C30_32  and  O4_34 
ROOT
HETATM    1  C8  UNL     1      -3.588  50.577 -24.656  1.00  0.00    -0.002 C 
HETATM    2  C9  UNL     1      -4.858  51.414 -24.333  1.00  0.00     0.007 C 
HETATM    3  C10 UNL     1      -5.373  50.960 -22.955  1.00  0.00     0.015 C 
HETATM    4  C11 UNL     1      -4.225  50.130 -22.352  1.00  0.00    -0.005 C 
HETATM    5  C12 UNL     1      -3.219  51.141 -21.713  1.00  0.00     0.021 C 
HETATM    6  C13 UNL     1      -4.502  49.116 -21.248  1.00  0.00    -0.000 C 
HETATM    7  C14 UNL     1      -3.761  47.983 -21.122  1.00  0.00    -0.060 C 
HETATM    8  C15 UNL     1      -2.623  47.685 -22.115  1.00  0.00     0.036 C 
HETATM    9  C16 UNL     1      -2.402  48.680 -23.273  1.00  0.00     0.015 C 
HETATM   10  C17 UNL     1      -3.705  49.394 -23.649  1.00  0.00    -0.028 C 
HETATM   11  C18 UNL     1      -4.715  48.339 -24.207  1.00  0.00     0.016 C 
HETATM   12  C19 UNL     1      -3.988  46.931 -20.000  1.00  0.00    -0.014 C 
HETATM   13  C20 UNL     1      -2.844  47.111 -18.975  1.00  0.00     0.020 C 
HETATM   14  C21 UNL     1      -3.932  45.488 -20.588  1.00  0.00     0.021 C 
HETATM   15  C22 UNL     1      -4.651  44.403 -19.792  1.00  0.00     0.080 C 
HETATM   16  C23 UNL     1      -4.965  44.813 -18.377  1.00  0.00     0.135 C 
HETATM   17  O1  UNL     1      -4.675  44.074 -17.437  1.00  0.00    -0.297 OA
HETATM   18  C24 UNL     1      -5.734  46.125 -18.186  1.00  0.00     0.018 C 
HETATM   19  C25 UNL     1      -7.236  45.766 -18.217  1.00  0.00     0.023 C 
HETATM   20  C26 UNL     1      -5.423  46.695 -16.787  1.00  0.00     0.023 C 
HETATM   21  C27 UNL     1      -5.406  47.110 -19.364  1.00  0.00     0.020 C 
HETATM   22  C28 UNL     1      -5.670  48.572 -19.010  1.00  0.00     0.090 C 
HETATM   23  C29 UNL     1      -5.538  49.457 -20.220  1.00  0.00     0.157 C 
HETATM   24  O2  UNL     1      -6.224  50.473 -20.313  1.00  0.00    -0.293 OA
ENDROOT
BRANCH   1  25
HETATM   25  C6  UNL     1      -3.448  50.293 -26.178  1.00  0.00    -0.014 C 
HETATM   26  C7  UNL     1      -3.886  48.878 -26.567  1.00  0.00     0.010 C 
BRANCH  25  27
HETATM   27  C5  UNL     1      -2.024  50.602 -26.727  1.00  0.00     0.008 C 
BRANCH  27  28
HETATM   28  C4  UNL     1      -0.895  50.834 -25.709  1.00  0.00     0.028 C 
BRANCH  28  29
HETATM   29  C3  UNL     1       0.481  50.851 -26.315  1.00  0.00    -0.013 C 
HETATM   30  C2  UNL     1       1.079  51.848 -26.995  1.00  0.00     0.008 C 
HETATM   31  C1  UNL     1       2.496  51.758 -27.475  1.00  0.00     0.055 C 
BRANCH  30  32
HETATM   32  C30 UNL     1       0.426  53.140 -27.294  1.00  0.00     0.171 C 
HETATM   33  O3  UNL     1      -0.218  53.391 -28.297  1.00  0.00    -0.646 OA
BRANCH  32  34
HETATM   34  O4  UNL     1       0.526  54.010 -26.280  1.00  0.00    -0.773 OA
HETATM   35  H44 UNL     1       0.014  54.787 -26.583  1.00  0.00     0.167 HD
ENDBRANCH  32  34
ENDBRANCH  30  32
ENDBRANCH  28  29
ENDBRANCH  27  28
ENDBRANCH  25  27
ENDBRANCH   1  25
TORSDOF 6
ENDMDL
