MODEL 1
REMARK minimizedAffinity -8.3003931
REMARK  10 active torsions:
REMARK  status: ('A' for Active; 'I' for Inactive)
REMARK    1  A    between atoms: C5_5  and  C6_6 
REMARK    2  A    between atoms: C6_6  and  C8_8 
REMARK    3  A    between atoms: C8_8  and  O1_9 
REMARK    4  A    between atoms: O1_9  and  C9_10 
REMARK    5  A    between atoms: C15_18  and  O4_20 
REMARK    6  A    between atoms: C17_21  and  O5_22 
REMARK    7  A    between atoms: C20_25  and  O6_27 
REMARK    8  A    between atoms: O6_27  and  C22_28 
REMARK    9  A    between atoms: C22_28  and  C23_30 
REMARK   10  A    between atoms: C23_30  and  C24_31 
ROOT
HETATM    1  C1  UNL     1      -2.634   6.999  15.864  1.00  0.00     0.015 C 
HETATM    2  C2  UNL     1      -2.283   6.709  14.599  1.00  0.00    -0.082 C 
HETATM    3  C3  UNL     1      -3.294   6.748  13.490  1.00  0.00     0.034 C 
HETATM    4  C4  UNL     1      -3.246   5.447  12.689  1.00  0.00     0.010 C 
HETATM    5  C5  UNL     1      -1.900   5.332  11.951  1.00  0.00    -0.001 C 
HETATM    6  C11 UNL     1      -0.730   5.361  12.962  1.00  0.00     0.033 C 
HETATM    7  C12 UNL     1       0.711   5.710  12.467  1.00  0.00     0.162 C 
HETATM    8  O3  UNL     1       1.241   6.459  13.565  1.00  0.00    -0.376 OA
HETATM    9  C13 UNL     1       0.172   7.283  14.044  1.00  0.00     0.133 C 
HETATM   10  C14 UNL     1       0.754   8.058  15.206  1.00  0.00     0.072 C 
HETATM   11  C15 UNL     1       1.778   9.132  14.718  1.00  0.00     0.082 C 
HETATM   12  C16 UNL     1       2.503   9.675  15.965  1.00  0.00     0.049 C 
HETATM   13  C17 UNL     1       2.865   8.666  13.663  1.00  0.00     0.152 C 
HETATM   14  C18 UNL     1       2.425   8.586  12.164  1.00  0.00     0.038 C 
HETATM   15  C19 UNL     1       2.489   7.236  11.386  1.00  0.00     0.043 C 
HETATM   16  C20 UNL     1       1.127   6.468  11.145  1.00  0.00     0.093 C 
HETATM   17  C21 UNL     1       0.093   7.420  10.526  1.00  0.00     0.049 C 
HETATM   18  C26 UNL     1      -0.898   6.228  14.258  1.00  0.00     0.050 C 
ENDROOT
BRANCH   5  19
HETATM   19  C6  UNL     1      -1.793   4.105  10.988  1.00  0.00     0.010 C 
HETATM   20  C7  UNL     1      -0.992   2.933  11.570  1.00  0.00     0.012 C 
BRANCH  19  21
HETATM   21  C8  UNL     1      -3.166   3.618  10.478  1.00  0.00     0.183 C 
BRANCH  21  22
HETATM   22  O1  UNL     1      -3.769   2.681  11.380  1.00  0.00    -0.321 OA
BRANCH  22  23
HETATM   23  C9  UNL     1      -5.127   2.613  11.378  1.00  0.00     0.254 C 
HETATM   24  C10 UNL     1      -5.562   1.185  11.255  1.00  0.00     0.126 C 
HETATM   25  O2  UNL     1      -5.893   3.561  11.473  1.00  0.00    -0.266 OA
ENDBRANCH  22  23
ENDBRANCH  21  22
ENDBRANCH  19  21
ENDBRANCH   5  19
BRANCH  16  26
HETATM   26  O6  UNL     1       1.366   5.358  10.206  1.00  0.00    -0.308 OA
BRANCH  26  27
HETATM   27  C22 UNL     1       2.540   5.202   9.537  1.00  0.00     0.259 C 
HETATM   28  O7  UNL     1       3.339   4.291   9.695  1.00  0.00    -0.265 OA
BRANCH  27  29
HETATM   29  C23 UNL     1       2.750   6.383   8.615  1.00  0.00     0.111 C 
BRANCH  29  30
HETATM   30  C24 UNL     1       2.477   6.046   7.152  1.00  0.00     0.005 C 
HETATM   31  C25 UNL     1       1.837   7.204   6.401  1.00  0.00     0.005 C 
ENDBRANCH  29  30
ENDBRANCH  27  29
ENDBRANCH  26  27
ENDBRANCH  16  26
BRANCH  11  32
HETATM   32  O4  UNL     1       1.033  10.227  14.155  1.00  0.00    -0.388 OA
HETATM   33  H25 UNL     1       0.516  10.642  14.869  1.00  0.00     0.210 HD
ENDBRANCH  11  32
BRANCH  13  34
HETATM   34  O5  UNL     1       3.545   7.490  14.095  1.00  0.00    -0.393 OA
HETATM   35  H27 UNL     1       2.874   6.776  14.062  1.00  0.00     0.210 HD
ENDBRANCH  13  34
TORSDOF 10
ENDMDL
MODEL 2
REMARK minimizedAffinity -8.04707336
REMARK  10 active torsions:
REMARK  status: ('A' for Active; 'I' for Inactive)
REMARK    1  A    between atoms: C5_5  and  C6_6 
REMARK    2  A    between atoms: C6_6  and  C8_8 
REMARK    3  A    between atoms: C8_8  and  O1_9 
REMARK    4  A    between atoms: O1_9  and  C9_10 
REMARK    5  A    between atoms: C15_18  and  O4_20 
REMARK    6  A    between atoms: C17_21  and  O5_22 
REMARK    7  A    between atoms: C20_25  and  O6_27 
REMARK    8  A    between atoms: O6_27  and  C22_28 
REMARK    9  A    between atoms: C22_28  and  C23_30 
REMARK   10  A    between atoms: C23_30  and  C24_31 
ROOT
HETATM    1  C1  UNL     1      -4.315  11.083  15.925  1.00  0.00     0.015 C 
HETATM    2  C2  UNL     1      -3.782   9.970  15.392  1.00  0.00    -0.082 C 
HETATM    3  C3  UNL     1      -2.393   9.530  15.755  1.00  0.00     0.034 C 
HETATM    4  C4  UNL     1      -1.579   9.262  14.490  1.00  0.00     0.010 C 
HETATM    5  C5  UNL     1      -2.159   8.052  13.737  1.00  0.00    -0.001 C 
HETATM    6  C11 UNL     1      -3.636   8.314  13.357  1.00  0.00     0.033 C 
HETATM    7  C12 UNL     1      -4.569   7.110  13.003  1.00  0.00     0.162 C 
HETATM    8  O3  UNL     1      -5.824   7.522  13.553  1.00  0.00    -0.376 OA
HETATM    9  C13 UNL     1      -5.527   8.163  14.798  1.00  0.00     0.133 C 
HETATM   10  C14 UNL     1      -6.867   8.594  15.355  1.00  0.00     0.072 C 
HETATM   11  C15 UNL     1      -7.705   7.366  15.833  1.00  0.00     0.082 C 
HETATM   12  C16 UNL     1      -9.131   7.872  16.128  1.00  0.00     0.049 C 
HETATM   13  C17 UNL     1      -7.801   6.130  14.845  1.00  0.00     0.152 C 
HETATM   14  C18 UNL     1      -6.594   5.136  14.819  1.00  0.00     0.038 C 
HETATM   15  C19 UNL     1      -5.790   4.893  13.505  1.00  0.00     0.043 C 
HETATM   16  C20 UNL     1      -4.375   5.588  13.377  1.00  0.00     0.093 C 
HETATM   17  C21 UNL     1      -3.525   5.272  14.617  1.00  0.00     0.049 C 
HETATM   18  C26 UNL     1      -4.504   9.182  14.331  1.00  0.00     0.050 C 
ENDROOT
BRANCH   5  19
HETATM   19  C6  UNL     1      -1.323   7.598  12.497  1.00  0.00     0.010 C 
HETATM   20  C7  UNL     1      -0.868   8.758  11.602  1.00  0.00     0.012 C 
BRANCH  19  21
HETATM   21  C8  UNL     1      -0.120   6.708  12.875  1.00  0.00     0.183 C 
BRANCH  21  22
HETATM   22  O1  UNL     1      -0.399   5.317  12.672  1.00  0.00    -0.321 OA
BRANCH  22  23
HETATM   23  C9  UNL     1       0.109   4.745  11.547  1.00  0.00     0.254 C 
HETATM   24  C10 UNL     1       1.442   5.351  11.231  1.00  0.00     0.126 C 
HETATM   25  O2  UNL     1      -0.422   3.863  10.889  1.00  0.00    -0.266 OA
ENDBRANCH  22  23
ENDBRANCH  21  22
ENDBRANCH  19  21
ENDBRANCH   5  19
BRANCH  16  26
HETATM   26  O6  UNL     1      -3.688   5.055  12.187  1.00  0.00    -0.308 OA
BRANCH  26  27
HETATM   27  C22 UNL     1      -3.646   3.727  11.897  1.00  0.00     0.259 C 
HETATM   28  O7  UNL     1      -3.210   2.848  12.626  1.00  0.00    -0.265 OA
BRANCH  27  29
HETATM   29  C23 UNL     1      -4.151   3.507  10.488  1.00  0.00     0.111 C 
BRANCH  29  30
HETATM   30  C24 UNL     1      -5.592   3.007  10.449  1.00  0.00     0.005 C 
HETATM   31  C25 UNL     1      -5.784   1.732  11.257  1.00  0.00     0.005 C 
ENDBRANCH  29  30
ENDBRANCH  27  29
ENDBRANCH  26  27
ENDBRANCH  16  26
BRANCH  11  32
HETATM   32  O4  UNL     1      -7.154   6.913  17.081  1.00  0.00    -0.388 OA
HETATM   33  H25 UNL     1      -7.287   7.613  17.745  1.00  0.00     0.210 HD
ENDBRANCH  11  32
BRANCH  13  34
HETATM   34  O5  UNL     1      -8.205   6.532  13.539  1.00  0.00    -0.393 OA
HETATM   35  H27 UNL     1      -7.453   7.051  13.183  1.00  0.00     0.210 HD
ENDBRANCH  13  34
TORSDOF 10
ENDMDL
MODEL 3
REMARK minimizedAffinity -7.94706154
REMARK  10 active torsions:
REMARK  status: ('A' for Active; 'I' for Inactive)
REMARK    1  A    between atoms: C5_5  and  C6_6 
REMARK    2  A    between atoms: C6_6  and  C8_8 
REMARK    3  A    between atoms: C8_8  and  O1_9 
REMARK    4  A    between atoms: O1_9  and  C9_10 
REMARK    5  A    between atoms: C15_18  and  O4_20 
REMARK    6  A    between atoms: C17_21  and  O5_22 
REMARK    7  A    between atoms: C20_25  and  O6_27 
REMARK    8  A    between atoms: O6_27  and  C22_28 
REMARK    9  A    between atoms: C22_28  and  C23_30 
REMARK   10  A    between atoms: C23_30  and  C24_31 
ROOT
HETATM    1  C1  UNL     1       1.646   5.078  11.384  1.00  0.00     0.015 C 
HETATM    2  C2  UNL     1       0.403   4.930  11.873  1.00  0.00    -0.082 C 
HETATM    3  C3  UNL     1      -0.182   3.565  12.089  1.00  0.00     0.034 C 
HETATM    4  C4  UNL     1      -1.560   3.473  11.434  1.00  0.00     0.010 C 
HETATM    5  C5  UNL     1      -2.548   4.411  12.151  1.00  0.00    -0.001 C 
HETATM    6  C11 UNL     1      -2.041   5.871  12.090  1.00  0.00     0.033 C 
HETATM    7  C12 UNL     1      -2.600   6.926  13.100  1.00  0.00     0.162 C 
HETATM    8  O3  UNL     1      -1.452   7.739  13.363  1.00  0.00    -0.376 OA
HETATM    9  C13 UNL     1      -0.335   6.845  13.438  1.00  0.00     0.133 C 
HETATM   10  C14 UNL     1       0.865   7.727  13.709  1.00  0.00     0.072 C 
HETATM   11  C15 UNL     1       0.831   8.303  15.161  1.00  0.00     0.082 C 
HETATM   12  C16 UNL     1       1.929   9.382  15.252  1.00  0.00     0.049 C 
HETATM   13  C17 UNL     1      -0.538   8.930  15.657  1.00  0.00     0.152 C 
HETATM   14  C18 UNL     1      -1.641   7.942  16.158  1.00  0.00     0.038 C 
HETATM   15  C19 UNL     1      -3.034   7.881  15.458  1.00  0.00     0.043 C 
HETATM   16  C20 UNL     1      -3.309   6.663  14.487  1.00  0.00     0.093 C 
HETATM   17  C21 UNL     1      -2.986   5.343  15.202  1.00  0.00     0.049 C 
HETATM   18  C26 UNL     1      -0.493   6.115  12.117  1.00  0.00     0.050 C 
ENDROOT
BRANCH   5  19
HETATM   19  C6  UNL     1      -4.026   4.298  11.654  1.00  0.00     0.010 C 
HETATM   20  C7  UNL     1      -4.168   3.597  10.297  1.00  0.00     0.012 C 
BRANCH  19  21
HETATM   21  C8  UNL     1      -4.963   3.650  12.695  1.00  0.00     0.183 C 
BRANCH  21  22
HETATM   22  O1  UNL     1      -6.123   3.071  12.083  1.00  0.00    -0.321 OA
BRANCH  22  23
HETATM   23  C9  UNL     1      -7.323   3.339  12.663  1.00  0.00     0.254 C 
HETATM   24  C10 UNL     1      -7.574   4.816  12.646  1.00  0.00     0.126 C 
HETATM   25  O2  UNL     1      -8.098   2.514  13.124  1.00  0.00    -0.266 OA
ENDBRANCH  22  23
ENDBRANCH  21  22
ENDBRANCH  19  21
ENDBRANCH   5  19
BRANCH  16  26
HETATM   26  O6  UNL     1      -4.735   6.662  14.117  1.00  0.00    -0.308 OA
BRANCH  26  27
HETATM   27  C22 UNL     1      -5.404   7.795  13.769  1.00  0.00     0.259 C 
HETATM   28  O7  UNL     1      -5.079   8.576  12.888  1.00  0.00    -0.265 OA
BRANCH  27  29
HETATM   29  C23 UNL     1      -6.580   7.987  14.702  1.00  0.00     0.111 C 
BRANCH  29  30
HETATM   30  C24 UNL     1      -6.794   6.799  15.635  1.00  0.00     0.005 C 
HETATM   31  C25 UNL     1      -7.739   7.127  16.781  1.00  0.00     0.005 C 
ENDBRANCH  29  30
ENDBRANCH  27  29
ENDBRANCH  26  27
ENDBRANCH  16  26
BRANCH  11  32
HETATM   32  O4  UNL     1       1.205   7.247  16.063  1.00  0.00    -0.388 OA
HETATM   33  H25 UNL     1       2.131   7.006  15.883  1.00  0.00     0.210 HD
ENDBRANCH  11  32
BRANCH  13  34
HETATM   34  O5  UNL     1      -1.043   9.888  14.730  1.00  0.00    -0.393 OA
HETATM   35  H27 UNL     1      -1.302   9.370  13.938  1.00  0.00     0.210 HD
ENDBRANCH  13  34
TORSDOF 10
ENDMDL
MODEL 4
REMARK minimizedAffinity -7.86076784
REMARK  10 active torsions:
REMARK  status: ('A' for Active; 'I' for Inactive)
REMARK    1  A    between atoms: C5_5  and  C6_6 
REMARK    2  A    between atoms: C6_6  and  C8_8 
REMARK    3  A    between atoms: C8_8  and  O1_9 
REMARK    4  A    between atoms: O1_9  and  C9_10 
REMARK    5  A    between atoms: C15_18  and  O4_20 
REMARK    6  A    between atoms: C17_21  and  O5_22 
REMARK    7  A    between atoms: C20_25  and  O6_27 
REMARK    8  A    between atoms: O6_27  and  C22_28 
REMARK    9  A    between atoms: C22_28  and  C23_30 
REMARK   10  A    between atoms: C23_30  and  C24_31 
ROOT
HETATM    1  C1  UNL     1      -5.076   6.134  15.812  1.00  0.00     0.015 C 
HETATM    2  C2  UNL     1      -4.197   6.253  14.802  1.00  0.00    -0.082 C 
HETATM    3  C3  UNL     1      -4.644   6.134  13.374  1.00  0.00     0.034 C 
HETATM    4  C4  UNL     1      -3.765   5.130  12.629  1.00  0.00     0.010 C 
HETATM    5  C5  UNL     1      -2.328   5.671  12.517  1.00  0.00    -0.001 C 
HETATM    6  C11 UNL     1      -1.741   5.929  13.925  1.00  0.00     0.033 C 
HETATM    7  C12 UNL     1      -0.509   6.879  14.086  1.00  0.00     0.162 C 
HETATM    8  O3  UNL     1      -0.787   7.536  15.326  1.00  0.00    -0.376 OA
HETATM    9  C13 UNL     1      -2.196   7.793  15.338  1.00  0.00     0.133 C 
HETATM   10  C14 UNL     1      -2.466   8.481  16.659  1.00  0.00     0.072 C 
HETATM   11  C15 UNL     1      -1.887   9.932  16.673  1.00  0.00     0.082 C 
HETATM   12  C16 UNL     1      -1.972  10.445  18.124  1.00  0.00     0.049 C 
HETATM   13  C17 UNL     1      -0.401  10.121  16.155  1.00  0.00     0.152 C 
HETATM   14  C18 UNL     1      -0.181  10.183  14.608  1.00  0.00     0.038 C 
HETATM   15  C19 UNL     1       0.724   9.136  13.889  1.00  0.00     0.043 C 
HETATM   16  C20 UNL     1       0.005   7.983  13.080  1.00  0.00     0.093 C 
HETATM   17  C21 UNL     1      -1.025   8.587  12.114  1.00  0.00     0.049 C 
HETATM   18  C26 UNL     1      -2.720   6.397  15.056  1.00  0.00     0.050 C 
ENDROOT
BRANCH   5  19
HETATM   19  C6  UNL     1      -1.370   4.789  11.652  1.00  0.00     0.010 C 
HETATM   20  C7  UNL     1      -0.248   4.123  12.459  1.00  0.00     0.012 C 
BRANCH  19  21
HETATM   21  C8  UNL     1      -2.119   3.738  10.805  1.00  0.00     0.183 C 
BRANCH  21  22
HETATM   22  O1  UNL     1      -1.263   2.656  10.415  1.00  0.00    -0.321 OA
BRANCH  22  23
HETATM   23  C9  UNL     1      -1.644   1.405  10.787  1.00  0.00     0.254 C 
HETATM   24  C10 UNL     1      -2.944   1.472  11.527  1.00  0.00     0.126 C 
HETATM   25  O2  UNL     1      -1.038   0.371  10.551  1.00  0.00    -0.266 OA
ENDBRANCH  22  23
ENDBRANCH  21  22
ENDBRANCH  19  21
ENDBRANCH   5  19
BRANCH  16  26
HETATM   26  O6  UNL     1       1.015   7.250  12.296  1.00  0.00    -0.308 OA
BRANCH  26  27
HETATM   27  C22 UNL     1       1.478   7.696  11.097  1.00  0.00     0.259 C 
HETATM   28  O7  UNL     1       1.800   8.846  10.836  1.00  0.00    -0.265 OA
BRANCH  27  29
HETATM   29  C23 UNL     1       1.457   6.559  10.099  1.00  0.00     0.111 C 
BRANCH  29  30
HETATM   30  C24 UNL     1       2.661   6.574   9.161  1.00  0.00     0.005 C 
HETATM   31  C25 UNL     1       2.255   6.731   7.703  1.00  0.00     0.005 C 
ENDBRANCH  29  30
ENDBRANCH  27  29
ENDBRANCH  26  27
ENDBRANCH  16  26
BRANCH  11  32
HETATM   32  O4  UNL     1      -2.757  10.761  15.883  1.00  0.00    -0.388 OA
HETATM   33  H25 UNL     1      -3.623  10.805  16.327  1.00  0.00     0.210 HD
ENDBRANCH  11  32
BRANCH  13  34
HETATM   34  O5  UNL     1       0.498   9.220  16.798  1.00  0.00    -0.393 OA
HETATM   35  H27 UNL     1       0.252   8.330  16.468  1.00  0.00     0.210 HD
ENDBRANCH  13  34
TORSDOF 10
ENDMDL
MODEL 5
REMARK minimizedAffinity -7.76121235
REMARK  10 active torsions:
REMARK  status: ('A' for Active; 'I' for Inactive)
REMARK    1  A    between atoms: C5_5  and  C6_6 
REMARK    2  A    between atoms: C6_6  and  C8_8 
REMARK    3  A    between atoms: C8_8  and  O1_9 
REMARK    4  A    between atoms: O1_9  and  C9_10 
REMARK    5  A    between atoms: C15_18  and  O4_20 
REMARK    6  A    between atoms: C17_21  and  O5_22 
REMARK    7  A    between atoms: C20_25  and  O6_27 
REMARK    8  A    between atoms: O6_27  and  C22_28 
REMARK    9  A    between atoms: C22_28  and  C23_30 
REMARK   10  A    between atoms: C23_30  and  C24_31 
ROOT
HETATM    1  C1  UNL     1      -4.991   2.418  11.641  1.00  0.00     0.015 C 
HETATM    2  C2  UNL     1      -4.131   3.448  11.728  1.00  0.00    -0.082 C 
HETATM    3  C3  UNL     1      -3.317   3.875  10.542  1.00  0.00     0.034 C 
HETATM    4  C4  UNL     1      -1.841   3.976  10.926  1.00  0.00     0.010 C 
HETATM    5  C5  UNL     1      -1.637   5.117  11.938  1.00  0.00    -0.001 C 
HETATM    6  C11 UNL     1      -2.486   4.868  13.206  1.00  0.00     0.033 C 
HETATM    7  C12 UNL     1      -2.810   6.059  14.167  1.00  0.00     0.162 C 
HETATM    8  O3  UNL     1      -4.140   5.754  14.597  1.00  0.00    -0.376 OA
HETATM    9  C13 UNL     1      -4.827   5.241  13.450  1.00  0.00     0.133 C 
HETATM   10  C14 UNL     1      -6.225   4.921  13.932  1.00  0.00     0.072 C 
HETATM   11  C15 UNL     1      -7.039   6.223  14.222  1.00  0.00     0.082 C 
HETATM   12  C16 UNL     1      -8.331   5.802  14.950  1.00  0.00     0.049 C 
HETATM   13  C17 UNL     1      -6.319   7.347  15.077  1.00  0.00     0.152 C 
HETATM   14  C18 UNL     1      -5.320   8.289  14.329  1.00  0.00     0.038 C 
HETATM   15  C19 UNL     1      -3.821   8.359  14.754  1.00  0.00     0.043 C 
HETATM   16  C20 UNL     1      -2.769   7.606  13.845  1.00  0.00     0.093 C 
HETATM   17  C21 UNL     1      -2.953   8.022  12.378  1.00  0.00     0.049 C 
HETATM   18  C26 UNL     1      -3.865   4.142  13.038  1.00  0.00     0.050 C 
ENDROOT
BRANCH   5  19
HETATM   19  C6  UNL     1      -0.143   5.404  12.298  1.00  0.00     0.010 C 
HETATM   20  C7  UNL     1       0.166   5.274  13.795  1.00  0.00     0.012 C 
BRANCH  19  21
HETATM   21  C8  UNL     1       0.849   4.561  11.470  1.00  0.00     0.183 C 
BRANCH  21  22
HETATM   22  O1  UNL     1       1.319   5.269  10.315  1.00  0.00    -0.321 OA
BRANCH  22  23
HETATM   23  C9  UNL     1       2.663   5.291  10.112  1.00  0.00     0.254 C 
HETATM   24  C10 UNL     1       3.308   6.211  11.104  1.00  0.00     0.126 C 
HETATM   25  O2  UNL     1       3.271   4.657   9.263  1.00  0.00    -0.266 OA
ENDBRANCH  22  23
ENDBRANCH  21  22
ENDBRANCH  19  21
ENDBRANCH   5  19
BRANCH  16  26
HETATM   26  O6  UNL     1      -1.411   7.981  14.275  1.00  0.00    -0.308 OA
BRANCH  26  27
HETATM   27  C22 UNL     1      -0.744   9.046  13.753  1.00  0.00     0.259 C 
HETATM   28  O7  UNL     1      -0.262   9.972  14.390  1.00  0.00    -0.265 OA
BRANCH  27  29
HETATM   29  C23 UNL     1      -0.759   8.954  12.243  1.00  0.00     0.111 C 
BRANCH  29  30
HETATM   30  C24 UNL     1       0.628   8.725  11.651  1.00  0.00     0.005 C 
HETATM   31  C25 UNL     1       0.579   8.441  10.157  1.00  0.00     0.005 C 
ENDBRANCH  29  30
ENDBRANCH  27  29
ENDBRANCH  26  27
ENDBRANCH  16  26
BRANCH  11  32
HETATM   32  O4  UNL     1      -7.432   6.787  12.960  1.00  0.00    -0.388 OA
HETATM   33  H25 UNL     1      -8.048   6.168  12.527  1.00  0.00     0.210 HD
ENDBRANCH  11  32
BRANCH  13  34
HETATM   34  O5  UNL     1      -5.774   6.821  16.284  1.00  0.00    -0.393 OA
HETATM   35  H27 UNL     1      -5.035   6.240  16.003  1.00  0.00     0.210 HD
ENDBRANCH  13  34
TORSDOF 10
ENDMDL
MODEL 6
REMARK minimizedAffinity -7.73874235
REMARK  10 active torsions:
REMARK  status: ('A' for Active; 'I' for Inactive)
REMARK    1  A    between atoms: C5_5  and  C6_6 
REMARK    2  A    between atoms: C6_6  and  C8_8 
REMARK    3  A    between atoms: C8_8  and  O1_9 
REMARK    4  A    between atoms: O1_9  and  C9_10 
REMARK    5  A    between atoms: C15_18  and  O4_20 
REMARK    6  A    between atoms: C17_21  and  O5_22 
REMARK    7  A    between atoms: C20_25  and  O6_27 
REMARK    8  A    between atoms: O6_27  and  C22_28 
REMARK    9  A    between atoms: C22_28  and  C23_30 
REMARK   10  A    between atoms: C23_30  and  C24_31 
ROOT
HETATM    1  C1  UNL     1      -2.950  10.658  17.420  1.00  0.00     0.015 C 
HETATM    2  C2  UNL     1      -3.280   9.744  16.491  1.00  0.00    -0.082 C 
HETATM    3  C3  UNL     1      -4.498   9.922  15.633  1.00  0.00     0.034 C 
HETATM    4  C4  UNL     1      -5.355   8.658  15.667  1.00  0.00     0.010 C 
HETATM    5  C5  UNL     1      -4.604   7.494  14.996  1.00  0.00    -0.001 C 
HETATM    6  C11 UNL     1      -3.264   7.231  15.723  1.00  0.00     0.033 C 
HETATM    7  C12 UNL     1      -2.132   6.436  14.994  1.00  0.00     0.162 C 
HETATM    8  O3  UNL     1      -0.948   7.091  15.457  1.00  0.00    -0.376 OA
HETATM    9  C13 UNL     1      -1.253   8.490  15.501  1.00  0.00     0.133 C 
HETATM   10  C14 UNL     1       0.011   9.158  15.999  1.00  0.00     0.072 C 
HETATM   11  C15 UNL     1       1.138   9.122  14.918  1.00  0.00     0.082 C 
HETATM   12  C16 UNL     1       2.443   9.577  15.601  1.00  0.00     0.049 C 
HETATM   13  C17 UNL     1       1.400   7.736  14.197  1.00  0.00     0.152 C 
HETATM   14  C18 UNL     1       0.440   7.340  13.027  1.00  0.00     0.038 C 
HETATM   15  C19 UNL     1      -0.418   6.040  13.106  1.00  0.00     0.043 C 
HETATM   16  C20 UNL     1      -1.955   6.200  13.441  1.00  0.00     0.093 C 
HETATM   17  C21 UNL     1      -2.591   7.231  12.498  1.00  0.00     0.049 C 
HETATM   18  C26 UNL     1      -2.512   8.457  16.347  1.00  0.00     0.050 C 
ENDROOT
BRANCH   5  19
HETATM   19  C6  UNL     1      -5.440   6.181  14.850  1.00  0.00     0.010 C 
HETATM   20  C7  UNL     1      -6.369   5.906  16.040  1.00  0.00     0.012 C 
BRANCH  19  21
HETATM   21  C8  UNL     1      -6.230   6.115  13.526  1.00  0.00     0.183 C 
BRANCH  21  22
HETATM   22  O1  UNL     1      -6.514   4.765  13.138  1.00  0.00    -0.321 OA
BRANCH  22  23
HETATM   23  C9  UNL     1      -7.818   4.450  12.916  1.00  0.00     0.254 C 
HETATM   24  C10 UNL     1      -8.529   5.629  12.326  1.00  0.00     0.126 C 
HETATM   25  O2  UNL     1      -8.345   3.371  13.145  1.00  0.00    -0.266 OA
ENDBRANCH  22  23
ENDBRANCH  21  22
ENDBRANCH  19  21
ENDBRANCH   5  19
BRANCH  16  26
HETATM   26  O6  UNL     1      -2.624   4.902  13.241  1.00  0.00    -0.308 OA
BRANCH  26  27
HETATM   27  C22 UNL     1      -2.440   4.146  12.125  1.00  0.00     0.259 C 
HETATM   28  O7  UNL     1      -1.363   3.781  11.677  1.00  0.00    -0.265 OA
BRANCH  27  29
HETATM   29  C23 UNL     1      -3.778   3.891  11.468  1.00  0.00     0.111 C 
BRANCH  29  30
HETATM   30  C24 UNL     1      -4.274   2.462  11.672  1.00  0.00     0.005 C 
HETATM   31  C25 UNL     1      -5.606   2.209  10.982  1.00  0.00     0.005 C 
ENDBRANCH  29  30
ENDBRANCH  27  29
ENDBRANCH  26  27
ENDBRANCH  16  26
BRANCH  11  32
HETATM   32  O4  UNL     1       0.822  10.106  13.919  1.00  0.00    -0.388 OA
HETATM   33  H25 UNL     1       0.865  10.987  14.333  1.00  0.00     0.210 HD
ENDBRANCH  11  32
BRANCH  13  34
HETATM   34  O5  UNL     1       1.579   6.680  15.137  1.00  0.00    -0.393 OA
HETATM   35  H27 UNL     1       0.701   6.556  15.557  1.00  0.00     0.210 HD
ENDBRANCH  13  34
TORSDOF 10
ENDMDL
MODEL 7
REMARK minimizedAffinity -7.7017827
REMARK  10 active torsions:
REMARK  status: ('A' for Active; 'I' for Inactive)
REMARK    1  A    between atoms: C5_5  and  C6_6 
REMARK    2  A    between atoms: C6_6  and  C8_8 
REMARK    3  A    between atoms: C8_8  and  O1_9 
REMARK    4  A    between atoms: O1_9  and  C9_10 
REMARK    5  A    between atoms: C15_18  and  O4_20 
REMARK    6  A    between atoms: C17_21  and  O5_22 
REMARK    7  A    between atoms: C20_25  and  O6_27 
REMARK    8  A    between atoms: O6_27  and  C22_28 
REMARK    9  A    between atoms: C22_28  and  C23_30 
REMARK   10  A    between atoms: C23_30  and  C24_31 
ROOT
HETATM    1  C1  UNL     1       1.429  10.470  14.862  1.00  0.00     0.015 C 
HETATM    2  C2  UNL     1       0.979   9.290  14.402  1.00  0.00    -0.082 C 
HETATM    3  C3  UNL     1       1.848   8.067  14.438  1.00  0.00     0.034 C 
HETATM    4  C4  UNL     1       1.876   7.401  13.063  1.00  0.00     0.010 C 
HETATM    5  C5  UNL     1       0.482   6.848  12.716  1.00  0.00    -0.001 C 
HETATM    6  C11 UNL     1      -0.563   7.989  12.718  1.00  0.00     0.033 C 
HETATM    7  C12 UNL     1      -2.083   7.645  12.845  1.00  0.00     0.162 C 
HETATM    8  O3  UNL     1      -2.577   8.726  13.640  1.00  0.00    -0.376 OA
HETATM    9  C13 UNL     1      -1.575   8.991  14.628  1.00  0.00     0.133 C 
HETATM   10  C14 UNL     1      -2.118  10.140  15.450  1.00  0.00     0.072 C 
HETATM   11  C15 UNL     1      -3.317   9.684  16.342  1.00  0.00     0.082 C 
HETATM   12  C16 UNL     1      -3.962  10.956  16.927  1.00  0.00     0.049 C 
HETATM   13  C17 UNL     1      -4.447   8.819  15.644  1.00  0.00     0.152 C 
HETATM   14  C18 UNL     1      -4.169   7.291  15.456  1.00  0.00     0.038 C 
HETATM   15  C19 UNL     1      -4.148   6.654  14.033  1.00  0.00     0.043 C 
HETATM   16  C20 UNL     1      -2.736   6.319  13.405  1.00  0.00     0.093 C 
HETATM   17  C21 UNL     1      -1.905   5.493  14.398  1.00  0.00     0.049 C 
HETATM   18  C26 UNL     1      -0.363   9.168  13.731  1.00  0.00     0.050 C 
ENDROOT
BRANCH   5  19
HETATM   19  C6  UNL     1       0.424   6.023  11.390  1.00  0.00     0.010 C 
HETATM   20  C7  UNL     1       0.168   6.878  10.142  1.00  0.00     0.012 C 
BRANCH  19  21
HETATM   21  C8  UNL     1       1.665   5.129  11.182  1.00  0.00     0.183 C 
BRANCH  21  22
HETATM   22  O1  UNL     1       2.128   5.162   9.826  1.00  0.00    -0.321 OA
BRANCH  22  23
HETATM   23  C9  UNL     1       3.474   5.125   9.634  1.00  0.00     0.254 C 
HETATM   24  C10 UNL     1       4.135   6.164  10.487  1.00  0.00     0.126 C 
HETATM   25  O2  UNL     1       4.072   4.361   8.892  1.00  0.00    -0.266 OA
ENDBRANCH  22  23
ENDBRANCH  21  22
ENDBRANCH  19  21
ENDBRANCH   5  19
BRANCH  16  26
HETATM   26  O6  UNL     1      -2.935   5.523  12.181  1.00  0.00    -0.308 OA
BRANCH  26  27
HETATM   27  C22 UNL     1      -3.063   4.169  12.199  1.00  0.00     0.259 C 
HETATM   28  O7  UNL     1      -2.175   3.363  11.966  1.00  0.00    -0.265 OA
BRANCH  27  29
HETATM   29  C23 UNL     1      -4.506   3.808  12.472  1.00  0.00     0.111 C 
BRANCH  29  30
HETATM   30  C24 UNL     1      -5.222   3.259  11.241  1.00  0.00     0.005 C 
HETATM   31  C25 UNL     1      -5.454   1.757  11.331  1.00  0.00     0.005 C 
ENDBRANCH  29  30
ENDBRANCH  27  29
ENDBRANCH  26  27
ENDBRANCH  16  26
BRANCH  11  32
HETATM   32  O4  UNL     1      -2.784   8.936  17.448  1.00  0.00    -0.388 OA
HETATM   33  H25 UNL     1      -2.248   9.539  17.994  1.00  0.00     0.210 HD
ENDBRANCH  11  32
BRANCH  13  34
HETATM   34  O5  UNL     1      -4.921   9.438  14.451  1.00  0.00    -0.393 OA
HETATM   35  H27 UNL     1      -4.172   9.389  13.819  1.00  0.00     0.210 HD
ENDBRANCH  13  34
TORSDOF 10
ENDMDL
MODEL 8
REMARK minimizedAffinity -7.69874811
REMARK  10 active torsions:
REMARK  status: ('A' for Active; 'I' for Inactive)
REMARK    1  A    between atoms: C5_5  and  C6_6 
REMARK    2  A    between atoms: C6_6  and  C8_8 
REMARK    3  A    between atoms: C8_8  and  O1_9 
REMARK    4  A    between atoms: O1_9  and  C9_10 
REMARK    5  A    between atoms: C15_18  and  O4_20 
REMARK    6  A    between atoms: C17_21  and  O5_22 
REMARK    7  A    between atoms: C20_25  and  O6_27 
REMARK    8  A    between atoms: O6_27  and  C22_28 
REMARK    9  A    between atoms: C22_28  and  C23_30 
REMARK   10  A    between atoms: C23_30  and  C24_31 
ROOT
HETATM    1  C1  UNL     1      -4.448   2.478  11.633  1.00  0.00     0.015 C 
HETATM    2  C2  UNL     1      -3.699   3.586  11.772  1.00  0.00    -0.082 C 
HETATM    3  C3  UNL     1      -2.892   4.120  10.625  1.00  0.00     0.034 C 
HETATM    4  C4  UNL     1      -1.447   4.357  11.063  1.00  0.00     0.010 C 
HETATM    5  C5  UNL     1      -1.392   5.489  12.106  1.00  0.00    -0.001 C 
HETATM    6  C11 UNL     1      -2.255   5.126  13.337  1.00  0.00     0.033 C 
HETATM    7  C12 UNL     1      -2.728   6.255  14.310  1.00  0.00     0.162 C 
HETATM    8  O3  UNL     1      -4.035   5.810  14.686  1.00  0.00    -0.376 OA
HETATM    9  C13 UNL     1      -4.628   5.259  13.504  1.00  0.00     0.133 C 
HETATM   10  C14 UNL     1      -6.003   4.790  13.929  1.00  0.00     0.072 C 
HETATM   11  C15 UNL     1      -6.952   5.997  14.217  1.00  0.00     0.082 C 
HETATM   12  C16 UNL     1      -8.220   5.434  14.888  1.00  0.00     0.049 C 
HETATM   13  C17 UNL     1      -6.377   7.167  15.119  1.00  0.00     0.152 C 
HETATM   14  C18 UNL     1      -5.453   8.221  14.427  1.00  0.00     0.038 C 
HETATM   15  C19 UNL     1      -3.983   8.429  14.907  1.00  0.00     0.043 C 
HETATM   16  C20 UNL     1      -2.832   7.806  14.021  1.00  0.00     0.093 C 
HETATM   17  C21 UNL     1      -3.006   8.237  12.558  1.00  0.00     0.049 C 
HETATM   18  C26 UNL     1      -3.548   4.271  13.104  1.00  0.00     0.050 C 
ENDROOT
BRANCH   5  19
HETATM   19  C6  UNL     1       0.052   5.913  12.525  1.00  0.00     0.010 C 
HETATM   20  C7  UNL     1       0.479   5.374  13.896  1.00  0.00     0.012 C 
BRANCH  19  21
HETATM   21  C8  UNL     1       1.114   5.571  11.459  1.00  0.00     0.183 C 
BRANCH  21  22
HETATM   22  O1  UNL     1       1.231   6.603  10.470  1.00  0.00    -0.321 OA
BRANCH  22  23
HETATM   23  C9  UNL     1       2.062   6.358   9.421  1.00  0.00     0.254 C 
HETATM   24  C10 UNL     1       2.246   7.610   8.620  1.00  0.00     0.126 C 
HETATM   25  O2  UNL     1       2.595   5.290   9.162  1.00  0.00    -0.266 OA
ENDBRANCH  22  23
ENDBRANCH  21  22
ENDBRANCH  19  21
ENDBRANCH   5  19
BRANCH  16  26
HETATM   26  O6  UNL     1      -1.533   8.304  14.508  1.00  0.00    -0.308 OA
BRANCH  26  27
HETATM   27  C22 UNL     1      -1.161   8.229  15.814  1.00  0.00     0.259 C 
HETATM   28  O7  UNL     1      -0.181   7.642  16.248  1.00  0.00    -0.265 OA
BRANCH  27  29
HETATM   29  C23 UNL     1      -2.200   8.922  16.669  1.00  0.00     0.111 C 
BRANCH  29  30
HETATM   30  C24 UNL     1      -1.599   9.988  17.581  1.00  0.00     0.005 C 
HETATM   31  C25 UNL     1      -2.644  10.638  18.476  1.00  0.00     0.005 C 
ENDBRANCH  29  30
ENDBRANCH  27  29
ENDBRANCH  26  27
ENDBRANCH  16  26
BRANCH  11  32
HETATM   32  O4  UNL     1      -7.357   6.551  12.953  1.00  0.00    -0.388 OA
HETATM   33  H25 UNL     1      -7.892   5.884  12.485  1.00  0.00     0.210 HD
ENDBRANCH  11  32
BRANCH  13  34
HETATM   34  O5  UNL     1      -5.823   6.669  16.334  1.00  0.00    -0.393 OA
HETATM   35  H27 UNL     1      -5.021   6.171  16.068  1.00  0.00     0.210 HD
ENDBRANCH  13  34
TORSDOF 10
ENDMDL
MODEL 9
REMARK minimizedAffinity -7.42700052
REMARK  10 active torsions:
REMARK  status: ('A' for Active; 'I' for Inactive)
REMARK    1  A    between atoms: C5_5  and  C6_6 
REMARK    2  A    between atoms: C6_6  and  C8_8 
REMARK    3  A    between atoms: C8_8  and  O1_9 
REMARK    4  A    between atoms: O1_9  and  C9_10 
REMARK    5  A    between atoms: C15_18  and  O4_20 
REMARK    6  A    between atoms: C17_21  and  O5_22 
REMARK    7  A    between atoms: C20_25  and  O6_27 
REMARK    8  A    between atoms: O6_27  and  C22_28 
REMARK    9  A    between atoms: C22_28  and  C23_30 
REMARK   10  A    between atoms: C23_30  and  C24_31 
ROOT
HETATM    1  C1  UNL     1      -1.813   4.037  11.096  1.00  0.00     0.015 C 
HETATM    2  C2  UNL     1      -2.400   4.668  12.127  1.00  0.00    -0.082 C 
HETATM    3  C3  UNL     1      -3.304   3.928  13.070  1.00  0.00     0.034 C 
HETATM    4  C4  UNL     1      -4.629   4.674  13.223  1.00  0.00     0.010 C 
HETATM    5  C5  UNL     1      -4.396   6.024  13.925  1.00  0.00    -0.001 C 
HETATM    6  C11 UNL     1      -3.406   6.888  13.110  1.00  0.00     0.033 C 
HETATM    7  C12 UNL     1      -2.666   8.078  13.804  1.00  0.00     0.162 C 
HETATM    8  O3  UNL     1      -1.378   8.043  13.182  1.00  0.00    -0.376 OA
HETATM    9  C13 UNL     1      -1.036   6.659  13.042  1.00  0.00     0.133 C 
HETATM   10  C14 UNL     1       0.324   6.650  12.378  1.00  0.00     0.072 C 
HETATM   11  C15 UNL     1       1.438   7.145  13.354  1.00  0.00     0.082 C 
HETATM   12  C16 UNL     1       2.719   7.352  12.522  1.00  0.00     0.049 C 
HETATM   13  C17 UNL     1       1.144   8.472  14.170  1.00  0.00     0.152 C 
HETATM   14  C18 UNL     1       0.253   8.347  15.449  1.00  0.00     0.038 C 
HETATM   15  C19 UNL     1      -1.094   9.126  15.562  1.00  0.00     0.043 C 
HETATM   16  C20 UNL     1      -2.429   8.306  15.350  1.00  0.00     0.093 C 
HETATM   17  C21 UNL     1      -2.427   7.062  16.251  1.00  0.00     0.049 C 
HETATM   18  C26 UNL     1      -2.270   6.156  12.316  1.00  0.00     0.050 C 
ENDROOT
BRANCH   5  19
HETATM   19  C6  UNL     1      -5.703   6.813  14.260  1.00  0.00     0.010 C 
HETATM   20  C7  UNL     1      -5.982   7.979  13.302  1.00  0.00     0.012 C 
BRANCH  19  21
HETATM   21  C8  UNL     1      -6.944   5.903  14.374  1.00  0.00     0.183 C 
BRANCH  21  22
HETATM   22  O1  UNL     1      -7.959   6.262  13.427  1.00  0.00    -0.321 OA
BRANCH  22  23
HETATM   23  C9  UNL     1      -8.390   5.283  12.586  1.00  0.00     0.254 C 
HETATM   24  C10 UNL     1      -8.938   5.896  11.335  1.00  0.00     0.126 C 
HETATM   25  O2  UNL     1      -8.336   4.081  12.798  1.00  0.00    -0.266 OA
ENDBRANCH  22  23
ENDBRANCH  21  22
ENDBRANCH  19  21
ENDBRANCH   5  19
BRANCH  16  26
HETATM   26  O6  UNL     1      -3.574   9.156  15.722  1.00  0.00    -0.308 OA
BRANCH  26  27
HETATM   27  C22 UNL     1      -3.424  10.409  16.231  1.00  0.00     0.259 C 
HETATM   28  O7  UNL     1      -3.226  11.426  15.583  1.00  0.00    -0.265 OA
BRANCH  27  29
HETATM   29  C23 UNL     1      -3.456  10.341  17.741  1.00  0.00     0.111 C 
BRANCH  29  30
HETATM   30  C24 UNL     1      -2.997  11.639  18.401  1.00  0.00     0.005 C 
HETATM   31  C25 UNL     1      -4.123  12.337  19.149  1.00  0.00     0.005 C 
ENDBRANCH  29  30
ENDBRANCH  27  29
ENDBRANCH  26  27
ENDBRANCH  16  26
BRANCH  11  32
HETATM   32  O4  UNL     1       1.710   6.085  14.287  1.00  0.00    -0.388 OA
HETATM   33  H25 UNL     1       2.089   5.335  13.794  1.00  0.00     0.210 HD
ENDBRANCH  11  32
BRANCH  13  34
HETATM   34  O5  UNL     1       0.724   9.532  13.314  1.00  0.00    -0.393 OA
HETATM   35  H27 UNL     1      -0.160   9.265  12.986  1.00  0.00     0.210 HD
ENDBRANCH  13  34
TORSDOF 10
ENDMDL
