MODEL 1
REMARK minimizedAffinity -7.47808504
REMARK CNNscore 0.816537261
REMARK CNNaffinity 7.06178665
REMARK  9 active torsions:
REMARK  status: ('A' for Active; 'I' for Inactive)
REMARK    1  A    between atoms: C3_3  and  C4_4 
REMARK    2  A    between atoms: C3_3  and  C27_30 
REMARK    3  A    between atoms: C4_4  and  C5_5 
REMARK    4  A    between atoms: C5_5  and  C6_6 
REMARK    5  A    between atoms: C6_6  and  C8_8 
REMARK    6  A    between atoms: C15_15  and  O1_16 
REMARK    7  A    between atoms: C18_19  and  C19_20 
REMARK    8  A    between atoms: C19_20  and  O2_21 
REMARK    9  A    between atoms: C22_24  and  O3_25 
ROOT
HETATM    1  C8  UNL     1       2.808  56.746  -8.684  1.00  0.00     0.001 C 
HETATM    2  C9  UNL     1       3.759  56.378  -9.853  1.00  0.00     0.006 C 
HETATM    3  C10 UNL     1       3.002  55.370 -10.733  1.00  0.00     0.010 C 
HETATM    4  C11 UNL     1       1.567  55.407 -10.209  1.00  0.00     0.026 C 
HETATM    5  C12 UNL     1       0.576  54.321 -10.565  1.00  0.00    -0.072 C 
HETATM    6  C13 UNL     1      -0.505  54.104  -9.772  1.00  0.00    -0.064 C 
HETATM    7  C14 UNL     1      -0.690  54.886  -8.463  1.00  0.00     0.068 C 
HETATM    8  C15 UNL     1       0.360  55.981  -8.150  1.00  0.00     0.131 C 
HETATM    9  C16 UNL     1       1.755  55.594  -8.679  1.00  0.00    -0.006 C 
HETATM   10  C17 UNL     1       2.287  54.323  -7.972  1.00  0.00     0.019 C 
HETATM   11  C18 UNL     1      -1.557  53.003 -10.109  1.00  0.00     0.009 C 
HETATM   12  C20 UNL     1      -3.025  53.431  -9.771  1.00  0.00     0.019 C 
HETATM   13  C21 UNL     1      -4.083  53.137 -10.847  1.00  0.00     0.033 C 
HETATM   14  C22 UNL     1      -3.900  51.806 -11.565  1.00  0.00     0.118 C 
HETATM   15  C23 UNL     1      -2.482  51.607 -12.109  1.00  0.00     0.037 C 
HETATM   16  C24 UNL     1      -1.501  52.697 -11.642  1.00  0.00     0.003 C 
HETATM   17  C25 UNL     1      -0.081  52.389 -12.114  1.00  0.00     0.010 C 
HETATM   18  C26 UNL     1       0.841  53.576 -11.851  1.00  0.00     0.035 C 
ENDROOT
BRANCH   1  19
HETATM   19  C6  UNL     1       3.494  57.140  -7.342  1.00  0.00    -0.013 C 
HETATM   20  C7  UNL     1       2.785  58.377  -6.765  1.00  0.00     0.010 C 
BRANCH  19  21
HETATM   21  C5  UNL     1       5.013  57.418  -7.434  1.00  0.00     0.009 C 
BRANCH  21  22
HETATM   22  C4  UNL     1       5.881  56.840  -6.300  1.00  0.00     0.034 C 
BRANCH  22  23
HETATM   23  C3  UNL     1       6.852  55.746  -6.717  1.00  0.00    -0.081 C 
HETATM   24  C2  UNL     1       8.116  55.686  -6.249  1.00  0.00    -0.028 C 
HETATM   25  C1  UNL     1       8.772  56.658  -5.319  1.00  0.00     0.036 C 
BRANCH  23  26
HETATM   26  C27 UNL     1       6.260  54.663  -7.622  1.00  0.00     0.006 C 
HETATM   27  C28 UNL     1       6.859  54.608  -9.031  1.00  0.00     0.014 C 
HETATM   28  C29 UNL     1       6.369  53.288  -6.953  1.00  0.00     0.014 C 
ENDBRANCH  23  26
ENDBRANCH  22  23
ENDBRANCH  21  22
ENDBRANCH  19  21
ENDBRANCH   1  19
BRANCH   8  29
HETATM   29  O1  UNL     1       0.361  56.265  -6.754  1.00  0.00    -0.394 OA
HETATM   30  H22 UNL     1       0.643  55.468  -6.274  1.00  0.00     0.210 HD
ENDBRANCH   8  29
BRANCH  11  31
HETATM   31  C19 UNL     1      -1.148  51.780  -9.219  1.00  0.00     0.178 C 
BRANCH  31  32
HETATM   32  O2  UNL     1      -1.549  50.525  -9.753  1.00  0.00    -0.400 OA
HETATM   33  H28 UNL     1      -1.177  49.842  -9.163  1.00  0.00     0.209 HD
ENDBRANCH  31  32
ENDBRANCH  11  31
BRANCH  14  34
HETATM   34  O3  UNL     1      -4.253  50.742 -10.687  1.00  0.00    -0.396 OA
HETATM   35  H34 UNL     1      -3.504  50.634 -10.061  1.00  0.00     0.210 HD
ENDBRANCH  14  34
TORSDOF 9
ENDMDL
MODEL 2
REMARK minimizedAffinity -6.61921692
REMARK CNNscore 0.707092822
REMARK CNNaffinity 7.08194685
REMARK  9 active torsions:
REMARK  status: ('A' for Active; 'I' for Inactive)
REMARK    1  A    between atoms: C3_3  and  C4_4 
REMARK    2  A    between atoms: C3_3  and  C27_30 
REMARK    3  A    between atoms: C4_4  and  C5_5 
REMARK    4  A    between atoms: C5_5  and  C6_6 
REMARK    5  A    between atoms: C6_6  and  C8_8 
REMARK    6  A    between atoms: C15_15  and  O1_16 
REMARK    7  A    between atoms: C18_19  and  C19_20 
REMARK    8  A    between atoms: C19_20  and  O2_21 
REMARK    9  A    between atoms: C22_24  and  O3_25 
ROOT
HETATM    1  C8  UNL     1       4.552  55.719  -7.876  1.00  0.00     0.001 C 
HETATM    2  C9  UNL     1       3.963  57.147  -7.741  1.00  0.00     0.006 C 
HETATM    3  C10 UNL     1       2.478  57.046  -8.124  1.00  0.00     0.010 C 
HETATM    4  C11 UNL     1       2.201  55.545  -8.191  1.00  0.00     0.026 C 
HETATM    5  C12 UNL     1       0.959  55.008  -8.868  1.00  0.00    -0.072 C 
HETATM    6  C13 UNL     1       0.934  53.728  -9.322  1.00  0.00    -0.064 C 
HETATM    7  C14 UNL     1       2.186  52.841  -9.241  1.00  0.00     0.068 C 
HETATM    8  C15 UNL     1       3.428  53.448  -8.542  1.00  0.00     0.131 C 
HETATM    9  C16 UNL     1       3.520  54.970  -8.775  1.00  0.00    -0.006 C 
HETATM   10  C17 UNL     1       3.713  55.294 -10.277  1.00  0.00     0.019 C 
HETATM   11  C18 UNL     1      -0.330  53.131 -10.013  1.00  0.00     0.009 C 
HETATM   12  C20 UNL     1      -0.579  51.629  -9.647  1.00  0.00     0.019 C 
HETATM   13  C21 UNL     1      -2.025  51.252  -9.282  1.00  0.00     0.033 C 
HETATM   14  C22 UNL     1      -3.089  51.944 -10.123  1.00  0.00     0.118 C 
HETATM   15  C23 UNL     1      -2.910  53.464 -10.187  1.00  0.00     0.037 C 
HETATM   16  C24 UNL     1      -1.589  53.939  -9.558  1.00  0.00     0.003 C 
HETATM   17  C25 UNL     1      -1.406  55.443  -9.751  1.00  0.00     0.010 C 
HETATM   18  C26 UNL     1      -0.220  55.949  -8.936  1.00  0.00     0.035 C 
ENDROOT
BRANCH   1  19
HETATM   19  C6  UNL     1       6.065  55.634  -8.241  1.00  0.00    -0.013 C 
HETATM   20  C7  UNL     1       6.201  55.082  -9.670  1.00  0.00     0.010 C 
BRANCH  19  21
HETATM   21  C5  UNL     1       6.928  54.783  -7.280  1.00  0.00     0.009 C 
BRANCH  21  22
HETATM   22  C4  UNL     1       7.759  55.561  -6.242  1.00  0.00     0.034 C 
BRANCH  22  23
HETATM   23  C3  UNL     1       6.953  56.288  -5.176  1.00  0.00    -0.081 C 
HETATM   24  C2  UNL     1       6.478  55.663  -4.078  1.00  0.00    -0.028 C 
HETATM   25  C1  UNL     1       6.614  54.209  -3.749  1.00  0.00     0.036 C 
BRANCH  23  26
HETATM   26  C27 UNL     1       6.808  57.796  -5.387  1.00  0.00     0.006 C 
HETATM   27  C28 UNL     1       5.606  58.430  -4.679  1.00  0.00     0.014 C 
HETATM   28  C29 UNL     1       8.096  58.520  -4.981  1.00  0.00     0.014 C 
ENDBRANCH  23  26
ENDBRANCH  22  23
ENDBRANCH  21  22
ENDBRANCH  19  21
ENDBRANCH   1  19
BRANCH   8  29
HETATM   29  O1  UNL     1       4.602  52.757  -8.957  1.00  0.00    -0.394 OA
HETATM   30  H22 UNL     1       4.726  52.898  -9.911  1.00  0.00     0.210 HD
ENDBRANCH   8  29
BRANCH  11  31
HETATM   31  C19 UNL     1      -0.036  53.256 -11.547  1.00  0.00     0.178 C 
BRANCH  31  32
HETATM   32  O2  UNL     1      -1.159  52.968 -12.370  1.00  0.00    -0.400 OA
HETATM   33  H28 UNL     1      -0.883  53.152 -13.288  1.00  0.00     0.209 HD
ENDBRANCH  31  32
ENDBRANCH  11  31
BRANCH  14  34
HETATM   34  O3  UNL     1      -3.095  51.385 -11.433  1.00  0.00    -0.396 OA
HETATM   35  H34 UNL     1      -2.319  51.763 -11.903  1.00  0.00     0.210 HD
ENDBRANCH  14  34
TORSDOF 9
ENDMDL
MODEL 3
REMARK minimizedAffinity -6.41428804
REMARK CNNscore 0.572337627
REMARK CNNaffinity 6.39240885
REMARK  9 active torsions:
REMARK  status: ('A' for Active; 'I' for Inactive)
REMARK    1  A    between atoms: C3_3  and  C4_4 
REMARK    2  A    between atoms: C3_3  and  C27_30 
REMARK    3  A    between atoms: C4_4  and  C5_5 
REMARK    4  A    between atoms: C5_5  and  C6_6 
REMARK    5  A    between atoms: C6_6  and  C8_8 
REMARK    6  A    between atoms: C15_15  and  O1_16 
REMARK    7  A    between atoms: C18_19  and  C19_20 
REMARK    8  A    between atoms: C19_20  and  O2_21 
REMARK    9  A    between atoms: C22_24  and  O3_25 
ROOT
HETATM    1  C8  UNL     1      -1.243  52.565 -10.505  1.00  0.00     0.001 C 
HETATM    2  C9  UNL     1      -0.598  52.890 -11.876  1.00  0.00     0.006 C 
HETATM    3  C10 UNL     1       0.583  53.833 -11.593  1.00  0.00     0.010 C 
HETATM    4  C11 UNL     1       0.748  53.793 -10.074  1.00  0.00     0.026 C 
HETATM    5  C12 UNL     1       1.568  54.836  -9.348  1.00  0.00    -0.072 C 
HETATM    6  C13 UNL     1       1.351  55.072  -8.029  1.00  0.00    -0.064 C 
HETATM    7  C14 UNL     1       0.216  54.357  -7.279  1.00  0.00     0.068 C 
HETATM    8  C15 UNL     1      -0.591  53.303  -8.076  1.00  0.00     0.131 C 
HETATM    9  C16 UNL     1      -0.714  53.692  -9.564  1.00  0.00    -0.006 C 
HETATM   10  C17 UNL     1      -1.510  55.010  -9.732  1.00  0.00     0.019 C 
HETATM   11  C18 UNL     1       2.182  56.130  -7.240  1.00  0.00     0.009 C 
HETATM   12  C20 UNL     1       2.505  55.689  -5.773  1.00  0.00     0.019 C 
HETATM   13  C21 UNL     1       3.953  55.902  -5.304  1.00  0.00     0.033 C 
HETATM   14  C22 UNL     1       4.591  57.197  -5.792  1.00  0.00     0.118 C 
HETATM   15  C23 UNL     1       4.460  57.397  -7.305  1.00  0.00     0.037 C 
HETATM   16  C24 UNL     1       3.546  56.355  -7.972  1.00  0.00     0.003 C 
HETATM   17  C25 UNL     1       3.356  56.668  -9.455  1.00  0.00     0.010 C 
HETATM   18  C26 UNL     1       2.644  55.518 -10.160  1.00  0.00     0.035 C 
ENDROOT
BRANCH   1  19
HETATM   19  C6  UNL     1      -2.771  52.258 -10.522  1.00  0.00    -0.013 C 
HETATM   20  C7  UNL     1      -3.545  53.586 -10.484  1.00  0.00     0.010 C 
BRANCH  19  21
HETATM   21  C5  UNL     1      -3.272  51.341  -9.381  1.00  0.00     0.009 C 
BRANCH  21  22
HETATM   22  C4  UNL     1      -3.375  49.840  -9.710  1.00  0.00     0.034 C 
BRANCH  22  23
HETATM   23  C3  UNL     1      -4.559  49.444 -10.579  1.00  0.00    -0.081 C 
HETATM   24  C2  UNL     1      -4.428  49.166 -11.894  1.00  0.00    -0.028 C 
HETATM   25  C1  UNL     1      -3.170  49.234 -12.701  1.00  0.00     0.036 C 
BRANCH  23  26
HETATM   26  C27 UNL     1      -5.887  49.285  -9.836  1.00  0.00     0.006 C 
HETATM   27  C28 UNL     1      -7.125  49.236 -10.738  1.00  0.00     0.014 C 
HETATM   28  C29 UNL     1      -5.850  48.049  -8.931  1.00  0.00     0.014 C 
ENDBRANCH  23  26
ENDBRANCH  22  23
ENDBRANCH  21  22
ENDBRANCH  19  21
ENDBRANCH   1  19
BRANCH   8  29
HETATM   29  O1  UNL     1      -1.857  53.094  -7.457  1.00  0.00    -0.394 OA
HETATM   30  H22 UNL     1      -2.366  53.921  -7.500  1.00  0.00     0.210 HD
ENDBRANCH   8  29
BRANCH  11  31
HETATM   31  C19 UNL     1       1.275  57.407  -7.217  1.00  0.00     0.178 C 
BRANCH  31  32
HETATM   32  O2  UNL     1      -0.115  57.124  -7.319  1.00  0.00    -0.400 OA
HETATM   33  H28 UNL     1      -0.579  57.976  -7.216  1.00  0.00     0.209 HD
ENDBRANCH  31  32
ENDBRANCH  11  31
BRANCH  14  34
HETATM   34  O3  UNL     1       4.023  58.298  -5.090  1.00  0.00    -0.396 OA
HETATM   35  H34 UNL     1       3.137  58.455  -5.484  1.00  0.00     0.210 HD
ENDBRANCH  14  34
TORSDOF 9
ENDMDL
MODEL 4
REMARK minimizedAffinity -7.64550972
REMARK CNNscore 0.466844589
REMARK CNNaffinity 6.51997185
REMARK  9 active torsions:
REMARK  status: ('A' for Active; 'I' for Inactive)
REMARK    1  A    between atoms: C3_3  and  C4_4 
REMARK    2  A    between atoms: C3_3  and  C27_30 
REMARK    3  A    between atoms: C4_4  and  C5_5 
REMARK    4  A    between atoms: C5_5  and  C6_6 
REMARK    5  A    between atoms: C6_6  and  C8_8 
REMARK    6  A    between atoms: C15_15  and  O1_16 
REMARK    7  A    between atoms: C18_19  and  C19_20 
REMARK    8  A    between atoms: C19_20  and  O2_21 
REMARK    9  A    between atoms: C22_24  and  O3_25 
ROOT
HETATM    1  C8  UNL     1      -2.639  49.388 -22.173  1.00  0.00     0.001 C 
HETATM    2  C9  UNL     1      -2.941  48.980 -23.638  1.00  0.00     0.006 C 
HETATM    3  C10 UNL     1      -4.397  48.485 -23.665  1.00  0.00     0.010 C 
HETATM    4  C11 UNL     1      -4.960  48.882 -22.301  1.00  0.00     0.026 C 
HETATM    5  C12 UNL     1      -6.248  48.283 -21.782  1.00  0.00    -0.072 C 
HETATM    6  C13 UNL     1      -6.502  48.273 -20.448  1.00  0.00    -0.064 C 
HETATM    7  C14 UNL     1      -5.455  48.781 -19.444  1.00  0.00     0.068 C 
HETATM    8  C15 UNL     1      -4.155  49.378 -20.036  1.00  0.00     0.131 C 
HETATM    9  C16 UNL     1      -3.753  48.673 -21.347  1.00  0.00    -0.006 C 
HETATM   10  C17 UNL     1      -3.426  47.179 -21.099  1.00  0.00     0.019 C 
HETATM   11  C18 UNL     1      -7.823  47.676 -19.872  1.00  0.00     0.009 C 
HETATM   12  C20 UNL     1      -8.381  48.483 -18.652  1.00  0.00     0.019 C 
HETATM   13  C21 UNL     1      -9.889  48.784 -18.671  1.00  0.00     0.033 C 
HETATM   14  C22 UNL     1     -10.753  47.649 -19.202  1.00  0.00     0.118 C 
HETATM   15  C23 UNL     1     -10.276  47.112 -20.555  1.00  0.00     0.037 C 
HETATM   16  C24 UNL     1      -8.920  47.696 -20.987  1.00  0.00     0.003 C 
HETATM   17  C25 UNL     1      -8.434  47.043 -22.280  1.00  0.00     0.010 C 
HETATM   18  C26 UNL     1      -7.214  47.777 -22.827  1.00  0.00     0.035 C 
ENDROOT
BRANCH   1  19
HETATM   19  C6  UNL     1      -1.157  49.244 -21.714  1.00  0.00    -0.013 C 
HETATM   20  C7  UNL     1      -0.983  47.888 -21.010  1.00  0.00     0.010 C 
BRANCH  19  21
HETATM   21  C5  UNL     1      -0.641  50.371 -20.788  1.00  0.00     0.009 C 
BRANCH  21  22
HETATM   22  C4  UNL     1      -1.060  51.805 -21.164  1.00  0.00     0.034 C 
BRANCH  22  23
HETATM   23  C3  UNL     1      -0.082  52.556 -22.056  1.00  0.00    -0.081 C 
HETATM   24  C2  UNL     1       0.928  53.298 -21.556  1.00  0.00    -0.028 C 
HETATM   25  C1  UNL     1       1.228  53.540 -20.110  1.00  0.00     0.036 C 
BRANCH  23  26
HETATM   26  C27 UNL     1      -0.265  52.325 -23.558  1.00  0.00     0.006 C 
HETATM   27  C28 UNL     1      -1.703  52.485 -24.061  1.00  0.00     0.014 C 
HETATM   28  C29 UNL     1       0.674  53.236 -24.357  1.00  0.00     0.014 C 
ENDBRANCH  23  26
ENDBRANCH  22  23
ENDBRANCH  21  22
ENDBRANCH  19  21
ENDBRANCH   1  19
BRANCH   8  29
HETATM   29  O1  UNL     1      -3.120  49.347 -19.057  1.00  0.00    -0.394 OA
HETATM   30  H22 UNL     1      -2.923  48.421 -18.839  1.00  0.00     0.210 HD
ENDBRANCH   8  29
BRANCH  11  31
HETATM   31  C19 UNL     1      -7.435  46.229 -19.412  1.00  0.00     0.178 C 
BRANCH  31  32
HETATM   32  O2  UNL     1      -7.864  45.913 -18.094  1.00  0.00    -0.400 OA
HETATM   33  H28 UNL     1      -7.640  44.975 -17.948  1.00  0.00     0.209 HD
ENDBRANCH  31  32
ENDBRANCH  11  31
BRANCH  14  34
HETATM   34  O3  UNL     1     -10.804  46.602 -18.238  1.00  0.00    -0.396 OA
HETATM   35  H34 UNL     1      -9.947  46.125 -18.295  1.00  0.00     0.210 HD
ENDBRANCH  14  34
TORSDOF 9
ENDMDL
MODEL 5
REMARK minimizedAffinity -7.1466732
REMARK CNNscore 0.463812828
REMARK CNNaffinity 5.98071098
REMARK  9 active torsions:
REMARK  status: ('A' for Active; 'I' for Inactive)
REMARK    1  A    between atoms: C3_3  and  C4_4 
REMARK    2  A    between atoms: C3_3  and  C27_30 
REMARK    3  A    between atoms: C4_4  and  C5_5 
REMARK    4  A    between atoms: C5_5  and  C6_6 
REMARK    5  A    between atoms: C6_6  and  C8_8 
REMARK    6  A    between atoms: C15_15  and  O1_16 
REMARK    7  A    between atoms: C18_19  and  C19_20 
REMARK    8  A    between atoms: C19_20  and  O2_21 
REMARK    9  A    between atoms: C22_24  and  O3_25 
ROOT
HETATM    1  C8  UNL     1     -13.325  45.464 -27.157  1.00  0.00     0.001 C 
HETATM    2  C9  UNL     1     -13.489  44.257 -28.115  1.00  0.00     0.006 C 
HETATM    3  C10 UNL     1     -12.219  44.208 -28.980  1.00  0.00     0.010 C 
HETATM    4  C11 UNL     1     -11.264  45.196 -28.313  1.00  0.00     0.026 C 
HETATM    5  C12 UNL     1     -10.036  45.707 -29.035  1.00  0.00    -0.072 C 
HETATM    6  C13 UNL     1      -9.464  46.878 -28.653  1.00  0.00    -0.064 C 
HETATM    7  C14 UNL     1     -10.100  47.742 -27.553  1.00  0.00     0.068 C 
HETATM    8  C15 UNL     1     -11.357  47.168 -26.854  1.00  0.00     0.131 C 
HETATM    9  C16 UNL     1     -12.209  46.327 -27.826  1.00  0.00    -0.006 C 
HETATM   10  C17 UNL     1     -12.762  47.197 -28.981  1.00  0.00     0.019 C 
HETATM   11  C18 UNL     1      -8.192  47.435 -29.362  1.00  0.00     0.009 C 
HETATM   12  C20 UNL     1      -7.193  48.130 -28.376  1.00  0.00     0.019 C 
HETATM   13  C21 UNL     1      -5.710  47.761 -28.542  1.00  0.00     0.033 C 
HETATM   14  C22 UNL     1      -5.256  47.603 -29.987  1.00  0.00     0.118 C 
HETATM   15  C23 UNL     1      -6.156  46.667 -30.800  1.00  0.00     0.037 C 
HETATM   16  C24 UNL     1      -7.429  46.251 -30.043  1.00  0.00     0.003 C 
HETATM   17  C25 UNL     1      -8.345  45.418 -30.937  1.00  0.00     0.010 C 
HETATM   18  C26 UNL     1      -9.487  44.817 -30.124  1.00  0.00     0.035 C 
ENDROOT
BRANCH   1  19
HETATM   19  C6  UNL     1     -14.642  46.163 -26.704  1.00  0.00    -0.013 C 
HETATM   20  C7  UNL     1     -14.549  46.473 -25.200  1.00  0.00     0.010 C 
BRANCH  19  21
HETATM   21  C5  UNL     1     -15.940  45.369 -26.983  1.00  0.00     0.009 C 
BRANCH  21  22
HETATM   22  C4  UNL     1     -16.616  44.719 -25.761  1.00  0.00     0.034 C 
BRANCH  22  23
HETATM   23  C3  UNL     1     -18.134  44.644 -25.821  1.00  0.00    -0.081 C 
HETATM   24  C2  UNL     1     -18.925  45.639 -25.370  1.00  0.00    -0.028 C 
HETATM   25  C1  UNL     1     -18.478  46.913 -24.723  1.00  0.00     0.036 C 
BRANCH  23  26
HETATM   26  C27 UNL     1     -18.696  43.404 -26.522  1.00  0.00     0.006 C 
HETATM   27  C28 UNL     1     -19.524  42.480 -25.624  1.00  0.00     0.014 C 
HETATM   28  C29 UNL     1     -19.515  43.810 -27.752  1.00  0.00     0.014 C 
ENDBRANCH  23  26
ENDBRANCH  22  23
ENDBRANCH  21  22
ENDBRANCH  19  21
ENDBRANCH   1  19
BRANCH   8  29
HETATM   29  O1  UNL     1     -12.098  48.223 -26.248  1.00  0.00    -0.394 OA
HETATM   30  H22 UNL     1     -12.418  48.820 -26.945  1.00  0.00     0.210 HD
ENDBRANCH   8  29
BRANCH  11  31
HETATM   31  C19 UNL     1      -8.739  48.488 -30.385  1.00  0.00     0.178 C 
BRANCH  31  32
HETATM   32  O2  UNL     1      -8.635  49.832 -29.933  1.00  0.00    -0.400 OA
HETATM   33  H28 UNL     1      -8.929  50.396 -30.673  1.00  0.00     0.209 HD
ENDBRANCH  31  32
ENDBRANCH  11  31
BRANCH  14  34
HETATM   34  O3  UNL     1      -5.179  48.884 -30.603  1.00  0.00    -0.396 OA
HETATM   35  H34 UNL     1      -6.103  49.154 -30.805  1.00  0.00     0.210 HD
ENDBRANCH  14  34
TORSDOF 9
ENDMDL
MODEL 6
REMARK minimizedAffinity -8.6884861
REMARK CNNscore 0.456168115
REMARK CNNaffinity 6.63439703
REMARK  9 active torsions:
REMARK  status: ('A' for Active; 'I' for Inactive)
REMARK    1  A    between atoms: C3_3  and  C4_4 
REMARK    2  A    between atoms: C3_3  and  C27_30 
REMARK    3  A    between atoms: C4_4  and  C5_5 
REMARK    4  A    between atoms: C5_5  and  C6_6 
REMARK    5  A    between atoms: C6_6  and  C8_8 
REMARK    6  A    between atoms: C15_15  and  O1_16 
REMARK    7  A    between atoms: C18_19  and  C19_20 
REMARK    8  A    between atoms: C19_20  and  O2_21 
REMARK    9  A    between atoms: C22_24  and  O3_25 
ROOT
HETATM    1  C8  UNL     1      -0.595  51.440 -21.354  1.00  0.00     0.001 C 
HETATM    2  C9  UNL     1       0.006  52.863 -21.221  1.00  0.00     0.006 C 
HETATM    3  C10 UNL     1       0.509  52.994 -19.775  1.00  0.00     0.010 C 
HETATM    4  C11 UNL     1       0.438  51.574 -19.216  1.00  0.00     0.026 C 
HETATM    5  C12 UNL     1       0.515  51.314 -17.727  1.00  0.00    -0.072 C 
HETATM    6  C13 UNL     1       0.011  50.162 -17.214  1.00  0.00    -0.064 C 
HETATM    7  C14 UNL     1      -0.722  49.154 -18.113  1.00  0.00     0.068 C 
HETATM    8  C15 UNL     1      -0.772  49.478 -19.627  1.00  0.00     0.131 C 
HETATM    9  C16 UNL     1      -0.842  50.998 -19.878  1.00  0.00    -0.006 C 
HETATM   10  C17 UNL     1      -2.148  51.599 -19.302  1.00  0.00     0.019 C 
HETATM   11  C18 UNL     1       0.080  49.850 -15.687  1.00  0.00     0.009 C 
HETATM   12  C20 UNL     1       0.350  48.338 -15.381  1.00  0.00     0.019 C 
HETATM   13  C21 UNL     1       1.414  48.043 -14.311  1.00  0.00     0.033 C 
HETATM   14  C22 UNL     1       1.395  48.996 -13.123  1.00  0.00     0.118 C 
HETATM   15  C23 UNL     1       1.415  50.471 -13.535  1.00  0.00     0.037 C 
HETATM   16  C24 UNL     1       1.248  50.672 -15.051  1.00  0.00     0.003 C 
HETATM   17  C25 UNL     1       1.157  52.158 -15.395  1.00  0.00     0.010 C 
HETATM   18  C26 UNL     1       1.223  52.365 -16.905  1.00  0.00     0.035 C 
ENDROOT
BRANCH   1  19
HETATM   19  C6  UNL     1      -1.749  51.278 -22.389  1.00  0.00    -0.013 C 
HETATM   20  C7  UNL     1      -1.599  49.917 -23.091  1.00  0.00     0.010 C 
BRANCH  19  21
HETATM   21  C5  UNL     1      -1.842  52.396 -23.454  1.00  0.00     0.009 C 
BRANCH  21  22
HETATM   22  C4  UNL     1      -0.681  52.473 -24.463  1.00  0.00     0.034 C 
BRANCH  22  23
HETATM   23  C3  UNL     1      -0.945  51.819 -25.810  1.00  0.00    -0.081 C 
HETATM   24  C2  UNL     1      -2.179  51.758 -26.354  1.00  0.00    -0.028 C 
HETATM   25  C1  UNL     1      -3.450  52.257 -25.742  1.00  0.00     0.036 C 
BRANCH  23  26
HETATM   26  C27 UNL     1       0.302  51.328 -26.550  1.00  0.00     0.006 C 
HETATM   27  C28 UNL     1       0.378  51.743 -28.023  1.00  0.00     0.014 C 
HETATM   28  C29 UNL     1       1.571  51.772 -25.815  1.00  0.00     0.014 C 
ENDBRANCH  23  26
ENDBRANCH  22  23
ENDBRANCH  21  22
ENDBRANCH  19  21
ENDBRANCH   1  19
BRANCH   8  29
HETATM   29  O1  UNL     1      -1.847  48.770 -20.237  1.00  0.00    -0.394 OA
HETATM   30  H22 UNL     1      -2.684  49.088 -19.860  1.00  0.00     0.210 HD
ENDBRANCH   8  29
BRANCH  11  31
HETATM   31  C19 UNL     1      -1.331  50.253 -15.138  1.00  0.00     0.178 C 
BRANCH  31  32
HETATM   32  O2  UNL     1      -2.095  51.038 -16.044  1.00  0.00    -0.400 OA
HETATM   33  H28 UNL     1      -2.971  51.160 -15.632  1.00  0.00     0.209 HD
ENDBRANCH  31  32
ENDBRANCH  11  31
BRANCH  14  34
HETATM   34  O3  UNL     1       0.259  48.718 -12.311  1.00  0.00    -0.396 OA
HETATM   35  H34 UNL     1      -0.518  49.103 -12.774  1.00  0.00     0.210 HD
ENDBRANCH  14  34
TORSDOF 9
ENDMDL
MODEL 7
REMARK minimizedAffinity -7.29958439
REMARK CNNscore 0.391369939
REMARK CNNaffinity 6.0512805
REMARK  9 active torsions:
REMARK  status: ('A' for Active; 'I' for Inactive)
REMARK    1  A    between atoms: C3_3  and  C4_4 
REMARK    2  A    between atoms: C3_3  and  C27_30 
REMARK    3  A    between atoms: C4_4  and  C5_5 
REMARK    4  A    between atoms: C5_5  and  C6_6 
REMARK    5  A    between atoms: C6_6  and  C8_8 
REMARK    6  A    between atoms: C15_15  and  O1_16 
REMARK    7  A    between atoms: C18_19  and  C19_20 
REMARK    8  A    between atoms: C19_20  and  O2_21 
REMARK    9  A    between atoms: C22_24  and  O3_25 
ROOT
HETATM    1  C8  UNL     1      -7.707  46.303 -33.192  1.00  0.00     0.001 C 
HETATM    2  C9  UNL     1      -6.298  46.934 -33.332  1.00  0.00     0.006 C 
HETATM    3  C10 UNL     1      -5.833  47.290 -31.910  1.00  0.00     0.010 C 
HETATM    4  C11 UNL     1      -6.848  46.608 -30.994  1.00  0.00     0.026 C 
HETATM    5  C12 UNL     1      -6.962  46.985 -29.534  1.00  0.00    -0.072 C 
HETATM    6  C13 UNL     1      -8.112  46.735 -28.856  1.00  0.00    -0.064 C 
HETATM    7  C14 UNL     1      -9.339  46.155 -29.577  1.00  0.00     0.068 C 
HETATM    8  C15 UNL     1      -9.163  45.794 -31.073  1.00  0.00     0.131 C 
HETATM    9  C16 UNL     1      -8.182  46.755 -31.775  1.00  0.00    -0.006 C 
HETATM   10  C17 UNL     1      -8.728  48.204 -31.780  1.00  0.00     0.019 C 
HETATM   11  C18 UNL     1      -8.266  47.097 -27.347  1.00  0.00     0.009 C 
HETATM   12  C20 UNL     1      -9.094  46.038 -26.543  1.00  0.00     0.019 C 
HETATM   13  C21 UNL     1      -8.510  45.608 -25.188  1.00  0.00     0.033 C 
HETATM   14  C22 UNL     1      -7.870  46.736 -24.389  1.00  0.00     0.118 C 
HETATM   15  C23 UNL     1      -6.854  47.545 -25.201  1.00  0.00     0.037 C 
HETATM   16  C24 UNL     1      -6.847  47.174 -26.694  1.00  0.00     0.003 C 
HETATM   17  C25 UNL     1      -5.905  48.088 -27.477  1.00  0.00     0.010 C 
HETATM   18  C26 UNL     1      -5.724  47.577 -28.903  1.00  0.00     0.035 C 
ENDROOT
BRANCH   1  19
HETATM   19  C6  UNL     1      -8.669  46.498 -34.402  1.00  0.00    -0.013 C 
HETATM   20  C7  UNL     1      -9.046  45.117 -34.965  1.00  0.00     0.010 C 
BRANCH  19  21
HETATM   21  C5  UNL     1      -8.119  47.384 -35.545  1.00  0.00     0.009 C 
BRANCH  21  22
HETATM   22  C4  UNL     1      -8.756  47.178 -36.932  1.00  0.00     0.034 C 
BRANCH  22  23
HETATM   23  C3  UNL     1      -8.383  48.215 -37.980  1.00  0.00    -0.081 C 
HETATM   24  C2  UNL     1      -9.205  49.232 -38.315  1.00  0.00    -0.028 C 
HETATM   25  C1  UNL     1     -10.578  49.486 -37.774  1.00  0.00     0.036 C 
BRANCH  23  26
HETATM   26  C27 UNL     1      -6.970  48.081 -38.553  1.00  0.00     0.006 C 
HETATM   27  C28 UNL     1      -6.909  47.901 -40.073  1.00  0.00     0.014 C 
HETATM   28  C29 UNL     1      -6.106  49.275 -38.132  1.00  0.00     0.014 C 
ENDBRANCH  23  26
ENDBRANCH  22  23
ENDBRANCH  21  22
ENDBRANCH  19  21
ENDBRANCH   1  19
BRANCH   8  29
HETATM   29  O1  UNL     1     -10.435  45.746 -31.711  1.00  0.00    -0.394 OA
HETATM   30  H22 UNL     1     -10.831  46.633 -31.687  1.00  0.00     0.210 HD
ENDBRANCH   8  29
BRANCH  11  31
HETATM   31  C19 UNL     1      -9.024  48.468 -27.345  1.00  0.00     0.178 C 
BRANCH  31  32
HETATM   32  O2  UNL     1      -8.719  49.291 -28.464  1.00  0.00    -0.400 OA
HETATM   33  H28 UNL     1      -9.300  50.073 -28.398  1.00  0.00     0.209 HD
ENDBRANCH  31  32
ENDBRANCH  11  31
BRANCH  14  34
HETATM   34  O3  UNL     1      -8.888  47.586 -23.870  1.00  0.00    -0.396 OA
HETATM   35  H34 UNL     1      -9.198  48.142 -24.619  1.00  0.00     0.210 HD
ENDBRANCH  14  34
TORSDOF 9
ENDMDL
MODEL 8
REMARK minimizedAffinity -9.52208519
REMARK CNNscore 0.375768393
REMARK CNNaffinity 6.85569763
REMARK  9 active torsions:
REMARK  status: ('A' for Active; 'I' for Inactive)
REMARK    1  A    between atoms: C3_3  and  C4_4 
REMARK    2  A    between atoms: C3_3  and  C27_30 
REMARK    3  A    between atoms: C4_4  and  C5_5 
REMARK    4  A    between atoms: C5_5  and  C6_6 
REMARK    5  A    between atoms: C6_6  and  C8_8 
REMARK    6  A    between atoms: C15_15  and  O1_16 
REMARK    7  A    between atoms: C18_19  and  C19_20 
REMARK    8  A    between atoms: C19_20  and  O2_21 
REMARK    9  A    between atoms: C22_24  and  O3_25 
ROOT
HETATM    1  C8  UNL     1      -0.104  50.438 -18.720  1.00  0.00     0.001 C 
HETATM    2  C9  UNL     1      -0.737  49.110 -18.233  1.00  0.00     0.006 C 
HETATM    3  C10 UNL     1      -1.486  48.513 -19.436  1.00  0.00     0.010 C 
HETATM    4  C11 UNL     1      -1.031  49.358 -20.626  1.00  0.00     0.026 C 
HETATM    5  C12 UNL     1      -1.784  49.331 -21.937  1.00  0.00    -0.072 C 
HETATM    6  C13 UNL     1      -1.675  50.372 -22.803  1.00  0.00    -0.064 C 
HETATM    7  C14 UNL     1      -0.866  51.623 -22.430  1.00  0.00     0.068 C 
HETATM    8  C15 UNL     1      -0.122  51.594 -21.072  1.00  0.00     0.131 C 
HETATM    9  C16 UNL     1      -0.900  50.780 -20.018  1.00  0.00    -0.006 C 
HETATM   10  C17 UNL     1      -2.268  51.437 -19.705  1.00  0.00     0.019 C 
HETATM   11  C18 UNL     1      -2.425  50.378 -24.171  1.00  0.00     0.009 C 
HETATM   12  C20 UNL     1      -1.587  51.021 -25.327  1.00  0.00     0.019 C 
HETATM   13  C21 UNL     1      -1.567  50.251 -26.658  1.00  0.00     0.033 C 
HETATM   14  C22 UNL     1      -2.896  49.615 -27.040  1.00  0.00     0.118 C 
HETATM   15  C23 UNL     1      -3.501  48.768 -25.916  1.00  0.00     0.037 C 
HETATM   16  C24 UNL     1      -2.741  48.904 -24.586  1.00  0.00     0.003 C 
HETATM   17  C25 UNL     1      -3.450  48.135 -23.473  1.00  0.00     0.010 C 
HETATM   18  C26 UNL     1      -2.581  48.080 -22.220  1.00  0.00     0.035 C 
ENDROOT
BRANCH   1  19
HETATM   19  C6  UNL     1       0.081  51.546 -17.640  1.00  0.00    -0.013 C 
HETATM   20  C7  UNL     1       1.171  52.523 -18.111  1.00  0.00     0.010 C 
BRANCH  19  21
HETATM   21  C5  UNL     1       0.430  51.033 -16.223  1.00  0.00     0.009 C 
BRANCH  21  22
HETATM   22  C4  UNL     1       1.178  52.021 -15.307  1.00  0.00     0.034 C 
BRANCH  22  23
HETATM   23  C3  UNL     1       2.381  51.446 -14.574  1.00  0.00    -0.081 C 
HETATM   24  C2  UNL     1       3.648  51.656 -14.989  1.00  0.00    -0.028 C 
HETATM   25  C1  UNL     1       4.075  52.418 -16.204  1.00  0.00     0.036 C 
BRANCH  23  26
HETATM   26  C27 UNL     1       2.056  50.698 -13.279  1.00  0.00     0.006 C 
HETATM   27  C28 UNL     1       0.867  49.736 -13.375  1.00  0.00     0.014 C 
HETATM   28  C29 UNL     1       3.292  49.953 -12.766  1.00  0.00     0.014 C 
ENDBRANCH  23  26
ENDBRANCH  22  23
ENDBRANCH  21  22
ENDBRANCH  19  21
ENDBRANCH   1  19
BRANCH   8  29
HETATM   29  O1  UNL     1       0.156  52.924 -20.643  1.00  0.00    -0.394 OA
HETATM   30  H22 UNL     1      -0.686  53.383 -20.486  1.00  0.00     0.210 HD
ENDBRANCH   8  29
BRANCH  11  31
HETATM   31  C19 UNL     1      -3.709  51.237 -23.912  1.00  0.00     0.178 C 
BRANCH  31  32
HETATM   32  O2  UNL     1      -4.718  51.070 -24.900  1.00  0.00    -0.400 OA
HETATM   33  H28 UNL     1      -5.489  51.585 -24.598  1.00  0.00     0.209 HD
ENDBRANCH  31  32
ENDBRANCH  11  31
BRANCH  14  34
HETATM   34  O3  UNL     1      -3.808  50.630 -27.447  1.00  0.00    -0.396 OA
HETATM   35  H34 UNL     1      -4.126  51.068 -26.627  1.00  0.00     0.210 HD
ENDBRANCH  14  34
TORSDOF 9
ENDMDL
MODEL 9
REMARK minimizedAffinity -8.52602863
REMARK CNNscore 0.358851343
REMARK CNNaffinity 6.52602959
REMARK  9 active torsions:
REMARK  status: ('A' for Active; 'I' for Inactive)
REMARK    1  A    between atoms: C3_3  and  C4_4 
REMARK    2  A    between atoms: C3_3  and  C27_30 
REMARK    3  A    between atoms: C4_4  and  C5_5 
REMARK    4  A    between atoms: C5_5  and  C6_6 
REMARK    5  A    between atoms: C6_6  and  C8_8 
REMARK    6  A    between atoms: C15_15  and  O1_16 
REMARK    7  A    between atoms: C18_19  and  C19_20 
REMARK    8  A    between atoms: C19_20  and  O2_21 
REMARK    9  A    between atoms: C22_24  and  O3_25 
ROOT
HETATM    1  C8  UNL     1      -2.928  49.265 -23.229  1.00  0.00     0.001 C 
HETATM    2  C9  UNL     1      -3.276  49.133 -21.724  1.00  0.00     0.006 C 
HETATM    3  C10 UNL     1      -4.660  48.467 -21.651  1.00  0.00     0.010 C 
HETATM    4  C11 UNL     1      -4.931  47.991 -23.077  1.00  0.00     0.026 C 
HETATM    5  C12 UNL     1      -6.323  47.593 -23.518  1.00  0.00    -0.072 C 
HETATM    6  C13 UNL     1      -6.648  47.615 -24.837  1.00  0.00    -0.064 C 
HETATM    7  C14 UNL     1      -5.649  48.127 -25.885  1.00  0.00     0.068 C 
HETATM    8  C15 UNL     1      -4.242  48.524 -25.372  1.00  0.00     0.131 C 
HETATM    9  C16 UNL     1      -4.305  49.113 -23.948  1.00  0.00    -0.006 C 
HETATM   10  C17 UNL     1      -5.122  50.429 -23.924  1.00  0.00     0.019 C 
HETATM   11  C18 UNL     1      -8.067  47.201 -25.334  1.00  0.00     0.009 C 
HETATM   12  C20 UNL     1      -8.038  46.418 -26.691  1.00  0.00     0.019 C 
HETATM   13  C21 UNL     1      -8.913  45.156 -26.764  1.00  0.00     0.033 C 
HETATM   14  C22 UNL     1     -10.261  45.280 -26.067  1.00  0.00     0.118 C 
HETATM   15  C23 UNL     1     -10.148  45.797 -24.629  1.00  0.00     0.037 C 
HETATM   16  C24 UNL     1      -8.728  46.265 -24.269  1.00  0.00     0.003 C 
HETATM   17  C25 UNL     1      -8.696  46.877 -22.870  1.00  0.00     0.010 C 
HETATM   18  C26 UNL     1      -7.258  47.129 -22.427  1.00  0.00     0.035 C 
ENDROOT
BRANCH   1  19
HETATM   19  C6  UNL     1      -2.008  50.461 -23.617  1.00  0.00    -0.013 C 
HETATM   20  C7  UNL     1      -2.685  51.771 -23.180  1.00  0.00     0.010 C 
BRANCH  19  21
HETATM   21  C5  UNL     1      -1.639  50.550 -25.117  1.00  0.00     0.009 C 
BRANCH  21  22
HETATM   22  C4  UNL     1      -1.106  51.910 -25.606  1.00  0.00     0.034 C 
BRANCH  22  23
HETATM   23  C3  UNL     1       0.409  52.030 -25.666  1.00  0.00    -0.081 C 
HETATM   24  C2  UNL     1       1.125  52.629 -24.692  1.00  0.00    -0.028 C 
HETATM   25  C1  UNL     1       0.584  53.286 -23.460  1.00  0.00     0.036 C 
BRANCH  23  26
HETATM   26  C27 UNL     1       1.070  51.335 -26.859  1.00  0.00     0.006 C 
HETATM   27  C28 UNL     1       0.542  51.773 -28.229  1.00  0.00     0.014 C 
HETATM   28  C29 UNL     1       2.592  51.509 -26.805  1.00  0.00     0.014 C 
ENDBRANCH  23  26
ENDBRANCH  22  23
ENDBRANCH  21  22
ENDBRANCH  19  21
ENDBRANCH   1  19
BRANCH   8  29
HETATM   29  O1  UNL     1      -3.619  49.405 -26.303  1.00  0.00    -0.394 OA
HETATM   30  H22 UNL     1      -4.137  50.226 -26.351  1.00  0.00     0.210 HD
ENDBRANCH   8  29
BRANCH  11  31
HETATM   31  C19 UNL     1      -8.829  48.556 -25.525  1.00  0.00     0.178 C 
BRANCH  31  32
HETATM   32  O2  UNL     1      -8.336  49.610 -24.709  1.00  0.00    -0.400 OA
HETATM   33  H28 UNL     1      -8.827  50.413 -24.967  1.00  0.00     0.209 HD
ENDBRANCH  31  32
ENDBRANCH  11  31
BRANCH  14  34
HETATM   34  O3  UNL     1     -11.116  46.121 -26.835  1.00  0.00    -0.396 OA
HETATM   35  H34 UNL     1     -10.821  47.044 -26.673  1.00  0.00     0.210 HD
ENDBRANCH  14  34
TORSDOF 9
ENDMDL
