MODEL 1
REMARK minimizedAffinity -10.7251673
REMARK CNNscore 0.25652957
REMARK CNNaffinity 7.57347441
REMARK  10 active torsions:
REMARK  status: ('A' for Active; 'I' for Inactive)
REMARK    1  A    between atoms: O1_2  and  C2_3 
REMARK    2  A    between atoms: C7_9  and  C8_10 
REMARK    3  A    between atoms: C8_10  and  C9_11 
REMARK    4  A    between atoms: C9_11  and  N2_12 
REMARK    5  A    between atoms: N2_12  and  C10_13 
REMARK    6  A    between atoms: C20_24  and  C21_25 
REMARK    7  A    between atoms: C21_25  and  C23_27 
REMARK    8  A    between atoms: C27_31  and  C28_32 
REMARK    9  A    between atoms: C28_32  and  O3_33 
REMARK   10  A    between atoms: C37_45  and  O7_46 
ROOT
HETATM    1  C10 UNL     1      -2.242   7.570  15.358  1.00  0.00     0.259 C 
HETATM    2  C11 UNL     1      -0.882   8.280  15.353  1.00  0.00     0.117 C 
HETATM    3  C12 UNL     1      -0.457   8.676  13.954  1.00  0.00     0.141 C 
HETATM    4  O2  UNL     1       0.143   9.739  13.761  1.00  0.00    -0.297 OA
HETATM    5  C13 UNL     1      -0.778   7.708  12.804  1.00  0.00     0.057 C 
HETATM    6  C14 UNL     1      -1.965   8.323  12.015  1.00  0.00     0.027 C 
HETATM    7  C15 UNL     1       0.442   7.613  11.818  1.00  0.00     0.009 C 
HETATM    8  C16 UNL     1       1.804   7.316  12.483  1.00  0.00     0.007 C 
HETATM    9  C17 UNL     1       2.620   6.213  11.814  1.00  0.00     0.010 C 
HETATM   10  C18 UNL     1       2.726   6.294  10.280  1.00  0.00    -0.036 C 
HETATM   11  C19 UNL     1       3.204   4.900   9.798  1.00  0.00     0.016 C 
HETATM   12  C20 UNL     1       3.650   7.424   9.682  1.00  0.00     0.000 C 
HETATM   13  C30 UNL     1       2.704   8.588   9.403  1.00  0.00     0.006 C 
HETATM   14  C31 UNL     1       1.490   7.890   8.820  1.00  0.00     0.006 C 
HETATM   15  C32 UNL     1       1.318   6.586   9.628  1.00  0.00    -0.001 C 
HETATM   16  C33 UNL     1       0.130   6.683  10.623  1.00  0.00    -0.002 C 
HETATM   17  C34 UNL     1      -0.398   5.282  11.014  1.00  0.00     0.040 C 
HETATM   18  C35 UNL     1      -1.071   5.182  12.352  1.00  0.00     0.161 A 
HETATM   19  O6  UNL     1      -0.136   5.356  13.415  1.00  0.00    -0.365 OA
HETATM   20  C36 UNL     1      -1.179   6.342  13.335  1.00  0.00     0.130 A 
HETATM   21  C37 UNL     1      -2.139   6.264  14.516  1.00  0.00     0.190 C 
ENDROOT
BRANCH   1  22
HETATM   22  N2  UNL     1      -3.296   8.532  14.969  1.00  0.00     0.091 N 
HETATM   23  H12 UNL     1      -3.190   9.391  15.521  1.00  0.00     0.316 HD
BRANCH  22  24
HETATM   24  C9  UNL     1      -4.670   8.031  15.122  1.00  0.00     0.275 C 
BRANCH  24  25
HETATM   25  C8  UNL     1      -5.253   7.629  13.753  1.00  0.00     0.070 C 
BRANCH  25  26
HETATM   26  C7  UNL     1      -6.300   6.564  13.879  1.00  0.00    -0.029 A 
HETATM   27  C6  UNL     1      -7.516   6.691  14.518  1.00  0.00     0.096 A 
HETATM   28  N1  UNL     1      -8.218   5.521  14.365  1.00  0.00    -0.365 N 
HETATM   29  C5  UNL     1      -7.484   4.627  13.628  1.00  0.00     0.043 A 
HETATM   30  H6  UNL     1      -9.146   5.345  14.729  1.00  0.00     0.165 HD
HETATM   31  C4  UNL     1      -7.798   3.329  13.204  1.00  0.00     0.033 A 
HETATM   32  C38 UNL     1      -6.263   5.245  13.330  1.00  0.00     0.001 A 
HETATM   33  C3  UNL     1      -6.833   2.644  12.454  1.00  0.00     0.039 A 
HETATM   34  C2  UNL     1      -5.591   3.212  12.169  1.00  0.00     0.069 A 
HETATM   35  C39 UNL     1      -5.306   4.518  12.590  1.00  0.00     0.051 A 
BRANCH  34  36
HETATM   36  O1  UNL     1      -4.748   2.422  11.430  1.00  0.00    -0.356 OA
HETATM   37  C1  UNL     1      -3.399   2.363  11.864  1.00  0.00     0.210 C 
ENDBRANCH  34  36
ENDBRANCH  25  26
ENDBRANCH  24  25
ENDBRANCH  22  24
ENDBRANCH   1  22
BRANCH  21  38
HETATM   38  O7  UNL     1      -1.698   5.246  15.428  1.00  0.00    -0.390 OA
HETATM   39  H51 UNL     1      -2.156   4.415  15.201  1.00  0.00     0.210 HD
ENDBRANCH  21  38
BRANCH  12  40
HETATM   40  C21 UNL     1       5.072   7.818  10.207  1.00  0.00     0.016 C 
HETATM   41  C22 UNL     1       5.561   6.782  11.238  1.00  0.00     0.013 C 
BRANCH  40  42
HETATM   42  C23 UNL     1       5.463   9.243  10.704  1.00  0.00     0.140 C 
HETATM   43  C24 UNL     1       4.859   9.708  12.026  1.00  0.00     0.067 C 
HETATM   44  C25 UNL     1       5.295  11.132  12.271  1.00  0.00    -0.067 C 
HETATM   45  C26 UNL     1       4.315  11.994  13.020  1.00  0.00     0.044 C 
HETATM   46  C27 UNL     1       6.514  11.547  11.846  1.00  0.00     0.042 C 
HETATM   47  C29 UNL     1       7.422  10.585  11.156  1.00  0.00     0.292 C 
HETATM   48  O4  UNL     1       8.605  10.835  10.964  1.00  0.00    -0.260 OA
HETATM   49  O5  UNL     1       6.884   9.412  10.731  1.00  0.00    -0.311 OA
BRANCH  46  50
HETATM   50  C28 UNL     1       7.097  12.910  12.082  1.00  0.00     0.209 C 
BRANCH  50  51
HETATM   51  O3  UNL     1       8.133  12.843  13.065  1.00  0.00    -0.396 OA
HETATM   52  H40 UNL     1       8.729  13.590  12.879  1.00  0.00     0.209 HD
ENDBRANCH  50  51
ENDBRANCH  46  50
ENDBRANCH  40  42
ENDBRANCH  12  40
TORSDOF 10
ENDMDL
MODEL 2
REMARK minimizedAffinity -9.95389557
REMARK CNNscore 0.22752285
REMARK CNNaffinity 6.69175482
REMARK  10 active torsions:
REMARK  status: ('A' for Active; 'I' for Inactive)
REMARK    1  A    between atoms: O1_2  and  C2_3 
REMARK    2  A    between atoms: C7_9  and  C8_10 
REMARK    3  A    between atoms: C8_10  and  C9_11 
REMARK    4  A    between atoms: C9_11  and  N2_12 
REMARK    5  A    between atoms: N2_12  and  C10_13 
REMARK    6  A    between atoms: C20_24  and  C21_25 
REMARK    7  A    between atoms: C21_25  and  C23_27 
REMARK    8  A    between atoms: C27_31  and  C28_32 
REMARK    9  A    between atoms: C28_32  and  O3_33 
REMARK   10  A    between atoms: C37_45  and  O7_46 
ROOT
HETATM    1  C10 UNL     1      -4.196  10.051  15.356  1.00  0.00     0.259 C 
HETATM    2  C11 UNL     1      -2.753   9.711  14.961  1.00  0.00     0.117 C 
HETATM    3  C12 UNL     1      -1.858   9.550  16.172  1.00  0.00     0.141 C 
HETATM    4  O2  UNL     1      -0.968   8.693  16.181  1.00  0.00    -0.297 OA
HETATM    5  C13 UNL     1      -2.084  10.496  17.362  1.00  0.00     0.057 C 
HETATM    6  C14 UNL     1      -2.789   9.668  18.469  1.00  0.00     0.027 C 
HETATM    7  C15 UNL     1      -0.704  10.977  17.942  1.00  0.00     0.009 C 
HETATM    8  C16 UNL     1       0.282  11.554  16.904  1.00  0.00     0.007 C 
HETATM    9  C17 UNL     1       0.931  12.877  17.298  1.00  0.00     0.010 C 
HETATM   10  C18 UNL     1       1.487  12.951  18.732  1.00  0.00    -0.036 C 
HETATM   11  C19 UNL     1       1.695  14.455  19.047  1.00  0.00     0.016 C 
HETATM   12  C20 UNL     1       2.809  12.144  19.032  1.00  0.00     0.000 C 
HETATM   13  C30 UNL     1       2.326  10.806  19.582  1.00  0.00     0.006 C 
HETATM   14  C31 UNL     1       1.188  11.219  20.497  1.00  0.00     0.006 C 
HETATM   15  C32 UNL     1       0.454  12.367  19.772  1.00  0.00    -0.001 C 
HETATM   16  C33 UNL     1      -0.898  11.892  19.174  1.00  0.00    -0.002 C 
HETATM   17  C34 UNL     1      -1.868  13.077  18.953  1.00  0.00     0.040 C 
HETATM   18  C35 UNL     1      -2.896  12.894  17.873  1.00  0.00     0.161 A 
HETATM   19  O6  UNL     1      -2.291  12.877  16.582  1.00  0.00    -0.365 OA
HETATM   20  C36 UNL     1      -2.967  11.668  16.970  1.00  0.00     0.130 A 
HETATM   21  C37 UNL     1      -4.208  11.405  16.126  1.00  0.00     0.190 C 
ENDROOT
BRANCH   1  22
HETATM   22  N2  UNL     1      -4.800   8.888  16.043  1.00  0.00     0.091 N 
HETATM   23  H12 UNL     1      -4.281   8.699  16.907  1.00  0.00     0.316 HD
BRANCH  22  24
HETATM   24  C9  UNL     1      -4.853   7.660  15.236  1.00  0.00     0.275 C 
BRANCH  24  25
HETATM   25  C8  UNL     1      -5.848   7.822  14.071  1.00  0.00     0.070 C 
BRANCH  25  26
HETATM   26  C7  UNL     1      -6.819   6.683  13.999  1.00  0.00    -0.029 A 
HETATM   27  C6  UNL     1      -8.133   6.705  14.422  1.00  0.00     0.096 A 
HETATM   28  N1  UNL     1      -8.708   5.493  14.133  1.00  0.00    -0.365 N 
HETATM   29  C5  UNL     1      -7.796   4.674  13.519  1.00  0.00     0.043 A 
HETATM   30  H6  UNL     1      -9.670   5.242  14.330  1.00  0.00     0.165 HD
HETATM   31  C4  UNL     1      -7.936   3.370  13.027  1.00  0.00     0.033 A 
HETATM   32  C38 UNL     1      -6.592   5.385  13.444  1.00  0.00     0.001 A 
HETATM   33  C3  UNL     1      -6.809   2.776  12.443  1.00  0.00     0.039 A 
HETATM   34  C2  UNL     1      -5.582   3.439  12.384  1.00  0.00     0.069 A 
HETATM   35  C39 UNL     1      -5.472   4.749  12.867  1.00  0.00     0.051 A 
BRANCH  34  36
HETATM   36  O1  UNL     1      -4.570   2.731  11.788  1.00  0.00    -0.356 OA
HETATM   37  C1  UNL     1      -3.757   3.448  10.872  1.00  0.00     0.210 C 
ENDBRANCH  34  36
ENDBRANCH  25  26
ENDBRANCH  24  25
ENDBRANCH  22  24
ENDBRANCH   1  22
BRANCH  21  38
HETATM   38  O7  UNL     1      -4.332  12.423  15.122  1.00  0.00    -0.390 OA
HETATM   39  H51 UNL     1      -4.910  13.128  15.471  1.00  0.00     0.210 HD
ENDBRANCH  21  38
BRANCH  12  40
HETATM   40  C21 UNL     1       4.074  12.081  18.111  1.00  0.00     0.016 C 
HETATM   41  C22 UNL     1       3.912  10.959  17.067  1.00  0.00     0.013 C 
BRANCH  40  42
HETATM   42  C23 UNL     1       5.543  12.073  18.633  1.00  0.00     0.140 C 
HETATM   43  C24 UNL     1       5.746  12.201  20.139  1.00  0.00     0.067 C 
HETATM   44  C25 UNL     1       7.228  12.259  20.415  1.00  0.00    -0.067 C 
HETATM   45  C26 UNL     1       7.639  13.083  21.605  1.00  0.00     0.044 C 
HETATM   46  C27 UNL     1       8.089  11.571  19.624  1.00  0.00     0.042 C 
HETATM   47  C29 UNL     1       7.559  10.747  18.499  1.00  0.00     0.292 C 
HETATM   48  O4  UNL     1       8.257   9.932  17.909  1.00  0.00    -0.260 OA
HETATM   49  O5  UNL     1       6.263  10.940  18.138  1.00  0.00    -0.311 OA
BRANCH  46  50
HETATM   50  C28 UNL     1       9.574  11.488  19.825  1.00  0.00     0.209 C 
BRANCH  50  51
HETATM   51  O3  UNL     1       9.902  11.704  21.199  1.00  0.00    -0.396 OA
HETATM   52  H40 UNL     1      10.745  11.243  21.351  1.00  0.00     0.209 HD
ENDBRANCH  50  51
ENDBRANCH  46  50
ENDBRANCH  40  42
ENDBRANCH  12  40
TORSDOF 10
ENDMDL
MODEL 3
REMARK minimizedAffinity -9.25586128
REMARK CNNscore 0.225953192
REMARK CNNaffinity 6.00107813
REMARK  10 active torsions:
REMARK  status: ('A' for Active; 'I' for Inactive)
REMARK    1  A    between atoms: O1_2  and  C2_3 
REMARK    2  A    between atoms: C7_9  and  C8_10 
REMARK    3  A    between atoms: C8_10  and  C9_11 
REMARK    4  A    between atoms: C9_11  and  N2_12 
REMARK    5  A    between atoms: N2_12  and  C10_13 
REMARK    6  A    between atoms: C20_24  and  C21_25 
REMARK    7  A    between atoms: C21_25  and  C23_27 
REMARK    8  A    between atoms: C27_31  and  C28_32 
REMARK    9  A    between atoms: C28_32  and  O3_33 
REMARK   10  A    between atoms: C37_45  and  O7_46 
ROOT
HETATM    1  C10 UNL     1      -4.084  10.073  15.326  1.00  0.00     0.259 C 
HETATM    2  C11 UNL     1      -2.634   9.730  14.961  1.00  0.00     0.117 C 
HETATM    3  C12 UNL     1      -1.759   9.593  16.190  1.00  0.00     0.141 C 
HETATM    4  O2  UNL     1      -0.868   8.738  16.230  1.00  0.00    -0.297 OA
HETATM    5  C13 UNL     1      -2.007  10.559  17.359  1.00  0.00     0.057 C 
HETATM    6  C14 UNL     1      -2.730   9.749  18.469  1.00  0.00     0.027 C 
HETATM    7  C15 UNL     1      -0.639  11.054  17.954  1.00  0.00     0.009 C 
HETATM    8  C16 UNL     1       0.364  11.614  16.922  1.00  0.00     0.007 C 
HETATM    9  C17 UNL     1       1.003  12.946  17.304  1.00  0.00     0.010 C 
HETATM   10  C18 UNL     1       1.534  13.047  18.746  1.00  0.00    -0.036 C 
HETATM   11  C19 UNL     1       1.733  14.557  19.037  1.00  0.00     0.016 C 
HETATM   12  C20 UNL     1       2.852  12.248  19.083  1.00  0.00     0.000 C 
HETATM   13  C30 UNL     1       2.363  10.919  19.649  1.00  0.00     0.006 C 
HETATM   14  C31 UNL     1       1.209  11.346  20.536  1.00  0.00     0.006 C 
HETATM   15  C32 UNL     1       0.485  12.479  19.778  1.00  0.00    -0.001 C 
HETATM   16  C33 UNL     1      -0.856  11.990  19.166  1.00  0.00    -0.002 C 
HETATM   17  C34 UNL     1      -1.825  13.169  18.907  1.00  0.00     0.040 C 
HETATM   18  C35 UNL     1      -2.833  12.964  17.813  1.00  0.00     0.161 A 
HETATM   19  O6  UNL     1      -2.206  12.925  16.533  1.00  0.00    -0.365 OA
HETATM   20  C36 UNL     1      -2.886  11.722  16.931  1.00  0.00     0.130 A 
HETATM   21  C37 UNL     1      -4.112  11.441  16.071  1.00  0.00     0.190 C 
ENDROOT
BRANCH   1  22
HETATM   22  N2  UNL     1      -4.697   8.921  16.022  1.00  0.00     0.091 N 
HETATM   23  H12 UNL     1      -4.056   8.121  15.981  1.00  0.00     0.316 HD
BRANCH  22  24
HETATM   24  C9  UNL     1      -6.008   8.514  15.495  1.00  0.00     0.275 C 
BRANCH  24  25
HETATM   25  C8  UNL     1      -5.845   7.786  14.147  1.00  0.00     0.070 C 
BRANCH  25  26
HETATM   26  C7  UNL     1      -6.829   6.666  13.990  1.00  0.00    -0.029 A 
HETATM   27  C6  UNL     1      -8.168   6.707  14.322  1.00  0.00     0.096 A 
HETATM   28  N1  UNL     1      -8.743   5.510  13.975  1.00  0.00    -0.365 N 
HETATM   29  C5  UNL     1      -7.804   4.683  13.413  1.00  0.00     0.043 A 
HETATM   30  H6  UNL     1      -9.720   5.274  14.100  1.00  0.00     0.165 HD
HETATM   31  C4  UNL     1      -7.932   3.389  12.892  1.00  0.00     0.033 A 
HETATM   32  C38 UNL     1      -6.585   5.373  13.433  1.00  0.00     0.001 A 
HETATM   33  C3  UNL     1      -6.778   2.783  12.379  1.00  0.00     0.039 A 
HETATM   34  C2  UNL     1      -5.539   3.424  12.416  1.00  0.00     0.069 A 
HETATM   35  C39 UNL     1      -5.439   4.725  12.925  1.00  0.00     0.051 A 
BRANCH  34  36
HETATM   36  O1  UNL     1      -4.500   2.706  11.880  1.00  0.00    -0.356 OA
HETATM   37  C1  UNL     1      -3.195   3.199  12.141  1.00  0.00     0.210 C 
ENDBRANCH  34  36
ENDBRANCH  25  26
ENDBRANCH  24  25
ENDBRANCH  22  24
ENDBRANCH   1  22
BRANCH  21  38
HETATM   38  O7  UNL     1      -4.221  12.441  15.046  1.00  0.00    -0.390 OA
HETATM   39  H51 UNL     1      -4.806  13.150  15.373  1.00  0.00     0.210 HD
ENDBRANCH  21  38
BRANCH  12  40
HETATM   40  C21 UNL     1       4.133  12.172  18.185  1.00  0.00     0.016 C 
HETATM   41  C22 UNL     1       4.388  13.535  17.512  1.00  0.00     0.013 C 
BRANCH  40  42
HETATM   42  C23 UNL     1       4.417  11.040  17.151  1.00  0.00     0.140 C 
HETATM   43  C24 UNL     1       3.744  11.160  15.787  1.00  0.00     0.067 C 
HETATM   44  C25 UNL     1       4.080   9.928  14.982  1.00  0.00    -0.067 C 
HETATM   45  C26 UNL     1       3.025   9.477  14.010  1.00  0.00     0.044 C 
HETATM   46  C27 UNL     1       5.283   9.323  15.146  1.00  0.00     0.042 C 
HETATM   47  C29 UNL     1       6.271   9.893  16.107  1.00  0.00     0.292 C 
HETATM   48  O4  UNL     1       7.441   9.533  16.123  1.00  0.00    -0.260 OA
HETATM   49  O5  UNL     1       5.822  10.829  16.985  1.00  0.00    -0.311 OA
BRANCH  46  50
HETATM   50  C28 UNL     1       5.770   8.137  14.366  1.00  0.00     0.209 C 
BRANCH  50  51
HETATM   51  O3  UNL     1       5.440   6.925  15.048  1.00  0.00    -0.396 OA
HETATM   52  H40 UNL     1       5.380   6.238  14.361  1.00  0.00     0.209 HD
ENDBRANCH  50  51
ENDBRANCH  46  50
ENDBRANCH  40  42
ENDBRANCH  12  40
TORSDOF 10
ENDMDL
MODEL 4
REMARK minimizedAffinity -9.50069237
REMARK CNNscore 0.212094441
REMARK CNNaffinity 6.66769934
REMARK  10 active torsions:
REMARK  status: ('A' for Active; 'I' for Inactive)
REMARK    1  A    between atoms: O1_2  and  C2_3 
REMARK    2  A    between atoms: C7_9  and  C8_10 
REMARK    3  A    between atoms: C8_10  and  C9_11 
REMARK    4  A    between atoms: C9_11  and  N2_12 
REMARK    5  A    between atoms: N2_12  and  C10_13 
REMARK    6  A    between atoms: C20_24  and  C21_25 
REMARK    7  A    between atoms: C21_25  and  C23_27 
REMARK    8  A    between atoms: C27_31  and  C28_32 
REMARK    9  A    between atoms: C28_32  and  O3_33 
REMARK   10  A    between atoms: C37_45  and  O7_46 
ROOT
HETATM    1  C10 UNL     1      -3.973  10.088  15.300  1.00  0.00     0.259 C 
HETATM    2  C11 UNL     1      -2.527   9.735  14.928  1.00  0.00     0.117 C 
HETATM    3  C12 UNL     1      -1.660   9.535  16.154  1.00  0.00     0.141 C 
HETATM    4  O2  UNL     1      -0.784   8.664  16.164  1.00  0.00    -0.297 OA
HETATM    5  C13 UNL     1      -1.898  10.458  17.360  1.00  0.00     0.057 C 
HETATM    6  C14 UNL     1      -2.640   9.615  18.433  1.00  0.00     0.027 C 
HETATM    7  C15 UNL     1      -0.525  10.905  17.980  1.00  0.00     0.009 C 
HETATM    8  C16 UNL     1       0.492  11.489  16.976  1.00  0.00     0.007 C 
HETATM    9  C17 UNL     1       1.151  12.794  17.413  1.00  0.00     0.010 C 
HETATM   10  C18 UNL     1       1.677  12.828  18.861  1.00  0.00    -0.036 C 
HETATM   11  C19 UNL     1       1.899  14.321  19.213  1.00  0.00     0.016 C 
HETATM   12  C20 UNL     1       2.980  11.994  19.171  1.00  0.00     0.000 C 
HETATM   13  C30 UNL     1       2.466  10.652  19.681  1.00  0.00     0.006 C 
HETATM   14  C31 UNL     1       1.315  11.062  20.580  1.00  0.00     0.006 C 
HETATM   15  C32 UNL     1       0.613  12.236  19.865  1.00  0.00    -0.001 C 
HETATM   16  C33 UNL     1      -0.732  11.795  19.228  1.00  0.00    -0.002 C 
HETATM   17  C34 UNL     1      -1.680  12.999  19.012  1.00  0.00     0.040 C 
HETATM   18  C35 UNL     1      -2.686  12.856  17.907  1.00  0.00     0.161 A 
HETATM   19  O6  UNL     1      -2.054  12.857  16.629  1.00  0.00    -0.365 OA
HETATM   20  C36 UNL     1      -2.756  11.651  16.975  1.00  0.00     0.130 A 
HETATM   21  C37 UNL     1      -3.982  11.425  16.100  1.00  0.00     0.190 C 
ENDROOT
BRANCH   1  22
HETATM   22  N2  UNL     1      -4.609   8.920  15.947  1.00  0.00     0.091 N 
HETATM   23  H12 UNL     1      -4.149   8.741  16.847  1.00  0.00     0.316 HD
BRANCH  22  24
HETATM   24  C9  UNL     1      -4.588   7.688  15.144  1.00  0.00     0.275 C 
BRANCH  24  25
HETATM   25  C8  UNL     1      -5.600   7.783  13.986  1.00  0.00     0.070 C 
BRANCH  25  26
HETATM   26  C7  UNL     1      -6.599   6.666  14.020  1.00  0.00    -0.029 A 
HETATM   27  C6  UNL     1      -7.860   6.720  14.580  1.00  0.00     0.096 A 
HETATM   28  N1  UNL     1      -8.491   5.521  14.356  1.00  0.00    -0.365 N 
HETATM   29  C5  UNL     1      -7.667   4.681  13.651  1.00  0.00     0.043 A 
HETATM   30  H6  UNL     1      -9.431   5.293  14.655  1.00  0.00     0.165 HD
HETATM   31  C4  UNL     1      -7.888   3.380  13.181  1.00  0.00     0.033 A 
HETATM   32  C38 UNL     1      -6.462   5.364  13.448  1.00  0.00     0.001 A 
HETATM   33  C3  UNL     1      -6.844   2.761  12.482  1.00  0.00     0.039 A 
HETATM   34  C2  UNL     1      -5.615   3.394  12.292  1.00  0.00     0.069 A 
HETATM   35  C39 UNL     1      -5.424   4.702  12.757  1.00  0.00     0.051 A 
BRANCH  34  36
HETATM   36  O1  UNL     1      -4.688   2.663  11.594  1.00  0.00    -0.356 OA
HETATM   37  C1  UNL     1      -3.637   3.397  10.987  1.00  0.00     0.210 C 
ENDBRANCH  34  36
ENDBRANCH  25  26
ENDBRANCH  24  25
ENDBRANCH  22  24
ENDBRANCH   1  22
BRANCH  21  38
HETATM   38  O7  UNL     1      -4.069  12.467  15.116  1.00  0.00    -0.390 OA
HETATM   39  H51 UNL     1      -4.644  13.172  15.468  1.00  0.00     0.210 HD
ENDBRANCH  21  38
BRANCH  12  40
HETATM   40  C21 UNL     1       4.264  11.933  18.276  1.00  0.00     0.016 C 
HETATM   41  C22 UNL     1       4.051  10.942  17.115  1.00  0.00     0.013 C 
BRANCH  40  42
HETATM   42  C23 UNL     1       5.712  11.759  18.826  1.00  0.00     0.140 C 
HETATM   43  C24 UNL     1       6.813  11.482  17.807  1.00  0.00     0.067 C 
HETATM   44  C25 UNL     1       8.106  11.262  18.554  1.00  0.00    -0.067 C 
HETATM   45  C26 UNL     1       9.074  10.304  17.915  1.00  0.00     0.044 C 
HETATM   46  C27 UNL     1       8.340  11.933  19.709  1.00  0.00     0.042 C 
HETATM   47  C29 UNL     1       7.324  12.898  20.221  1.00  0.00     0.292 C 
HETATM   48  O4  UNL     1       7.579  13.693  21.117  1.00  0.00    -0.260 OA
HETATM   49  O5  UNL     1       6.086  12.858  19.661  1.00  0.00    -0.311 OA
BRANCH  46  50
HETATM   50  C28 UNL     1       9.605  11.860  20.514  1.00  0.00     0.209 C 
BRANCH  50  51
HETATM   51  O3  UNL     1       9.303  11.655  21.896  1.00  0.00    -0.396 OA
HETATM   52  H40 UNL     1      10.079  11.209  22.278  1.00  0.00     0.209 HD
ENDBRANCH  50  51
ENDBRANCH  46  50
ENDBRANCH  40  42
ENDBRANCH  12  40
TORSDOF 10
ENDMDL
MODEL 5
REMARK minimizedAffinity -10.4496355
REMARK CNNscore 0.159285381
REMARK CNNaffinity 6.31357813
REMARK  10 active torsions:
REMARK  status: ('A' for Active; 'I' for Inactive)
REMARK    1  A    between atoms: O1_2  and  C2_3 
REMARK    2  A    between atoms: C7_9  and  C8_10 
REMARK    3  A    between atoms: C8_10  and  C9_11 
REMARK    4  A    between atoms: C9_11  and  N2_12 
REMARK    5  A    between atoms: N2_12  and  C10_13 
REMARK    6  A    between atoms: C20_24  and  C21_25 
REMARK    7  A    between atoms: C21_25  and  C23_27 
REMARK    8  A    between atoms: C27_31  and  C28_32 
REMARK    9  A    between atoms: C28_32  and  O3_33 
REMARK   10  A    between atoms: C37_45  and  O7_46 
ROOT
HETATM    1  C10 UNL     1       0.348   7.584  13.452  1.00  0.00     0.259 C 
HETATM    2  C11 UNL     1       1.420   7.215  14.485  1.00  0.00     0.117 C 
HETATM    3  C12 UNL     1       1.043   7.672  15.879  1.00  0.00     0.141 C 
HETATM    4  O2  UNL     1       1.323   6.977  16.861  1.00  0.00    -0.297 OA
HETATM    5  C13 UNL     1       0.328   9.026  16.022  1.00  0.00     0.057 C 
HETATM    6  C14 UNL     1      -1.163   8.718  16.324  1.00  0.00     0.027 C 
HETATM    7  C15 UNL     1       0.903   9.816  17.253  1.00  0.00     0.009 C 
HETATM    8  C16 UNL     1       2.441   9.949  17.290  1.00  0.00     0.007 C 
HETATM    9  C17 UNL     1       2.959  11.355  17.575  1.00  0.00     0.010 C 
HETATM   10  C18 UNL     1       2.283  12.095  18.744  1.00  0.00    -0.036 C 
HETATM   11  C19 UNL     1       2.641  13.595  18.583  1.00  0.00     0.016 C 
HETATM   12  C20 UNL     1       2.633  11.605  20.203  1.00  0.00     0.000 C 
HETATM   13  C30 UNL     1       1.527  10.613  20.551  1.00  0.00     0.006 C 
HETATM   14  C31 UNL     1       0.288  11.300  20.007  1.00  0.00     0.006 C 
HETATM   15  C32 UNL     1       0.713  11.952  18.674  1.00  0.00    -0.001 C 
HETATM   16  C33 UNL     1       0.169  11.161  17.454  1.00  0.00    -0.002 C 
HETATM   17  C34 UNL     1       0.094  12.051  16.189  1.00  0.00     0.040 C 
HETATM   18  C35 UNL     1       0.189  11.335  14.873  1.00  0.00     0.161 A 
HETATM   19  O6  UNL     1       1.494  10.796  14.671  1.00  0.00    -0.365 OA
HETATM   20  C36 UNL     1       0.427   9.835  14.740  1.00  0.00     0.130 A 
HETATM   21  C37 UNL     1       0.194   9.134  13.407  1.00  0.00     0.190 C 
ENDROOT
BRANCH   1  22
HETATM   22  N2  UNL     1      -0.878   6.801  13.720  1.00  0.00     0.091 N 
HETATM   23  H12 UNL     1      -0.719   6.193  14.531  1.00  0.00     0.316 HD
BRANCH  22  24
HETATM   24  C9  UNL     1      -1.340   5.982  12.589  1.00  0.00     0.275 C 
BRANCH  24  25
HETATM   25  C8  UNL     1      -2.829   5.621  12.758  1.00  0.00     0.070 C 
BRANCH  25  26
HETATM   26  C7  UNL     1      -3.160   4.297  12.137  1.00  0.00    -0.029 A 
HETATM   27  C6  UNL     1      -2.275   3.454  11.497  1.00  0.00     0.096 A 
HETATM   28  N1  UNL     1      -2.945   2.317  11.120  1.00  0.00    -0.365 N 
HETATM   29  C5  UNL     1      -4.258   2.396  11.508  1.00  0.00     0.043 A 
HETATM   30  H6  UNL     1      -2.531   1.528  10.639  1.00  0.00     0.165 HD
HETATM   31  C4  UNL     1      -5.303   1.474  11.363  1.00  0.00     0.033 A 
HETATM   32  C38 UNL     1      -4.429   3.641  12.127  1.00  0.00     0.001 A 
HETATM   33  C3  UNL     1      -6.559   1.838  11.864  1.00  0.00     0.039 A 
HETATM   34  C2  UNL     1      -6.778   3.084  12.453  1.00  0.00     0.069 A 
HETATM   35  C39 UNL     1      -5.714   3.982  12.603  1.00  0.00     0.051 A 
BRANCH  34  36
HETATM   36  O1  UNL     1      -8.059   3.300  12.893  1.00  0.00    -0.356 OA
HETATM   37  C1  UNL     1      -8.499   4.648  12.909  1.00  0.00     0.210 C 
ENDBRANCH  34  36
ENDBRANCH  25  26
ENDBRANCH  24  25
ENDBRANCH  22  24
ENDBRANCH   1  22
BRANCH  21  38
HETATM   38  O7  UNL     1       1.159   9.593  12.448  1.00  0.00    -0.390 OA
HETATM   39  H51 UNL     1       0.764  10.334  11.950  1.00  0.00     0.210 HD
ENDBRANCH  21  38
BRANCH  12  40
HETATM   40  C21 UNL     1       4.062  11.239  20.729  1.00  0.00     0.016 C 
HETATM   41  C22 UNL     1       3.992   9.981  21.616  1.00  0.00     0.013 C 
BRANCH  40  42
HETATM   42  C23 UNL     1       5.048  12.257  21.378  1.00  0.00     0.140 C 
HETATM   43  C24 UNL     1       4.437  13.403  22.177  1.00  0.00     0.067 C 
HETATM   44  C25 UNL     1       5.554  14.308  22.638  1.00  0.00    -0.067 C 
HETATM   45  C26 UNL     1       5.204  15.766  22.758  1.00  0.00     0.044 C 
HETATM   46  C27 UNL     1       6.768  13.783  22.937  1.00  0.00     0.042 C 
HETATM   47  C29 UNL     1       6.982  12.311  22.826  1.00  0.00     0.292 C 
HETATM   48  O4  UNL     1       7.969  11.763  23.301  1.00  0.00    -0.260 OA
HETATM   49  O5  UNL     1       6.041  11.589  22.163  1.00  0.00    -0.311 OA
BRANCH  46  50
HETATM   50  C28 UNL     1       7.940  14.555  23.467  1.00  0.00     0.209 C 
BRANCH  50  51
HETATM   51  O3  UNL     1       8.989  13.664  23.851  1.00  0.00    -0.396 OA
HETATM   52  H40 UNL     1       9.815  14.172  23.776  1.00  0.00     0.209 HD
ENDBRANCH  50  51
ENDBRANCH  46  50
ENDBRANCH  40  42
ENDBRANCH  12  40
TORSDOF 10
ENDMDL
MODEL 6
REMARK minimizedAffinity -9.38783932
REMARK CNNscore 0.158384323
REMARK CNNaffinity 6.69284201
REMARK  10 active torsions:
REMARK  status: ('A' for Active; 'I' for Inactive)
REMARK    1  A    between atoms: O1_2  and  C2_3 
REMARK    2  A    between atoms: C7_9  and  C8_10 
REMARK    3  A    between atoms: C8_10  and  C9_11 
REMARK    4  A    between atoms: C9_11  and  N2_12 
REMARK    5  A    between atoms: N2_12  and  C10_13 
REMARK    6  A    between atoms: C20_24  and  C21_25 
REMARK    7  A    between atoms: C21_25  and  C23_27 
REMARK    8  A    between atoms: C27_31  and  C28_32 
REMARK    9  A    between atoms: C28_32  and  O3_33 
REMARK   10  A    between atoms: C37_45  and  O7_46 
ROOT
HETATM    1  C10 UNL     1      -1.129   6.946  14.644  1.00  0.00     0.259 C 
HETATM    2  C11 UNL     1      -2.484   7.288  15.274  1.00  0.00     0.117 C 
HETATM    3  C12 UNL     1      -2.831   8.754  15.111  1.00  0.00     0.141 C 
HETATM    4  O2  UNL     1      -3.998   9.100  14.903  1.00  0.00    -0.297 OA
HETATM    5  C13 UNL     1      -1.691   9.778  15.232  1.00  0.00     0.057 C 
HETATM    6  C14 UNL     1      -1.370  10.268  13.794  1.00  0.00     0.027 C 
HETATM    7  C15 UNL     1      -2.170  11.027  16.058  1.00  0.00     0.009 C 
HETATM    8  C16 UNL     1      -2.827  10.705  17.417  1.00  0.00     0.007 C 
HETATM    9  C17 UNL     1      -2.315  11.533  18.592  1.00  0.00     0.010 C 
HETATM   10  C18 UNL     1      -2.202  13.049  18.345  1.00  0.00    -0.036 C 
HETATM   11  C19 UNL     1      -1.291  13.612  19.466  1.00  0.00     0.016 C 
HETATM   12  C20 UNL     1      -3.549  13.868  18.275  1.00  0.00     0.000 C 
HETATM   13  C30 UNL     1      -3.886  13.928  16.788  1.00  0.00     0.006 C 
HETATM   14  C31 UNL     1      -2.532  14.193  16.156  1.00  0.00     0.006 C 
HETATM   15  C32 UNL     1      -1.517  13.348  16.955  1.00  0.00    -0.001 C 
HETATM   16  C33 UNL     1      -1.060  12.099  16.155  1.00  0.00    -0.002 C 
HETATM   17  C34 UNL     1       0.306  11.571  16.658  1.00  0.00     0.040 C 
HETATM   18  C35 UNL     1       0.568  10.109  16.440  1.00  0.00     0.161 A 
HETATM   19  O6  UNL     1      -0.279   9.305  17.257  1.00  0.00    -0.365 OA
HETATM   20  C36 UNL     1      -0.449   9.146  15.838  1.00  0.00     0.130 A 
HETATM   21  C37 UNL     1      -0.013   7.769  15.355  1.00  0.00     0.190 C 
ENDROOT
BRANCH   1  22
HETATM   22  N2  UNL     1      -1.225   7.084  13.174  1.00  0.00     0.091 N 
HETATM   23  H12 UNL     1      -1.468   8.054  12.942  1.00  0.00     0.316 HD
BRANCH  22  24
HETATM   24  C9  UNL     1      -2.194   6.180  12.536  1.00  0.00     0.275 C 
BRANCH  24  25
HETATM   25  C8  UNL     1      -1.879   4.715  12.892  1.00  0.00     0.070 C 
BRANCH  25  26
HETATM   26  C7  UNL     1      -2.838   3.761  12.246  1.00  0.00    -0.029 A 
HETATM   27  C6  UNL     1      -2.507   2.724  11.398  1.00  0.00     0.096 A 
HETATM   28  N1  UNL     1      -3.653   2.045  11.066  1.00  0.00    -0.365 N 
HETATM   29  C5  UNL     1      -4.734   2.615  11.688  1.00  0.00     0.043 A 
HETATM   30  H6  UNL     1      -3.695   1.234  10.461  1.00  0.00     0.165 HD
HETATM   31  C4  UNL     1      -6.087   2.253  11.666  1.00  0.00     0.033 A 
HETATM   32  C38 UNL     1      -4.256   3.712  12.416  1.00  0.00     0.001 A 
HETATM   33  C3  UNL     1      -6.977   3.038  12.410  1.00  0.00     0.039 A 
HETATM   34  C2  UNL     1      -6.545   4.160  13.118  1.00  0.00     0.069 A 
HETATM   35  C39 UNL     1      -5.184   4.492  13.139  1.00  0.00     0.051 A 
BRANCH  34  36
HETATM   36  O1  UNL     1      -7.530   4.832  13.796  1.00  0.00    -0.356 OA
HETATM   37  C1  UNL     1      -8.323   5.726  13.031  1.00  0.00     0.210 C 
ENDBRANCH  34  36
ENDBRANCH  25  26
ENDBRANCH  24  25
ENDBRANCH  22  24
ENDBRANCH   1  22
BRANCH  21  38
HETATM   38  O7  UNL     1       0.402   6.975  16.477  1.00  0.00    -0.390 OA
HETATM   39  H51 UNL     1       1.367   7.072  16.579  1.00  0.00     0.210 HD
ENDBRANCH  21  38
BRANCH  12  40
HETATM   40  C21 UNL     1      -4.772  13.706  19.241  1.00  0.00     0.016 C 
HETATM   41  C22 UNL     1      -6.089  13.813  18.448  1.00  0.00     0.013 C 
BRANCH  40  42
HETATM   42  C23 UNL     1      -4.934  14.469  20.590  1.00  0.00     0.140 C 
HETATM   43  C24 UNL     1      -5.706  13.762  21.700  1.00  0.00     0.067 C 
HETATM   44  C25 UNL     1      -5.818  14.704  22.874  1.00  0.00    -0.067 C 
HETATM   45  C26 UNL     1      -7.065  14.565  23.704  1.00  0.00     0.044 C 
HETATM   46  C27 UNL     1      -4.817  15.582  23.133  1.00  0.00     0.042 C 
HETATM   47  C29 UNL     1      -3.603  15.593  22.266  1.00  0.00     0.292 C 
HETATM   48  O4  UNL     1      -2.583  16.190  22.587  1.00  0.00    -0.260 OA
HETATM   49  O5  UNL     1      -3.671  14.922  21.086  1.00  0.00    -0.311 OA
BRANCH  46  50
HETATM   50  C28 UNL     1      -4.770  16.523  24.300  1.00  0.00     0.209 C 
BRANCH  50  51
HETATM   51  O3  UNL     1      -4.664  17.874  23.845  1.00  0.00    -0.396 OA
HETATM   52  H40 UNL     1      -5.050  18.426  24.546  1.00  0.00     0.209 HD
ENDBRANCH  50  51
ENDBRANCH  46  50
ENDBRANCH  40  42
ENDBRANCH  12  40
TORSDOF 10
ENDMDL
MODEL 7
REMARK minimizedAffinity -8.53975773
REMARK CNNscore 0.156318724
REMARK CNNaffinity 5.66300583
REMARK  10 active torsions:
REMARK  status: ('A' for Active; 'I' for Inactive)
REMARK    1  A    between atoms: O1_2  and  C2_3 
REMARK    2  A    between atoms: C7_9  and  C8_10 
REMARK    3  A    between atoms: C8_10  and  C9_11 
REMARK    4  A    between atoms: C9_11  and  N2_12 
REMARK    5  A    between atoms: N2_12  and  C10_13 
REMARK    6  A    between atoms: C20_24  and  C21_25 
REMARK    7  A    between atoms: C21_25  and  C23_27 
REMARK    8  A    between atoms: C27_31  and  C28_32 
REMARK    9  A    between atoms: C28_32  and  O3_33 
REMARK   10  A    between atoms: C37_45  and  O7_46 
ROOT
HETATM    1  C10 UNL     1       5.541   7.305  12.497  1.00  0.00     0.259 C 
HETATM    2  C11 UNL     1       6.381   7.002  13.744  1.00  0.00     0.117 C 
HETATM    3  C12 UNL     1       6.489   8.205  14.659  1.00  0.00     0.141 C 
HETATM    4  O2  UNL     1       6.485   8.060  15.885  1.00  0.00    -0.297 OA
HETATM    5  C13 UNL     1       6.624   9.591  14.008  1.00  0.00     0.057 C 
HETATM    6  C14 UNL     1       5.250  10.298  14.163  1.00  0.00     0.027 C 
HETATM    7  C15 UNL     1       7.685  10.453  14.783  1.00  0.00     0.009 C 
HETATM    8  C16 UNL     1       9.050   9.769  15.011  1.00  0.00     0.007 C 
HETATM    9  C17 UNL     1      10.265  10.624  14.665  1.00  0.00     0.010 C 
HETATM   10  C18 UNL     1      10.243  12.069  15.199  1.00  0.00    -0.036 C 
HETATM   11  C19 UNL     1      11.315  12.851  14.398  1.00  0.00     0.016 C 
HETATM   12  C20 UNL     1      10.468  12.265  16.748  1.00  0.00     0.000 C 
HETATM   13  C30 UNL     1       9.063  12.317  17.338  1.00  0.00     0.006 C 
HETATM   14  C31 UNL     1       8.315  13.169  16.330  1.00  0.00     0.006 C 
HETATM   15  C32 UNL     1       8.841  12.747  14.942  1.00  0.00    -0.001 C 
HETATM   16  C33 UNL     1       7.807  11.873  14.182  1.00  0.00    -0.002 C 
HETATM   17  C34 UNL     1       8.049  11.909  12.653  1.00  0.00     0.040 C 
HETATM   18  C35 UNL     1       7.577  10.710  11.883  1.00  0.00     0.161 A 
HETATM   19  O6  UNL     1       8.360   9.558  12.191  1.00  0.00    -0.365 OA
HETATM   20  C36 UNL     1       6.966   9.472  12.532  1.00  0.00     0.130 A 
HETATM   21  C37 UNL     1       6.226   8.445  11.685  1.00  0.00     0.190 C 
ENDROOT
BRANCH   1  22
HETATM   22  N2  UNL     1       4.134   7.524  12.897  1.00  0.00     0.091 N 
HETATM   23  H12 UNL     1       3.721   6.629  13.184  1.00  0.00     0.316 HD
BRANCH  22  24
HETATM   24  C9  UNL     1       3.289   8.132  11.858  1.00  0.00     0.275 C 
BRANCH  24  25
HETATM   25  C8  UNL     1       2.327   7.086  11.265  1.00  0.00     0.070 C 
BRANCH  25  26
HETATM   26  C7  UNL     1       0.980   7.123  11.922  1.00  0.00    -0.029 A 
HETATM   27  C6  UNL     1       0.481   8.151  12.696  1.00  0.00     0.096 A 
HETATM   28  N1  UNL     1      -0.803   7.838  13.067  1.00  0.00    -0.365 N 
HETATM   29  C5  UNL     1      -1.160   6.622  12.543  1.00  0.00     0.043 A 
HETATM   30  H6  UNL     1      -1.406   8.424  13.632  1.00  0.00     0.165 HD
HETATM   31  C4  UNL     1      -2.366   5.915  12.634  1.00  0.00     0.033 A 
HETATM   32  C38 UNL     1      -0.050   6.136  11.841  1.00  0.00     0.001 A 
HETATM   33  C3  UNL     1      -2.437   4.674  11.987  1.00  0.00     0.039 A 
HETATM   34  C2  UNL     1      -1.340   4.140  11.310  1.00  0.00     0.069 A 
HETATM   35  C39 UNL     1      -0.150   4.874  11.218  1.00  0.00     0.051 A 
BRANCH  34  36
HETATM   36  O1  UNL     1      -1.558   2.916  10.730  1.00  0.00    -0.356 OA
HETATM   37  C1  UNL     1      -0.601   1.908  11.013  1.00  0.00     0.210 C 
ENDBRANCH  34  36
ENDBRANCH  25  26
ENDBRANCH  24  25
ENDBRANCH  22  24
ENDBRANCH   1  22
BRANCH  21  38
HETATM   38  O7  UNL     1       7.151   7.793  10.802  1.00  0.00    -0.390 OA
HETATM   39  H51 UNL     1       7.146   8.269   9.950  1.00  0.00     0.210 HD
ENDBRANCH  21  38
BRANCH  12  40
HETATM   40  C21 UNL     1      11.542  11.529  17.619  1.00  0.00     0.016 C 
HETATM   41  C22 UNL     1      10.890  10.964  18.896  1.00  0.00     0.013 C 
BRANCH  40  42
HETATM   42  C23 UNL     1      12.935  12.126  17.988  1.00  0.00     0.140 C 
HETATM   43  C24 UNL     1      13.251  13.525  17.470  1.00  0.00     0.067 C 
HETATM   44  C25 UNL     1      14.667  13.868  17.864  1.00  0.00    -0.067 C 
HETATM   45  C26 UNL     1      15.410  14.764  16.911  1.00  0.00     0.044 C 
HETATM   46  C27 UNL     1      15.177  13.394  19.028  1.00  0.00     0.042 C 
HETATM   47  C29 UNL     1      14.325  12.553  19.918  1.00  0.00     0.292 C 
HETATM   48  O4  UNL     1      14.648  12.298  21.071  1.00  0.00    -0.260 OA
HETATM   49  O5  UNL     1      13.169  12.063  19.398  1.00  0.00    -0.311 OA
BRANCH  46  50
HETATM   50  C28 UNL     1      16.539  13.711  19.570  1.00  0.00     0.209 C 
BRANCH  50  51
HETATM   51  O3  UNL     1      17.207  12.511  19.969  1.00  0.00    -0.396 OA
HETATM   52  H40 UNL     1      18.159  12.698  19.902  1.00  0.00     0.209 HD
ENDBRANCH  50  51
ENDBRANCH  46  50
ENDBRANCH  40  42
ENDBRANCH  12  40
TORSDOF 10
ENDMDL
MODEL 8
REMARK minimizedAffinity -8.43250656
REMARK CNNscore 0.147341415
REMARK CNNaffinity 5.68872595
REMARK  10 active torsions:
REMARK  status: ('A' for Active; 'I' for Inactive)
REMARK    1  A    between atoms: O1_2  and  C2_3 
REMARK    2  A    between atoms: C7_9  and  C8_10 
REMARK    3  A    between atoms: C8_10  and  C9_11 
REMARK    4  A    between atoms: C9_11  and  N2_12 
REMARK    5  A    between atoms: N2_12  and  C10_13 
REMARK    6  A    between atoms: C20_24  and  C21_25 
REMARK    7  A    between atoms: C21_25  and  C23_27 
REMARK    8  A    between atoms: C27_31  and  C28_32 
REMARK    9  A    between atoms: C28_32  and  O3_33 
REMARK   10  A    between atoms: C37_45  and  O7_46 
ROOT
HETATM    1  C10 UNL     1       6.066   7.432  13.522  1.00  0.00     0.259 C 
HETATM    2  C11 UNL     1       6.960   7.239  14.753  1.00  0.00     0.117 C 
HETATM    3  C12 UNL     1       7.149   8.531  15.523  1.00  0.00     0.141 C 
HETATM    4  O2  UNL     1       7.204   8.520  16.757  1.00  0.00    -0.297 OA
HETATM    5  C13 UNL     1       7.288   9.833  14.717  1.00  0.00     0.057 C 
HETATM    6  C14 UNL     1       5.944  10.596  14.860  1.00  0.00     0.027 C 
HETATM    7  C15 UNL     1       8.411  10.739  15.340  1.00  0.00     0.009 C 
HETATM    8  C16 UNL     1       9.767  10.038  15.576  1.00  0.00     0.007 C 
HETATM    9  C17 UNL     1      10.985  10.810  15.079  1.00  0.00     0.010 C 
HETATM   10  C18 UNL     1      11.030  12.304  15.450  1.00  0.00    -0.036 C 
HETATM   11  C19 UNL     1      12.080  12.959  14.517  1.00  0.00     0.016 C 
HETATM   12  C20 UNL     1      11.340  12.661  16.956  1.00  0.00     0.000 C 
HETATM   13  C30 UNL     1       9.969  12.823  17.604  1.00  0.00     0.006 C 
HETATM   14  C31 UNL     1       9.194  13.584  16.546  1.00  0.00     0.006 C 
HETATM   15  C32 UNL     1       9.636  12.996  15.189  1.00  0.00    -0.001 C 
HETATM   16  C33 UNL     1       8.540  12.079  14.581  1.00  0.00    -0.002 C 
HETATM   17  C34 UNL     1       8.703  11.941  13.047  1.00  0.00     0.040 C 
HETATM   18  C35 UNL     1       8.160  10.681  12.439  1.00  0.00     0.161 A 
HETATM   19  O6  UNL     1       8.926   9.544  12.833  1.00  0.00    -0.365 OA
HETATM   20  C36 UNL     1       7.549   9.542  13.249  1.00  0.00     0.130 A 
HETATM   21  C37 UNL     1       6.738   8.454  12.557  1.00  0.00     0.190 C 
ENDROOT
BRANCH   1  22
HETATM   22  N2  UNL     1       4.688   7.740  13.964  1.00  0.00     0.091 N 
HETATM   23  H12 UNL     1       4.234   6.876  14.282  1.00  0.00     0.316 HD
BRANCH  22  24
HETATM   24  C9  UNL     1       3.845   8.376  12.941  1.00  0.00     0.275 C 
BRANCH  24  25
HETATM   25  C8  UNL     1       3.029   7.316  12.177  1.00  0.00     0.070 C 
BRANCH  25  26
HETATM   26  C7  UNL     1       1.717   7.855  11.695  1.00  0.00    -0.029 A 
HETATM   27  C6  UNL     1       1.384   8.135  10.385  1.00  0.00     0.096 A 
HETATM   28  N1  UNL     1       0.078   8.554  10.343  1.00  0.00    -0.365 N 
HETATM   29  C5  UNL     1      -0.458   8.548  11.606  1.00  0.00     0.043 A 
HETATM   30  H6  UNL     1      -0.424   8.816   9.503  1.00  0.00     0.165 HD
HETATM   31  C4  UNL     1      -1.749   8.871  12.044  1.00  0.00     0.033 A 
HETATM   32  C38 UNL     1       0.557   8.139  12.480  1.00  0.00     0.001 A 
HETATM   33  C3  UNL     1      -2.008   8.772  13.417  1.00  0.00     0.039 A 
HETATM   34  C2  UNL     1      -1.012   8.404  14.323  1.00  0.00     0.069 A 
HETATM   35  C39 UNL     1       0.266   8.070  13.859  1.00  0.00     0.051 A 
BRANCH  34  36
HETATM   36  O1  UNL     1      -1.412   8.354  15.634  1.00  0.00    -0.356 OA
HETATM   37  C1  UNL     1      -2.651   8.976  15.938  1.00  0.00     0.210 C 
ENDBRANCH  34  36
ENDBRANCH  25  26
ENDBRANCH  24  25
ENDBRANCH  22  24
ENDBRANCH   1  22
BRANCH  21  38
HETATM   38  O7  UNL     1       7.599   7.679  11.708  1.00  0.00    -0.390 OA
HETATM   39  H51 UNL     1       7.563   8.059  10.810  1.00  0.00     0.210 HD
ENDBRANCH  21  38
BRANCH  12  40
HETATM   40  C21 UNL     1      12.438  11.989  17.849  1.00  0.00     0.016 C 
HETATM   41  C22 UNL     1      11.774  11.149  18.958  1.00  0.00     0.013 C 
BRANCH  40  42
HETATM   42  C23 UNL     1      13.662  12.742  18.454  1.00  0.00     0.140 C 
HETATM   43  C24 UNL     1      13.632  14.266  18.409  1.00  0.00     0.067 C 
HETATM   44  C25 UNL     1      14.939  14.783  18.961  1.00  0.00    -0.067 C 
HETATM   45  C26 UNL     1      15.431  16.075  18.369  1.00  0.00     0.044 C 
HETATM   46  C27 UNL     1      15.572  14.099  19.946  1.00  0.00     0.042 C 
HETATM   47  C29 UNL     1      14.960  12.852  20.490  1.00  0.00     0.292 C 
HETATM   48  O4  UNL     1      15.361  12.331  21.523  1.00  0.00    -0.260 OA
HETATM   49  O5  UNL     1      13.938  12.298  19.786  1.00  0.00    -0.311 OA
BRANCH  46  50
HETATM   50  C28 UNL     1      16.836  14.533  20.628  1.00  0.00     0.209 C 
BRANCH  50  51
HETATM   51  O3  UNL     1      16.588  14.803  22.009  1.00  0.00    -0.396 OA
HETATM   52  H40 UNL     1      17.434  14.661  22.468  1.00  0.00     0.209 HD
ENDBRANCH  50  51
ENDBRANCH  46  50
ENDBRANCH  40  42
ENDBRANCH  12  40
TORSDOF 10
ENDMDL
MODEL 9
REMARK minimizedAffinity -9.40149593
REMARK CNNscore 0.13740927
REMARK CNNaffinity 6.00023079
REMARK  10 active torsions:
REMARK  status: ('A' for Active; 'I' for Inactive)
REMARK    1  A    between atoms: O1_2  and  C2_3 
REMARK    2  A    between atoms: C7_9  and  C8_10 
REMARK    3  A    between atoms: C8_10  and  C9_11 
REMARK    4  A    between atoms: C9_11  and  N2_12 
REMARK    5  A    between atoms: N2_12  and  C10_13 
REMARK    6  A    between atoms: C20_24  and  C21_25 
REMARK    7  A    between atoms: C21_25  and  C23_27 
REMARK    8  A    between atoms: C27_31  and  C28_32 
REMARK    9  A    between atoms: C28_32  and  O3_33 
REMARK   10  A    between atoms: C37_45  and  O7_46 
ROOT
HETATM    1  C10 UNL     1      -1.473  11.657  18.574  1.00  0.00     0.259 C 
HETATM    2  C11 UNL     1      -0.342  10.723  18.125  1.00  0.00     0.117 C 
HETATM    3  C12 UNL     1      -0.264  10.613  16.616  1.00  0.00     0.141 C 
HETATM    4  O2  UNL     1       0.831  10.529  16.051  1.00  0.00    -0.297 OA
HETATM    5  C13 UNL     1      -1.585  10.589  15.829  1.00  0.00     0.057 C 
HETATM    6  C14 UNL     1      -1.737  11.982  15.162  1.00  0.00     0.027 C 
HETATM    7  C15 UNL     1      -1.511   9.522  14.678  1.00  0.00     0.009 C 
HETATM    8  C16 UNL     1      -1.054   8.113  15.114  1.00  0.00     0.007 C 
HETATM    9  C17 UNL     1      -1.916   6.967  14.593  1.00  0.00     0.010 C 
HETATM   10  C18 UNL     1      -2.277   7.024  13.097  1.00  0.00    -0.036 C 
HETATM   11  C19 UNL     1      -3.462   6.047  12.892  1.00  0.00     0.016 C 
HETATM   12  C20 UNL     1      -1.124   6.706  12.068  1.00  0.00     0.000 C 
HETATM   13  C30 UNL     1      -0.549   8.071  11.700  1.00  0.00     0.006 C 
HETATM   14  C31 UNL     1      -1.795   8.924  11.559  1.00  0.00     0.006 C 
HETATM   15  C32 UNL     1      -2.751   8.471  12.683  1.00  0.00    -0.001 C 
HETATM   16  C33 UNL     1      -2.808   9.509  13.836  1.00  0.00    -0.002 C 
HETATM   17  C34 UNL     1      -4.112   9.372  14.659  1.00  0.00     0.040 C 
HETATM   18  C35 UNL     1      -4.042   9.835  16.086  1.00  0.00     0.161 A 
HETATM   19  O6  UNL     1      -3.211   8.978  16.867  1.00  0.00    -0.365 OA
HETATM   20  C36 UNL     1      -2.767  10.341  16.751  1.00  0.00     0.130 A 
HETATM   21  C37 UNL     1      -2.835  11.084  18.079  1.00  0.00     0.190 C 
ENDROOT
BRANCH   1  22
HETATM   22  N2  UNL     1      -1.148  13.044  18.173  1.00  0.00     0.091 N 
HETATM   23  H12 UNL     1      -1.222  13.126  17.153  1.00  0.00     0.316 HD
BRANCH  22  24
HETATM   24  C9  UNL     1       0.181  13.509  18.597  1.00  0.00     0.275 C 
BRANCH  24  25
HETATM   25  C8  UNL     1       0.204  13.760  20.117  1.00  0.00     0.070 C 
BRANCH  25  26
HETATM   26  C7  UNL     1       1.576  13.589  20.695  1.00  0.00    -0.029 A 
HETATM   27  C6  UNL     1       2.470  14.601  20.983  1.00  0.00     0.096 A 
HETATM   28  N1  UNL     1       3.590  14.049  21.553  1.00  0.00    -0.365 N 
HETATM   29  C5  UNL     1       3.445  12.688  21.651  1.00  0.00     0.043 A 
HETATM   30  H6  UNL     1       4.400  14.568  21.869  1.00  0.00     0.165 HD
HETATM   31  C4  UNL     1       4.309  11.721  22.181  1.00  0.00     0.033 A 
HETATM   32  C38 UNL     1       2.200  12.367  21.095  1.00  0.00     0.001 A 
HETATM   33  C3  UNL     1       3.885  10.386  22.140  1.00  0.00     0.039 A 
HETATM   34  C2  UNL     1       2.669  10.023  21.561  1.00  0.00     0.069 A 
HETATM   35  C39 UNL     1       1.814  11.010  21.053  1.00  0.00     0.051 A 
BRANCH  34  36
HETATM   36  O1  UNL     1       2.391   8.681  21.591  1.00  0.00    -0.356 OA
HETATM   37  C1  UNL     1       2.210   8.104  22.874  1.00  0.00     0.210 C 
ENDBRANCH  34  36
ENDBRANCH  25  26
ENDBRANCH  24  25
ENDBRANCH  22  24
ENDBRANCH   1  22
BRANCH  21  38
HETATM   38  O7  UNL     1      -3.278  10.189  19.110  1.00  0.00    -0.390 OA
HETATM   39  H51 UNL     1      -4.246  10.273  19.191  1.00  0.00     0.210 HD
ENDBRANCH  21  38
BRANCH  12  40
HETATM   40  C21 UNL     1      -0.082   5.542  12.188  1.00  0.00     0.016 C 
HETATM   41  C22 UNL     1      -0.182   4.887  13.580  1.00  0.00     0.013 C 
BRANCH  40  42
HETATM   42  C23 UNL     1       1.422   5.663  11.796  1.00  0.00     0.140 C 
HETATM   43  C24 UNL     1       1.756   5.626  10.308  1.00  0.00     0.067 C 
HETATM   44  C25 UNL     1       3.258   5.669  10.159  1.00  0.00    -0.067 C 
HETATM   45  C26 UNL     1       3.816   4.935   8.970  1.00  0.00     0.044 C 
HETATM   46  C27 UNL     1       4.005   6.363  11.053  1.00  0.00     0.042 C 
HETATM   47  C29 UNL     1       3.333   7.095  12.165  1.00  0.00     0.292 C 
HETATM   48  O4  UNL     1       3.927   7.917  12.852  1.00  0.00    -0.260 OA
HETATM   49  O5  UNL     1       2.027   6.808  12.404  1.00  0.00    -0.311 OA
BRANCH  46  50
HETATM   50  C28 UNL     1       5.493   6.543  10.985  1.00  0.00     0.209 C 
BRANCH  50  51
HETATM   51  O3  UNL     1       6.152   5.529  11.748  1.00  0.00    -0.396 OA
HETATM   52  H40 UNL     1       7.034   5.423  11.351  1.00  0.00     0.209 HD
ENDBRANCH  50  51
ENDBRANCH  46  50
ENDBRANCH  40  42
ENDBRANCH  12  40
TORSDOF 10
ENDMDL
