MODEL 1
REMARK minimizedAffinity -7.22227907
REMARK CNNscore 0.759198964
REMARK CNNaffinity 7.23549223
REMARK  5 active torsions:
REMARK  status: ('A' for Active; 'I' for Inactive)
REMARK    1  A    between atoms: C2_2  and  C3_3 
REMARK    2  A    between atoms: C2_2  and  C9_10 
REMARK    3  A    between atoms: C3_3  and  C4_4 
REMARK    4  A    between atoms: C5_5  and  C6_6 
REMARK    5  A    between atoms: C6_6  and  O1_9 
ROOT
HETATM    1  C9  UNL     1      -1.501  52.652 -10.073  1.00  0.00    -0.002 C 
HETATM    2  C10 UNL     1      -0.950  51.200  -9.947  1.00  0.00     0.006 C 
HETATM    3  C11 UNL     1       0.569  51.314  -9.709  1.00  0.00     0.011 C 
HETATM    4  C12 UNL     1       0.794  52.784  -9.295  1.00  0.00    -0.032 C 
HETATM    5  C13 UNL     1       0.430  52.863  -7.773  1.00  0.00     0.016 C 
HETATM    6  C14 UNL     1       2.240  53.330  -9.522  1.00  0.00     0.003 C 
HETATM    7  C15 UNL     1       3.282  52.645  -8.601  1.00  0.00     0.007 C 
HETATM    8  C16 UNL     1       4.681  53.216  -8.820  1.00  0.00     0.011 C 
HETATM    9  C17 UNL     1       4.794  54.741  -8.475  1.00  0.00    -0.030 C 
HETATM   10  C18 UNL     1       5.686  55.379  -9.571  1.00  0.00     0.016 C 
HETATM   11  C19 UNL     1       3.358  55.371  -8.374  1.00  0.00     0.003 C 
HETATM   12  C20 UNL     1       3.383  56.887  -8.077  1.00  0.00     0.013 C 
HETATM   13  C21 UNL     1       4.569  57.363  -7.250  1.00  0.00     0.079 C 
HETATM   14  C22 UNL     1       5.232  56.281  -6.434  1.00  0.00     0.131 C 
HETATM   15  O2  UNL     1       5.635  56.537  -5.292  1.00  0.00    -0.298 OA
HETATM   16  C23 UNL     1       5.461  54.905  -7.056  1.00  0.00     0.060 C 
HETATM   17  C24 UNL     1       6.961  54.598  -6.990  1.00  0.00     0.018 C 
HETATM   18  C25 UNL     1       2.323  54.925  -9.489  1.00  0.00    -0.035 C 
HETATM   19  C26 UNL     1       2.762  55.463 -10.882  1.00  0.00     0.016 C 
HETATM   20  C27 UNL     1       0.932  55.595  -9.203  1.00  0.00     0.011 C 
HETATM   21  C28 UNL     1      -0.313  55.003  -9.897  1.00  0.00     0.011 C 
HETATM   22  C29 UNL     1      -0.211  53.511 -10.274  1.00  0.00    -0.032 C 
HETATM   23  C30 UNL     1       0.212  53.418 -11.773  1.00  0.00     0.016 C 
ENDROOT
BRANCH   1  24
HETATM   24  C2  UNL     1      -2.768  52.765 -10.975  1.00  0.00    -0.010 C 
HETATM   25  C1  UNL     1      -3.946  53.594 -10.443  1.00  0.00     0.010 C 
BRANCH  24  26
HETATM   26  C3  UNL     1      -3.241  51.368 -11.448  1.00  0.00     0.031 C 
BRANCH  26  27
HETATM   27  C4  UNL     1      -4.499  50.897 -10.770  1.00  0.00    -0.027 C 
HETATM   28  C5  UNL     1      -5.057  49.693 -10.974  1.00  0.00     0.006 C 
BRANCH  28  29
HETATM   29  C6  UNL     1      -6.329  49.180 -10.333  1.00  0.00     0.068 C 
HETATM   30  C7  UNL     1      -6.021  48.396  -9.053  1.00  0.00     0.050 C 
HETATM   31  C8  UNL     1      -7.107  48.302 -11.317  1.00  0.00     0.050 C 
BRANCH  29  32
HETATM   32  O1  UNL     1      -7.169  50.283  -9.985  1.00  0.00    -0.387 OA
HETATM   33  H15 UNL     1      -6.721  50.757  -9.256  1.00  0.00     0.211 HD
ENDBRANCH  29  32
ENDBRANCH  28  29
ENDBRANCH  26  27
ENDBRANCH  24  26
ENDBRANCH   1  24
TORSDOF 5
ENDMDL
MODEL 2
REMARK minimizedAffinity -7.2187171
REMARK CNNscore 0.678014398
REMARK CNNaffinity 6.74408865
REMARK  5 active torsions:
REMARK  status: ('A' for Active; 'I' for Inactive)
REMARK    1  A    between atoms: C2_2  and  C3_3 
REMARK    2  A    between atoms: C2_2  and  C9_10 
REMARK    3  A    between atoms: C3_3  and  C4_4 
REMARK    4  A    between atoms: C5_5  and  C6_6 
REMARK    5  A    between atoms: C6_6  and  O1_9 
ROOT
HETATM    1  C9  UNL     1       4.756  55.430  -7.916  1.00  0.00    -0.002 C 
HETATM    2  C10 UNL     1       4.056  56.820  -7.839  1.00  0.00     0.006 C 
HETATM    3  C11 UNL     1       2.683  56.672  -8.524  1.00  0.00     0.011 C 
HETATM    4  C12 UNL     1       2.446  55.149  -8.607  1.00  0.00    -0.032 C 
HETATM    5  C13 UNL     1       1.921  54.716  -7.196  1.00  0.00     0.016 C 
HETATM    6  C14 UNL     1       1.441  54.687  -9.710  1.00  0.00     0.003 C 
HETATM    7  C15 UNL     1      -0.009  55.153  -9.422  1.00  0.00     0.007 C 
HETATM    8  C16 UNL     1      -0.976  54.664 -10.496  1.00  0.00     0.011 C 
HETATM    9  C17 UNL     1      -1.076  53.102 -10.583  1.00  0.00    -0.030 C 
HETATM   10  C18 UNL     1      -1.135  52.744 -12.090  1.00  0.00     0.016 C 
HETATM   11  C19 UNL     1       0.131  52.449  -9.818  1.00  0.00     0.003 C 
HETATM   12  C20 UNL     1       0.130  50.906  -9.893  1.00  0.00     0.013 C 
HETATM   13  C21 UNL     1      -1.248  50.266  -9.989  1.00  0.00     0.079 C 
HETATM   14  C22 UNL     1      -2.375  51.139  -9.494  1.00  0.00     0.131 C 
HETATM   15  O2  UNL     1      -3.304  50.631  -8.853  1.00  0.00    -0.298 OA
HETATM   16  C23 UNL     1      -2.388  52.623  -9.851  1.00  0.00     0.060 C 
HETATM   17  C24 UNL     1      -3.701  52.924 -10.581  1.00  0.00     0.018 C 
HETATM   18  C25 UNL     1       1.547  53.128 -10.044  1.00  0.00    -0.035 C 
HETATM   19  C26 UNL     1       2.013  52.931 -11.516  1.00  0.00     0.016 C 
HETATM   20  C27 UNL     1       2.620  52.394  -9.165  1.00  0.00     0.011 C 
HETATM   21  C28 UNL     1       3.959  53.115  -8.905  1.00  0.00     0.011 C 
HETATM   22  C29 UNL     1       3.902  54.656  -8.972  1.00  0.00    -0.032 C 
HETATM   23  C30 UNL     1       4.365  55.096 -10.395  1.00  0.00     0.016 C 
ENDROOT
BRANCH   1  24
HETATM   24  C2  UNL     1       6.312  55.513  -7.949  1.00  0.00    -0.010 C 
HETATM   25  C1  UNL     1       7.047  54.643  -8.978  1.00  0.00     0.010 C 
BRANCH  24  26
HETATM   26  C3  UNL     1       6.912  55.325  -6.534  1.00  0.00     0.031 C 
BRANCH  26  27
HETATM   27  C4  UNL     1       7.285  56.619  -5.862  1.00  0.00    -0.027 C 
HETATM   28  C5  UNL     1       8.521  56.910  -5.426  1.00  0.00     0.006 C 
BRANCH  28  29
HETATM   29  C6  UNL     1       8.943  58.186  -4.729  1.00  0.00     0.068 C 
HETATM   30  C7  UNL     1       9.141  57.952  -3.228  1.00  0.00     0.050 C 
HETATM   31  C8  UNL     1       7.907  59.290  -4.961  1.00  0.00     0.050 C 
BRANCH  29  32
HETATM   32  O1  UNL     1      10.184  58.640  -5.273  1.00  0.00    -0.387 OA
HETATM   33  H15 UNL     1      10.864  57.994  -4.998  1.00  0.00     0.211 HD
ENDBRANCH  29  32
ENDBRANCH  28  29
ENDBRANCH  26  27
ENDBRANCH  24  26
ENDBRANCH   1  24
TORSDOF 5
ENDMDL
MODEL 3
REMARK minimizedAffinity -7.37103224
REMARK CNNscore 0.443863064
REMARK CNNaffinity 5.92416239
REMARK  5 active torsions:
REMARK  status: ('A' for Active; 'I' for Inactive)
REMARK    1  A    between atoms: C2_2  and  C3_3 
REMARK    2  A    between atoms: C2_2  and  C9_10 
REMARK    3  A    between atoms: C3_3  and  C4_4 
REMARK    4  A    between atoms: C5_5  and  C6_6 
REMARK    5  A    between atoms: C6_6  and  O1_9 
ROOT
HETATM    1  C9  UNL     1     -13.258  45.976 -26.384  1.00  0.00    -0.002 C 
HETATM    2  C10 UNL     1     -13.014  44.447 -26.211  1.00  0.00     0.006 C 
HETATM    3  C11 UNL     1     -11.947  44.041 -27.248  1.00  0.00     0.011 C 
HETATM    4  C12 UNL     1     -11.309  45.373 -27.699  1.00  0.00    -0.032 C 
HETATM    5  C13 UNL     1     -10.263  45.746 -26.594  1.00  0.00     0.016 C 
HETATM    6  C14 UNL     1     -10.613  45.343 -29.097  1.00  0.00     0.003 C 
HETATM    7  C15 UNL     1      -9.352  44.441 -29.111  1.00  0.00     0.007 C 
HETATM    8  C16 UNL     1      -8.673  44.452 -30.478  1.00  0.00     0.011 C 
HETATM    9  C17 UNL     1      -8.149  45.866 -30.904  1.00  0.00    -0.030 C 
HETATM   10  C18 UNL     1      -8.465  46.020 -32.414  1.00  0.00     0.016 C 
HETATM   11  C19 UNL     1      -8.805  46.971 -29.999  1.00  0.00     0.003 C 
HETATM   12  C20 UNL     1      -8.371  48.403 -30.384  1.00  0.00     0.013 C 
HETATM   13  C21 UNL     1      -6.969  48.518 -30.967  1.00  0.00     0.079 C 
HETATM   14  C22 UNL     1      -6.055  47.370 -30.617  1.00  0.00     0.131 C 
HETATM   15  O2  UNL     1      -4.865  47.593 -30.360  1.00  0.00    -0.298 OA
HETATM   16  C23 UNL     1      -6.594  45.941 -30.655  1.00  0.00     0.060 C 
HETATM   17  C24 UNL     1      -5.728  45.133 -31.627  1.00  0.00     0.018 C 
HETATM   18  C25 UNL     1     -10.353  46.798 -29.702  1.00  0.00    -0.035 C 
HETATM   19  C26 UNL     1     -11.179  46.986 -31.008  1.00  0.00     0.016 C 
HETATM   20  C27 UNL     1     -10.828  47.945 -28.741  1.00  0.00     0.011 C 
HETATM   21  C28 UNL     1     -12.167  47.758 -27.997  1.00  0.00     0.011 C 
HETATM   22  C29 UNL     1     -12.592  46.294 -27.761  1.00  0.00    -0.032 C 
HETATM   23  C30 UNL     1     -13.588  45.890 -28.893  1.00  0.00     0.016 C 
ENDROOT
BRANCH   1  24
HETATM   24  C2  UNL     1     -14.697  46.428 -25.990  1.00  0.00    -0.010 C 
HETATM   25  C1  UNL     1     -14.869  47.165 -24.654  1.00  0.00     0.010 C 
BRANCH  24  26
HETATM   26  C3  UNL     1     -15.703  45.256 -26.111  1.00  0.00     0.031 C 
BRANCH  26  27
HETATM   27  C4  UNL     1     -16.847  45.342 -25.136  1.00  0.00    -0.027 C 
HETATM   28  C5  UNL     1     -18.097  45.694 -25.474  1.00  0.00     0.006 C 
BRANCH  28  29
HETATM   29  C6  UNL     1     -19.275  45.814 -24.532  1.00  0.00     0.068 C 
HETATM   30  C7  UNL     1     -18.861  46.480 -23.216  1.00  0.00     0.050 C 
HETATM   31  C8  UNL     1     -19.883  44.435 -24.259  1.00  0.00     0.050 C 
BRANCH  29  32
HETATM   32  O1  UNL     1     -20.290  46.619 -25.135  1.00  0.00    -0.387 OA
HETATM   33  H15 UNL     1     -19.937  47.530 -25.176  1.00  0.00     0.211 HD
ENDBRANCH  29  32
ENDBRANCH  28  29
ENDBRANCH  26  27
ENDBRANCH  24  26
ENDBRANCH   1  24
TORSDOF 5
ENDMDL
MODEL 4
REMARK minimizedAffinity -7.38240671
REMARK CNNscore 0.44103694
REMARK CNNaffinity 5.94088602
REMARK  5 active torsions:
REMARK  status: ('A' for Active; 'I' for Inactive)
REMARK    1  A    between atoms: C2_2  and  C3_3 
REMARK    2  A    between atoms: C2_2  and  C9_10 
REMARK    3  A    between atoms: C3_3  and  C4_4 
REMARK    4  A    between atoms: C5_5  and  C6_6 
REMARK    5  A    between atoms: C6_6  and  O1_9 
ROOT
HETATM    1  C9  UNL     1     -13.062  45.690 -26.870  1.00  0.00    -0.002 C 
HETATM    2  C10 UNL     1     -14.071  46.097 -27.985  1.00  0.00     0.006 C 
HETATM    3  C11 UNL     1     -13.248  46.695 -29.143  1.00  0.00     0.011 C 
HETATM    4  C12 UNL     1     -11.796  46.252 -28.863  1.00  0.00    -0.032 C 
HETATM    5  C13 UNL     1     -11.685  44.780 -29.389  1.00  0.00     0.016 C 
HETATM    6  C14 UNL     1     -10.687  47.134 -29.523  1.00  0.00     0.003 C 
HETATM    7  C15 UNL     1     -10.691  47.028 -31.070  1.00  0.00     0.007 C 
HETATM    8  C16 UNL     1      -9.581  47.874 -31.689  1.00  0.00     0.011 C 
HETATM    9  C17 UNL     1      -8.141  47.421 -31.268  1.00  0.00    -0.030 C 
HETATM   10  C18 UNL     1      -7.322  48.714 -31.023  1.00  0.00     0.016 C 
HETATM   11  C19 UNL     1      -8.227  46.474 -30.016  1.00  0.00     0.003 C 
HETATM   12  C20 UNL     1      -6.841  46.015 -29.510  1.00  0.00     0.013 C 
HETATM   13  C21 UNL     1      -5.769  45.891 -30.585  1.00  0.00     0.079 C 
HETATM   14  C22 UNL     1      -6.309  45.729 -31.984  1.00  0.00     0.131 C 
HETATM   15  O2  UNL     1      -5.746  44.957 -32.771  1.00  0.00    -0.298 OA
HETATM   16  C23 UNL     1      -7.500  46.574 -32.433  1.00  0.00     0.060 C 
HETATM   17  C24 UNL     1      -7.079  47.367 -33.674  1.00  0.00     0.018 C 
HETATM   18  C25 UNL     1      -9.242  46.913 -28.880  1.00  0.00    -0.035 C 
HETATM   19  C26 UNL     1      -8.758  48.226 -28.199  1.00  0.00     0.016 C 
HETATM   20  C27 UNL     1      -9.246  45.831 -27.742  1.00  0.00     0.011 C 
HETATM   21  C28 UNL     1     -10.428  45.830 -26.750  1.00  0.00     0.011 C 
HETATM   22  C29 UNL     1     -11.746  46.420 -27.293  1.00  0.00    -0.032 C 
HETATM   23  C30 UNL     1     -11.838  47.907 -26.828  1.00  0.00     0.016 C 
ENDROOT
BRANCH   1  24
HETATM   24  C2  UNL     1     -13.662  45.744 -25.432  1.00  0.00    -0.010 C 
HETATM   25  C1  UNL     1     -14.123  44.421 -24.806  1.00  0.00     0.010 C 
BRANCH  24  26
HETATM   26  C3  UNL     1     -14.769  46.823 -25.330  1.00  0.00     0.031 C 
BRANCH  26  27
HETATM   27  C4  UNL     1     -16.148  46.253 -25.132  1.00  0.00    -0.027 C 
HETATM   28  C5  UNL     1     -17.156  46.914 -24.543  1.00  0.00     0.006 C 
BRANCH  28  29
HETATM   29  C6  UNL     1     -18.552  46.380 -24.302  1.00  0.00     0.068 C 
HETATM   30  C7  UNL     1     -18.875  46.342 -22.805  1.00  0.00     0.050 C 
HETATM   31  C8  UNL     1     -18.702  44.983 -24.912  1.00  0.00     0.050 C 
BRANCH  29  32
HETATM   32  O1  UNL     1     -19.506  47.231 -24.940  1.00  0.00    -0.387 OA
HETATM   33  H15 UNL     1     -19.498  48.077 -24.449  1.00  0.00     0.211 HD
ENDBRANCH  29  32
ENDBRANCH  28  29
ENDBRANCH  26  27
ENDBRANCH  24  26
ENDBRANCH   1  24
TORSDOF 5
ENDMDL
MODEL 5
REMARK minimizedAffinity -8.61026955
REMARK CNNscore 0.431463838
REMARK CNNaffinity 6.5293088
REMARK  5 active torsions:
REMARK  status: ('A' for Active; 'I' for Inactive)
REMARK    1  A    between atoms: C2_2  and  C3_3 
REMARK    2  A    between atoms: C2_2  and  C9_10 
REMARK    3  A    between atoms: C3_3  and  C4_4 
REMARK    4  A    between atoms: C5_5  and  C6_6 
REMARK    5  A    between atoms: C6_6  and  O1_9 
ROOT
HETATM    1  C9  UNL     1      -6.478  48.977 -23.775  1.00  0.00    -0.002 C 
HETATM    2  C10 UNL     1      -7.387  49.523 -22.634  1.00  0.00     0.006 C 
HETATM    3  C11 UNL     1      -6.454  50.023 -21.514  1.00  0.00     0.011 C 
HETATM    4  C12 UNL     1      -5.067  50.141 -22.180  1.00  0.00    -0.032 C 
HETATM    5  C13 UNL     1      -5.071  51.507 -22.947  1.00  0.00     0.016 C 
HETATM    6  C14 UNL     1      -3.848  50.087 -21.204  1.00  0.00     0.003 C 
HETATM    7  C15 UNL     1      -3.786  51.321 -20.267  1.00  0.00     0.007 C 
HETATM    8  C16 UNL     1      -2.571  51.260 -19.345  1.00  0.00     0.011 C 
HETATM    9  C17 UNL     1      -1.203  51.278 -20.110  1.00  0.00    -0.030 C 
HETATM   10  C18 UNL     1      -0.277  50.265 -19.389  1.00  0.00     0.016 C 
HETATM   11  C19 UNL     1      -1.441  50.956 -21.630  1.00  0.00     0.003 C 
HETATM   12  C20 UNL     1      -0.132  50.913 -22.449  1.00  0.00     0.013 C 
HETATM   13  C21 UNL     1       0.975  51.831 -21.948  1.00  0.00     0.079 C 
HETATM   14  C22 UNL     1       0.491  52.977 -21.095  1.00  0.00     0.131 C 
HETATM   15  O2  UNL     1       1.016  54.092 -21.215  1.00  0.00    -0.298 OA
HETATM   16  C23 UNL     1      -0.590  52.729 -20.045  1.00  0.00     0.060 C 
HETATM   17  C24 UNL     1      -0.034  53.152 -18.681  1.00  0.00     0.018 C 
HETATM   18  C25 UNL     1      -2.464  49.785 -21.941  1.00  0.00    -0.035 C 
HETATM   19  C26 UNL     1      -1.890  48.422 -21.457  1.00  0.00     0.016 C 
HETATM   20  C27 UNL     1      -2.627  49.640 -23.496  1.00  0.00     0.011 C 
HETATM   21  C28 UNL     1      -3.852  48.863 -24.025  1.00  0.00     0.011 C 
HETATM   22  C29 UNL     1      -5.079  48.850 -23.090  1.00  0.00    -0.032 C 
HETATM   23  C30 UNL     1      -5.051  47.519 -22.275  1.00  0.00     0.016 C 
ENDROOT
BRANCH   1  24
HETATM   24  C2  UNL     1      -7.140  47.843 -24.616  1.00  0.00    -0.010 C 
HETATM   25  C1  UNL     1      -6.752  47.740 -26.098  1.00  0.00     0.010 C 
BRANCH  24  26
HETATM   26  C3  UNL     1      -8.679  47.847 -24.443  1.00  0.00     0.031 C 
BRANCH  26  27
HETATM   27  C4  UNL     1      -9.430  47.909 -25.746  1.00  0.00    -0.027 C 
HETATM   28  C5  UNL     1     -10.737  47.630 -25.873  1.00  0.00     0.006 C 
BRANCH  28  29
HETATM   29  C6  UNL     1     -11.533  47.658 -27.160  1.00  0.00     0.068 C 
HETATM   30  C7  UNL     1     -12.500  46.472 -27.234  1.00  0.00     0.050 C 
HETATM   31  C8  UNL     1     -10.594  47.651 -28.370  1.00  0.00     0.050 C 
BRANCH  29  32
HETATM   32  O1  UNL     1     -12.303  48.861 -27.220  1.00  0.00    -0.387 OA
HETATM   33  H15 UNL     1     -12.990  48.789 -26.528  1.00  0.00     0.211 HD
ENDBRANCH  29  32
ENDBRANCH  28  29
ENDBRANCH  26  27
ENDBRANCH  24  26
ENDBRANCH   1  24
TORSDOF 5
ENDMDL
MODEL 6
REMARK minimizedAffinity -9.1538868
REMARK CNNscore 0.342854291
REMARK CNNaffinity 6.60487604
REMARK  5 active torsions:
REMARK  status: ('A' for Active; 'I' for Inactive)
REMARK    1  A    between atoms: C2_2  and  C3_3 
REMARK    2  A    between atoms: C2_2  and  C9_10 
REMARK    3  A    between atoms: C3_3  and  C4_4 
REMARK    4  A    between atoms: C5_5  and  C6_6 
REMARK    5  A    between atoms: C6_6  and  O1_9 
ROOT
HETATM    1  C9  UNL     1      -6.126  49.402 -24.030  1.00  0.00    -0.002 C 
HETATM    2  C10 UNL     1      -7.074  49.811 -22.863  1.00  0.00     0.006 C 
HETATM    3  C11 UNL     1      -6.179  50.225 -21.678  1.00  0.00     0.011 C 
HETATM    4  C12 UNL     1      -4.782  50.444 -22.298  1.00  0.00    -0.032 C 
HETATM    5  C13 UNL     1      -4.810  51.877 -22.930  1.00  0.00     0.016 C 
HETATM    6  C14 UNL     1      -3.582  50.328 -21.304  1.00  0.00     0.003 C 
HETATM    7  C15 UNL     1      -3.574  51.468 -20.252  1.00  0.00     0.007 C 
HETATM    8  C16 UNL     1      -2.377  51.350 -19.312  1.00  0.00     0.011 C 
HETATM    9  C17 UNL     1      -0.996  51.478 -20.040  1.00  0.00    -0.030 C 
HETATM   10  C18 UNL     1      -0.056  50.426 -19.399  1.00  0.00     0.016 C 
HETATM   11  C19 UNL     1      -1.193  51.299 -21.589  1.00  0.00     0.003 C 
HETATM   12  C20 UNL     1       0.134  51.369 -22.379  1.00  0.00     0.013 C 
HETATM   13  C21 UNL     1       1.203  52.264 -21.767  1.00  0.00     0.079 C 
HETATM   14  C22 UNL     1       0.669  53.309 -20.819  1.00  0.00     0.131 C 
HETATM   15  O2  UNL     1       1.164  54.444 -20.819  1.00  0.00    -0.298 OA
HETATM   16  C23 UNL     1      -0.426  52.932 -19.823  1.00  0.00     0.060 C 
HETATM   17  C24 UNL     1       0.090  53.237 -18.412  1.00  0.00     0.018 C 
HETATM   18  C25 UNL     1      -2.175  50.136 -22.035  1.00  0.00    -0.035 C 
HETATM   19  C26 UNL     1      -1.573  48.748 -21.671  1.00  0.00     0.016 C 
HETATM   20  C27 UNL     1      -2.303  50.137 -23.600  1.00  0.00     0.011 C 
HETATM   21  C28 UNL     1      -3.493  49.383 -24.229  1.00  0.00     0.011 C 
HETATM   22  C29 UNL     1      -4.738  49.246 -23.328  1.00  0.00    -0.032 C 
HETATM   23  C30 UNL     1      -4.689  47.845 -22.643  1.00  0.00     0.016 C 
ENDROOT
BRANCH   1  24
HETATM   24  C2  UNL     1      -6.738  48.338 -24.990  1.00  0.00    -0.010 C 
HETATM   25  C1  UNL     1      -7.366  47.088 -24.356  1.00  0.00     0.010 C 
BRANCH  24  26
HETATM   26  C3  UNL     1      -5.736  47.950 -26.105  1.00  0.00     0.031 C 
BRANCH  26  27
HETATM   27  C4  UNL     1      -6.384  47.717 -27.443  1.00  0.00    -0.027 C 
HETATM   28  C5  UNL     1      -5.748  47.838 -28.618  1.00  0.00     0.006 C 
BRANCH  28  29
HETATM   29  C6  UNL     1      -6.358  47.634 -29.988  1.00  0.00     0.068 C 
HETATM   30  C7  UNL     1      -7.503  46.618 -29.934  1.00  0.00     0.050 C 
HETATM   31  C8  UNL     1      -5.290  47.176 -30.986  1.00  0.00     0.050 C 
BRANCH  29  32
HETATM   32  O1  UNL     1      -6.888  48.873 -30.466  1.00  0.00    -0.387 OA
HETATM   33  H15 UNL     1      -7.658  49.083 -29.902  1.00  0.00     0.211 HD
ENDBRANCH  29  32
ENDBRANCH  28  29
ENDBRANCH  26  27
ENDBRANCH  24  26
ENDBRANCH   1  24
TORSDOF 5
ENDMDL
MODEL 7
REMARK minimizedAffinity -8.11700821
REMARK CNNscore 0.289358586
REMARK CNNaffinity 6.35081291
REMARK  5 active torsions:
REMARK  status: ('A' for Active; 'I' for Inactive)
REMARK    1  A    between atoms: C2_2  and  C3_3 
REMARK    2  A    between atoms: C2_2  and  C9_10 
REMARK    3  A    between atoms: C3_3  and  C4_4 
REMARK    4  A    between atoms: C5_5  and  C6_6 
REMARK    5  A    between atoms: C6_6  and  O1_9 
ROOT
HETATM    1  C9  UNL     1      -5.981  49.111 -24.109  1.00  0.00    -0.002 C 
HETATM    2  C10 UNL     1      -6.981  49.568 -23.006  1.00  0.00     0.006 C 
HETATM    3  C11 UNL     1      -6.141  50.054 -21.808  1.00  0.00     0.011 C 
HETATM    4  C12 UNL     1      -4.722  50.258 -22.379  1.00  0.00    -0.032 C 
HETATM    5  C13 UNL     1      -4.738  51.656 -23.087  1.00  0.00     0.016 C 
HETATM    6  C14 UNL     1      -3.564  50.209 -21.332  1.00  0.00     0.003 C 
HETATM    7  C15 UNL     1      -3.612  51.401 -20.341  1.00  0.00     0.007 C 
HETATM    8  C16 UNL     1      -2.455  51.348 -19.348  1.00  0.00     0.011 C 
HETATM    9  C17 UNL     1      -1.045  51.455 -20.023  1.00  0.00    -0.030 C 
HETATM   10  C18 UNL     1      -0.122  50.449 -19.289  1.00  0.00     0.016 C 
HETATM   11  C19 UNL     1      -1.175  51.193 -21.567  1.00  0.00     0.003 C 
HETATM   12  C20 UNL     1       0.183  51.239 -22.304  1.00  0.00     0.013 C 
HETATM   13  C21 UNL     1       1.216  52.177 -21.695  1.00  0.00     0.079 C 
HETATM   14  C22 UNL     1       0.632  53.264 -20.826  1.00  0.00     0.131 C 
HETATM   15  O2  UNL     1       1.115  54.403 -20.866  1.00  0.00    -0.298 OA
HETATM   16  C23 UNL     1      -0.499  52.925 -19.859  1.00  0.00     0.060 C 
HETATM   17  C24 UNL     1      -0.047  53.309 -18.446  1.00  0.00     0.018 C 
HETATM   18  C25 UNL     1      -2.125  49.997 -21.992  1.00  0.00    -0.035 C 
HETATM   19  C26 UNL     1      -1.525  48.637 -21.531  1.00  0.00     0.016 C 
HETATM   20  C27 UNL     1      -2.187  49.915 -23.559  1.00  0.00     0.011 C 
HETATM   21  C28 UNL     1      -3.342  49.114 -24.197  1.00  0.00     0.011 C 
HETATM   22  C29 UNL     1      -4.622  49.009 -23.342  1.00  0.00    -0.032 C 
HETATM   23  C30 UNL     1      -4.588  47.646 -22.584  1.00  0.00     0.016 C 
ENDROOT
BRANCH   1  24
HETATM   24  C2  UNL     1      -6.541  47.990 -25.037  1.00  0.00    -0.010 C 
HETATM   25  C1  UNL     1      -6.004  47.925 -26.474  1.00  0.00     0.010 C 
BRANCH  24  26
HETATM   26  C3  UNL     1      -8.089  47.975 -25.020  1.00  0.00     0.031 C 
BRANCH  26  27
HETATM   27  C4  UNL     1      -8.681  46.624 -25.319  1.00  0.00    -0.027 C 
HETATM   28  C5  UNL     1      -8.041  45.462 -25.116  1.00  0.00     0.006 C 
BRANCH  28  29
HETATM   29  C6  UNL     1      -8.583  44.081 -25.418  1.00  0.00     0.068 C 
HETATM   30  C7  UNL     1      -7.997  43.040 -24.459  1.00  0.00     0.050 C 
HETATM   31  C8  UNL     1      -8.281  43.694 -26.869  1.00  0.00     0.050 C 
BRANCH  29  32
HETATM   32  O1  UNL     1     -10.003  44.079 -25.259  1.00  0.00    -0.387 OA
HETATM   33  H15 UNL     1     -10.178  44.189 -24.303  1.00  0.00     0.211 HD
ENDBRANCH  29  32
ENDBRANCH  28  29
ENDBRANCH  26  27
ENDBRANCH  24  26
ENDBRANCH   1  24
TORSDOF 5
ENDMDL
MODEL 8
REMARK minimizedAffinity -8.80894184
REMARK CNNscore 0.287770033
REMARK CNNaffinity 6.56130457
REMARK  5 active torsions:
REMARK  status: ('A' for Active; 'I' for Inactive)
REMARK    1  A    between atoms: C2_2  and  C3_3 
REMARK    2  A    between atoms: C2_2  and  C9_10 
REMARK    3  A    between atoms: C3_3  and  C4_4 
REMARK    4  A    between atoms: C5_5  and  C6_6 
REMARK    5  A    between atoms: C6_6  and  O1_9 
ROOT
HETATM    1  C9  UNL     1      -1.005  50.146 -21.811  1.00  0.00    -0.002 C 
HETATM    2  C10 UNL     1      -0.370  49.505 -20.541  1.00  0.00     0.006 C 
HETATM    3  C11 UNL     1      -1.435  48.578 -19.923  1.00  0.00     0.011 C 
HETATM    4  C12 UNL     1      -2.482  48.381 -21.040  1.00  0.00    -0.032 C 
HETATM    5  C13 UNL     1      -1.900  47.277 -21.987  1.00  0.00     0.016 C 
HETATM    6  C14 UNL     1      -3.908  47.966 -20.557  1.00  0.00     0.003 C 
HETATM    7  C15 UNL     1      -3.931  46.545 -19.935  1.00  0.00     0.007 C 
HETATM    8  C16 UNL     1      -5.339  46.150 -19.499  1.00  0.00     0.011 C 
HETATM    9  C17 UNL     1      -6.364  46.078 -20.682  1.00  0.00    -0.030 C 
HETATM   10  C18 UNL     1      -7.689  46.691 -20.161  1.00  0.00     0.016 C 
HETATM   11  C19 UNL     1      -5.773  46.810 -21.941  1.00  0.00     0.003 C 
HETATM   12  C20 UNL     1      -6.743  46.820 -23.144  1.00  0.00     0.013 C 
HETATM   13  C21 UNL     1      -7.677  45.620 -23.231  1.00  0.00     0.079 C 
HETATM   14  C22 UNL     1      -7.194  44.403 -22.481  1.00  0.00     0.131 C 
HETATM   15  O2  UNL     1      -7.357  43.278 -22.972  1.00  0.00    -0.298 OA
HETATM   16  C23 UNL     1      -6.577  44.571 -21.094  1.00  0.00     0.060 C 
HETATM   17  C24 UNL     1      -7.388  43.723 -20.108  1.00  0.00     0.018 C 
HETATM   18  C25 UNL     1      -5.038  48.187 -21.664  1.00  0.00    -0.035 C 
HETATM   19  C26 UNL     1      -6.057  49.257 -21.176  1.00  0.00     0.016 C 
HETATM   20  C27 UNL     1      -4.460  48.747 -23.012  1.00  0.00     0.011 C 
HETATM   21  C28 UNL     1      -3.374  49.841 -22.935  1.00  0.00     0.011 C 
HETATM   22  C29 UNL     1      -2.528  49.841 -21.645  1.00  0.00    -0.032 C 
HETATM   23  C30 UNL     1      -3.136  50.895 -20.667  1.00  0.00     0.016 C 
ENDROOT
BRANCH   1  24
HETATM   24  C2  UNL     1      -0.434  51.556 -22.153  1.00  0.00    -0.010 C 
HETATM   25  C1  UNL     1       0.029  52.437 -20.983  1.00  0.00     0.010 C 
BRANCH  24  26
HETATM   26  C3  UNL     1      -1.391  52.334 -23.089  1.00  0.00     0.031 C 
BRANCH  26  27
HETATM   27  C4  UNL     1      -0.861  52.502 -24.487  1.00  0.00    -0.027 C 
HETATM   28  C5  UNL     1       0.210  51.852 -24.968  1.00  0.00     0.006 C 
BRANCH  28  29
HETATM   29  C6  UNL     1       0.793  51.999 -26.357  1.00  0.00     0.068 C 
HETATM   30  C7  UNL     1      -0.088  51.306 -27.400  1.00  0.00     0.050 C 
HETATM   31  C8  UNL     1       2.215  51.431 -26.402  1.00  0.00     0.050 C 
BRANCH  29  32
HETATM   32  O1  UNL     1       0.874  53.385 -26.697  1.00  0.00    -0.387 OA
HETATM   33  H15 UNL     1      -0.045  53.702 -26.801  1.00  0.00     0.211 HD
ENDBRANCH  29  32
ENDBRANCH  28  29
ENDBRANCH  26  27
ENDBRANCH  24  26
ENDBRANCH   1  24
TORSDOF 5
ENDMDL
MODEL 9
REMARK minimizedAffinity -8.15456867
REMARK CNNscore 0.274086088
REMARK CNNaffinity 6.47543478
REMARK  5 active torsions:
REMARK  status: ('A' for Active; 'I' for Inactive)
REMARK    1  A    between atoms: C2_2  and  C3_3 
REMARK    2  A    between atoms: C2_2  and  C9_10 
REMARK    3  A    between atoms: C3_3  and  C4_4 
REMARK    4  A    between atoms: C5_5  and  C6_6 
REMARK    5  A    between atoms: C6_6  and  O1_9 
ROOT
HETATM    1  C9  UNL     1      -0.272  51.256 -20.390  1.00  0.00    -0.002 C 
HETATM    2  C10 UNL     1      -0.828  52.148 -19.239  1.00  0.00     0.006 C 
HETATM    3  C11 UNL     1      -2.138  51.497 -18.756  1.00  0.00     0.011 C 
HETATM    4  C12 UNL     1      -2.099  50.063 -19.328  1.00  0.00    -0.032 C 
HETATM    5  C13 UNL     1      -1.191  49.235 -18.356  1.00  0.00     0.016 C 
HETATM    6  C14 UNL     1      -3.488  49.363 -19.478  1.00  0.00     0.003 C 
HETATM    7  C15 UNL     1      -4.155  49.072 -18.108  1.00  0.00     0.007 C 
HETATM    8  C16 UNL     1      -5.495  48.362 -18.280  1.00  0.00     0.011 C 
HETATM    9  C17 UNL     1      -5.375  46.958 -18.966  1.00  0.00    -0.030 C 
HETATM   10  C18 UNL     1      -6.568  46.839 -19.948  1.00  0.00     0.016 C 
HETATM   11  C19 UNL     1      -3.967  46.819 -19.651  1.00  0.00     0.003 C 
HETATM   12  C20 UNL     1      -3.784  45.474 -20.388  1.00  0.00     0.013 C 
HETATM   13  C21 UNL     1      -4.545  44.299 -19.787  1.00  0.00     0.079 C 
HETATM   14  C22 UNL     1      -4.924  44.481 -18.338  1.00  0.00     0.131 C 
HETATM   15  O2  UNL     1      -4.855  43.518 -17.563  1.00  0.00    -0.298 OA
HETATM   16  C23 UNL     1      -5.454  45.832 -17.864  1.00  0.00     0.060 C 
HETATM   17  C24 UNL     1      -6.838  45.608 -17.245  1.00  0.00     0.018 C 
HETATM   18  C25 UNL     1      -3.452  48.092 -20.444  1.00  0.00    -0.035 C 
HETATM   19  C26 UNL     1      -4.342  48.349 -21.694  1.00  0.00     0.016 C 
HETATM   20  C27 UNL     1      -2.015  47.804 -21.008  1.00  0.00     0.011 C 
HETATM   21  C28 UNL     1      -1.158  49.008 -21.453  1.00  0.00     0.011 C 
HETATM   22  C29 UNL     1      -1.487  50.345 -20.757  1.00  0.00    -0.032 C 
HETATM   23  C30 UNL     1      -2.443  51.153 -21.690  1.00  0.00     0.016 C 
ENDROOT
BRANCH   1  24
HETATM   24  C2  UNL     1       0.573  52.042 -21.438  1.00  0.00    -0.010 C 
HETATM   25  C1  UNL     1       1.680  52.964 -20.910  1.00  0.00     0.010 C 
BRANCH  24  26
HETATM   26  C3  UNL     1      -0.338  52.787 -22.444  1.00  0.00     0.031 C 
BRANCH  26  27
HETATM   27  C4  UNL     1       0.175  52.758 -23.858  1.00  0.00    -0.027 C 
HETATM   28  C5  UNL     1      -0.481  52.193 -24.884  1.00  0.00     0.006 C 
BRANCH  28  29
HETATM   29  C6  UNL     1      -0.000  52.119 -26.317  1.00  0.00     0.068 C 
HETATM   30  C7  UNL     1      -1.172  52.242 -27.297  1.00  0.00     0.050 C 
HETATM   31  C8  UNL     1       0.758  50.810 -26.560  1.00  0.00     0.050 C 
BRANCH  29  32
HETATM   32  O1  UNL     1       0.906  53.194 -26.574  1.00  0.00    -0.387 OA
HETATM   33  H15 UNL     1       0.378  54.016 -26.552  1.00  0.00     0.211 HD
ENDBRANCH  29  32
ENDBRANCH  28  29
ENDBRANCH  26  27
ENDBRANCH  24  26
ENDBRANCH   1  24
TORSDOF 5
ENDMDL
