MODEL 1
REMARK minimizedAffinity -8.02316093
REMARK CNNscore 0.768150508
REMARK CNNaffinity 6.26436234
REMARK  12 active torsions:
REMARK  status: ('A' for Active; 'I' for Inactive)
REMARK    1  A    between atoms: C2_2  and  C31_37 
REMARK    2  A    between atoms: C3_3  and  C4_4 
REMARK    3  A    between atoms: C4_4  and  O1_5 
REMARK    4  A    between atoms: C4_4  and  C5_6 
REMARK    5  A    between atoms: C5_6  and  C6_7 
REMARK    6  A    between atoms: C6_7  and  C8_9 
REMARK    7  A    between atoms: C10_11  and  O2_12 
REMARK    8  A    between atoms: C11_13  and  C12_14 
REMARK    9  A    between atoms: C12_14  and  C13_15 
REMARK   10  A    between atoms: C13_15  and  O3_16 
REMARK   11  A    between atoms: C30_35  and  O6_36 
REMARK   12  A    between atoms: C31_37  and  O8_39 
ROOT
HETATM    1  C8  UNL     1      -2.848   7.287  14.171  1.00  0.00     0.001 C 
HETATM    2  C9  UNL     1      -2.225   7.765  12.838  1.00  0.00     0.038 C 
HETATM    3  C10 UNL     1      -1.729   9.210  13.078  1.00  0.00     0.132 C 
HETATM    4  C11 UNL     1      -1.669   9.374  14.630  1.00  0.00     0.022 C 
HETATM    5  C14 UNL     1      -1.795  10.767  15.256  1.00  0.00    -0.029 C 
HETATM    6  C15 UNL     1      -2.292  10.921  16.511  1.00  0.00     0.002 C 
HETATM    7  C16 UNL     1      -2.657   9.662  17.278  1.00  0.00     0.157 C 
HETATM    8  O4  UNL     1      -2.622   9.646  18.507  1.00  0.00    -0.293 OA
HETATM    9  C17 UNL     1      -3.068   8.400  16.519  1.00  0.00     0.094 C 
HETATM   10  C18 UNL     1      -3.009   8.599  14.999  1.00  0.00    -0.019 C 
HETATM   11  C19 UNL     1      -4.315   9.351  14.589  1.00  0.00     0.017 C 
HETATM   12  C20 UNL     1      -2.426  12.303  17.203  1.00  0.00    -0.008 C 
HETATM   13  C21 UNL     1      -3.687  12.339  18.112  1.00  0.00     0.021 C 
HETATM   14  C22 UNL     1      -1.159  12.431  18.091  1.00  0.00     0.022 C 
HETATM   15  C23 UNL     1      -0.899  13.820  18.617  1.00  0.00     0.080 C 
HETATM   16  C24 UNL     1      -0.699  14.714  17.429  1.00  0.00     0.135 C 
HETATM   17  O5  UNL     1       0.375  15.295  17.266  1.00  0.00    -0.297 OA
HETATM   18  C25 UNL     1      -1.898  14.895  16.498  1.00  0.00     0.018 C 
HETATM   19  C26 UNL     1      -1.433  15.694  15.260  1.00  0.00     0.023 C 
HETATM   20  C27 UNL     1      -2.886  15.829  17.245  1.00  0.00     0.023 C 
HETATM   21  C28 UNL     1      -2.609  13.514  16.156  1.00  0.00     0.016 C 
HETATM   22  C29 UNL     1      -2.522  13.044  14.680  1.00  0.00     0.043 C 
HETATM   23  C30 UNL     1      -1.474  11.977  14.420  1.00  0.00     0.149 C 
ENDROOT
BRANCH   1  24
HETATM   24  C6  UNL     1      -4.054   6.298  14.068  1.00  0.00    -0.011 C 
HETATM   25  C7  UNL     1      -4.756   6.245  15.437  1.00  0.00     0.010 C 
BRANCH  24  26
HETATM   26  C5  UNL     1      -3.688   4.862  13.602  1.00  0.00     0.040 C 
BRANCH  26  27
HETATM   27  C4  UNL     1      -3.603   4.611  12.083  1.00  0.00     0.142 C 
BRANCH  27  28
HETATM   28  C3  UNL     1      -2.455   3.754  11.649  1.00  0.00     0.018 C 
HETATM   29  C2  UNL     1      -2.461   2.413  11.498  1.00  0.00     0.010 C 
HETATM   30  C1  UNL     1      -3.644   1.517  11.701  1.00  0.00     0.055 C 
BRANCH  29  31
HETATM   31  C31 UNL     1      -1.184   1.785  11.071  1.00  0.00     0.171 C 
HETATM   32  O7  UNL     1      -0.065   2.256  11.175  1.00  0.00    -0.646 OA
BRANCH  31  33
HETATM   33  O8  UNL     1      -1.375   0.578  10.514  1.00  0.00    -0.773 OA
HETATM   34  H46 UNL     1      -0.466   0.290  10.285  1.00  0.00     0.167 HD
ENDBRANCH  31  33
ENDBRANCH  29  31
ENDBRANCH  27  28
BRANCH  27  35
HETATM   35  O1  UNL     1      -4.794   4.000  11.605  1.00  0.00    -0.392 OA
HETATM   36  H6  UNL     1      -5.522   4.630  11.739  1.00  0.00     0.210 HD
ENDBRANCH  27  35
ENDBRANCH  26  27
ENDBRANCH  24  26
ENDBRANCH   1  24
BRANCH   3  37
HETATM   37  O2  UNL     1      -0.489   9.433  12.436  1.00  0.00    -0.394 OA
HETATM   38  H17 UNL     1      -0.586   9.189  11.498  1.00  0.00     0.210 HD
ENDBRANCH   3  37
BRANCH   4  39
HETATM   39  C12 UNL     1      -0.363   8.667  15.171  1.00  0.00     0.043 C 
BRANCH  39  40
HETATM   40  C13 UNL     1      -0.426   7.162  15.419  1.00  0.00     0.165 C 
BRANCH  40  41
HETATM   41  O3  UNL     1       0.851   6.608  15.108  1.00  0.00    -0.401 OA
HETATM   42  H22 UNL     1       0.788   5.653  15.272  1.00  0.00     0.209 HD
ENDBRANCH  40  41
ENDBRANCH  39  40
ENDBRANCH   4  39
BRANCH  23  43
HETATM   43  O6  UNL     1      -0.191  12.502  14.698  1.00  0.00    -0.391 OA
HETATM   44  H45 UNL     1       0.163  12.104  15.505  1.00  0.00     0.210 HD
ENDBRANCH  23  43
TORSDOF 12
ENDMDL
MODEL 2
REMARK minimizedAffinity -9.06624031
REMARK CNNscore 0.63000685
REMARK CNNaffinity 6.09782743
REMARK  12 active torsions:
REMARK  status: ('A' for Active; 'I' for Inactive)
REMARK    1  A    between atoms: C2_2  and  C31_37 
REMARK    2  A    between atoms: C3_3  and  C4_4 
REMARK    3  A    between atoms: C4_4  and  O1_5 
REMARK    4  A    between atoms: C4_4  and  C5_6 
REMARK    5  A    between atoms: C5_6  and  C6_7 
REMARK    6  A    between atoms: C6_7  and  C8_9 
REMARK    7  A    between atoms: C10_11  and  O2_12 
REMARK    8  A    between atoms: C11_13  and  C12_14 
REMARK    9  A    between atoms: C12_14  and  C13_15 
REMARK   10  A    between atoms: C13_15  and  O3_16 
REMARK   11  A    between atoms: C30_35  and  O6_36 
REMARK   12  A    between atoms: C31_37  and  O8_39 
ROOT
HETATM    1  C8  UNL     1      -3.554   7.169  14.016  1.00  0.00     0.001 C 
HETATM    2  C9  UNL     1      -4.028   6.069  13.036  1.00  0.00     0.038 C 
HETATM    3  C10 UNL     1      -2.813   5.720  12.145  1.00  0.00     0.132 C 
HETATM    4  C11 UNL     1      -1.570   6.285  12.904  1.00  0.00     0.022 C 
HETATM    5  C14 UNL     1      -0.305   6.659  12.124  1.00  0.00    -0.029 C 
HETATM    6  C15 UNL     1       0.540   7.615  12.590  1.00  0.00     0.002 C 
HETATM    7  C16 UNL     1       0.209   8.247  13.930  1.00  0.00     0.157 C 
HETATM    8  O4  UNL     1       1.101   8.705  14.643  1.00  0.00    -0.293 OA
HETATM    9  C17 UNL     1      -1.243   8.313  14.404  1.00  0.00     0.094 C 
HETATM   10  C18 UNL     1      -2.204   7.656  13.405  1.00  0.00    -0.019 C 
HETATM   11  C19 UNL     1      -2.457   8.695  12.268  1.00  0.00     0.017 C 
HETATM   12  C20 UNL     1       1.842   8.023  11.853  1.00  0.00    -0.008 C 
HETATM   13  C21 UNL     1       2.121   9.543  12.036  1.00  0.00     0.021 C 
HETATM   14  C22 UNL     1       2.968   7.216  12.554  1.00  0.00     0.022 C 
HETATM   15  C23 UNL     1       4.281   7.197  11.813  1.00  0.00     0.080 C 
HETATM   16  C24 UNL     1       4.031   6.546  10.485  1.00  0.00     0.135 C 
HETATM   17  O5  UNL     1       4.611   5.500  10.189  1.00  0.00    -0.297 OA
HETATM   18  C25 UNL     1       3.084   7.276   9.531  1.00  0.00     0.018 C 
HETATM   19  C26 UNL     1       2.825   6.362   8.313  1.00  0.00     0.023 C 
HETATM   20  C27 UNL     1       3.882   8.486   8.977  1.00  0.00     0.023 C 
HETATM   21  C28 UNL     1       1.766   7.783  10.262  1.00  0.00     0.016 C 
HETATM   22  C29 UNL     1       0.438   7.112   9.824  1.00  0.00     0.043 C 
HETATM   23  C30 UNL     1      -0.068   6.040  10.772  1.00  0.00     0.149 C 
ENDROOT
BRANCH   1  24
HETATM   24  C6  UNL     1      -4.618   8.227  14.453  1.00  0.00    -0.011 C 
HETATM   25  C7  UNL     1      -3.916   9.293  15.315  1.00  0.00     0.010 C 
BRANCH  24  26
HETATM   26  C5  UNL     1      -5.844   7.651  15.214  1.00  0.00     0.040 C 
BRANCH  26  27
HETATM   27  C4  UNL     1      -7.057   7.210  14.369  1.00  0.00     0.142 C 
BRANCH  27  28
HETATM   28  C3  UNL     1      -7.114   5.746  14.065  1.00  0.00     0.018 C 
HETATM   29  C2  UNL     1      -7.818   5.153  13.079  1.00  0.00     0.010 C 
HETATM   30  C1  UNL     1      -8.659   5.860  12.060  1.00  0.00     0.055 C 
BRANCH  29  31
HETATM   31  C31 UNL     1      -7.727   3.673  12.991  1.00  0.00     0.171 C 
HETATM   32  O7  UNL     1      -8.649   2.888  12.853  1.00  0.00    -0.646 OA
BRANCH  31  33
HETATM   33  O8  UNL     1      -6.460   3.237  13.091  1.00  0.00    -0.773 OA
HETATM   34  H46 UNL     1      -6.551   2.263  13.018  1.00  0.00     0.167 HD
ENDBRANCH  31  33
ENDBRANCH  29  31
ENDBRANCH  27  28
BRANCH  27  35
HETATM   35  O1  UNL     1      -8.274   7.558  15.016  1.00  0.00    -0.392 OA
HETATM   36  H6  UNL     1      -8.313   8.528  15.067  1.00  0.00     0.210 HD
ENDBRANCH  27  35
ENDBRANCH  26  27
ENDBRANCH  24  26
ENDBRANCH   1  24
BRANCH   3  37
HETATM   37  O2  UNL     1      -2.746   4.328  11.904  1.00  0.00    -0.394 OA
HETATM   38  H17 UNL     1      -3.606   4.042  11.546  1.00  0.00     0.210 HD
ENDBRANCH   3  37
BRANCH   4  39
HETATM   39  C12 UNL     1      -1.193   5.297  14.079  1.00  0.00     0.043 C 
BRANCH  39  40
HETATM   40  C13 UNL     1      -1.391   5.794  15.509  1.00  0.00     0.165 C 
BRANCH  40  41
HETATM   41  O3  UNL     1      -0.118   6.178  16.025  1.00  0.00    -0.401 OA
HETATM   42  H22 UNL     1      -0.267   6.490  16.932  1.00  0.00     0.209 HD
ENDBRANCH  40  41
ENDBRANCH  39  40
ENDBRANCH   4  39
BRANCH  23  43
HETATM   43  O6  UNL     1       0.863   4.977  10.820  1.00  0.00    -0.391 OA
HETATM   44  H45 UNL     1       1.318   4.971  11.672  1.00  0.00     0.210 HD
ENDBRANCH  23  43
TORSDOF 12
ENDMDL
MODEL 3
REMARK minimizedAffinity -8.12137222
REMARK CNNscore 0.588805318
REMARK CNNaffinity 6.72085333
REMARK  12 active torsions:
REMARK  status: ('A' for Active; 'I' for Inactive)
REMARK    1  A    between atoms: C2_2  and  C31_37 
REMARK    2  A    between atoms: C3_3  and  C4_4 
REMARK    3  A    between atoms: C4_4  and  O1_5 
REMARK    4  A    between atoms: C4_4  and  C5_6 
REMARK    5  A    between atoms: C5_6  and  C6_7 
REMARK    6  A    between atoms: C6_7  and  C8_9 
REMARK    7  A    between atoms: C10_11  and  O2_12 
REMARK    8  A    between atoms: C11_13  and  C12_14 
REMARK    9  A    between atoms: C12_14  and  C13_15 
REMARK   10  A    between atoms: C13_15  and  O3_16 
REMARK   11  A    between atoms: C30_35  and  O6_36 
REMARK   12  A    between atoms: C31_37  and  O8_39 
ROOT
HETATM    1  C8  UNL     1       0.479   8.464  13.295  1.00  0.00     0.001 C 
HETATM    2  C9  UNL     1       0.304   9.890  13.870  1.00  0.00     0.038 C 
HETATM    3  C10 UNL     1      -1.111   9.941  14.493  1.00  0.00     0.132 C 
HETATM    4  C11 UNL     1      -1.543   8.450  14.662  1.00  0.00     0.022 C 
HETATM    5  C14 UNL     1      -3.030   8.084  14.686  1.00  0.00    -0.029 C 
HETATM    6  C15 UNL     1      -3.449   6.856  14.283  1.00  0.00     0.002 C 
HETATM    7  C16 UNL     1      -2.385   5.857  13.867  1.00  0.00     0.157 C 
HETATM    8  O4  UNL     1      -2.586   4.648  13.977  1.00  0.00    -0.293 OA
HETATM    9  C17 UNL     1      -1.050   6.352  13.311  1.00  0.00     0.094 C 
HETATM   10  C18 UNL     1      -0.969   7.883  13.290  1.00  0.00    -0.019 C 
HETATM   11  C19 UNL     1      -1.749   8.362  12.026  1.00  0.00     0.017 C 
HETATM   12  C20 UNL     1      -4.939   6.424  14.302  1.00  0.00    -0.008 C 
HETATM   13  C21 UNL     1      -5.249   5.478  13.107  1.00  0.00     0.021 C 
HETATM   14  C22 UNL     1      -5.110   5.634  15.628  1.00  0.00     0.022 C 
HETATM   15  C23 UNL     1      -6.541   5.384  16.030  1.00  0.00     0.080 C 
HETATM   16  C24 UNL     1      -7.187   6.723  16.226  1.00  0.00     0.135 C 
HETATM   17  O5  UNL     1      -7.632   7.040  17.330  1.00  0.00    -0.297 OA
HETATM   18  C25 UNL     1      -7.306   7.615  14.989  1.00  0.00     0.018 C 
HETATM   19  C26 UNL     1      -7.827   8.998  15.438  1.00  0.00     0.023 C 
HETATM   20  C27 UNL     1      -8.443   7.005  14.127  1.00  0.00     0.023 C 
HETATM   21  C28 UNL     1      -5.955   7.664  14.151  1.00  0.00     0.016 C 
HETATM   22  C29 UNL     1      -5.225   9.032  14.108  1.00  0.00     0.043 C 
HETATM   23  C30 UNL     1      -4.039   9.141  15.050  1.00  0.00     0.149 C 
ENDROOT
BRANCH   1  24
HETATM   24  C6  UNL     1       1.359   8.328  12.011  1.00  0.00    -0.011 C 
HETATM   25  C7  UNL     1       0.446   8.478  10.780  1.00  0.00     0.010 C 
BRANCH  24  26
HETATM   26  C5  UNL     1       2.176   7.011  11.910  1.00  0.00     0.040 C 
BRANCH  26  27
HETATM   27  C4  UNL     1       3.053   6.817  10.657  1.00  0.00     0.142 C 
BRANCH  27  28
HETATM   28  C3  UNL     1       4.125   7.846  10.472  1.00  0.00     0.018 C 
HETATM   29  C2  UNL     1       5.066   8.202  11.371  1.00  0.00     0.010 C 
HETATM   30  C1  UNL     1       5.245   7.600  12.731  1.00  0.00     0.055 C 
BRANCH  29  31
HETATM   31  C31 UNL     1       6.014   9.267  10.957  1.00  0.00     0.171 C 
HETATM   32  O7  UNL     1       7.151   9.117  10.543  1.00  0.00    -0.646 OA
BRANCH  31  33
HETATM   33  O8  UNL     1       5.487  10.496  11.093  1.00  0.00    -0.773 OA
HETATM   34  H46 UNL     1       6.210  11.085  10.789  1.00  0.00     0.167 HD
ENDBRANCH  31  33
ENDBRANCH  29  31
ENDBRANCH  27  28
BRANCH  27  35
HETATM   35  O1  UNL     1       3.686   5.544  10.676  1.00  0.00    -0.392 OA
HETATM   36  H6  UNL     1       2.988   4.869  10.630  1.00  0.00     0.210 HD
ENDBRANCH  27  35
ENDBRANCH  26  27
ENDBRANCH  24  26
ENDBRANCH   1  24
BRANCH   3  37
HETATM   37  O2  UNL     1      -1.104  10.671  15.705  1.00  0.00    -0.394 OA
HETATM   38  H17 UNL     1      -0.706  11.543  15.531  1.00  0.00     0.210 HD
ENDBRANCH   3  37
BRANCH   4  39
HETATM   39  C12 UNL     1      -0.830   7.851  15.940  1.00  0.00     0.043 C 
BRANCH  39  40
HETATM   40  C13 UNL     1       0.422   7.006  15.717  1.00  0.00     0.165 C 
BRANCH  40  41
HETATM   41  O3  UNL     1       1.384   7.371  16.704  1.00  0.00    -0.401 OA
HETATM   42  H22 UNL     1       2.170   6.824  16.545  1.00  0.00     0.209 HD
ENDBRANCH  40  41
ENDBRANCH  39  40
ENDBRANCH   4  39
BRANCH  23  43
HETATM   43  O6  UNL     1      -4.488   9.024  16.386  1.00  0.00    -0.391 OA
HETATM   44  H45 UNL     1      -4.210   8.176  16.756  1.00  0.00     0.210 HD
ENDBRANCH  23  43
TORSDOF 12
ENDMDL
MODEL 4
REMARK minimizedAffinity -8.18642426
REMARK CNNscore 0.463668525
REMARK CNNaffinity 6.64864588
REMARK  12 active torsions:
REMARK  status: ('A' for Active; 'I' for Inactive)
REMARK    1  A    between atoms: C2_2  and  C31_37 
REMARK    2  A    between atoms: C3_3  and  C4_4 
REMARK    3  A    between atoms: C4_4  and  O1_5 
REMARK    4  A    between atoms: C4_4  and  C5_6 
REMARK    5  A    between atoms: C5_6  and  C6_7 
REMARK    6  A    between atoms: C6_7  and  C8_9 
REMARK    7  A    between atoms: C10_11  and  O2_12 
REMARK    8  A    between atoms: C11_13  and  C12_14 
REMARK    9  A    between atoms: C12_14  and  C13_15 
REMARK   10  A    between atoms: C13_15  and  O3_16 
REMARK   11  A    between atoms: C30_35  and  O6_36 
REMARK   12  A    between atoms: C31_37  and  O8_39 
ROOT
HETATM    1  C8  UNL     1      -1.833   7.178  13.427  1.00  0.00     0.001 C 
HETATM    2  C9  UNL     1      -0.876   7.789  12.375  1.00  0.00     0.038 C 
HETATM    3  C10 UNL     1      -0.358   9.119  12.973  1.00  0.00     0.132 C 
HETATM    4  C11 UNL     1      -0.664   9.031  14.502  1.00  0.00     0.022 C 
HETATM    5  C14 UNL     1      -0.845  10.315  15.320  1.00  0.00    -0.029 C 
HETATM    6  C15 UNL     1      -1.618  10.323  16.436  1.00  0.00     0.002 C 
HETATM    7  C16 UNL     1      -2.240   9.005  16.865  1.00  0.00     0.157 C 
HETATM    8  O4  UNL     1      -2.504   8.795  18.048  1.00  0.00    -0.293 OA
HETATM    9  C17 UNL     1      -2.538   7.928  15.823  1.00  0.00     0.094 C 
HETATM   10  C18 UNL     1      -2.102   8.355  14.415  1.00  0.00    -0.019 C 
HETATM   11  C19 UNL     1      -3.217   9.295  13.860  1.00  0.00     0.017 C 
HETATM   12  C20 UNL     1      -1.823  11.586  17.312  1.00  0.00    -0.008 C 
HETATM   13  C21 UNL     1      -3.262  11.613  17.904  1.00  0.00     0.021 C 
HETATM   14  C22 UNL     1      -0.803  11.439  18.473  1.00  0.00     0.022 C 
HETATM   15  C23 UNL     1      -0.586  12.693  19.281  1.00  0.00     0.080 C 
HETATM   16  C24 UNL     1      -0.046  13.735  18.346  1.00  0.00     0.135 C 
HETATM   17  O5  UNL     1       1.071  14.218  18.536  1.00  0.00    -0.297 OA
HETATM   18  C25 UNL     1      -0.971  14.186  17.214  1.00  0.00     0.018 C 
HETATM   19  C26 UNL     1      -0.169  15.114  16.276  1.00  0.00     0.023 C 
HETATM   20  C27 UNL     1      -2.046  15.091  17.872  1.00  0.00     0.023 C 
HETATM   21  C28 UNL     1      -1.668  12.958  16.482  1.00  0.00     0.016 C 
HETATM   22  C29 UNL     1      -1.259  12.718  15.005  1.00  0.00     0.043 C 
HETATM   23  C30 UNL     1      -0.252  11.600  14.805  1.00  0.00     0.149 C 
ENDROOT
BRANCH   1  24
HETATM   24  C6  UNL     1      -3.040   6.350  12.880  1.00  0.00    -0.011 C 
HETATM   25  C7  UNL     1      -4.338   7.112  13.208  1.00  0.00     0.010 C 
BRANCH  24  26
HETATM   26  C5  UNL     1      -3.131   4.893  13.408  1.00  0.00     0.040 C 
BRANCH  26  27
HETATM   27  C4  UNL     1      -3.879   3.868  12.531  1.00  0.00     0.142 C 
BRANCH  27  28
HETATM   28  C3  UNL     1      -5.354   3.788  12.773  1.00  0.00     0.018 C 
HETATM   29  C2  UNL     1      -6.195   2.833  12.324  1.00  0.00     0.010 C 
HETATM   30  C1  UNL     1      -5.802   1.632  11.519  1.00  0.00     0.055 C 
BRANCH  29  31
HETATM   31  C31 UNL     1      -7.627   2.983  12.686  1.00  0.00     0.171 C 
HETATM   32  O7  UNL     1      -8.187   3.999  13.059  1.00  0.00    -0.646 OA
BRANCH  31  33
HETATM   33  O8  UNL     1      -8.303   1.828  12.570  1.00  0.00    -0.773 OA
HETATM   34  H46 UNL     1      -9.215   2.073  12.835  1.00  0.00     0.167 HD
ENDBRANCH  31  33
ENDBRANCH  29  31
ENDBRANCH  27  28
BRANCH  27  35
HETATM   35  O1  UNL     1      -3.690   4.154  11.150  1.00  0.00    -0.392 OA
HETATM   36  H6  UNL     1      -2.744   4.045  10.955  1.00  0.00     0.210 HD
ENDBRANCH  27  35
ENDBRANCH  26  27
ENDBRANCH  24  26
ENDBRANCH   1  24
BRANCH   3  37
HETATM   37  O2  UNL     1       1.012   9.306  12.678  1.00  0.00    -0.394 OA
HETATM   38  H17 UNL     1       1.128   9.223  11.715  1.00  0.00     0.210 HD
ENDBRANCH   3  37
BRANCH   4  39
HETATM   39  C12 UNL     1       0.424   8.114  15.192  1.00  0.00     0.043 C 
BRANCH  39  40
HETATM   40  C13 UNL     1       0.965   6.936  14.387  1.00  0.00     0.165 C 
BRANCH  40  41
HETATM   41  O3  UNL     1       2.205   6.535  14.967  1.00  0.00    -0.401 OA
HETATM   42  H22 UNL     1       2.530   5.786  14.442  1.00  0.00     0.209 HD
ENDBRANCH  40  41
ENDBRANCH  39  40
ENDBRANCH   4  39
BRANCH  23  43
HETATM   43  O6  UNL     1       0.958  11.935  15.455  1.00  0.00    -0.391 OA
HETATM   44  H45 UNL     1       1.080  11.382  16.238  1.00  0.00     0.210 HD
ENDBRANCH  23  43
TORSDOF 12
ENDMDL
MODEL 5
REMARK minimizedAffinity -7.23054695
REMARK CNNscore 0.458614826
REMARK CNNaffinity 6.09728622
REMARK  12 active torsions:
REMARK  status: ('A' for Active; 'I' for Inactive)
REMARK    1  A    between atoms: C2_2  and  C31_37 
REMARK    2  A    between atoms: C3_3  and  C4_4 
REMARK    3  A    between atoms: C4_4  and  O1_5 
REMARK    4  A    between atoms: C4_4  and  C5_6 
REMARK    5  A    between atoms: C5_6  and  C6_7 
REMARK    6  A    between atoms: C6_7  and  C8_9 
REMARK    7  A    between atoms: C10_11  and  O2_12 
REMARK    8  A    between atoms: C11_13  and  C12_14 
REMARK    9  A    between atoms: C12_14  and  C13_15 
REMARK   10  A    between atoms: C13_15  and  O3_16 
REMARK   11  A    between atoms: C30_35  and  O6_36 
REMARK   12  A    between atoms: C31_37  and  O8_39 
ROOT
HETATM    1  C8  UNL     1      -0.754   7.415  14.207  1.00  0.00     0.001 C 
HETATM    2  C9  UNL     1       0.222   8.079  13.206  1.00  0.00     0.038 C 
HETATM    3  C10 UNL     1       0.330   9.566  13.617  1.00  0.00     0.132 C 
HETATM    4  C11 UNL     1      -0.216   9.631  15.079  1.00  0.00     0.022 C 
HETATM    5  C14 UNL     1      -0.808  10.938  15.616  1.00  0.00    -0.029 C 
HETATM    6  C15 UNL     1      -1.750  10.924  16.594  1.00  0.00     0.002 C 
HETATM    7  C16 UNL     1      -2.144   9.573  17.164  1.00  0.00     0.157 C 
HETATM    8  O4  UNL     1      -2.562   9.479  18.317  1.00  0.00    -0.293 OA
HETATM    9  C17 UNL     1      -2.016   8.316  16.304  1.00  0.00     0.094 C 
HETATM   10  C18 UNL     1      -1.438   8.625  14.917  1.00  0.00    -0.019 C 
HETATM   11  C19 UNL     1      -2.612   9.180  14.050  1.00  0.00     0.017 C 
HETATM   12  C20 UNL     1      -2.371  12.215  17.187  1.00  0.00    -0.008 C 
HETATM   13  C21 UNL     1      -3.864  11.983  17.558  1.00  0.00     0.021 C 
HETATM   14  C22 UNL     1      -1.565  12.487  18.486  1.00  0.00     0.022 C 
HETATM   15  C23 UNL     1      -1.767  13.860  19.074  1.00  0.00     0.080 C 
HETATM   16  C24 UNL     1      -1.304  14.854  18.050  1.00  0.00     0.135 C 
HETATM   17  O5  UNL     1      -0.367  15.611  18.303  1.00  0.00    -0.297 OA
HETATM   18  C25 UNL     1      -2.088  14.900  16.737  1.00  0.00     0.018 C 
HETATM   19  C26 UNL     1      -1.348  15.847  15.766  1.00  0.00     0.023 C 
HETATM   20  C27 UNL     1      -3.429  15.608  17.062  1.00  0.00     0.023 C 
HETATM   21  C28 UNL     1      -2.367  13.448  16.151  1.00  0.00     0.016 C 
HETATM   22  C29 UNL     1      -1.661  13.101  14.815  1.00  0.00     0.043 C 
HETATM   23  C30 UNL     1      -0.420  12.239  14.964  1.00  0.00     0.149 C 
ENDROOT
BRANCH   1  24
HETATM   24  C6  UNL     1      -1.642   6.253  13.657  1.00  0.00    -0.011 C 
HETATM   25  C7  UNL     1      -1.462   5.029  14.576  1.00  0.00     0.010 C 
BRANCH  24  26
HETATM   26  C5  UNL     1      -1.365   5.855  12.182  1.00  0.00     0.040 C 
BRANCH  26  27
HETATM   27  C4  UNL     1      -0.077   5.057  11.894  1.00  0.00     0.142 C 
BRANCH  27  28
HETATM   28  C3  UNL     1      -0.280   3.589  11.682  1.00  0.00     0.018 C 
HETATM   29  C2  UNL     1      -1.338   2.997  11.092  1.00  0.00     0.010 C 
HETATM   30  C1  UNL     1      -2.513   3.707  10.492  1.00  0.00     0.055 C 
BRANCH  29  31
HETATM   31  C31 UNL     1      -1.316   1.514  11.015  1.00  0.00     0.171 C 
HETATM   32  O7  UNL     1      -2.265   0.759  11.131  1.00  0.00    -0.646 OA
BRANCH  31  33
HETATM   33  O8  UNL     1      -0.078   1.036  10.802  1.00  0.00    -0.773 OA
HETATM   34  H46 UNL     1      -0.214   0.065  10.776  1.00  0.00     0.167 HD
ENDBRANCH  31  33
ENDBRANCH  29  31
ENDBRANCH  27  28
BRANCH  27  35
HETATM   35  O1  UNL     1       0.584   5.565  10.743  1.00  0.00    -0.392 OA
HETATM   36  H6  UNL     1       0.863   6.474  10.942  1.00  0.00     0.210 HD
ENDBRANCH  27  35
ENDBRANCH  26  27
ENDBRANCH  24  26
ENDBRANCH   1  24
BRANCH   3  37
HETATM   37  O2  UNL     1       1.660  10.030  13.487  1.00  0.00    -0.394 OA
HETATM   38  H17 UNL     1       1.960   9.838  12.581  1.00  0.00     0.210 HD
ENDBRANCH   3  37
BRANCH   4  39
HETATM   39  C12 UNL     1       0.902   9.111  16.069  1.00  0.00     0.043 C 
BRANCH  39  40
HETATM   40  C13 UNL     1       1.547  10.133  17.002  1.00  0.00     0.165 C 
BRANCH  40  41
HETATM   41  O3  UNL     1       2.302   9.422  17.983  1.00  0.00    -0.401 OA
HETATM   42  H22 UNL     1       2.702  10.088  18.564  1.00  0.00     0.209 HD
ENDBRANCH  40  41
ENDBRANCH  39  40
ENDBRANCH   4  39
BRANCH  23  43
HETATM   43  O6  UNL     1       0.556  12.945  15.704  1.00  0.00    -0.391 OA
HETATM   44  H45 UNL     1       0.652  12.557  16.583  1.00  0.00     0.210 HD
ENDBRANCH  23  43
TORSDOF 12
ENDMDL
MODEL 6
REMARK minimizedAffinity -8.21669292
REMARK CNNscore 0.423250377
REMARK CNNaffinity 6.47111702
REMARK  12 active torsions:
REMARK  status: ('A' for Active; 'I' for Inactive)
REMARK    1  A    between atoms: C2_2  and  C31_37 
REMARK    2  A    between atoms: C3_3  and  C4_4 
REMARK    3  A    between atoms: C4_4  and  O1_5 
REMARK    4  A    between atoms: C4_4  and  C5_6 
REMARK    5  A    between atoms: C5_6  and  C6_7 
REMARK    6  A    between atoms: C6_7  and  C8_9 
REMARK    7  A    between atoms: C10_11  and  O2_12 
REMARK    8  A    between atoms: C11_13  and  C12_14 
REMARK    9  A    between atoms: C12_14  and  C13_15 
REMARK   10  A    between atoms: C13_15  and  O3_16 
REMARK   11  A    between atoms: C30_35  and  O6_36 
REMARK   12  A    between atoms: C31_37  and  O8_39 
ROOT
HETATM    1  C8  UNL     1      -3.120   7.514  14.430  1.00  0.00     0.001 C 
HETATM    2  C9  UNL     1      -2.425   6.541  15.412  1.00  0.00     0.038 C 
HETATM    3  C10 UNL     1      -1.052   6.194  14.790  1.00  0.00     0.132 C 
HETATM    4  C11 UNL     1      -0.797   7.295  13.712  1.00  0.00     0.022 C 
HETATM    5  C14 UNL     1       0.118   6.999  12.519  1.00  0.00    -0.029 C 
HETATM    6  C15 UNL     1      -0.052   7.646  11.337  1.00  0.00     0.002 C 
HETATM    7  C16 UNL     1      -1.138   8.704  11.269  1.00  0.00     0.157 C 
HETATM    8  O4  UNL     1      -1.046   9.645  10.483  1.00  0.00    -0.293 OA
HETATM    9  C17 UNL     1      -2.356   8.606  12.188  1.00  0.00     0.094 C 
HETATM   10  C18 UNL     1      -2.273   7.394  13.125  1.00  0.00    -0.019 C 
HETATM   11  C19 UNL     1      -2.715   6.147  12.295  1.00  0.00     0.017 C 
HETATM   12  C20 UNL     1       0.854   7.399  10.102  1.00  0.00    -0.008 C 
HETATM   13  C21 UNL     1       0.031   7.522   8.788  1.00  0.00     0.021 C 
HETATM   14  C22 UNL     1       1.908   8.538  10.146  1.00  0.00     0.022 C 
HETATM   15  C23 UNL     1       3.091   8.334   9.234  1.00  0.00     0.080 C 
HETATM   16  C24 UNL     1       3.780   7.076   9.676  1.00  0.00     0.135 C 
HETATM   17  O5  UNL     1       4.943   7.116  10.078  1.00  0.00    -0.297 OA
HETATM   18  C25 UNL     1       2.985   5.776   9.540  1.00  0.00     0.018 C 
HETATM   19  C26 UNL     1       3.795   4.643  10.209  1.00  0.00     0.023 C 
HETATM   20  C27 UNL     1       2.972   5.436   8.027  1.00  0.00     0.023 C 
HETATM   21  C28 UNL     1       1.495   5.922  10.078  1.00  0.00     0.016 C 
HETATM   22  C29 UNL     1       1.139   5.097  11.342  1.00  0.00     0.043 C 
HETATM   23  C30 UNL     1       1.135   5.894  12.634  1.00  0.00     0.149 C 
ENDROOT
BRANCH   1  24
HETATM   24  C6  UNL     1      -4.677   7.427  14.338  1.00  0.00    -0.011 C 
HETATM   25  C7  UNL     1      -5.267   8.762  14.831  1.00  0.00     0.010 C 
BRANCH  24  26
HETATM   26  C5  UNL     1      -5.317   6.244  15.115  1.00  0.00     0.040 C 
BRANCH  26  27
HETATM   27  C4  UNL     1      -6.435   5.455  14.406  1.00  0.00     0.142 C 
BRANCH  27  28
HETATM   28  C3  UNL     1      -7.787   6.095  14.455  1.00  0.00     0.018 C 
HETATM   29  C2  UNL     1      -8.734   6.056  13.495  1.00  0.00     0.010 C 
HETATM   30  C1  UNL     1      -8.628   5.322  12.193  1.00  0.00     0.055 C 
BRANCH  29  31
HETATM   31  C31 UNL     1      -9.996   6.789  13.773  1.00  0.00     0.171 C 
HETATM   32  O7  UNL     1     -10.451   7.078  14.866  1.00  0.00    -0.646 OA
BRANCH  31  33
HETATM   33  O8  UNL     1     -10.646   7.125  12.646  1.00  0.00    -0.773 OA
HETATM   34  H46 UNL     1     -11.442   7.592  12.976  1.00  0.00     0.167 HD
ENDBRANCH  31  33
ENDBRANCH  29  31
ENDBRANCH  27  28
BRANCH  27  35
HETATM   35  O1  UNL     1      -6.114   5.245  13.037  1.00  0.00    -0.392 OA
HETATM   36  H6  UNL     1      -5.320   4.686  13.004  1.00  0.00     0.210 HD
ENDBRANCH  27  35
ENDBRANCH  26  27
ENDBRANCH  24  26
ENDBRANCH   1  24
BRANCH   3  37
HETATM   37  O2  UNL     1      -0.048   6.131  15.784  1.00  0.00    -0.394 OA
HETATM   38  H17 UNL     1      -0.347   5.513  16.476  1.00  0.00     0.210 HD
ENDBRANCH   3  37
BRANCH   4  39
HETATM   39  C12 UNL     1      -0.315   8.618  14.432  1.00  0.00     0.043 C 
BRANCH  39  40
HETATM   40  C13 UNL     1       1.153   9.010  14.277  1.00  0.00     0.165 C 
BRANCH  40  41
HETATM   41  O3  UNL     1       1.204  10.301  13.672  1.00  0.00    -0.401 OA
HETATM   42  H22 UNL     1       2.143  10.530  13.583  1.00  0.00     0.209 HD
ENDBRANCH  40  41
ENDBRANCH  39  40
ENDBRANCH   4  39
BRANCH  23  43
HETATM   43  O6  UNL     1       2.437   6.382  12.889  1.00  0.00    -0.391 OA
HETATM   44  H45 UNL     1       2.467   7.338  12.751  1.00  0.00     0.210 HD
ENDBRANCH  23  43
TORSDOF 12
ENDMDL
MODEL 7
REMARK minimizedAffinity -7.9309268
REMARK CNNscore 0.401159376
REMARK CNNaffinity 6.28089094
REMARK  12 active torsions:
REMARK  status: ('A' for Active; 'I' for Inactive)
REMARK    1  A    between atoms: C2_2  and  C31_37 
REMARK    2  A    between atoms: C3_3  and  C4_4 
REMARK    3  A    between atoms: C4_4  and  O1_5 
REMARK    4  A    between atoms: C4_4  and  C5_6 
REMARK    5  A    between atoms: C5_6  and  C6_7 
REMARK    6  A    between atoms: C6_7  and  C8_9 
REMARK    7  A    between atoms: C10_11  and  O2_12 
REMARK    8  A    between atoms: C11_13  and  C12_14 
REMARK    9  A    between atoms: C12_14  and  C13_15 
REMARK   10  A    between atoms: C13_15  and  O3_16 
REMARK   11  A    between atoms: C30_35  and  O6_36 
REMARK   12  A    between atoms: C31_37  and  O8_39 
ROOT
HETATM    1  C8  UNL     1      -2.293   7.841  15.318  1.00  0.00     0.001 C 
HETATM    2  C9  UNL     1      -3.368   7.300  14.345  1.00  0.00     0.038 C 
HETATM    3  C10 UNL     1      -2.638   6.965  13.024  1.00  0.00     0.132 C 
HETATM    4  C11 UNL     1      -1.123   6.895  13.396  1.00  0.00     0.022 C 
HETATM    5  C14 UNL     1      -0.060   7.165  12.325  1.00  0.00    -0.029 C 
HETATM    6  C15 UNL     1       1.161   7.652  12.666  1.00  0.00     0.002 C 
HETATM    7  C16 UNL     1       1.442   7.860  14.144  1.00  0.00     0.157 C 
HETATM    8  O4  UNL     1       2.592   7.801  14.575  1.00  0.00    -0.293 OA
HETATM    9  C17 UNL     1       0.289   8.141  15.107  1.00  0.00     0.094 C 
HETATM   10  C18 UNL     1      -1.069   8.133  14.394  1.00  0.00    -0.019 C 
HETATM   11  C19 UNL     1      -1.224   9.522  13.698  1.00  0.00     0.017 C 
HETATM   12  C20 UNL     1       2.281   7.927  11.628  1.00  0.00    -0.008 C 
HETATM   13  C21 UNL     1       3.121   9.168  12.047  1.00  0.00     0.021 C 
HETATM   14  C22 UNL     1       3.185   6.667  11.672  1.00  0.00     0.022 C 
HETATM   15  C23 UNL     1       4.160   6.554  10.527  1.00  0.00     0.080 C 
HETATM   16  C24 UNL     1       3.355   6.477   9.264  1.00  0.00     0.135 C 
HETATM   17  O5  UNL     1       3.423   5.478   8.547  1.00  0.00    -0.297 OA
HETATM   18  C25 UNL     1       2.516   7.706   8.910  1.00  0.00     0.018 C 
HETATM   19  C26 UNL     1       1.637   7.356   7.689  1.00  0.00     0.023 C 
HETATM   20  C27 UNL     1       3.517   8.778   8.405  1.00  0.00     0.023 C 
HETATM   21  C28 UNL     1       1.708   8.264  10.161  1.00  0.00     0.016 C 
HETATM   22  C29 UNL     1       0.163   8.152  10.084  1.00  0.00     0.043 C 
HETATM   23  C30 UNL     1      -0.425   6.996  10.873  1.00  0.00     0.149 C 
ENDROOT
BRANCH   1  24
HETATM   24  C6  UNL     1      -2.754   8.930  16.339  1.00  0.00    -0.011 C 
HETATM   25  C7  UNL     1      -3.669   9.928  15.604  1.00  0.00     0.010 C 
BRANCH  24  26
HETATM   26  C5  UNL     1      -1.603   9.690  17.054  1.00  0.00     0.040 C 
BRANCH  26  27
HETATM   27  C4  UNL     1      -1.952  10.439  18.356  1.00  0.00     0.142 C 
BRANCH  27  28
HETATM   28  C3  UNL     1      -2.012  11.929  18.229  1.00  0.00     0.018 C 
HETATM   29  C2  UNL     1      -3.030  12.731  18.606  1.00  0.00     0.010 C 
HETATM   30  C1  UNL     1      -4.296  12.282  19.267  1.00  0.00     0.055 C 
BRANCH  29  31
HETATM   31  C31 UNL     1      -2.858  14.186  18.359  1.00  0.00     0.171 C 
HETATM   32  O7  UNL     1      -1.976  14.905  18.795  1.00  0.00    -0.646 OA
BRANCH  31  33
HETATM   33  O8  UNL     1      -3.825  14.683  17.570  1.00  0.00    -0.773 OA
HETATM   34  H46 UNL     1      -3.588  15.632  17.495  1.00  0.00     0.167 HD
ENDBRANCH  31  33
ENDBRANCH  29  31
ENDBRANCH  27  28
BRANCH  27  35
HETATM   35  O1  UNL     1      -3.206  10.005  18.866  1.00  0.00    -0.392 OA
HETATM   36  H6  UNL     1      -3.118   9.067  19.104  1.00  0.00     0.210 HD
ENDBRANCH  27  35
ENDBRANCH  26  27
ENDBRANCH  24  26
ENDBRANCH   1  24
BRANCH   3  37
HETATM   37  O2  UNL     1      -3.139   5.769  12.458  1.00  0.00    -0.394 OA
HETATM   38  H17 UNL     1      -4.105   5.856  12.376  1.00  0.00     0.210 HD
ENDBRANCH   3  37
BRANCH   4  39
HETATM   39  C12 UNL     1      -0.828   5.508  14.095  1.00  0.00     0.043 C 
BRANCH  39  40
HETATM   40  C13 UNL     1      -0.029   4.476  13.303  1.00  0.00     0.165 C 
BRANCH  40  41
HETATM   41  O3  UNL     1      -0.912   3.854  12.370  1.00  0.00    -0.401 OA
HETATM   42  H22 UNL     1      -0.385   3.203  11.879  1.00  0.00     0.209 HD
ENDBRANCH  40  41
ENDBRANCH  39  40
ENDBRANCH   4  39
BRANCH  23  43
HETATM   43  O6  UNL     1       0.043   5.775  10.337  1.00  0.00    -0.391 OA
HETATM   44  H45 UNL     1       0.672   5.364  10.944  1.00  0.00     0.210 HD
ENDBRANCH  23  43
TORSDOF 12
ENDMDL
MODEL 8
REMARK minimizedAffinity -7.42658138
REMARK CNNscore 0.337907255
REMARK CNNaffinity 5.94235277
REMARK  12 active torsions:
REMARK  status: ('A' for Active; 'I' for Inactive)
REMARK    1  A    between atoms: C2_2  and  C31_37 
REMARK    2  A    between atoms: C3_3  and  C4_4 
REMARK    3  A    between atoms: C4_4  and  O1_5 
REMARK    4  A    between atoms: C4_4  and  C5_6 
REMARK    5  A    between atoms: C5_6  and  C6_7 
REMARK    6  A    between atoms: C6_7  and  C8_9 
REMARK    7  A    between atoms: C10_11  and  O2_12 
REMARK    8  A    between atoms: C11_13  and  C12_14 
REMARK    9  A    between atoms: C12_14  and  C13_15 
REMARK   10  A    between atoms: C13_15  and  O3_16 
REMARK   11  A    between atoms: C30_35  and  O6_36 
REMARK   12  A    between atoms: C31_37  and  O8_39 
ROOT
HETATM    1  C8  UNL     1       6.812   9.208  13.268  1.00  0.00     0.001 C 
HETATM    2  C9  UNL     1       6.890   7.971  14.195  1.00  0.00     0.038 C 
HETATM    3  C10 UNL     1       7.516   8.457  15.523  1.00  0.00     0.132 C 
HETATM    4  C11 UNL     1       7.375  10.012  15.503  1.00  0.00     0.022 C 
HETATM    5  C14 UNL     1       8.349  10.878  16.309  1.00  0.00    -0.029 C 
HETATM    6  C15 UNL     1       8.633  12.148  15.920  1.00  0.00     0.002 C 
HETATM    7  C16 UNL     1       7.907  12.684  14.699  1.00  0.00     0.157 C 
HETATM    8  O4  UNL     1       7.702  13.890  14.573  1.00  0.00    -0.293 OA
HETATM    9  C17 UNL     1       7.420  11.720  13.618  1.00  0.00     0.094 C 
HETATM   10  C18 UNL     1       7.727  10.259  13.970  1.00  0.00    -0.019 C 
HETATM   11  C19 UNL     1       9.226  10.010  13.612  1.00  0.00     0.017 C 
HETATM   12  C20 UNL     1       9.596  13.076  16.706  1.00  0.00    -0.008 C 
HETATM   13  C21 UNL     1      10.383  13.998  15.731  1.00  0.00     0.021 C 
HETATM   14  C22 UNL     1       8.672  13.953  17.593  1.00  0.00     0.022 C 
HETATM   15  C23 UNL     1       9.385  14.713  18.683  1.00  0.00     0.080 C 
HETATM   16  C24 UNL     1      10.030  13.700  19.581  1.00  0.00     0.135 C 
HETATM   17  O5  UNL     1       9.702  13.626  20.766  1.00  0.00    -0.297 OA
HETATM   18  C25 UNL     1      11.129  12.835  18.961  1.00  0.00     0.018 C 
HETATM   19  C26 UNL     1      11.528  11.752  19.988  1.00  0.00     0.023 C 
HETATM   20  C27 UNL     1      12.372  13.753  18.823  1.00  0.00     0.023 C 
HETATM   21  C28 UNL     1      10.713  12.265  17.535  1.00  0.00     0.016 C 
HETATM   22  C29 UNL     1      10.527  10.728  17.440  1.00  0.00     0.043 C 
HETATM   23  C30 UNL     1       9.081  10.265  17.473  1.00  0.00     0.149 C 
ENDROOT
BRANCH   1  24
HETATM   24  C6  UNL     1       6.985   8.950  11.736  1.00  0.00    -0.011 C 
HETATM   25  C7  UNL     1       6.553  10.220  10.979  1.00  0.00     0.010 C 
BRANCH  24  26
HETATM   26  C5  UNL     1       6.218   7.716  11.187  1.00  0.00     0.040 C 
BRANCH  26  27
HETATM   27  C4  UNL     1       4.689   7.687  11.387  1.00  0.00     0.142 C 
BRANCH  27  28
HETATM   28  C3  UNL     1       3.889   8.134  10.203  1.00  0.00     0.018 C 
HETATM   29  C2  UNL     1       3.345   7.346   9.253  1.00  0.00     0.010 C 
HETATM   30  C1  UNL     1       3.404   5.849   9.221  1.00  0.00     0.055 C 
BRANCH  29  31
HETATM   31  C31 UNL     1       2.606   8.031   8.162  1.00  0.00     0.171 C 
HETATM   32  O7  UNL     1       3.013   8.938   7.457  1.00  0.00    -0.646 OA
BRANCH  31  33
HETATM   33  O8  UNL     1       1.362   7.545   8.009  1.00  0.00    -0.773 OA
HETATM   34  H46 UNL     1       1.002   8.081   7.271  1.00  0.00     0.167 HD
ENDBRANCH  31  33
ENDBRANCH  29  31
ENDBRANCH  27  28
BRANCH  27  35
HETATM   35  O1  UNL     1       4.250   6.378  11.727  1.00  0.00    -0.392 OA
HETATM   36  H6  UNL     1       4.644   6.150  12.585  1.00  0.00     0.210 HD
ENDBRANCH  27  35
ENDBRANCH  26  27
ENDBRANCH  24  26
ENDBRANCH   1  24
BRANCH   3  37
HETATM   37  O2  UNL     1       6.887   7.845  16.632  1.00  0.00    -0.394 OA
HETATM   38  H17 UNL     1       6.914   6.880  16.501  1.00  0.00     0.210 HD
ENDBRANCH   3  37
BRANCH   4  39
HETATM   39  C12 UNL     1       5.888  10.398  15.879  1.00  0.00     0.043 C 
BRANCH  39  40
HETATM   40  C13 UNL     1       4.766   9.732  15.087  1.00  0.00     0.165 C 
BRANCH  40  41
HETATM   41  O3  UNL     1       4.028   8.899  15.980  1.00  0.00    -0.401 OA
HETATM   42  H22 UNL     1       3.321   8.487  15.458  1.00  0.00     0.209 HD
ENDBRANCH  40  41
ENDBRANCH  39  40
ENDBRANCH   4  39
BRANCH  23  43
HETATM   43  O6  UNL     1       8.506  10.612  18.717  1.00  0.00    -0.391 OA
HETATM   44  H45 UNL     1       7.869  11.329  18.601  1.00  0.00     0.210 HD
ENDBRANCH  23  43
TORSDOF 12
ENDMDL
MODEL 9
REMARK minimizedAffinity -7.72290087
REMARK CNNscore 0.336273879
REMARK CNNaffinity 6.08882189
REMARK  12 active torsions:
REMARK  status: ('A' for Active; 'I' for Inactive)
REMARK    1  A    between atoms: C2_2  and  C31_37 
REMARK    2  A    between atoms: C3_3  and  C4_4 
REMARK    3  A    between atoms: C4_4  and  O1_5 
REMARK    4  A    between atoms: C4_4  and  C5_6 
REMARK    5  A    between atoms: C5_6  and  C6_7 
REMARK    6  A    between atoms: C6_7  and  C8_9 
REMARK    7  A    between atoms: C10_11  and  O2_12 
REMARK    8  A    between atoms: C11_13  and  C12_14 
REMARK    9  A    between atoms: C12_14  and  C13_15 
REMARK   10  A    between atoms: C13_15  and  O3_16 
REMARK   11  A    between atoms: C30_35  and  O6_36 
REMARK   12  A    between atoms: C31_37  and  O8_39 
ROOT
HETATM    1  C8  UNL     1      -1.243   7.688  13.527  1.00  0.00     0.001 C 
HETATM    2  C9  UNL     1       0.082   7.904  12.757  1.00  0.00     0.038 C 
HETATM    3  C10 UNL     1       0.898   8.937  13.568  1.00  0.00     0.132 C 
HETATM    4  C11 UNL     1       0.245   8.959  14.986  1.00  0.00     0.022 C 
HETATM    5  C14 UNL     1       0.365  10.210  15.863  1.00  0.00    -0.029 C 
HETATM    6  C15 UNL     1      -0.583  10.499  16.792  1.00  0.00     0.002 C 
HETATM    7  C16 UNL     1      -1.721   9.508  16.961  1.00  0.00     0.157 C 
HETATM    8  O4  UNL     1      -2.303   9.403  18.039  1.00  0.00    -0.293 OA
HETATM    9  C17 UNL     1      -2.148   8.630  15.785  1.00  0.00     0.094 C 
HETATM   10  C18 UNL     1      -1.281   8.872  14.543  1.00  0.00    -0.019 C 
HETATM   11  C19 UNL     1      -1.821  10.167  13.858  1.00  0.00     0.017 C 
HETATM   12  C20 UNL     1      -0.506  11.740  17.719  1.00  0.00    -0.008 C 
HETATM   13  C21 UNL     1      -1.929  12.301  18.001  1.00  0.00     0.021 C 
HETATM   14  C22 UNL     1       0.101  11.212  19.047  1.00  0.00     0.022 C 
HETATM   15  C23 UNL     1       0.571  12.286  19.994  1.00  0.00     0.080 C 
HETATM   16  C24 UNL     1       1.649  13.057  19.291  1.00  0.00     0.135 C 
HETATM   17  O5  UNL     1       2.791  13.083  19.750  1.00  0.00    -0.297 OA
HETATM   18  C25 UNL     1       1.233  13.830  18.038  1.00  0.00     0.018 C 
HETATM   19  C26 UNL     1       2.508  14.397  17.375  1.00  0.00     0.023 C 
HETATM   20  C27 UNL     1       0.443  15.068  18.540  1.00  0.00     0.023 C 
HETATM   21  C28 UNL     1       0.321  12.960  17.068  1.00  0.00     0.016 C 
HETATM   22  C29 UNL     1       0.937  12.596  15.692  1.00  0.00     0.043 C 
HETATM   23  C30 UNL     1       1.485  11.182  15.602  1.00  0.00     0.149 C 
ENDROOT
BRANCH   1  24
HETATM   24  C6  UNL     1      -2.512   7.379  12.670  1.00  0.00    -0.011 C 
HETATM   25  C7  UNL     1      -3.561   8.474  12.944  1.00  0.00     0.010 C 
BRANCH  24  26
HETATM   26  C5  UNL     1      -3.136   5.976  12.900  1.00  0.00     0.040 C 
BRANCH  26  27
HETATM   27  C4  UNL     1      -2.298   4.752  12.479  1.00  0.00     0.142 C 
BRANCH  27  28
HETATM   28  C3  UNL     1      -3.090   3.595  11.954  1.00  0.00     0.018 C 
HETATM   29  C2  UNL     1      -4.399   3.350  12.171  1.00  0.00     0.010 C 
HETATM   30  C1  UNL     1      -5.332   4.219  12.957  1.00  0.00     0.055 C 
BRANCH  29  31
HETATM   31  C31 UNL     1      -4.958   2.120  11.553  1.00  0.00     0.171 C 
HETATM   32  O7  UNL     1      -6.115   1.924  11.226  1.00  0.00    -0.646 OA
BRANCH  31  33
HETATM   33  O8  UNL     1      -4.022   1.171  11.378  1.00  0.00    -0.773 OA
HETATM   34  H46 UNL     1      -4.524   0.433  10.971  1.00  0.00     0.167 HD
ENDBRANCH  31  33
ENDBRANCH  29  31
ENDBRANCH  27  28
BRANCH  27  35
HETATM   35  O1  UNL     1      -1.353   5.108  11.477  1.00  0.00    -0.392 OA
HETATM   36  H6  UNL     1      -0.733   5.743  11.872  1.00  0.00     0.210 HD
ENDBRANCH  27  35
ENDBRANCH  26  27
ENDBRANCH  24  26
ENDBRANCH   1  24
BRANCH   3  37
HETATM   37  O2  UNL     1       2.271   8.598  13.581  1.00  0.00    -0.394 OA
HETATM   38  H17 UNL     1       2.564   8.485  12.658  1.00  0.00     0.210 HD
ENDBRANCH   3  37
BRANCH   4  39
HETATM   39  C12 UNL     1       0.739   7.695  15.799  1.00  0.00     0.043 C 
BRANCH  39  40
HETATM   40  C13 UNL     1       2.171   7.713  16.328  1.00  0.00     0.165 C 
BRANCH  40  41
HETATM   41  O3  UNL     1       2.867   6.605  15.760  1.00  0.00    -0.401 OA
HETATM   42  H22 UNL     1       3.772   6.636  16.108  1.00  0.00     0.209 HD
ENDBRANCH  40  41
ENDBRANCH  39  40
ENDBRANCH   4  39
BRANCH  23  43
HETATM   43  O6  UNL     1       2.553  11.034  16.516  1.00  0.00    -0.391 OA
HETATM   44  H45 UNL     1       2.285  10.469  17.252  1.00  0.00     0.210 HD
ENDBRANCH  23  43
TORSDOF 12
ENDMDL
