MODEL 1
REMARK minimizedAffinity -6.69846869
REMARK CNNscore 0.591314852
REMARK CNNaffinity 6.12248564
REMARK  12 active torsions:
REMARK  status: ('A' for Active; 'I' for Inactive)
REMARK    1  A    between atoms: C4_4  and  C5_5 
REMARK    2  A    between atoms: C5_5  and  C6_6 
REMARK    3  A    between atoms: C6_6  and  C7_7 
REMARK    4  A    between atoms: C9_9  and  C10_10 
REMARK    5  A    between atoms: C11_11  and  C12_12 
REMARK    6  A    between atoms: C14_14  and  C15_15 
REMARK    7  A    between atoms: C19_20  and  C20_21 
REMARK    8  A    between atoms: C20_21  and  C21_22 
REMARK    9  A    between atoms: C21_22  and  C22_23 
REMARK   10  A    between atoms: C22_23  and  O2_24 
REMARK   11  A    between atoms: C24_26  and  C26_28 
REMARK   12  A    between atoms: C29_32  and  O4_34 
ROOT
HETATM    1  C15 UNL     1     -10.435  45.748 -29.055  1.00  0.00     0.145 C 
HETATM    2  C16 UNL     1     -10.097  47.098 -29.691  1.00  0.00     0.051 C 
HETATM    3  C17 UNL     1      -8.625  46.988 -30.124  1.00  0.00     0.022 C 
HETATM    4  C18 UNL     1      -8.135  46.018 -29.037  1.00  0.00     0.181 C 
HETATM    5  O1  UNL     1      -9.186  45.061 -28.851  1.00  0.00    -0.381 OA
HETATM    6  C19 UNL     1      -8.432  46.388 -31.579  1.00  0.00     0.029 C 
HETATM    7  C23 UNL     1      -6.919  46.238 -31.862  1.00  0.00    -0.066 C 
HETATM    8  C24 UNL     1      -6.161  45.119 -31.997  1.00  0.00    -0.021 C 
HETATM    9  C25 UNL     1      -4.714  45.128 -32.427  1.00  0.00     0.052 C 
HETATM   10  C27 UNL     1      -6.275  47.619 -31.901  1.00  0.00     0.038 C 
HETATM   11  C28 UNL     1      -6.424  48.276 -30.528  1.00  0.00     0.042 C 
HETATM   12  C29 UNL     1      -7.888  48.380 -30.049  1.00  0.00     0.065 C 
HETATM   13  C30 UNL     1      -8.619  49.493 -30.830  1.00  0.00     0.047 C 
ENDROOT
BRANCH   6  14
HETATM   14  C20 UNL     1      -9.392  45.254 -32.022  1.00  0.00     0.012 C 
BRANCH  14  15
HETATM   15  C21 UNL     1     -10.409  45.617 -33.121  1.00  0.00     0.027 C 
BRANCH  15  16
HETATM   16  C22 UNL     1     -11.127  44.431 -33.758  1.00  0.00     0.164 C 
BRANCH  16  17
HETATM   17  O2  UNL     1     -12.449  44.797 -34.123  1.00  0.00    -0.401 OA
HETATM   18  H34 UNL     1     -12.912  43.978 -34.374  1.00  0.00     0.209 HD
ENDBRANCH  16  17
ENDBRANCH  15  16
ENDBRANCH  14  15
ENDBRANCH   6  14
BRANCH  12  19
HETATM   19  O4  UNL     1      -7.851  48.820 -28.682  1.00  0.00    -0.389 OA
HETATM   20  H46 UNL     1      -7.460  49.712 -28.651  1.00  0.00     0.210 HD
ENDBRANCH  12  19
BRANCH   1  21
HETATM   21  C14 UNL     1     -11.124  45.875 -27.725  1.00  0.00     0.011 C 
HETATM   22  C12 UNL     1     -12.449  46.001 -27.498  1.00  0.00    -0.063 C 
HETATM   23  C13 UNL     1     -13.476  46.067 -28.600  1.00  0.00     0.048 C 
BRANCH  22  24
HETATM   24  C11 UNL     1     -12.916  46.100 -26.114  1.00  0.00     0.006 C 
HETATM   25  C10 UNL     1     -13.959  46.822 -25.671  1.00  0.00     0.001 C 
BRANCH  25  26
HETATM   26  C9  UNL     1     -14.335  46.864 -24.272  1.00  0.00     0.002 C 
HETATM   27  C7  UNL     1     -15.583  46.916 -23.763  1.00  0.00    -0.084 C 
HETATM   28  C8  UNL     1     -16.860  46.904 -24.561  1.00  0.00     0.043 C 
BRANCH  27  29
HETATM   29  C6  UNL     1     -15.776  46.975 -22.256  1.00  0.00     0.037 C 
BRANCH  29  30
HETATM   30  C5  UNL     1     -14.455  47.185 -21.509  1.00  0.00     0.031 C 
BRANCH  30  31
HETATM   31  C4  UNL     1     -14.615  48.149 -20.364  1.00  0.00    -0.024 C 
HETATM   32  C2  UNL     1     -15.120  47.888 -19.142  1.00  0.00    -0.091 C 
HETATM   33  C1  UNL     1     -15.175  48.961 -18.086  1.00  0.00     0.042 C 
HETATM   34  C3  UNL     1     -15.679  46.561 -18.707  1.00  0.00     0.042 C 
ENDBRANCH  30  31
ENDBRANCH  29  30
ENDBRANCH  27  29
ENDBRANCH  25  26
ENDBRANCH  22  24
ENDBRANCH   1  21
BRANCH   8  35
HETATM   35  C26 UNL     1      -6.658  43.751 -31.662  1.00  0.00     0.265 C 
HETATM   36  O3  UNL     1      -6.190  42.731 -32.155  1.00  0.00    -0.302 OA
ENDBRANCH   8  35
TORSDOF 12
ENDMDL
MODEL 2
REMARK minimizedAffinity -6.97900867
REMARK CNNscore 0.54335624
REMARK CNNaffinity 6.04048967
REMARK  12 active torsions:
REMARK  status: ('A' for Active; 'I' for Inactive)
REMARK    1  A    between atoms: C4_4  and  C5_5 
REMARK    2  A    between atoms: C5_5  and  C6_6 
REMARK    3  A    between atoms: C6_6  and  C7_7 
REMARK    4  A    between atoms: C9_9  and  C10_10 
REMARK    5  A    between atoms: C11_11  and  C12_12 
REMARK    6  A    between atoms: C14_14  and  C15_15 
REMARK    7  A    between atoms: C19_20  and  C20_21 
REMARK    8  A    between atoms: C20_21  and  C21_22 
REMARK    9  A    between atoms: C21_22  and  C22_23 
REMARK   10  A    between atoms: C22_23  and  O2_24 
REMARK   11  A    between atoms: C24_26  and  C26_28 
REMARK   12  A    between atoms: C29_32  and  O4_34 
ROOT
HETATM    1  C15 UNL     1      -5.853  48.571 -23.701  1.00  0.00     0.145 C 
HETATM    2  C16 UNL     1      -4.807  48.300 -24.786  1.00  0.00     0.051 C 
HETATM    3  C17 UNL     1      -3.790  49.447 -24.666  1.00  0.00     0.022 C 
HETATM    4  C18 UNL     1      -4.736  50.548 -24.161  1.00  0.00     0.181 C 
HETATM    5  O1  UNL     1      -5.627  49.915 -23.234  1.00  0.00    -0.381 OA
HETATM    6  C19 UNL     1      -2.621  49.158 -23.634  1.00  0.00     0.029 C 
HETATM    7  C23 UNL     1      -1.722  50.412 -23.531  1.00  0.00    -0.066 C 
HETATM    8  C24 UNL     1      -1.547  51.281 -22.502  1.00  0.00    -0.021 C 
HETATM    9  C25 UNL     1      -0.512  52.380 -22.493  1.00  0.00     0.052 C 
HETATM   10  C27 UNL     1      -1.033  50.649 -24.871  1.00  0.00     0.038 C 
HETATM   11  C28 UNL     1      -2.097  50.931 -25.933  1.00  0.00     0.042 C 
HETATM   12  C29 UNL     1      -3.153  49.812 -26.063  1.00  0.00     0.065 C 
HETATM   13  C30 UNL     1      -2.539  48.592 -26.782  1.00  0.00     0.047 C 
ENDROOT
BRANCH   6  14
HETATM   14  C20 UNL     1      -2.982  48.387 -22.339  1.00  0.00     0.012 C 
BRANCH  14  15
HETATM   15  C21 UNL     1      -1.855  47.541 -21.716  1.00  0.00     0.027 C 
BRANCH  15  16
HETATM   16  C22 UNL     1      -1.708  47.667 -20.203  1.00  0.00     0.164 C 
BRANCH  16  17
HETATM   17  O2  UNL     1      -2.734  46.934 -19.548  1.00  0.00    -0.401 OA
HETATM   18  H34 UNL     1      -2.695  47.172 -18.605  1.00  0.00     0.209 HD
ENDBRANCH  16  17
ENDBRANCH  15  16
ENDBRANCH  14  15
ENDBRANCH   6  14
BRANCH  12  19
HETATM   19  O4  UNL     1      -4.181  50.304 -26.935  1.00  0.00    -0.389 OA
HETATM   20  H46 UNL     1      -3.796  50.459 -27.816  1.00  0.00     0.210 HD
ENDBRANCH  12  19
BRANCH   1  21
HETATM   21  C14 UNL     1      -7.266  48.480 -24.205  1.00  0.00     0.011 C 
HETATM   22  C12 UNL     1      -8.096  47.418 -24.126  1.00  0.00    -0.063 C 
HETATM   23  C13 UNL     1      -7.696  46.096 -23.521  1.00  0.00     0.048 C 
BRANCH  22  24
HETATM   24  C11 UNL     1      -9.448  47.544 -24.673  1.00  0.00     0.006 C 
HETATM   25  C10 UNL     1     -10.535  46.852 -24.290  1.00  0.00     0.001 C 
BRANCH  25  26
HETATM   26  C9  UNL     1     -11.833  47.042 -24.906  1.00  0.00     0.002 C 
HETATM   27  C7  UNL     1     -13.038  46.739 -24.381  1.00  0.00    -0.084 C 
HETATM   28  C8  UNL     1     -13.282  46.166 -23.010  1.00  0.00     0.043 C 
BRANCH  27  29
HETATM   29  C6  UNL     1     -14.295  46.996 -25.194  1.00  0.00     0.037 C 
BRANCH  29  30
HETATM   30  C5  UNL     1     -15.540  47.137 -24.312  1.00  0.00     0.031 C 
BRANCH  30  31
HETATM   31  C4  UNL     1     -16.768  46.599 -24.997  1.00  0.00    -0.024 C 
HETATM   32  C2  UNL     1     -17.964  46.331 -24.436  1.00  0.00    -0.091 C 
HETATM   33  C1  UNL     1     -19.112  45.832 -25.274  1.00  0.00     0.042 C 
HETATM   34  C3  UNL     1     -18.281  46.477 -22.973  1.00  0.00     0.042 C 
ENDBRANCH  30  31
ENDBRANCH  29  30
ENDBRANCH  27  29
ENDBRANCH  25  26
ENDBRANCH  22  24
ENDBRANCH   1  21
BRANCH   8  35
HETATM   35  C26 UNL     1      -2.415  51.291 -21.286  1.00  0.00     0.265 C 
HETATM   36  O3  UNL     1      -1.970  51.212 -20.148  1.00  0.00    -0.302 OA
ENDBRANCH   8  35
TORSDOF 12
ENDMDL
MODEL 3
REMARK minimizedAffinity -7.20629025
REMARK CNNscore 0.518377423
REMARK CNNaffinity 6.10147619
REMARK  12 active torsions:
REMARK  status: ('A' for Active; 'I' for Inactive)
REMARK    1  A    between atoms: C4_4  and  C5_5 
REMARK    2  A    between atoms: C5_5  and  C6_6 
REMARK    3  A    between atoms: C6_6  and  C7_7 
REMARK    4  A    between atoms: C9_9  and  C10_10 
REMARK    5  A    between atoms: C11_11  and  C12_12 
REMARK    6  A    between atoms: C14_14  and  C15_15 
REMARK    7  A    between atoms: C19_20  and  C20_21 
REMARK    8  A    between atoms: C20_21  and  C21_22 
REMARK    9  A    between atoms: C21_22  and  C22_23 
REMARK   10  A    between atoms: C22_23  and  O2_24 
REMARK   11  A    between atoms: C24_26  and  C26_28 
REMARK   12  A    between atoms: C29_32  and  O4_34 
ROOT
HETATM    1  C15 UNL     1     -11.630  46.671 -29.442  1.00  0.00     0.145 C 
HETATM    2  C16 UNL     1     -10.955  47.942 -29.963  1.00  0.00     0.051 C 
HETATM    3  C17 UNL     1      -9.497  47.542 -30.247  1.00  0.00     0.022 C 
HETATM    4  C18 UNL     1      -9.340  46.456 -29.170  1.00  0.00     0.181 C 
HETATM    5  O1  UNL     1     -10.577  45.733 -29.148  1.00  0.00    -0.381 OA
HETATM    6  C19 UNL     1      -9.266  46.963 -31.705  1.00  0.00     0.029 C 
HETATM    7  C23 UNL     1      -7.793  46.512 -31.836  1.00  0.00    -0.066 C 
HETATM    8  C24 UNL     1      -7.267  45.265 -31.953  1.00  0.00    -0.021 C 
HETATM    9  C25 UNL     1      -5.810  44.986 -32.230  1.00  0.00     0.052 C 
HETATM   10  C27 UNL     1      -6.881  47.729 -31.732  1.00  0.00     0.038 C 
HETATM   11  C28 UNL     1      -7.049  48.358 -30.347  1.00  0.00     0.042 C 
HETATM   12  C29 UNL     1      -8.506  48.748 -30.018  1.00  0.00     0.065 C 
HETATM   13  C30 UNL     1      -8.903  50.013 -30.808  1.00  0.00     0.047 C 
ENDROOT
BRANCH   6  14
HETATM   14  C20 UNL     1     -10.380  46.069 -32.307  1.00  0.00     0.012 C 
BRANCH  14  15
HETATM   15  C21 UNL     1     -10.357  45.895 -33.838  1.00  0.00     0.027 C 
BRANCH  15  16
HETATM   16  C22 UNL     1     -11.727  45.809 -34.502  1.00  0.00     0.164 C 
BRANCH  16  17
HETATM   17  O2  UNL     1     -12.414  44.647 -34.061  1.00  0.00    -0.401 OA
HETATM   18  H34 UNL     1     -13.203  44.552 -34.624  1.00  0.00     0.209 HD
ENDBRANCH  16  17
ENDBRANCH  15  16
ENDBRANCH  14  15
ENDBRANCH   6  14
BRANCH  12  19
HETATM   19  O4  UNL     1      -8.536  49.125 -28.633  1.00  0.00    -0.389 OA
HETATM   20  H46 UNL     1      -7.978  49.915 -28.512  1.00  0.00     0.210 HD
ENDBRANCH  12  19
BRANCH   1  21
HETATM   21  C14 UNL     1     -12.425  46.895 -28.186  1.00  0.00     0.011 C 
HETATM   22  C12 UNL     1     -13.629  46.369 -27.875  1.00  0.00    -0.063 C 
HETATM   23  C13 UNL     1     -14.402  45.464 -28.799  1.00  0.00     0.048 C 
BRANCH  22  24
HETATM   24  C11 UNL     1     -14.228  46.710 -26.583  1.00  0.00     0.006 C 
HETATM   25  C10 UNL     1     -15.044  45.933 -25.850  1.00  0.00     0.001 C 
BRANCH  25  26
HETATM   26  C9  UNL     1     -15.598  46.368 -24.583  1.00  0.00     0.002 C 
HETATM   27  C7  UNL     1     -16.691  45.883 -23.960  1.00  0.00    -0.084 C 
HETATM   28  C8  UNL     1     -17.551  44.746 -24.448  1.00  0.00     0.043 C 
BRANCH  27  29
HETATM   29  C6  UNL     1     -17.130  46.487 -22.637  1.00  0.00     0.037 C 
BRANCH  29  30
HETATM   30  C5  UNL     1     -18.638  46.344 -22.403  1.00  0.00     0.031 C 
BRANCH  30  31
HETATM   31  C4  UNL     1     -18.931  45.612 -21.121  1.00  0.00    -0.024 C 
HETATM   32  C2  UNL     1     -19.127  46.149 -19.901  1.00  0.00    -0.091 C 
HETATM   33  C1  UNL     1     -19.454  45.276 -18.717  1.00  0.00     0.042 C 
HETATM   34  C3  UNL     1     -19.033  47.616 -19.581  1.00  0.00     0.042 C 
ENDBRANCH  30  31
ENDBRANCH  29  30
ENDBRANCH  27  29
ENDBRANCH  25  26
ENDBRANCH  22  24
ENDBRANCH   1  21
BRANCH   8  35
HETATM   35  C26 UNL     1      -8.067  44.019 -31.749  1.00  0.00     0.265 C 
HETATM   36  O3  UNL     1      -7.606  42.896 -31.915  1.00  0.00    -0.302 OA
ENDBRANCH   8  35
TORSDOF 12
ENDMDL
MODEL 4
REMARK minimizedAffinity -7.2109375
REMARK CNNscore 0.458079189
REMARK CNNaffinity 6.06320572
REMARK  12 active torsions:
REMARK  status: ('A' for Active; 'I' for Inactive)
REMARK    1  A    between atoms: C4_4  and  C5_5 
REMARK    2  A    between atoms: C5_5  and  C6_6 
REMARK    3  A    between atoms: C6_6  and  C7_7 
REMARK    4  A    between atoms: C9_9  and  C10_10 
REMARK    5  A    between atoms: C11_11  and  C12_12 
REMARK    6  A    between atoms: C14_14  and  C15_15 
REMARK    7  A    between atoms: C19_20  and  C20_21 
REMARK    8  A    between atoms: C20_21  and  C21_22 
REMARK    9  A    between atoms: C21_22  and  C22_23 
REMARK   10  A    between atoms: C22_23  and  O2_24 
REMARK   11  A    between atoms: C24_26  and  C26_28 
REMARK   12  A    between atoms: C29_32  and  O4_34 
ROOT
HETATM    1  C15 UNL     1      -7.833  46.795 -28.149  1.00  0.00     0.145 C 
HETATM    2  C16 UNL     1      -7.872  46.558 -29.661  1.00  0.00     0.051 C 
HETATM    3  C17 UNL     1      -8.335  45.101 -29.833  1.00  0.00     0.022 C 
HETATM    4  C18 UNL     1      -7.742  44.514 -28.542  1.00  0.00     0.181 C 
HETATM    5  O1  UNL     1      -7.943  45.503 -27.524  1.00  0.00    -0.381 OA
HETATM    6  C19 UNL     1      -9.912  44.935 -29.885  1.00  0.00     0.029 C 
HETATM    7  C23 UNL     1     -10.254  43.428 -29.962  1.00  0.00    -0.066 C 
HETATM    8  C24 UNL     1     -10.841  42.617 -29.045  1.00  0.00    -0.021 C 
HETATM    9  C25 UNL     1     -11.254  41.191 -29.322  1.00  0.00     0.052 C 
HETATM   10  C27 UNL     1      -9.741  42.862 -31.281  1.00  0.00     0.038 C 
HETATM   11  C28 UNL     1      -8.217  42.992 -31.317  1.00  0.00     0.042 C 
HETATM   12  C29 UNL     1      -7.714  44.438 -31.122  1.00  0.00     0.065 C 
HETATM   13  C30 UNL     1      -7.967  45.260 -32.404  1.00  0.00     0.047 C 
ENDROOT
BRANCH   6  14
HETATM   14  C20 UNL     1     -10.761  45.849 -28.964  1.00  0.00     0.012 C 
BRANCH  14  15
HETATM   15  C21 UNL     1     -12.009  46.485 -29.605  1.00  0.00     0.027 C 
BRANCH  15  16
HETATM   16  C22 UNL     1     -13.325  46.195 -28.890  1.00  0.00     0.164 C 
BRANCH  16  17
HETATM   17  O2  UNL     1     -13.100  46.018 -27.499  1.00  0.00    -0.401 OA
HETATM   18  H34 UNL     1     -13.930  45.682 -27.117  1.00  0.00     0.209 HD
ENDBRANCH  16  17
ENDBRANCH  15  16
ENDBRANCH  14  15
ENDBRANCH   6  14
BRANCH  12  19
HETATM   19  O4  UNL     1      -6.288  44.370 -30.975  1.00  0.00    -0.389 OA
HETATM   20  H46 UNL     1      -5.904  44.027 -31.802  1.00  0.00     0.210 HD
ENDBRANCH  12  19
BRANCH   1  21
HETATM   21  C14 UNL     1      -6.555  47.435 -27.684  1.00  0.00     0.011 C 
HETATM   22  C12 UNL     1      -5.511  47.827 -28.445  1.00  0.00    -0.063 C 
HETATM   23  C13 UNL     1      -5.460  47.643 -29.941  1.00  0.00     0.048 C 
BRANCH  22  24
HETATM   24  C11 UNL     1      -4.358  48.445 -27.788  1.00  0.00     0.006 C 
HETATM   25  C10 UNL     1      -4.011  48.319 -26.496  1.00  0.00     0.001 C 
BRANCH  25  26
HETATM   26  C9  UNL     1      -2.852  48.984 -25.935  1.00  0.00     0.002 C 
HETATM   27  C7  UNL     1      -2.841  49.947 -24.990  1.00  0.00    -0.084 C 
HETATM   28  C8  UNL     1      -4.051  50.509 -24.291  1.00  0.00     0.043 C 
BRANCH  27  29
HETATM   29  C6  UNL     1      -1.516  50.541 -24.542  1.00  0.00     0.037 C 
BRANCH  29  30
HETATM   30  C5  UNL     1      -0.997  51.606 -25.514  1.00  0.00     0.031 C 
BRANCH  30  31
HETATM   31  C4  UNL     1       0.490  51.490 -25.719  1.00  0.00    -0.024 C 
HETATM   32  C2  UNL     1       1.166  51.611 -26.879  1.00  0.00    -0.091 C 
HETATM   33  C1  UNL     1       2.668  51.508 -26.909  1.00  0.00     0.042 C 
HETATM   34  C3  UNL     1       0.533  51.838 -28.225  1.00  0.00     0.042 C 
ENDBRANCH  30  31
ENDBRANCH  29  30
ENDBRANCH  27  29
ENDBRANCH  25  26
ENDBRANCH  22  24
ENDBRANCH   1  21
BRANCH   8  35
HETATM   35  C26 UNL     1     -11.082  43.025 -27.628  1.00  0.00     0.265 C 
HETATM   36  O3  UNL     1     -12.197  43.270 -27.184  1.00  0.00    -0.302 OA
ENDBRANCH   8  35
TORSDOF 12
ENDMDL
MODEL 5
REMARK minimizedAffinity -6.89926386
REMARK CNNscore 0.44016847
REMARK CNNaffinity 6.19623518
REMARK  12 active torsions:
REMARK  status: ('A' for Active; 'I' for Inactive)
REMARK    1  A    between atoms: C4_4  and  C5_5 
REMARK    2  A    between atoms: C5_5  and  C6_6 
REMARK    3  A    between atoms: C6_6  and  C7_7 
REMARK    4  A    between atoms: C9_9  and  C10_10 
REMARK    5  A    between atoms: C11_11  and  C12_12 
REMARK    6  A    between atoms: C14_14  and  C15_15 
REMARK    7  A    between atoms: C19_20  and  C20_21 
REMARK    8  A    between atoms: C20_21  and  C21_22 
REMARK    9  A    between atoms: C21_22  and  C22_23 
REMARK   10  A    between atoms: C22_23  and  O2_24 
REMARK   11  A    between atoms: C24_26  and  C26_28 
REMARK   12  A    between atoms: C29_32  and  O4_34 
ROOT
HETATM    1  C15 UNL     1      -7.954  47.274 -26.697  1.00  0.00     0.145 C 
HETATM    2  C16 UNL     1      -8.232  48.048 -27.988  1.00  0.00     0.051 C 
HETATM    3  C17 UNL     1      -8.575  46.978 -29.038  1.00  0.00     0.022 C 
HETATM    4  C18 UNL     1      -7.713  45.829 -28.491  1.00  0.00     0.181 C 
HETATM    5  O1  UNL     1      -7.829  45.887 -27.064  1.00  0.00    -0.381 OA
HETATM    6  C19 UNL     1     -10.113  46.592 -29.078  1.00  0.00     0.029 C 
HETATM    7  C23 UNL     1     -10.315  45.448 -30.099  1.00  0.00    -0.066 C 
HETATM    8  C24 UNL     1     -10.654  44.148 -29.900  1.00  0.00    -0.021 C 
HETATM    9  C25 UNL     1     -10.968  43.179 -31.013  1.00  0.00     0.052 C 
HETATM   10  C27 UNL     1      -9.987  45.957 -31.498  1.00  0.00     0.038 C 
HETATM   11  C28 UNL     1      -8.512  46.361 -31.545  1.00  0.00     0.042 C 
HETATM   12  C29 UNL     1      -8.126  47.415 -30.486  1.00  0.00     0.065 C 
HETATM   13  C30 UNL     1      -8.675  48.798 -30.896  1.00  0.00     0.047 C 
ENDROOT
BRANCH   6  14
HETATM   14  C20 UNL     1     -10.874  46.535 -27.729  1.00  0.00     0.012 C 
BRANCH  14  15
HETATM   15  C21 UNL     1     -12.404  46.694 -27.805  1.00  0.00     0.027 C 
BRANCH  15  16
HETATM   16  C22 UNL     1     -12.918  48.121 -27.642  1.00  0.00     0.164 C 
BRANCH  16  17
HETATM   17  O2  UNL     1     -12.005  48.886 -26.868  1.00  0.00    -0.401 OA
HETATM   18  H34 UNL     1     -12.446  49.728 -26.659  1.00  0.00     0.209 HD
ENDBRANCH  16  17
ENDBRANCH  15  16
ENDBRANCH  14  15
ENDBRANCH   6  14
BRANCH  12  19
HETATM   19  O4  UNL     1      -6.696  47.537 -30.518  1.00  0.00    -0.389 OA
HETATM   20  H46 UNL     1      -6.430  47.877 -31.391  1.00  0.00     0.210 HD
ENDBRANCH  12  19
BRANCH   1  21
HETATM   21  C14 UNL     1      -6.683  47.696 -26.015  1.00  0.00     0.011 C 
HETATM   22  C12 UNL     1      -6.414  47.666 -24.692  1.00  0.00    -0.063 C 
HETATM   23  C13 UNL     1      -7.409  47.213 -23.654  1.00  0.00     0.048 C 
BRANCH  22  24
HETATM   24  C11 UNL     1      -5.099  48.116 -24.235  1.00  0.00     0.006 C 
HETATM   25  C10 UNL     1      -4.851  49.069 -23.320  1.00  0.00     0.001 C 
BRANCH  25  26
HETATM   26  C9  UNL     1      -3.506  49.452 -22.943  1.00  0.00     0.002 C 
HETATM   27  C7  UNL     1      -2.666  48.786 -22.125  1.00  0.00    -0.084 C 
HETATM   28  C8  UNL     1      -2.950  47.467 -21.455  1.00  0.00     0.043 C 
BRANCH  27  29
HETATM   29  C6  UNL     1      -1.290  49.362 -21.832  1.00  0.00     0.037 C 
BRANCH  29  30
HETATM   30  C5  UNL     1      -1.103  50.756 -22.441  1.00  0.00     0.031 C 
BRANCH  30  31
HETATM   31  C4  UNL     1      -0.415  51.690 -21.481  1.00  0.00    -0.024 C 
HETATM   32  C2  UNL     1       0.350  52.757 -21.788  1.00  0.00    -0.091 C 
HETATM   33  C1  UNL     1       0.937  53.621 -20.703  1.00  0.00     0.042 C 
HETATM   34  C3  UNL     1       0.707  53.188 -23.185  1.00  0.00     0.042 C 
ENDBRANCH  30  31
ENDBRANCH  29  30
ENDBRANCH  27  29
ENDBRANCH  25  26
ENDBRANCH  22  24
ENDBRANCH   1  21
BRANCH   8  35
HETATM   35  C26 UNL     1     -10.683  43.509 -28.549  1.00  0.00     0.265 C 
HETATM   36  O3  UNL     1      -9.703  42.978 -28.041  1.00  0.00    -0.302 OA
ENDBRANCH   8  35
TORSDOF 12
ENDMDL
MODEL 6
REMARK minimizedAffinity -6.58743954
REMARK CNNscore 0.388845265
REMARK CNNaffinity 6.50021124
REMARK  12 active torsions:
REMARK  status: ('A' for Active; 'I' for Inactive)
REMARK    1  A    between atoms: C4_4  and  C5_5 
REMARK    2  A    between atoms: C5_5  and  C6_6 
REMARK    3  A    between atoms: C6_6  and  C7_7 
REMARK    4  A    between atoms: C9_9  and  C10_10 
REMARK    5  A    between atoms: C11_11  and  C12_12 
REMARK    6  A    between atoms: C14_14  and  C15_15 
REMARK    7  A    between atoms: C19_20  and  C20_21 
REMARK    8  A    between atoms: C20_21  and  C21_22 
REMARK    9  A    between atoms: C21_22  and  C22_23 
REMARK   10  A    between atoms: C22_23  and  O2_24 
REMARK   11  A    between atoms: C24_26  and  C26_28 
REMARK   12  A    between atoms: C29_32  and  O4_34 
ROOT
HETATM    1  C15 UNL     1      -0.290  52.720 -12.189  1.00  0.00     0.145 C 
HETATM    2  C16 UNL     1       0.155  52.362 -13.609  1.00  0.00     0.051 C 
HETATM    3  C17 UNL     1      -0.275  50.899 -13.813  1.00  0.00     0.022 C 
HETATM    4  C18 UNL     1      -0.152  50.414 -12.360  1.00  0.00     0.181 C 
HETATM    5  O1  UNL     1      -0.639  51.483 -11.539  1.00  0.00    -0.381 OA
HETATM    6  C19 UNL     1      -1.754  50.740 -14.363  1.00  0.00     0.029 C 
HETATM    7  C23 UNL     1      -2.102  49.235 -14.436  1.00  0.00    -0.066 C 
HETATM    8  C24 UNL     1      -2.981  48.504 -13.704  1.00  0.00    -0.021 C 
HETATM    9  C25 UNL     1      -3.328  47.064 -13.994  1.00  0.00     0.052 C 
HETATM   10  C27 UNL     1      -1.208  48.561 -15.471  1.00  0.00     0.038 C 
HETATM   11  C28 UNL     1       0.249  48.677 -15.019  1.00  0.00     0.042 C 
HETATM   12  C29 UNL     1       0.708  50.130 -14.778  1.00  0.00     0.065 C 
HETATM   13  C30 UNL     1       0.911  50.848 -16.129  1.00  0.00     0.047 C 
ENDROOT
BRANCH   6  14
HETATM   14  C20 UNL     1      -2.825  51.731 -13.840  1.00  0.00     0.012 C 
BRANCH  14  15
HETATM   15  C21 UNL     1      -3.242  51.565 -12.367  1.00  0.00     0.027 C 
BRANCH  15  16
HETATM   16  C22 UNL     1      -4.011  52.740 -11.772  1.00  0.00     0.164 C 
BRANCH  16  17
HETATM   17  O2  UNL     1      -4.152  53.773 -12.737  1.00  0.00    -0.401 OA
HETATM   18  H34 UNL     1      -4.502  54.552 -12.270  1.00  0.00     0.209 HD
ENDBRANCH  16  17
ENDBRANCH  15  16
ENDBRANCH  14  15
ENDBRANCH   6  14
BRANCH  12  19
HETATM   19  O4  UNL     1       2.007  50.065 -14.170  1.00  0.00    -0.389 OA
HETATM   20  H46 UNL     1       2.627  49.654 -14.799  1.00  0.00     0.210 HD
ENDBRANCH  12  19
BRANCH   1  21
HETATM   21  C14 UNL     1       0.788  53.387 -11.381  1.00  0.00     0.011 C 
HETATM   22  C12 UNL     1       0.647  54.414 -10.516  1.00  0.00    -0.063 C 
HETATM   23  C13 UNL     1      -0.670  55.095 -10.246  1.00  0.00     0.048 C 
BRANCH  22  24
HETATM   24  C11 UNL     1       1.834  54.910  -9.818  1.00  0.00     0.006 C 
HETATM   25  C10 UNL     1       2.588  55.966 -10.170  1.00  0.00     0.001 C 
BRANCH  25  26
HETATM   26  C9  UNL     1       3.757  56.371  -9.416  1.00  0.00     0.002 C 
HETATM   27  C7  UNL     1       3.783  56.965  -8.206  1.00  0.00    -0.084 C 
HETATM   28  C8  UNL     1       2.580  57.299  -7.363  1.00  0.00     0.043 C 
BRANCH  27  29
HETATM   29  C6  UNL     1       5.118  57.334  -7.581  1.00  0.00     0.037 C 
BRANCH  29  30
HETATM   30  C5  UNL     1       5.303  56.712  -6.193  1.00  0.00     0.031 C 
BRANCH  30  31
HETATM   31  C4  UNL     1       6.756  56.464  -5.886  1.00  0.00    -0.024 C 
HETATM   32  C2  UNL     1       7.640  57.336  -5.362  1.00  0.00    -0.091 C 
HETATM   33  C1  UNL     1       9.058  56.916  -5.076  1.00  0.00     0.042 C 
HETATM   34  C3  UNL     1       7.338  58.771  -5.027  1.00  0.00     0.042 C 
ENDBRANCH  30  31
ENDBRANCH  29  30
ENDBRANCH  27  29
ENDBRANCH  25  26
ENDBRANCH  22  24
ENDBRANCH   1  21
BRANCH   8  35
HETATM   35  C26 UNL     1      -3.654  49.026 -12.476  1.00  0.00     0.265 C 
HETATM   36  O3  UNL     1      -4.607  48.466 -11.948  1.00  0.00    -0.302 OA
ENDBRANCH   8  35
TORSDOF 12
ENDMDL
MODEL 7
REMARK minimizedAffinity -8.01497078
REMARK CNNscore 0.383148462
REMARK CNNaffinity 6.29820013
REMARK  12 active torsions:
REMARK  status: ('A' for Active; 'I' for Inactive)
REMARK    1  A    between atoms: C4_4  and  C5_5 
REMARK    2  A    between atoms: C5_5  and  C6_6 
REMARK    3  A    between atoms: C6_6  and  C7_7 
REMARK    4  A    between atoms: C9_9  and  C10_10 
REMARK    5  A    between atoms: C11_11  and  C12_12 
REMARK    6  A    between atoms: C14_14  and  C15_15 
REMARK    7  A    between atoms: C19_20  and  C20_21 
REMARK    8  A    between atoms: C20_21  and  C21_22 
REMARK    9  A    between atoms: C21_22  and  C22_23 
REMARK   10  A    between atoms: C22_23  and  O2_24 
REMARK   11  A    between atoms: C24_26  and  C26_28 
REMARK   12  A    between atoms: C29_32  and  O4_34 
ROOT
HETATM    1  C15 UNL     1      -7.642  47.302 -27.283  1.00  0.00     0.145 C 
HETATM    2  C16 UNL     1      -8.172  48.335 -28.282  1.00  0.00     0.051 C 
HETATM    3  C17 UNL     1      -8.394  47.559 -29.591  1.00  0.00     0.022 C 
HETATM    4  C18 UNL     1      -7.285  46.506 -29.429  1.00  0.00     0.181 C 
HETATM    5  O1  UNL     1      -7.287  46.133 -28.045  1.00  0.00    -0.381 OA
HETATM    6  C19 UNL     1      -9.827  46.890 -29.702  1.00  0.00     0.029 C 
HETATM    7  C23 UNL     1      -9.895  46.065 -31.008  1.00  0.00    -0.066 C 
HETATM    8  C24 UNL     1      -9.962  44.721 -31.191  1.00  0.00    -0.021 C 
HETATM    9  C25 UNL     1     -10.180  44.063 -32.532  1.00  0.00     0.052 C 
HETATM   10  C27 UNL     1      -9.790  47.005 -32.204  1.00  0.00     0.038 C 
HETATM   11  C28 UNL     1      -8.429  47.703 -32.169  1.00  0.00     0.042 C 
HETATM   12  C29 UNL     1      -8.161  48.470 -30.857  1.00  0.00     0.065 C 
HETATM   13  C30 UNL     1      -8.997  49.768 -30.827  1.00  0.00     0.047 C 
ENDROOT
BRANCH   6  14
HETATM   14  C20 UNL     1     -10.445  46.298 -28.409  1.00  0.00     0.012 C 
BRANCH  14  15
HETATM   15  C21 UNL     1     -11.717  46.992 -27.885  1.00  0.00     0.027 C 
BRANCH  15  16
HETATM   16  C22 UNL     1     -11.561  47.706 -26.546  1.00  0.00     0.164 C 
BRANCH  16  17
HETATM   17  O2  UNL     1     -11.579  49.113 -26.736  1.00  0.00    -0.401 OA
HETATM   18  H34 UNL     1     -11.320  49.518 -25.889  1.00  0.00     0.209 HD
ENDBRANCH  16  17
ENDBRANCH  15  16
ENDBRANCH  14  15
ENDBRANCH   6  14
BRANCH  12  19
HETATM   19  O4  UNL     1      -6.789  48.890 -30.889  1.00  0.00    -0.389 OA
HETATM   20  H46 UNL     1      -6.668  49.510 -31.631  1.00  0.00     0.210 HD
ENDBRANCH  12  19
BRANCH   1  21
HETATM   21  C14 UNL     1      -6.421  47.769 -26.541  1.00  0.00     0.011 C 
HETATM   22  C12 UNL     1      -5.226  48.115 -27.066  1.00  0.00    -0.063 C 
HETATM   23  C13 UNL     1      -4.920  48.051 -28.541  1.00  0.00     0.048 C 
BRANCH  22  24
HETATM   24  C11 UNL     1      -4.165  48.556 -26.161  1.00  0.00     0.006 C 
HETATM   25  C10 UNL     1      -3.129  49.355 -26.470  1.00  0.00     0.001 C 
BRANCH  25  26
HETATM   26  C9  UNL     1      -2.119  49.726 -25.500  1.00  0.00     0.002 C 
HETATM   27  C7  UNL     1      -1.969  50.921 -24.893  1.00  0.00    -0.084 C 
HETATM   28  C8  UNL     1      -2.861  52.121 -25.078  1.00  0.00     0.043 C 
BRANCH  27  29
HETATM   29  C6  UNL     1      -0.826  51.125 -23.911  1.00  0.00     0.037 C 
BRANCH  29  30
HETATM   30  C5  UNL     1       0.181  52.170 -24.401  1.00  0.00     0.031 C 
BRANCH  30  31
HETATM   31  C4  UNL     1       0.846  51.740 -25.682  1.00  0.00    -0.024 C 
HETATM   32  C2  UNL     1       0.751  52.331 -26.889  1.00  0.00    -0.091 C 
HETATM   33  C1  UNL     1       1.517  51.796 -28.071  1.00  0.00     0.042 C 
HETATM   34  C3  UNL     1      -0.101  53.532 -27.196  1.00  0.00     0.042 C 
ENDBRANCH  30  31
ENDBRANCH  29  30
ENDBRANCH  27  29
ENDBRANCH  25  26
ENDBRANCH  22  24
ENDBRANCH   1  21
BRANCH   8  35
HETATM   35  C26 UNL     1      -9.753  43.735 -30.088  1.00  0.00     0.265 C 
HETATM   36  O3  UNL     1      -9.669  42.528 -30.279  1.00  0.00    -0.302 OA
ENDBRANCH   8  35
TORSDOF 12
ENDMDL
MODEL 8
REMARK minimizedAffinity -8.04634476
REMARK CNNscore 0.378402829
REMARK CNNaffinity 6.18616629
REMARK  12 active torsions:
REMARK  status: ('A' for Active; 'I' for Inactive)
REMARK    1  A    between atoms: C4_4  and  C5_5 
REMARK    2  A    between atoms: C5_5  and  C6_6 
REMARK    3  A    between atoms: C6_6  and  C7_7 
REMARK    4  A    between atoms: C9_9  and  C10_10 
REMARK    5  A    between atoms: C11_11  and  C12_12 
REMARK    6  A    between atoms: C14_14  and  C15_15 
REMARK    7  A    between atoms: C19_20  and  C20_21 
REMARK    8  A    between atoms: C20_21  and  C21_22 
REMARK    9  A    between atoms: C21_22  and  C22_23 
REMARK   10  A    between atoms: C22_23  and  O2_24 
REMARK   11  A    between atoms: C24_26  and  C26_28 
REMARK   12  A    between atoms: C29_32  and  O4_34 
ROOT
HETATM    1  C15 UNL     1      -7.449  47.274 -27.346  1.00  0.00     0.145 C 
HETATM    2  C16 UNL     1      -7.951  48.349 -28.314  1.00  0.00     0.051 C 
HETATM    3  C17 UNL     1      -8.186  47.619 -29.648  1.00  0.00     0.022 C 
HETATM    4  C18 UNL     1      -7.103  46.536 -29.515  1.00  0.00     0.181 C 
HETATM    5  O1  UNL     1      -7.118  46.121 -28.143  1.00  0.00    -0.381 OA
HETATM    6  C19 UNL     1      -9.634  46.988 -29.783  1.00  0.00     0.029 C 
HETATM    7  C23 UNL     1      -9.717  46.205 -31.114  1.00  0.00    -0.066 C 
HETATM    8  C24 UNL     1      -9.814  44.869 -31.338  1.00  0.00    -0.021 C 
HETATM    9  C25 UNL     1     -10.043  44.257 -32.699  1.00  0.00     0.052 C 
HETATM   10  C27 UNL     1      -9.586  47.178 -32.280  1.00  0.00     0.038 C 
HETATM   11  C28 UNL     1      -8.209  47.842 -32.220  1.00  0.00     0.042 C 
HETATM   12  C29 UNL     1      -7.928  48.563 -30.885  1.00  0.00     0.065 C 
HETATM   13  C30 UNL     1      -8.733  49.878 -30.818  1.00  0.00     0.047 C 
ENDROOT
BRANCH   6  14
HETATM   14  C20 UNL     1     -10.271  46.371 -28.511  1.00  0.00     0.012 C 
BRANCH  14  15
HETATM   15  C21 UNL     1     -11.496  47.108 -27.939  1.00  0.00     0.027 C 
BRANCH  15  16
HETATM   16  C22 UNL     1     -11.279  47.776 -26.585  1.00  0.00     0.164 C 
BRANCH  16  17
HETATM   17  O2  UNL     1     -11.689  49.135 -26.638  1.00  0.00    -0.401 OA
HETATM   18  H34 UNL     1     -11.386  49.555 -25.813  1.00  0.00     0.209 HD
ENDBRANCH  16  17
ENDBRANCH  15  16
ENDBRANCH  14  15
ENDBRANCH   6  14
BRANCH  12  19
HETATM   19  O4  UNL     1      -6.546  48.950 -30.900  1.00  0.00    -0.389 OA
HETATM   20  H46 UNL     1      -6.408  49.590 -31.622  1.00  0.00     0.210 HD
ENDBRANCH  12  19
BRANCH   1  21
HETATM   21  C14 UNL     1      -6.220  47.689 -26.587  1.00  0.00     0.011 C 
HETATM   22  C12 UNL     1      -5.041  48.102 -27.100  1.00  0.00    -0.063 C 
HETATM   23  C13 UNL     1      -4.764  48.181 -28.579  1.00  0.00     0.048 C 
BRANCH  22  24
HETATM   24  C11 UNL     1      -3.968  48.474 -26.177  1.00  0.00     0.006 C 
HETATM   25  C10 UNL     1      -3.766  49.686 -25.630  1.00  0.00     0.001 C 
BRANCH  25  26
HETATM   26  C9  UNL     1      -2.662  49.958 -24.732  1.00  0.00     0.002 C 
HETATM   27  C7  UNL     1      -2.519  51.018 -23.911  1.00  0.00    -0.084 C 
HETATM   28  C8  UNL     1      -3.514  52.135 -23.734  1.00  0.00     0.043 C 
BRANCH  27  29
HETATM   29  C6  UNL     1      -1.270  51.138 -23.053  1.00  0.00     0.037 C 
BRANCH  29  30
HETATM   30  C5  UNL     1      -0.172  51.959 -23.737  1.00  0.00     0.031 C 
BRANCH  30  31
HETATM   31  C4  UNL     1       0.531  52.865 -22.761  1.00  0.00    -0.024 C 
HETATM   32  C2  UNL     1       0.441  52.841 -21.416  1.00  0.00    -0.091 C 
HETATM   33  C1  UNL     1       1.246  53.797 -20.574  1.00  0.00     0.042 C 
HETATM   34  C3  UNL     1      -0.443  51.914 -20.628  1.00  0.00     0.042 C 
ENDBRANCH  30  31
ENDBRANCH  29  30
ENDBRANCH  27  29
ENDBRANCH  25  26
ENDBRANCH  22  24
ENDBRANCH   1  21
BRANCH   8  35
HETATM   35  C26 UNL     1      -9.633  43.845 -30.265  1.00  0.00     0.265 C 
HETATM   36  O3  UNL     1     -10.459  42.971 -30.030  1.00  0.00    -0.302 OA
ENDBRANCH   8  35
TORSDOF 12
ENDMDL
MODEL 9
REMARK minimizedAffinity -6.74653053
REMARK CNNscore 0.373295486
REMARK CNNaffinity 6.07878304
REMARK  12 active torsions:
REMARK  status: ('A' for Active; 'I' for Inactive)
REMARK    1  A    between atoms: C4_4  and  C5_5 
REMARK    2  A    between atoms: C5_5  and  C6_6 
REMARK    3  A    between atoms: C6_6  and  C7_7 
REMARK    4  A    between atoms: C9_9  and  C10_10 
REMARK    5  A    between atoms: C11_11  and  C12_12 
REMARK    6  A    between atoms: C14_14  and  C15_15 
REMARK    7  A    between atoms: C19_20  and  C20_21 
REMARK    8  A    between atoms: C20_21  and  C21_22 
REMARK    9  A    between atoms: C21_22  and  C22_23 
REMARK   10  A    between atoms: C22_23  and  O2_24 
REMARK   11  A    between atoms: C24_26  and  C26_28 
REMARK   12  A    between atoms: C29_32  and  O4_34 
ROOT
HETATM    1  C15 UNL     1      -8.439  46.115 -30.196  1.00  0.00     0.145 C 
HETATM    2  C16 UNL     1      -8.932  46.444 -31.607  1.00  0.00     0.051 C 
HETATM    3  C17 UNL     1      -9.164  45.083 -32.286  1.00  0.00     0.022 C 
HETATM    4  C18 UNL     1      -8.086  44.270 -31.552  1.00  0.00     0.181 C 
HETATM    5  O1  UNL     1      -8.110  44.712 -30.188  1.00  0.00    -0.381 OA
HETATM    6  C19 UNL     1     -10.614  44.489 -32.046  1.00  0.00     0.029 C 
HETATM    7  C23 UNL     1     -10.694  43.086 -32.691  1.00  0.00    -0.066 C 
HETATM    8  C24 UNL     1     -10.796  41.862 -32.113  1.00  0.00    -0.021 C 
HETATM    9  C25 UNL     1     -11.021  40.582 -32.882  1.00  0.00     0.052 C 
HETATM   10  C27 UNL     1     -10.553  43.219 -34.203  1.00  0.00     0.038 C 
HETATM   11  C28 UNL     1      -9.174  43.797 -34.525  1.00  0.00     0.042 C 
HETATM   12  C29 UNL     1      -8.896  45.151 -33.839  1.00  0.00     0.065 C 
HETATM   13  C30 UNL     1      -9.696  46.270 -34.540  1.00  0.00     0.047 C 
ENDROOT
BRANCH   6  14
HETATM   14  C20 UNL     1     -11.259  44.710 -30.653  1.00  0.00     0.012 C 
BRANCH  14  15
HETATM   15  C21 UNL     1     -10.667  43.888 -29.493  1.00  0.00     0.027 C 
BRANCH  15  16
HETATM   16  C22 UNL     1     -11.068  44.353 -28.097  1.00  0.00     0.164 C 
BRANCH  16  17
HETATM   17  O2  UNL     1     -11.196  45.767 -28.068  1.00  0.00    -0.401 OA
HETATM   18  H34 UNL     1     -11.294  46.024 -27.134  1.00  0.00     0.209 HD
ENDBRANCH  16  17
ENDBRANCH  15  16
ENDBRANCH  14  15
ENDBRANCH   6  14
BRANCH  12  19
HETATM   19  O4  UNL     1      -7.512  45.460 -34.064  1.00  0.00    -0.389 OA
HETATM   20  H46 UNL     1      -7.368  45.572 -35.021  1.00  0.00     0.210 HD
ENDBRANCH  12  19
BRANCH   1  21
HETATM   21  C14 UNL     1      -7.212  46.888 -29.802  1.00  0.00     0.011 C 
HETATM   22  C12 UNL     1      -6.780  47.156 -28.551  1.00  0.00    -0.063 C 
HETATM   23  C13 UNL     1      -7.518  46.726 -27.309  1.00  0.00     0.048 C 
BRANCH  22  24
HETATM   24  C11 UNL     1      -5.543  47.922 -28.387  1.00  0.00     0.006 C 
HETATM   25  C10 UNL     1      -4.836  48.067 -27.253  1.00  0.00     0.001 C 
BRANCH  25  26
HETATM   26  C9  UNL     1      -3.624  48.860 -27.190  1.00  0.00     0.002 C 
HETATM   27  C7  UNL     1      -2.885  49.135 -26.096  1.00  0.00    -0.084 C 
HETATM   28  C8  UNL     1      -3.155  48.635 -24.702  1.00  0.00     0.043 C 
BRANCH  27  29
HETATM   29  C6  UNL     1      -1.648  50.008 -26.229  1.00  0.00     0.037 C 
BRANCH  29  30
HETATM   30  C5  UNL     1      -1.846  51.395 -25.608  1.00  0.00     0.031 C 
BRANCH  30  31
HETATM   31  C4  UNL     1      -1.067  51.544 -24.328  1.00  0.00    -0.024 C 
HETATM   32  C2  UNL     1      -0.171  52.504 -24.026  1.00  0.00    -0.091 C 
HETATM   33  C1  UNL     1       0.497  52.536 -22.676  1.00  0.00     0.042 C 
HETATM   34  C3  UNL     1       0.265  53.600 -24.960  1.00  0.00     0.042 C 
ENDBRANCH  30  31
ENDBRANCH  29  30
ENDBRANCH  27  29
ENDBRANCH  25  26
ENDBRANCH  22  24
ENDBRANCH   1  21
BRANCH   8  35
HETATM   35  C26 UNL     1     -10.624  41.634 -30.646  1.00  0.00     0.265 C 
HETATM   36  O3  UNL     1      -9.970  40.705 -30.187  1.00  0.00    -0.302 OA
ENDBRANCH   8  35
TORSDOF 12
ENDMDL
