MODEL 1
REMARK minimizedAffinity -7.58405066
REMARK CNNscore 0.480248064
REMARK CNNaffinity 6.00256348
REMARK  2 active torsions:
REMARK  status: ('A' for Active; 'I' for Inactive)
REMARK    1  A    between atoms: C21_27  and  C22_28 
REMARK    2  A    between atoms: C22_28  and  O7_30 
ROOT
HETATM    1  C1  UNL     1       0.479  47.466  -9.175  1.00  0.00     0.043 C 
HETATM    2  C2  UNL     1       0.749  48.718  -9.973  1.00  0.00    -0.076 C 
HETATM    3  C3  UNL     1       1.901  49.388  -9.794  1.00  0.00     0.084 C 
HETATM    4  C4  UNL     1       2.331  50.600 -10.526  1.00  0.00     0.283 C 
HETATM    5  O1  UNL     1       2.207  50.788 -11.721  1.00  0.00    -0.260 OA
HETATM    6  O2  UNL     1       2.922  51.435  -9.634  1.00  0.00    -0.317 OA
HETATM    7  C5  UNL     1       3.526  52.596 -10.232  1.00  0.00     0.195 C 
HETATM    8  C6  UNL     1       4.010  53.672  -9.180  1.00  0.00     0.053 C 
HETATM    9  C7  UNL     1       4.099  53.028  -7.732  1.00  0.00     0.159 C 
HETATM   10  C8  UNL     1       5.291  52.130  -7.534  1.00  0.00     0.011 C 
HETATM   11  C9  UNL     1       6.446  52.313  -8.196  1.00  0.00    -0.054 C 
HETATM   12  C10 UNL     1       7.623  51.404  -7.986  1.00  0.00     0.046 C 
HETATM   13  C11 UNL     1       6.635  53.436  -9.131  1.00  0.00     0.180 A 
HETATM   14  O3  UNL     1       6.263  54.776  -8.767  1.00  0.00    -0.370 OA
HETATM   15  C12 UNL     1       5.394  54.113  -9.682  1.00  0.00     0.170 A 
HETATM   16  O4  UNL     1       4.119  53.980  -6.649  1.00  0.00    -0.372 OA
HETATM   17  C13 UNL     1       3.192  55.065  -6.754  1.00  0.00     0.162 C 
HETATM   18  C14 UNL     1       1.751  54.600  -6.988  1.00  0.00     0.068 C 
HETATM   19  C15 UNL     1       1.633  54.428  -8.525  1.00  0.00     0.147 C 
HETATM   20  O5  UNL     1       0.538  55.185  -9.070  1.00  0.00    -0.312 OA
HETATM   21  C16 UNL     1      -0.688  54.645  -8.846  1.00  0.00     0.283 C 
HETATM   22  O6  UNL     1      -0.953  53.795  -8.011  1.00  0.00    -0.260 OA
HETATM   23  C17 UNL     1      -1.601  55.169  -9.888  1.00  0.00     0.082 C 
HETATM   24  C18 UNL     1      -2.562  54.433 -10.475  1.00  0.00     0.006 C 
HETATM   25  C19 UNL     1      -2.930  53.083 -10.114  1.00  0.00    -0.001 C 
HETATM   26  C20 UNL     1      -3.420  52.179 -10.978  1.00  0.00     0.007 C 
HETATM   27  C21 UNL     1      -3.681  50.747 -10.587  1.00  0.00     0.172 C 
HETATM   28  O8  UNL     1      -2.614  49.960 -11.148  1.00  0.00    -0.379 OA
HETATM   29  C24 UNL     1      -1.536  49.769 -10.223  1.00  0.00     0.173 C 
HETATM   30  C25 UNL     1      -0.356  49.104 -10.935  1.00  0.00     0.060 C 
HETATM   31  C26 UNL     1       3.011  54.918  -9.128  1.00  0.00     0.034 C 
HETATM   32  C27 UNL     1       2.856  55.668 -10.467  1.00  0.00     0.022 C 
HETATM   33  C28 UNL     1       3.495  55.811  -8.003  1.00  0.00     0.119 A 
HETATM   34  C29 UNL     1       4.438  56.984  -8.092  1.00  0.00     0.210 A 
HETATM   35  O9  UNL     1       3.017  57.165  -8.022  1.00  0.00    -0.371 OA
ENDROOT
BRANCH  27  36
HETATM   36  C22 UNL     1      -5.014  50.226 -11.173  1.00  0.00     0.146 C 
HETATM   37  C23 UNL     1      -5.991  49.821 -10.071  1.00  0.00     0.042 C 
BRANCH  36  38
HETATM   38  O7  UNL     1      -4.791  49.062 -11.981  1.00  0.00    -0.393 OA
HETATM   39  H27 UNL     1      -3.984  48.645 -11.617  1.00  0.00     0.210 HD
ENDBRANCH  36  38
ENDBRANCH  27  36
TORSDOF 2
ENDMDL
MODEL 2
REMARK minimizedAffinity -6.82888746
REMARK CNNscore 0.411714703
REMARK CNNaffinity 5.43588781
REMARK  2 active torsions:
REMARK  status: ('A' for Active; 'I' for Inactive)
REMARK    1  A    between atoms: C21_27  and  C22_28 
REMARK    2  A    between atoms: C22_28  and  O7_30 
ROOT
HETATM    1  C1  UNL     1       2.380  48.292 -11.940  1.00  0.00     0.043 C 
HETATM    2  C2  UNL     1       2.471  48.913 -10.568  1.00  0.00    -0.076 C 
HETATM    3  C3  UNL     1       1.797  50.047 -10.303  1.00  0.00     0.084 C 
HETATM    4  C4  UNL     1       1.749  50.752  -9.003  1.00  0.00     0.283 C 
HETATM    5  O1  UNL     1       1.631  50.224  -7.914  1.00  0.00    -0.260 OA
HETATM    6  O2  UNL     1       1.816  52.085  -9.252  1.00  0.00    -0.317 OA
HETATM    7  C5  UNL     1       1.629  52.907  -8.086  1.00  0.00     0.195 C 
HETATM    8  C6  UNL     1       1.931  54.438  -8.334  1.00  0.00     0.053 C 
HETATM    9  C7  UNL     1       1.952  54.752  -9.890  1.00  0.00     0.159 C 
HETATM   10  C8  UNL     1       0.585  54.801 -10.523  1.00  0.00     0.011 C 
HETATM   11  C9  UNL     1      -0.510  55.168  -9.836  1.00  0.00    -0.054 C 
HETATM   12  C10 UNL     1      -1.864  55.207 -10.485  1.00  0.00     0.046 C 
HETATM   13  C11 UNL     1      -0.439  55.589  -8.426  1.00  0.00     0.180 A 
HETATM   14  O3  UNL     1       0.544  56.541  -7.984  1.00  0.00    -0.370 OA
HETATM   15  C12 UNL     1       0.786  55.181  -7.629  1.00  0.00     0.170 A 
HETATM   16  O4  UNL     1       2.613  55.982 -10.249  1.00  0.00    -0.372 OA
HETATM   17  C13 UNL     1       3.850  56.244  -9.580  1.00  0.00     0.162 C 
HETATM   18  C14 UNL     1       4.847  55.085  -9.693  1.00  0.00     0.068 C 
HETATM   19  C15 UNL     1       4.485  54.133  -8.524  1.00  0.00     0.147 C 
HETATM   20  O5  UNL     1       5.618  53.857  -7.682  1.00  0.00    -0.312 OA
HETATM   21  C16 UNL     1       6.512  52.982  -8.209  1.00  0.00     0.283 C 
HETATM   22  O6  UNL     1       6.597  52.667  -9.385  1.00  0.00    -0.260 OA
HETATM   23  C17 UNL     1       7.263  52.380  -7.082  1.00  0.00     0.082 C 
HETATM   24  C18 UNL     1       7.637  51.089  -7.040  1.00  0.00     0.006 C 
HETATM   25  C19 UNL     1       7.479  50.131  -8.110  1.00  0.00    -0.001 C 
HETATM   26  C20 UNL     1       7.303  48.813  -7.920  1.00  0.00     0.007 C 
HETATM   27  C21 UNL     1       7.024  47.863  -9.057  1.00  0.00     0.172 C 
HETATM   28  O8  UNL     1       5.619  47.548  -9.003  1.00  0.00    -0.379 OA
HETATM   29  C24 UNL     1       4.838  48.408  -9.841  1.00  0.00     0.173 C 
HETATM   30  C25 UNL     1       3.349  48.159  -9.591  1.00  0.00     0.060 C 
HETATM   31  C26 UNL     1       3.340  54.857  -7.707  1.00  0.00     0.034 C 
HETATM   32  C27 UNL     1       3.450  54.641  -6.184  1.00  0.00     0.022 C 
HETATM   33  C28 UNL     1       3.584  56.295  -8.119  1.00  0.00     0.119 A 
HETATM   34  C29 UNL     1       3.237  57.549  -7.357  1.00  0.00     0.210 A 
HETATM   35  O9  UNL     1       4.567  57.012  -7.356  1.00  0.00    -0.371 OA
ENDROOT
BRANCH  27  36
HETATM   36  C22 UNL     1       7.813  46.541  -8.908  1.00  0.00     0.146 C 
HETATM   37  C23 UNL     1       9.295  46.799  -8.648  1.00  0.00     0.042 C 
BRANCH  36  38
HETATM   38  O7  UNL     1       7.728  45.763 -10.110  1.00  0.00    -0.393 OA
HETATM   39  H27 UNL     1       7.594  46.412 -10.830  1.00  0.00     0.210 HD
ENDBRANCH  36  38
ENDBRANCH  27  36
TORSDOF 2
ENDMDL
MODEL 3
REMARK minimizedAffinity -6.92839336
REMARK CNNscore 0.388337076
REMARK CNNaffinity 5.68185949
REMARK  2 active torsions:
REMARK  status: ('A' for Active; 'I' for Inactive)
REMARK    1  A    between atoms: C21_27  and  C22_28 
REMARK    2  A    between atoms: C22_28  and  O7_30 
ROOT
HETATM    1  C1  UNL     1       6.980  49.013  -8.150  1.00  0.00     0.043 C 
HETATM    2  C2  UNL     1       6.732  50.363  -8.776  1.00  0.00    -0.076 C 
HETATM    3  C3  UNL     1       6.871  51.478  -8.036  1.00  0.00     0.084 C 
HETATM    4  C4  UNL     1       6.706  52.869  -8.513  1.00  0.00     0.283 C 
HETATM    5  O1  UNL     1       7.117  53.311  -9.568  1.00  0.00    -0.260 OA
HETATM    6  O2  UNL     1       6.056  53.564  -7.544  1.00  0.00    -0.317 OA
HETATM    7  C5  UNL     1       5.956  54.975  -7.804  1.00  0.00     0.195 C 
HETATM    8  C6  UNL     1       5.010  55.741  -6.797  1.00  0.00     0.053 C 
HETATM    9  C7  UNL     1       4.745  54.856  -5.507  1.00  0.00     0.159 C 
HETATM   10  C8  UNL     1       5.909  54.801  -4.551  1.00  0.00     0.011 C 
HETATM   11  C9  UNL     1       6.787  55.811  -4.434  1.00  0.00    -0.054 C 
HETATM   12  C10 UNL     1       7.943  55.736  -3.477  1.00  0.00     0.046 C 
HETATM   13  C11 UNL     1       6.644  57.059  -5.202  1.00  0.00     0.180 A 
HETATM   14  O3  UNL     1       5.383  57.745  -5.277  1.00  0.00    -0.370 OA
HETATM   15  C12 UNL     1       5.774  57.027  -6.445  1.00  0.00     0.170 A 
HETATM   16  O4  UNL     1       3.595  55.250  -4.729  1.00  0.00    -0.372 OA
HETATM   17  C13 UNL     1       2.418  55.570  -5.475  1.00  0.00     0.162 C 
HETATM   18  C14 UNL     1       2.009  54.460  -6.450  1.00  0.00     0.068 C 
HETATM   19  C15 UNL     1       2.827  54.740  -7.738  1.00  0.00     0.147 C 
HETATM   20  O5  UNL     1       1.986  54.851  -8.899  1.00  0.00    -0.312 OA
HETATM   21  C16 UNL     1       1.518  53.667  -9.371  1.00  0.00     0.283 C 
HETATM   22  O6  UNL     1       1.491  52.612  -8.758  1.00  0.00    -0.260 OA
HETATM   23  C17 UNL     1       1.181  53.861 -10.801  1.00  0.00     0.082 C 
HETATM   24  C18 UNL     1       1.401  52.934 -11.751  1.00  0.00     0.006 C 
HETATM   25  C19 UNL     1       1.877  51.589 -11.521  1.00  0.00    -0.001 C 
HETATM   26  C20 UNL     1       2.615  50.892 -12.401  1.00  0.00     0.007 C 
HETATM   27  C21 UNL     1       3.191  49.537 -12.078  1.00  0.00     0.172 C 
HETATM   28  O8  UNL     1       4.594  49.731 -11.819  1.00  0.00    -0.379 OA
HETATM   29  C24 UNL     1       4.869  49.920 -10.426  1.00  0.00     0.173 C 
HETATM   30  C25 UNL     1       6.334  50.317 -10.238  1.00  0.00     0.060 C 
HETATM   31  C26 UNL     1       3.607  56.092  -7.476  1.00  0.00     0.034 C 
HETATM   32  C27 UNL     1       3.710  56.985  -8.729  1.00  0.00     0.022 C 
HETATM   33  C28 UNL     1       2.741  56.696  -6.390  1.00  0.00     0.119 A 
HETATM   34  C29 UNL     1       2.570  58.154  -6.044  1.00  0.00     0.210 A 
HETATM   35  O9  UNL     1       1.603  57.450  -6.835  1.00  0.00    -0.371 OA
ENDROOT
BRANCH  27  36
HETATM   36  C22 UNL     1       3.057  48.556 -13.266  1.00  0.00     0.146 C 
HETATM   37  C23 UNL     1       1.651  48.584 -13.860  1.00  0.00     0.042 C 
BRANCH  36  38
HETATM   38  O7  UNL     1       3.306  47.210 -12.842  1.00  0.00    -0.393 OA
HETATM   39  H27 UNL     1       3.061  47.187 -11.895  1.00  0.00     0.210 HD
ENDBRANCH  36  38
ENDBRANCH  27  36
TORSDOF 2
ENDMDL
MODEL 4
REMARK minimizedAffinity -7.8123908
REMARK CNNscore 0.374024481
REMARK CNNaffinity 5.10438776
REMARK  2 active torsions:
REMARK  status: ('A' for Active; 'I' for Inactive)
REMARK    1  A    between atoms: C21_27  and  C22_28 
REMARK    2  A    between atoms: C22_28  and  O7_30 
ROOT
HETATM    1  C1  UNL     1     -12.134  45.287 -29.957  1.00  0.00     0.043 C 
HETATM    2  C2  UNL     1     -12.473  44.588 -28.663  1.00  0.00    -0.076 C 
HETATM    3  C3  UNL     1     -13.739  44.203 -28.424  1.00  0.00     0.084 C 
HETATM    4  C4  UNL     1     -14.220  43.474 -27.230  1.00  0.00     0.283 C 
HETATM    5  O1  UNL     1     -13.653  42.543 -26.690  1.00  0.00    -0.260 OA
HETATM    6  O2  UNL     1     -15.421  44.001 -26.878  1.00  0.00    -0.317 OA
HETATM    7  C5  UNL     1     -16.083  43.290 -25.817  1.00  0.00     0.195 C 
HETATM    8  C6  UNL     1     -17.363  44.032 -25.259  1.00  0.00     0.053 C 
HETATM    9  C7  UNL     1     -17.841  45.151 -26.277  1.00  0.00     0.159 C 
HETATM   10  C8  UNL     1     -18.544  44.611 -27.496  1.00  0.00     0.011 C 
HETATM   11  C9  UNL     1     -19.244  43.464 -27.470  1.00  0.00    -0.054 C 
HETATM   12  C10 UNL     1     -19.936  42.942 -28.697  1.00  0.00     0.046 C 
HETATM   13  C11 UNL     1     -19.407  42.681 -26.233  1.00  0.00     0.180 A 
HETATM   14  O3  UNL     1     -19.788  43.312 -24.999  1.00  0.00    -0.370 OA
HETATM   15  C12 UNL     1     -18.419  42.926 -25.107  1.00  0.00     0.170 A 
HETATM   16  O4  UNL     1     -18.713  46.150 -25.711  1.00  0.00    -0.372 OA
HETATM   17  C13 UNL     1     -18.338  46.648 -24.423  1.00  0.00     0.162 C 
HETATM   18  C14 UNL     1     -16.893  47.157 -24.377  1.00  0.00     0.068 C 
HETATM   19  C15 UNL     1     -16.037  45.900 -24.074  1.00  0.00     0.147 C 
HETATM   20  O5  UNL     1     -15.201  46.082 -22.918  1.00  0.00    -0.312 OA
HETATM   21  C16 UNL     1     -14.108  46.859 -23.129  1.00  0.00     0.283 C 
HETATM   22  O6  UNL     1     -13.945  47.624 -24.066  1.00  0.00    -0.260 OA
HETATM   23  C17 UNL     1     -13.104  46.503 -22.100  1.00  0.00     0.082 C 
HETATM   24  C18 UNL     1     -11.782  46.436 -22.340  1.00  0.00     0.006 C 
HETATM   25  C19 UNL     1     -11.130  46.806 -23.575  1.00  0.00    -0.001 C 
HETATM   26  C20 UNL     1      -9.997  46.243 -24.026  1.00  0.00     0.007 C 
HETATM   27  C21 UNL     1      -9.412  46.574 -25.375  1.00  0.00     0.172 C 
HETATM   28  O8  UNL     1      -9.714  45.466 -26.244  1.00  0.00    -0.379 OA
HETATM   29  C24 UNL     1     -10.926  45.669 -26.981  1.00  0.00     0.173 C 
HETATM   30  C25 UNL     1     -11.297  44.387 -27.729  1.00  0.00     0.060 C 
HETATM   31  C26 UNL     1     -17.063  44.716 -23.847  1.00  0.00     0.034 C 
HETATM   32  C27 UNL     1     -16.621  43.734 -22.743  1.00  0.00     0.022 C 
HETATM   33  C28 UNL     1     -18.304  45.502 -23.477  1.00  0.00     0.119 A 
HETATM   34  C29 UNL     1     -19.474  45.047 -22.642  1.00  0.00     0.210 A 
HETATM   35  O9  UNL     1     -18.432  45.865 -22.093  1.00  0.00    -0.371 OA
ENDROOT
BRANCH  27  36
HETATM   36  C22 UNL     1      -7.874  46.723 -25.314  1.00  0.00     0.146 C 
HETATM   37  C23 UNL     1      -7.376  46.807 -23.873  1.00  0.00     0.042 C 
BRANCH  36  38
HETATM   38  O7  UNL     1      -7.456  47.927 -25.972  1.00  0.00    -0.393 OA
HETATM   39  H27 UNL     1      -8.215  48.540 -25.896  1.00  0.00     0.210 HD
ENDBRANCH  36  38
ENDBRANCH  27  36
TORSDOF 2
ENDMDL
MODEL 5
REMARK minimizedAffinity -7.62616539
REMARK CNNscore 0.268977642
REMARK CNNaffinity 5.71016693
REMARK  2 active torsions:
REMARK  status: ('A' for Active; 'I' for Inactive)
REMARK    1  A    between atoms: C21_27  and  C22_28 
REMARK    2  A    between atoms: C22_28  and  O7_30 
ROOT
HETATM    1  C1  UNL     1      -3.830  53.831 -10.521  1.00  0.00     0.043 C 
HETATM    2  C2  UNL     1      -2.716  53.003  -9.929  1.00  0.00    -0.076 C 
HETATM    3  C3  UNL     1      -1.841  53.571  -9.080  1.00  0.00     0.084 C 
HETATM    4  C4  UNL     1      -0.727  52.887  -8.387  1.00  0.00     0.283 C 
HETATM    5  O1  UNL     1      -0.782  51.789  -7.867  1.00  0.00    -0.260 OA
HETATM    6  O2  UNL     1       0.343  53.723  -8.399  1.00  0.00    -0.317 OA
HETATM    7  C5  UNL     1       1.462  53.251  -7.626  1.00  0.00     0.195 C 
HETATM    8  C6  UNL     1       2.776  54.106  -7.825  1.00  0.00     0.053 C 
HETATM    9  C7  UNL     1       2.428  55.507  -8.485  1.00  0.00     0.159 C 
HETATM   10  C8  UNL     1       1.794  56.491  -7.537  1.00  0.00     0.011 C 
HETATM   11  C9  UNL     1       2.046  56.480  -6.217  1.00  0.00    -0.054 C 
HETATM   12  C10 UNL     1       1.400  57.469  -5.289  1.00  0.00     0.046 C 
HETATM   13  C11 UNL     1       2.996  55.529  -5.616  1.00  0.00     0.180 A 
HETATM   14  O3  UNL     1       4.299  55.319  -6.188  1.00  0.00    -0.370 OA
HETATM   15  C12 UNL     1       3.344  54.282  -6.407  1.00  0.00     0.170 A 
HETATM   16  O4  UNL     1       3.550  56.185  -9.088  1.00  0.00    -0.372 OA
HETATM   17  C13 UNL     1       4.427  55.367  -9.868  1.00  0.00     0.162 C 
HETATM   18  C14 UNL     1       3.691  54.559 -10.943  1.00  0.00     0.068 C 
HETATM   19  C15 UNL     1       3.228  53.267 -10.221  1.00  0.00     0.147 C 
HETATM   20  O5  UNL     1       3.679  52.079 -10.896  1.00  0.00    -0.312 OA
HETATM   21  C16 UNL     1       2.990  51.778 -12.026  1.00  0.00     0.283 C 
HETATM   22  O6  UNL     1       2.273  52.541 -12.653  1.00  0.00    -0.260 OA
HETATM   23  C17 UNL     1       3.156  50.327 -12.273  1.00  0.00     0.082 C 
HETATM   24  C18 UNL     1       2.176  49.533 -12.741  1.00  0.00     0.006 C 
HETATM   25  C19 UNL     1       0.871  49.974 -13.179  1.00  0.00    -0.001 C 
HETATM   26  C20 UNL     1      -0.243  49.229 -13.093  1.00  0.00     0.007 C 
HETATM   27  C21 UNL     1      -1.605  49.768 -13.453  1.00  0.00     0.172 C 
HETATM   28  O8  UNL     1      -2.290  50.032 -12.214  1.00  0.00    -0.379 OA
HETATM   29  C24 UNL     1      -2.126  51.388 -11.782  1.00  0.00     0.173 C 
HETATM   30  C25 UNL     1      -2.702  51.555 -10.374  1.00  0.00     0.060 C 
HETATM   31  C26 UNL     1       3.825  53.344  -8.757  1.00  0.00     0.034 C 
HETATM   32  C27 UNL     1       4.283  51.975  -8.216  1.00  0.00     0.022 C 
HETATM   33  C28 UNL     1       4.975  54.304  -8.987  1.00  0.00     0.119 A 
HETATM   34  C29 UNL     1       6.254  54.423  -8.197  1.00  0.00     0.210 A 
HETATM   35  O9  UNL     1       6.203  53.720  -9.446  1.00  0.00    -0.371 OA
ENDROOT
BRANCH  27  36
HETATM   36  C22 UNL     1      -2.440  48.736 -14.247  1.00  0.00     0.146 C 
HETATM   37  C23 UNL     1      -2.689  49.200 -15.679  1.00  0.00     0.042 C 
BRANCH  36  38
HETATM   38  O7  UNL     1      -3.725  48.549 -13.638  1.00  0.00    -0.393 OA
HETATM   39  H27 UNL     1      -3.919  49.392 -13.179  1.00  0.00     0.210 HD
ENDBRANCH  36  38
ENDBRANCH  27  36
TORSDOF 2
ENDMDL
MODEL 6
REMARK minimizedAffinity -6.89250422
REMARK CNNscore 0.260235965
REMARK CNNaffinity 5.76036596
REMARK  2 active torsions:
REMARK  status: ('A' for Active; 'I' for Inactive)
REMARK    1  A    between atoms: C21_27  and  C22_28 
REMARK    2  A    between atoms: C22_28  and  O7_30 
ROOT
HETATM    1  C1  UNL     1     -10.893  43.942 -24.211  1.00  0.00     0.043 C 
HETATM    2  C2  UNL     1      -9.387  43.980 -24.112  1.00  0.00    -0.076 C 
HETATM    3  C3  UNL     1      -8.801  44.081 -22.905  1.00  0.00     0.084 C 
HETATM    4  C4  UNL     1      -7.345  44.087 -22.639  1.00  0.00     0.283 C 
HETATM    5  O1  UNL     1      -6.524  43.363 -23.169  1.00  0.00    -0.260 OA
HETATM    6  O2  UNL     1      -7.104  45.009 -21.672  1.00  0.00    -0.317 OA
HETATM    7  C5  UNL     1      -5.745  45.021 -21.202  1.00  0.00     0.195 C 
HETATM    8  C6  UNL     1      -5.415  46.237 -20.248  1.00  0.00     0.053 C 
HETATM    9  C7  UNL     1      -6.754  46.896 -19.709  1.00  0.00     0.159 C 
HETATM   10  C8  UNL     1      -7.444  46.094 -18.636  1.00  0.00     0.011 C 
HETATM   11  C9  UNL     1      -6.768  45.297 -17.791  1.00  0.00    -0.054 C 
HETATM   12  C10 UNL     1      -7.475  44.503 -16.730  1.00  0.00     0.046 C 
HETATM   13  C11 UNL     1      -5.300  45.190 -17.831  1.00  0.00     0.180 A 
HETATM   14  O3  UNL     1      -4.470  46.363 -17.890  1.00  0.00    -0.370 OA
HETATM   15  C12 UNL     1      -4.594  45.623 -19.103  1.00  0.00     0.170 A 
HETATM   16  O4  UNL     1      -6.602  48.232 -19.186  1.00  0.00    -0.372 OA
HETATM   17  C13 UNL     1      -5.781  49.114 -19.958  1.00  0.00     0.162 C 
HETATM   18  C14 UNL     1      -6.208  49.195 -21.428  1.00  0.00     0.068 C 
HETATM   19  C15 UNL     1      -5.481  48.011 -22.119  1.00  0.00     0.147 C 
HETATM   20  O5  UNL     1      -4.696  48.443 -23.244  1.00  0.00    -0.312 OA
HETATM   21  C16 UNL     1      -5.418  48.738 -24.355  1.00  0.00     0.283 C 
HETATM   22  O6  UNL     1      -6.618  48.957 -24.391  1.00  0.00    -0.260 OA
HETATM   23  C17 UNL     1      -4.513  48.606 -25.520  1.00  0.00     0.082 C 
HETATM   24  C18 UNL     1      -4.895  48.098 -26.706  1.00  0.00     0.006 C 
HETATM   25  C19 UNL     1      -6.242  47.719 -27.066  1.00  0.00    -0.001 C 
HETATM   26  C20 UNL     1      -6.541  46.741 -27.938  1.00  0.00     0.007 C 
HETATM   27  C21 UNL     1      -7.958  46.297 -28.199  1.00  0.00     0.172 C 
HETATM   28  O8  UNL     1      -8.137  45.047 -27.507  1.00  0.00    -0.379 OA
HETATM   29  C24 UNL     1      -8.684  45.227 -26.195  1.00  0.00     0.173 C 
HETATM   30  C25 UNL     1      -8.665  43.896 -25.441  1.00  0.00     0.060 C 
HETATM   31  C26 UNL     1      -4.563  47.353 -21.010  1.00  0.00     0.034 C 
HETATM   32  C27 UNL     1      -3.209  46.860 -21.558  1.00  0.00     0.022 C 
HETATM   33  C28 UNL     1      -4.423  48.518 -20.051  1.00  0.00     0.119 A 
HETATM   34  C29 UNL     1      -3.302  48.789 -19.079  1.00  0.00     0.210 A 
HETATM   35  O9  UNL     1      -3.377  49.457 -20.346  1.00  0.00    -0.371 OA
ENDROOT
BRANCH  27  36
HETATM   36  C22 UNL     1      -8.214  46.049 -29.703  1.00  0.00     0.146 C 
HETATM   37  C23 UNL     1      -8.002  44.583 -30.074  1.00  0.00     0.042 C 
BRANCH  36  38
HETATM   38  O7  UNL     1      -7.308  46.818 -30.505  1.00  0.00    -0.393 OA
HETATM   39  H27 UNL     1      -6.512  46.942 -29.950  1.00  0.00     0.210 HD
ENDBRANCH  36  38
ENDBRANCH  27  36
TORSDOF 2
ENDMDL
MODEL 7
REMARK minimizedAffinity -7.008564
REMARK CNNscore 0.251110941
REMARK CNNaffinity 5.03650999
REMARK  2 active torsions:
REMARK  status: ('A' for Active; 'I' for Inactive)
REMARK    1  A    between atoms: C21_27  and  C22_28 
REMARK    2  A    between atoms: C22_28  and  O7_30 
ROOT
HETATM    1  C1  UNL     1     -15.731  40.029 -21.076  1.00  0.00     0.043 C 
HETATM    2  C2  UNL     1     -16.019  40.640 -22.426  1.00  0.00    -0.076 C 
HETATM    3  C3  UNL     1     -14.999  40.990 -23.231  1.00  0.00     0.084 C 
HETATM    4  C4  UNL     1     -15.116  41.557 -24.593  1.00  0.00     0.283 C 
HETATM    5  O1  UNL     1     -15.893  41.185 -25.452  1.00  0.00    -0.260 OA
HETATM    6  O2  UNL     1     -14.175  42.527 -24.720  1.00  0.00    -0.317 OA
HETATM    7  C5  UNL     1     -14.070  43.069 -26.048  1.00  0.00     0.195 C 
HETATM    8  C6  UNL     1     -13.142  44.345 -26.141  1.00  0.00     0.053 C 
HETATM    9  C7  UNL     1     -12.229  44.459 -24.848  1.00  0.00     0.159 C 
HETATM   10  C8  UNL     1     -11.080  43.485 -24.822  1.00  0.00     0.011 C 
HETATM   11  C9  UNL     1     -10.500  43.029 -25.945  1.00  0.00    -0.054 C 
HETATM   12  C10 UNL     1      -9.357  42.055 -25.896  1.00  0.00     0.046 C 
HETATM   13  C11 UNL     1     -10.924  43.487 -27.279  1.00  0.00     0.180 A 
HETATM   14  O3  UNL     1     -11.103  44.886 -27.561  1.00  0.00    -0.370 OA
HETATM   15  C12 UNL     1     -12.297  44.121 -27.405  1.00  0.00     0.170 A 
HETATM   16  O4  UNL     1     -11.662  45.767 -24.624  1.00  0.00    -0.372 OA
HETATM   17  C13 UNL     1     -12.548  46.873 -24.818  1.00  0.00     0.162 C 
HETATM   18  C14 UNL     1     -13.848  46.744 -24.017  1.00  0.00     0.068 C 
HETATM   19  C15 UNL     1     -14.792  45.908 -24.921  1.00  0.00     0.147 C 
HETATM   20  O5  UNL     1     -16.044  46.574 -25.158  1.00  0.00    -0.312 OA
HETATM   21  C16 UNL     1     -16.907  46.542 -24.110  1.00  0.00     0.283 C 
HETATM   22  O6  UNL     1     -16.617  46.286 -22.952  1.00  0.00    -0.260 OA
HETATM   23  C17 UNL     1     -18.272  46.731 -24.653  1.00  0.00     0.082 C 
HETATM   24  C18 UNL     1     -19.355  46.084 -24.188  1.00  0.00     0.006 C 
HETATM   25  C19 UNL     1     -19.386  45.210 -23.036  1.00  0.00    -0.001 C 
HETATM   26  C20 UNL     1     -20.224  44.169 -22.904  1.00  0.00     0.007 C 
HETATM   27  C21 UNL     1     -20.146  43.212 -21.742  1.00  0.00     0.172 C 
HETATM   28  O8  UNL     1     -19.529  42.007 -22.234  1.00  0.00    -0.379 OA
HETATM   29  C24 UNL     1     -18.111  42.002 -22.030  1.00  0.00     0.173 C 
HETATM   30  C25 UNL     1     -17.491  40.800 -22.745  1.00  0.00     0.060 C 
HETATM   31  C26 UNL     1     -14.009  45.680 -26.278  1.00  0.00     0.034 C 
HETATM   32  C27 UNL     1     -14.923  45.723 -27.519  1.00  0.00     0.022 C 
HETATM   33  C28 UNL     1     -13.032  46.836 -26.222  1.00  0.00     0.119 A 
HETATM   34  C29 UNL     1     -12.362  47.540 -27.376  1.00  0.00     0.210 A 
HETATM   35  O9  UNL     1     -13.512  48.094 -26.722  1.00  0.00    -0.371 OA
ENDROOT
BRANCH  27  36
HETATM   36  C22 UNL     1     -21.549  42.843 -21.206  1.00  0.00     0.146 C 
HETATM   37  C23 UNL     1     -21.685  41.340 -20.979  1.00  0.00     0.042 C 
BRANCH  36  38
HETATM   38  O7  UNL     1     -22.564  43.219 -22.146  1.00  0.00    -0.393 OA
HETATM   39  H27 UNL     1     -22.128  43.192 -23.022  1.00  0.00     0.210 HD
ENDBRANCH  36  38
ENDBRANCH  27  36
TORSDOF 2
ENDMDL
MODEL 8
REMARK minimizedAffinity -7.00277185
REMARK CNNscore 0.235976458
REMARK CNNaffinity 4.68953562
REMARK  2 active torsions:
REMARK  status: ('A' for Active; 'I' for Inactive)
REMARK    1  A    between atoms: C21_27  and  C22_28 
REMARK    2  A    between atoms: C22_28  and  O7_30 
ROOT
HETATM    1  C1  UNL     1     -14.118  46.451 -20.102  1.00  0.00     0.043 C 
HETATM    2  C2  UNL     1     -13.995  45.379 -21.157  1.00  0.00    -0.076 C 
HETATM    3  C3  UNL     1     -12.777  44.931 -21.515  1.00  0.00     0.084 C 
HETATM    4  C4  UNL     1     -12.493  43.861 -22.496  1.00  0.00     0.283 C 
HETATM    5  O1  UNL     1     -13.099  42.811 -22.596  1.00  0.00    -0.260 OA
HETATM    6  O2  UNL     1     -11.416  44.245 -23.227  1.00  0.00    -0.317 OA
HETATM    7  C5  UNL     1     -10.929  43.233 -24.126  1.00  0.00     0.195 C 
HETATM    8  C6  UNL     1      -9.826  43.754 -25.131  1.00  0.00     0.053 C 
HETATM    9  C7  UNL     1      -9.228  45.134 -24.627  1.00  0.00     0.159 C 
HETATM   10  C8  UNL     1      -8.273  45.001 -23.469  1.00  0.00     0.011 C 
HETATM   11  C9  UNL     1      -7.525  43.901 -23.279  1.00  0.00    -0.054 C 
HETATM   12  C10 UNL     1      -6.581  43.787 -22.116  1.00  0.00     0.046 C 
HETATM   13  C11 UNL     1      -7.558  42.767 -24.218  1.00  0.00     0.180 A 
HETATM   14  O3  UNL     1      -7.459  42.975 -25.638  1.00  0.00    -0.370 OA
HETATM   15  C12 UNL     1      -8.756  42.651 -25.142  1.00  0.00     0.170 A 
HETATM   16  O4  UNL     1      -8.540  45.900 -25.638  1.00  0.00    -0.372 OA
HETATM   17  C13 UNL     1      -9.184  45.969 -26.913  1.00  0.00     0.162 C 
HETATM   18  C14 UNL     1     -10.638  46.446 -26.823  1.00  0.00     0.068 C 
HETATM   19  C15 UNL     1     -11.461  45.161 -26.545  1.00  0.00     0.147 C 
HETATM   20  O5  UNL     1     -12.513  44.975 -27.508  1.00  0.00    -0.312 OA
HETATM   21  C16 UNL     1     -13.588  45.785 -27.332  1.00  0.00     0.283 C 
HETATM   22  O6  UNL     1     -13.613  46.807 -26.665  1.00  0.00    -0.260 OA
HETATM   23  C17 UNL     1     -14.749  45.129 -27.977  1.00  0.00     0.082 C 
HETATM   24  C18 UNL     1     -15.994  45.148 -27.468  1.00  0.00     0.006 C 
HETATM   25  C19 UNL     1     -16.417  45.891 -26.303  1.00  0.00    -0.001 C 
HETATM   26  C20 UNL     1     -17.408  45.504 -25.482  1.00  0.00     0.007 C 
HETATM   27  C21 UNL     1     -17.741  46.246 -24.213  1.00  0.00     0.172 C 
HETATM   28  O8  UNL     1     -17.213  45.466 -23.123  1.00  0.00    -0.379 OA
HETATM   29  C24 UNL     1     -15.896  45.884 -22.744  1.00  0.00     0.173 C 
HETATM   30  C25 UNL     1     -15.314  44.900 -21.727  1.00  0.00     0.060 C 
HETATM   31  C26 UNL     1     -10.432  43.961 -26.595  1.00  0.00     0.034 C 
HETATM   32  C27 UNL     1     -11.019  42.684 -27.229  1.00  0.00     0.022 C 
HETATM   33  C28 UNL     1      -9.333  44.584 -27.432  1.00  0.00     0.119 A 
HETATM   34  C29 UNL     1      -8.320  43.884 -28.302  1.00  0.00     0.210 A 
HETATM   35  O9  UNL     1      -9.494  44.493 -28.856  1.00  0.00    -0.371 OA
ENDROOT
BRANCH  27  36
HETATM   36  C22 UNL     1     -19.268  46.377 -24.007  1.00  0.00     0.146 C 
HETATM   37  C23 UNL     1     -19.885  45.063 -23.534  1.00  0.00     0.042 C 
BRANCH  36  38
HETATM   38  O7  UNL     1     -19.916  46.723 -25.239  1.00  0.00    -0.393 OA
HETATM   39  H27 UNL     1     -19.340  46.364 -25.944  1.00  0.00     0.210 HD
ENDBRANCH  36  38
ENDBRANCH  27  36
TORSDOF 2
ENDMDL
MODEL 9
REMARK minimizedAffinity -7.02436876
REMARK CNNscore 0.235731483
REMARK CNNaffinity 6.04606581
REMARK  2 active torsions:
REMARK  status: ('A' for Active; 'I' for Inactive)
REMARK    1  A    between atoms: C21_27  and  C22_28 
REMARK    2  A    between atoms: C22_28  and  O7_30 
ROOT
HETATM    1  C1  UNL     1      -2.325  48.132 -26.806  1.00  0.00     0.043 C 
HETATM    2  C2  UNL     1      -3.569  48.611 -26.098  1.00  0.00    -0.076 C 
HETATM    3  C3  UNL     1      -3.598  48.652 -24.754  1.00  0.00     0.084 C 
HETATM    4  C4  UNL     1      -4.720  49.135 -23.919  1.00  0.00     0.283 C 
HETATM    5  O1  UNL     1      -5.391  50.126 -24.136  1.00  0.00    -0.260 OA
HETATM    6  O2  UNL     1      -4.832  48.301 -22.854  1.00  0.00    -0.317 OA
HETATM    7  C5  UNL     1      -5.790  48.732 -21.871  1.00  0.00     0.195 C 
HETATM    8  C6  UNL     1      -6.082  47.655 -20.753  1.00  0.00     0.053 C 
HETATM    9  C7  UNL     1      -4.947  46.545 -20.746  1.00  0.00     0.159 C 
HETATM   10  C8  UNL     1      -3.649  47.000 -20.130  1.00  0.00     0.011 C 
HETATM   11  C9  UNL     1      -3.602  47.933 -19.164  1.00  0.00    -0.054 C 
HETATM   12  C10 UNL     1      -2.297  48.375 -18.566  1.00  0.00     0.046 C 
HETATM   13  C11 UNL     1      -4.824  48.543 -18.612  1.00  0.00     0.180 A 
HETATM   14  O3  UNL     1      -5.943  47.733 -18.215  1.00  0.00    -0.370 OA
HETATM   15  C12 UNL     1      -6.094  48.450 -19.438  1.00  0.00     0.170 A 
HETATM   16  O4  UNL     1      -5.307  45.317 -20.080  1.00  0.00    -0.372 OA
HETATM   17  C13 UNL     1      -6.618  44.817 -20.360  1.00  0.00     0.162 C 
HETATM   18  C14 UNL     1      -6.894  44.675 -21.861  1.00  0.00     0.068 C 
HETATM   19  C15 UNL     1      -7.398  46.073 -22.307  1.00  0.00     0.147 C 
HETATM   20  O5  UNL     1      -8.674  46.001 -22.967  1.00  0.00    -0.312 OA
HETATM   21  C16 UNL     1      -8.624  45.537 -24.242  1.00  0.00     0.283 C 
HETATM   22  O6  UNL     1      -7.698  44.919 -24.742  1.00  0.00    -0.260 OA
HETATM   23  C17 UNL     1      -9.828  46.037 -24.944  1.00  0.00     0.082 C 
HETATM   24  C18 UNL     1      -9.827  46.447 -26.226  1.00  0.00     0.006 C 
HETATM   25  C19 UNL     1      -8.711  46.357 -27.138  1.00  0.00    -0.001 C 
HETATM   26  C20 UNL     1      -8.491  47.217 -28.146  1.00  0.00     0.007 C 
HETATM   27  C21 UNL     1      -7.253  47.159 -29.003  1.00  0.00     0.172 C 
HETATM   28  O8  UNL     1      -6.393  48.230 -28.569  1.00  0.00    -0.379 OA
HETATM   29  C24 UNL     1      -5.447  47.800 -27.583  1.00  0.00     0.173 C 
HETATM   30  C25 UNL     1      -4.703  49.013 -27.019  1.00  0.00     0.060 C 
HETATM   31  C26 UNL     1      -7.493  46.945 -20.990  1.00  0.00     0.034 C 
HETATM   32  C27 UNL     1      -8.700  47.905 -20.984  1.00  0.00     0.022 C 
HETATM   33  C28 UNL     1      -7.605  45.849 -19.949  1.00  0.00     0.119 A 
HETATM   34  C29 UNL     1      -8.239  45.929 -18.584  1.00  0.00     0.210 A 
HETATM   35  O9  UNL     1      -8.927  45.347 -19.700  1.00  0.00    -0.371 OA
ENDROOT
BRANCH  27  36
HETATM   36  C22 UNL     1      -7.577  47.386 -30.498  1.00  0.00     0.146 C 
HETATM   37  C23 UNL     1      -7.247  46.154 -31.337  1.00  0.00     0.042 C 
BRANCH  36  38
HETATM   38  O7  UNL     1      -6.801  48.471 -31.025  1.00  0.00    -0.393 OA
HETATM   39  H27 UNL     1      -5.987  48.495 -30.481  1.00  0.00     0.210 HD
ENDBRANCH  36  38
ENDBRANCH  27  36
TORSDOF 2
ENDMDL
