MODEL 1
REMARK minimizedAffinity -9.8950386
REMARK CNNscore 0.725325286
REMARK CNNaffinity 7.92124319
REMARK  12 active torsions:
REMARK  status: ('A' for Active; 'I' for Inactive)
REMARK    1  A    between atoms: C19_21  and  O3_22 
REMARK    2  A    between atoms: C19_21  and  C20_23 
REMARK    3  A    between atoms: C20_23  and  C21_25 
REMARK    4  A    between atoms: C21_25  and  O5_26 
REMARK    5  A    between atoms: O5_26  and  C22_27 
REMARK    6  A    between atoms: C22_27  and  C23_29 
REMARK    7  A    between atoms: C23_29  and  C24_30 
REMARK    8  A    between atoms: C24_30  and  C25_31 
REMARK       I    between atoms: C25_31  and  N1_33 
REMARK    9  A    between atoms: N1_33  and  C26_34 
REMARK   10  A    between atoms: C26_34  and  C27_35 
REMARK   11  A    between atoms: C30_38  and  C31_39 
REMARK   12  A    between atoms: C31_39  and  O9_41 
ROOT
HETATM    1  C1  UNL     1       0.036   8.305  10.384  1.00  0.00     0.021 C 
HETATM    2  C2  UNL     1       0.633   7.688  11.668  1.00  0.00    -0.009 C 
HETATM    3  C3  UNL     1       1.818   8.567  12.173  1.00  0.00     0.022 C 
HETATM    4  C4  UNL     1       3.086   8.442  11.340  1.00  0.00     0.084 C 
HETATM    5  C5  UNL     1       3.509   7.001  11.232  1.00  0.00     0.149 C 
HETATM    6  O1  UNL     1       4.685   6.663  11.134  1.00  0.00    -0.293 OA
HETATM    7  C6  UNL     1       2.449   5.972  11.158  1.00  0.00     0.053 C 
HETATM    8  C7  UNL     1       1.147   6.280  11.310  1.00  0.00    -0.067 C 
HETATM    9  C8  UNL     1       0.105   5.206  11.099  1.00  0.00     0.035 C 
HETATM   10  C9  UNL     1      -0.890   5.138  12.252  1.00  0.00     0.010 C 
HETATM   11  C10 UNL     1      -1.534   6.505  12.519  1.00  0.00     0.003 C 
HETATM   12  C11 UNL     1      -0.427   7.558  12.822  1.00  0.00     0.072 C 
HETATM   13  C12 UNL     1      -1.071   8.878  13.293  1.00  0.00     0.133 C 
HETATM   14  O2  UNL     1      -0.765   9.980  12.843  1.00  0.00    -0.297 OA
HETATM   15  C13 UNL     1      -2.084   8.774  14.427  1.00  0.00     0.091 C 
HETATM   16  C14 UNL     1      -3.190   7.784  14.039  1.00  0.00     0.005 C 
HETATM   17  C15 UNL     1      -3.994   8.361  12.837  1.00  0.00     0.019 C 
HETATM   18  C16 UNL     1      -2.504   6.432  13.710  1.00  0.00     0.002 C 
HETATM   19  C17 UNL     1      -3.668   5.450  13.625  1.00  0.00     0.009 C 
HETATM   20  C18 UNL     1      -4.698   5.978  14.642  1.00  0.00     0.047 C 
HETATM   21  C19 UNL     1      -4.146   7.320  15.185  1.00  0.00     0.128 C 
ENDROOT
BRANCH  21  22
HETATM   22  O3  UNL     1      -3.403   7.021  16.377  1.00  0.00    -0.381 OA
HETATM   23  H25 UNL     1      -3.064   7.863  16.737  1.00  0.00     0.211 HD
ENDBRANCH  21  22
BRANCH  21  24
HETATM   24  C20 UNL     1      -5.240   8.314  15.613  1.00  0.00     0.185 C 
HETATM   25  O4  UNL     1      -4.960   9.478  15.922  1.00  0.00    -0.292 OA
BRANCH  24  26
HETATM   26  C21 UNL     1      -6.655   7.763  15.813  1.00  0.00     0.260 C 
BRANCH  26  27
HETATM   27  O5  UNL     1      -7.290   7.409  14.585  1.00  0.00    -0.314 OA
BRANCH  27  28
HETATM   28  C22 UNL     1      -8.496   6.801  14.760  1.00  0.00     0.259 C 
HETATM   29  O6  UNL     1      -8.988   6.550  15.855  1.00  0.00    -0.265 OA
BRANCH  28  30
HETATM   30  C23 UNL     1      -9.127   6.391  13.453  1.00  0.00     0.120 C 
BRANCH  30  31
HETATM   31  C24 UNL     1      -8.163   5.837  12.412  1.00  0.00     0.112 C 
BRANCH  31  32
HETATM   32  C25 UNL     1      -8.035   4.327  12.484  1.00  0.00     0.218 C 
HETATM   33  O7  UNL     1      -8.943   3.592  12.852  1.00  0.00    -0.274 OA
HETATM   34  N1  UNL     1      -6.809   3.870  12.054  1.00  0.00    -0.357 N 
HETATM   35  H32 UNL     1      -6.051   4.531  11.965  1.00  0.00     0.162 HD
BRANCH  34  36
HETATM   36  C26 UNL     1      -6.461   2.467  12.111  1.00  0.00     0.161 C 
BRANCH  36  37
HETATM   37  C27 UNL     1      -5.033   2.237  11.678  1.00  0.00    -0.040 A 
HETATM   38  C28 UNL     1      -4.314   3.238  11.010  1.00  0.00     0.010 A 
HETATM   39  C29 UNL     1      -2.990   3.017  10.615  1.00  0.00     0.019 A 
HETATM   40  C30 UNL     1      -2.368   1.793  10.894  1.00  0.00     0.037 A 
HETATM   41  C32 UNL     1      -3.075   0.799  11.579  1.00  0.00     0.019 A 
HETATM   42  C33 UNL     1      -4.400   1.019  11.969  1.00  0.00     0.010 A 
BRANCH  40  43
HETATM   43  C31 UNL     1      -0.969   1.508  10.491  1.00  0.00     0.176 C 
HETATM   44  O8  UNL     1      -0.620   0.823   9.547  1.00  0.00    -0.646 OA
BRANCH  43  45
HETATM   45  O9  UNL     1      -0.069   2.108  11.289  1.00  0.00    -0.773 OA
HETATM   46  H37 UNL     1       0.794   1.845  10.902  1.00  0.00     0.167 HD
ENDBRANCH  43  45
ENDBRANCH  40  43
ENDBRANCH  36  37
ENDBRANCH  34  36
ENDBRANCH  31  32
ENDBRANCH  30  31
ENDBRANCH  28  30
ENDBRANCH  27  28
ENDBRANCH  26  27
ENDBRANCH  24  26
ENDBRANCH  21  24
TORSDOF 12
ENDMDL
MODEL 2
REMARK minimizedAffinity -8.51182461
REMARK CNNscore 0.606546819
REMARK CNNaffinity 6.63898659
REMARK  12 active torsions:
REMARK  status: ('A' for Active; 'I' for Inactive)
REMARK    1  A    between atoms: C19_21  and  O3_22 
REMARK    2  A    between atoms: C19_21  and  C20_23 
REMARK    3  A    between atoms: C20_23  and  C21_25 
REMARK    4  A    between atoms: C21_25  and  O5_26 
REMARK    5  A    between atoms: O5_26  and  C22_27 
REMARK    6  A    between atoms: C22_27  and  C23_29 
REMARK    7  A    between atoms: C23_29  and  C24_30 
REMARK    8  A    between atoms: C24_30  and  C25_31 
REMARK       I    between atoms: C25_31  and  N1_33 
REMARK    9  A    between atoms: N1_33  and  C26_34 
REMARK   10  A    between atoms: C26_34  and  C27_35 
REMARK   11  A    between atoms: C30_38  and  C31_39 
REMARK   12  A    between atoms: C31_39  and  O9_41 
ROOT
HETATM    1  C1  UNL     1      -0.734   7.350  11.339  1.00  0.00     0.021 C 
HETATM    2  C2  UNL     1      -0.830   6.391  12.546  1.00  0.00    -0.009 C 
HETATM    3  C3  UNL     1       0.554   5.719  12.796  1.00  0.00     0.022 C 
HETATM    4  C4  UNL     1       0.920   4.647  11.778  1.00  0.00     0.084 C 
HETATM    5  C5  UNL     1      -0.162   3.604  11.695  1.00  0.00     0.149 C 
HETATM    6  O1  UNL     1       0.071   2.429  11.429  1.00  0.00    -0.293 OA
HETATM    7  C6  UNL     1      -1.565   4.047  11.858  1.00  0.00     0.053 C 
HETATM    8  C7  UNL     1      -1.875   5.312  12.199  1.00  0.00    -0.067 C 
HETATM    9  C8  UNL     1      -3.326   5.734  12.227  1.00  0.00     0.035 C 
HETATM   10  C9  UNL     1      -3.694   6.439  13.527  1.00  0.00     0.010 C 
HETATM   11  C10 UNL     1      -2.756   7.622  13.808  1.00  0.00     0.003 C 
HETATM   12  C11 UNL     1      -1.281   7.123  13.862  1.00  0.00     0.072 C 
HETATM   13  C12 UNL     1      -0.359   8.261  14.346  1.00  0.00     0.133 C 
HETATM   14  O2  UNL     1       0.690   8.569  13.785  1.00  0.00    -0.297 OA
HETATM   15  C13 UNL     1      -0.768   8.967  15.633  1.00  0.00     0.091 C 
HETATM   16  C14 UNL     1      -2.198   9.504  15.492  1.00  0.00     0.005 C 
HETATM   17  C15 UNL     1      -2.222  10.614  14.402  1.00  0.00     0.019 C 
HETATM   18  C16 UNL     1      -3.111   8.299  15.142  1.00  0.00     0.002 C 
HETATM   19  C17 UNL     1      -4.521   8.856  15.308  1.00  0.00     0.009 C 
HETATM   20  C18 UNL     1      -4.399   9.892  16.443  1.00  0.00     0.047 C 
HETATM   21  C19 UNL     1      -2.896   9.988  16.804  1.00  0.00     0.128 C 
ENDROOT
BRANCH  21  22
HETATM   22  O3  UNL     1      -2.658   9.063  17.878  1.00  0.00    -0.381 OA
HETATM   23  H25 UNL     1      -1.715   9.128  18.124  1.00  0.00     0.211 HD
ENDBRANCH  21  22
BRANCH  21  24
HETATM   24  C20 UNL     1      -2.473  11.367  17.340  1.00  0.00     0.185 C 
HETATM   25  O4  UNL     1      -2.892  12.409  16.822  1.00  0.00    -0.292 OA
BRANCH  24  26
HETATM   26  C21 UNL     1      -1.380  11.403  18.413  1.00  0.00     0.260 C 
BRANCH  26  27
HETATM   27  O5  UNL     1      -0.414  12.428  18.183  1.00  0.00    -0.314 OA
BRANCH  27  28
HETATM   28  C22 UNL     1       0.671  12.334  19.001  1.00  0.00     0.259 C 
HETATM   29  O6  UNL     1       1.516  13.214  19.129  1.00  0.00    -0.265 OA
BRANCH  28  30
HETATM   30  C23 UNL     1       0.767  10.988  19.675  1.00  0.00     0.120 C 
BRANCH  30  31
HETATM   31  C24 UNL     1       2.161  10.373  19.702  1.00  0.00     0.112 C 
BRANCH  31  32
HETATM   32  C25 UNL     1       2.774  10.384  21.090  1.00  0.00     0.218 C 
HETATM   33  O7  UNL     1       3.231   9.385  21.631  1.00  0.00    -0.274 OA
HETATM   34  N1  UNL     1       2.800  11.640  21.656  1.00  0.00    -0.357 N 
HETATM   35  H32 UNL     1       2.229  12.366  21.249  1.00  0.00     0.162 HD
BRANCH  34  36
HETATM   36  C26 UNL     1       3.281  11.852  23.004  1.00  0.00     0.161 C 
BRANCH  36  37
HETATM   37  C27 UNL     1       4.662  12.460  23.005  1.00  0.00    -0.040 A 
HETATM   38  C28 UNL     1       4.837  13.851  23.013  1.00  0.00     0.010 A 
HETATM   39  C29 UNL     1       6.121  14.406  23.017  1.00  0.00     0.019 A 
HETATM   40  C30 UNL     1       7.247  13.571  23.023  1.00  0.00     0.037 A 
HETATM   41  C32 UNL     1       7.078  12.182  23.035  1.00  0.00     0.019 A 
HETATM   42  C33 UNL     1       5.794  11.630  23.027  1.00  0.00     0.010 A 
BRANCH  40  43
HETATM   43  C31 UNL     1       8.629  14.110  23.021  1.00  0.00     0.176 C 
HETATM   44  O8  UNL     1       9.368  14.186  22.056  1.00  0.00    -0.646 OA
BRANCH  43  45
HETATM   45  O9  UNL     1       9.019  14.538  24.234  1.00  0.00    -0.773 OA
HETATM   46  H37 UNL     1       9.929  14.871  24.080  1.00  0.00     0.167 HD
ENDBRANCH  43  45
ENDBRANCH  40  43
ENDBRANCH  36  37
ENDBRANCH  34  36
ENDBRANCH  31  32
ENDBRANCH  30  31
ENDBRANCH  28  30
ENDBRANCH  27  28
ENDBRANCH  26  27
ENDBRANCH  24  26
ENDBRANCH  21  24
TORSDOF 12
ENDMDL
MODEL 3
REMARK minimizedAffinity -9.70039558
REMARK CNNscore 0.562145352
REMARK CNNaffinity 7.16300726
REMARK  12 active torsions:
REMARK  status: ('A' for Active; 'I' for Inactive)
REMARK    1  A    between atoms: C19_21  and  O3_22 
REMARK    2  A    between atoms: C19_21  and  C20_23 
REMARK    3  A    between atoms: C20_23  and  C21_25 
REMARK    4  A    between atoms: C21_25  and  O5_26 
REMARK    5  A    between atoms: O5_26  and  C22_27 
REMARK    6  A    between atoms: C22_27  and  C23_29 
REMARK    7  A    between atoms: C23_29  and  C24_30 
REMARK    8  A    between atoms: C24_30  and  C25_31 
REMARK       I    between atoms: C25_31  and  N1_33 
REMARK    9  A    between atoms: N1_33  and  C26_34 
REMARK   10  A    between atoms: C26_34  and  C27_35 
REMARK   11  A    between atoms: C30_38  and  C31_39 
REMARK   12  A    between atoms: C31_39  and  O9_41 
ROOT
HETATM    1  C1  UNL     1       2.928   7.061  11.643  1.00  0.00     0.021 C 
HETATM    2  C2  UNL     1       1.848   6.342  10.805  1.00  0.00    -0.009 C 
HETATM    3  C3  UNL     1       2.208   4.832  10.666  1.00  0.00     0.022 C 
HETATM    4  C4  UNL     1       3.358   4.551   9.708  1.00  0.00     0.084 C 
HETATM    5  C5  UNL     1       3.079   5.150   8.356  1.00  0.00     0.149 C 
HETATM    6  O1  UNL     1       3.494   4.653   7.313  1.00  0.00    -0.293 OA
HETATM    7  C6  UNL     1       2.348   6.436   8.306  1.00  0.00     0.053 C 
HETATM    8  C7  UNL     1       1.828   7.001   9.411  1.00  0.00    -0.067 C 
HETATM    9  C8  UNL     1       1.203   8.374   9.315  1.00  0.00     0.035 C 
HETATM   10  C9  UNL     1      -0.181   8.420   9.951  1.00  0.00     0.010 C 
HETATM   11  C10 UNL     1      -0.150   7.915  11.400  1.00  0.00     0.003 C 
HETATM   12  C11 UNL     1       0.414   6.464  11.439  1.00  0.00     0.072 C 
HETATM   13  C12 UNL     1       0.256   5.876  12.856  1.00  0.00     0.133 C 
HETATM   14  O2  UNL     1       1.163   5.306  13.459  1.00  0.00    -0.297 OA
HETATM   15  C13 UNL     1      -1.133   5.964  13.478  1.00  0.00     0.091 C 
HETATM   16  C14 UNL     1      -1.602   7.424  13.483  1.00  0.00     0.005 C 
HETATM   17  C15 UNL     1      -0.687   8.252  14.431  1.00  0.00     0.019 C 
HETATM   18  C16 UNL     1      -1.558   7.928  12.016  1.00  0.00     0.002 C 
HETATM   19  C17 UNL     1      -2.303   9.258  12.071  1.00  0.00     0.009 C 
HETATM   20  C18 UNL     1      -3.365   9.065  13.170  1.00  0.00     0.047 C 
HETATM   21  C19 UNL     1      -3.112   7.672  13.800  1.00  0.00     0.128 C 
ENDROOT
BRANCH  21  22
HETATM   22  O3  UNL     1      -3.940   6.732  13.097  1.00  0.00    -0.381 OA
HETATM   23  H25 UNL     1      -3.800   5.853  13.498  1.00  0.00     0.211 HD
ENDBRANCH  21  22
BRANCH  21  24
HETATM   24  C20 UNL     1      -3.530   7.574  15.278  1.00  0.00     0.185 C 
HETATM   25  O4  UNL     1      -2.707   7.738  16.186  1.00  0.00    -0.292 OA
BRANCH  24  26
HETATM   26  C21 UNL     1      -4.952   7.091  15.579  1.00  0.00     0.260 C 
BRANCH  26  27
HETATM   27  O5  UNL     1      -5.860   8.164  15.824  1.00  0.00    -0.314 OA
BRANCH  27  28
HETATM   28  C22 UNL     1      -7.073   7.985  15.233  1.00  0.00     0.259 C 
HETATM   29  O6  UNL     1      -7.879   8.886  15.024  1.00  0.00    -0.265 OA
BRANCH  28  30
HETATM   30  C23 UNL     1      -7.359   6.533  14.938  1.00  0.00     0.120 C 
BRANCH  30  31
HETATM   31  C24 UNL     1      -8.578   6.276  14.060  1.00  0.00     0.112 C 
BRANCH  31  32
HETATM   32  C25 UNL     1      -8.323   5.214  13.008  1.00  0.00     0.218 C 
HETATM   33  O7  UNL     1      -8.540   5.384  11.814  1.00  0.00    -0.274 OA
HETATM   34  N1  UNL     1      -7.786   4.058  13.530  1.00  0.00    -0.357 N 
HETATM   35  H32 UNL     1      -7.828   3.913  14.528  1.00  0.00     0.162 HD
BRANCH  34  36
HETATM   36  C26 UNL     1      -7.536   2.898  12.702  1.00  0.00     0.161 C 
BRANCH  36  37
HETATM   37  C27 UNL     1      -6.085   2.818  12.292  1.00  0.00    -0.040 A 
HETATM   38  C28 UNL     1      -5.220   3.904  12.493  1.00  0.00     0.010 A 
HETATM   39  C29 UNL     1      -3.876   3.820  12.113  1.00  0.00     0.019 A 
HETATM   40  C30 UNL     1      -3.380   2.643  11.536  1.00  0.00     0.037 A 
HETATM   41  C32 UNL     1      -4.235   1.550  11.353  1.00  0.00     0.019 A 
HETATM   42  C33 UNL     1      -5.579   1.637  11.729  1.00  0.00     0.010 A 
BRANCH  40  43
HETATM   43  C31 UNL     1      -1.966   2.507  11.112  1.00  0.00     0.176 C 
HETATM   44  O8  UNL     1      -0.986   2.719  11.803  1.00  0.00    -0.646 OA
BRANCH  43  45
HETATM   45  O9  UNL     1      -1.846   2.100   9.836  1.00  0.00    -0.773 OA
HETATM   46  H37 UNL     1      -0.875   2.044   9.703  1.00  0.00     0.167 HD
ENDBRANCH  43  45
ENDBRANCH  40  43
ENDBRANCH  36  37
ENDBRANCH  34  36
ENDBRANCH  31  32
ENDBRANCH  30  31
ENDBRANCH  28  30
ENDBRANCH  27  28
ENDBRANCH  26  27
ENDBRANCH  24  26
ENDBRANCH  21  24
TORSDOF 12
ENDMDL
MODEL 4
REMARK minimizedAffinity -7.84881067
REMARK CNNscore 0.547117054
REMARK CNNaffinity 7.28313589
REMARK  12 active torsions:
REMARK  status: ('A' for Active; 'I' for Inactive)
REMARK    1  A    between atoms: C19_21  and  O3_22 
REMARK    2  A    between atoms: C19_21  and  C20_23 
REMARK    3  A    between atoms: C20_23  and  C21_25 
REMARK    4  A    between atoms: C21_25  and  O5_26 
REMARK    5  A    between atoms: O5_26  and  C22_27 
REMARK    6  A    between atoms: C22_27  and  C23_29 
REMARK    7  A    between atoms: C23_29  and  C24_30 
REMARK    8  A    between atoms: C24_30  and  C25_31 
REMARK       I    between atoms: C25_31  and  N1_33 
REMARK    9  A    between atoms: N1_33  and  C26_34 
REMARK   10  A    between atoms: C26_34  and  C27_35 
REMARK   11  A    between atoms: C30_38  and  C31_39 
REMARK   12  A    between atoms: C31_39  and  O9_41 
ROOT
HETATM    1  C1  UNL     1      -7.710   4.304  14.814  1.00  0.00     0.021 C 
HETATM    2  C2  UNL     1      -7.186   5.666  14.308  1.00  0.00    -0.009 C 
HETATM    3  C3  UNL     1      -6.299   5.451  13.044  1.00  0.00     0.022 C 
HETATM    4  C4  UNL     1      -4.928   4.859  13.337  1.00  0.00     0.084 C 
HETATM    5  C5  UNL     1      -4.197   5.693  14.355  1.00  0.00     0.149 C 
HETATM    6  O1  UNL     1      -2.974   5.803  14.367  1.00  0.00    -0.293 OA
HETATM    7  C6  UNL     1      -4.993   6.331  15.428  1.00  0.00     0.053 C 
HETATM    8  C7  UNL     1      -6.338   6.285  15.437  1.00  0.00    -0.067 C 
HETATM    9  C8  UNL     1      -7.088   6.846  16.623  1.00  0.00     0.035 C 
HETATM   10  C9  UNL     1      -8.200   7.799  16.202  1.00  0.00     0.010 C 
HETATM   11  C10 UNL     1      -9.151   7.140  15.193  1.00  0.00     0.003 C 
HETATM   12  C11 UNL     1      -8.347   6.662  13.947  1.00  0.00     0.072 C 
HETATM   13  C12 UNL     1      -9.318   6.189  12.845  1.00  0.00     0.133 C 
HETATM   14  O2  UNL     1      -9.192   5.127  12.241  1.00  0.00    -0.297 OA
HETATM   15  C13 UNL     1     -10.437   7.151  12.466  1.00  0.00     0.091 C 
HETATM   16  C14 UNL     1     -11.241   7.525  13.718  1.00  0.00     0.005 C 
HETATM   17  C15 UNL     1     -11.968   6.258  14.255  1.00  0.00     0.019 C 
HETATM   18  C16 UNL     1     -10.243   8.125  14.744  1.00  0.00     0.002 C 
HETATM   19  C17 UNL     1     -11.148   8.726  15.815  1.00  0.00     0.009 C 
HETATM   20  C18 UNL     1     -12.401   9.192  15.049  1.00  0.00     0.047 C 
HETATM   21  C19 UNL     1     -12.230   8.727  13.582  1.00  0.00     0.128 C 
ENDROOT
BRANCH  21  22
HETATM   22  O3  UNL     1     -11.619   9.809  12.862  1.00  0.00    -0.381 OA
HETATM   23  H25 UNL     1     -11.521   9.531  11.931  1.00  0.00     0.211 HD
ENDBRANCH  21  22
BRANCH  21  24
HETATM   24  C20 UNL     1     -13.560   8.444  12.861  1.00  0.00     0.185 C 
HETATM   25  O4  UNL     1     -14.023   9.243  12.038  1.00  0.00    -0.292 OA
BRANCH  24  26
HETATM   26  C21 UNL     1     -14.373   7.233  13.329  1.00  0.00     0.260 C 
BRANCH  26  27
HETATM   27  O5  UNL     1     -15.550   7.603  14.047  1.00  0.00    -0.314 OA
BRANCH  27  28
HETATM   28  C22 UNL     1     -16.695   7.395  13.340  1.00  0.00     0.259 C 
HETATM   29  O6  UNL     1     -17.616   8.202  13.266  1.00  0.00    -0.265 OA
BRANCH  28  30
HETATM   30  C23 UNL     1     -16.747   6.020  12.721  1.00  0.00     0.120 C 
BRANCH  30  31
HETATM   31  C24 UNL     1     -17.515   4.976  13.523  1.00  0.00     0.112 C 
BRANCH  31  32
HETATM   32  C25 UNL     1     -16.635   4.244  14.518  1.00  0.00     0.218 C 
HETATM   33  O7  UNL     1     -16.363   4.687  15.628  1.00  0.00    -0.274 OA
HETATM   34  N1  UNL     1     -16.210   3.017  14.060  1.00  0.00    -0.357 N 
HETATM   35  H32 UNL     1     -16.297   2.812  13.075  1.00  0.00     0.162 HD
BRANCH  34  36
HETATM   36  C26 UNL     1     -15.304   2.193  14.830  1.00  0.00     0.161 C 
BRANCH  36  37
HETATM   37  C27 UNL     1     -16.045   1.109  15.573  1.00  0.00    -0.040 A 
HETATM   38  C28 UNL     1     -15.517   0.551  16.747  1.00  0.00     0.010 A 
HETATM   39  C29 UNL     1     -16.212  -0.452  17.432  1.00  0.00     0.019 A 
HETATM   40  C30 UNL     1     -17.450  -0.901  16.953  1.00  0.00     0.037 A 
HETATM   41  C32 UNL     1     -17.990  -0.333  15.794  1.00  0.00     0.019 A 
HETATM   42  C33 UNL     1     -17.292   0.665  15.108  1.00  0.00     0.010 A 
BRANCH  40  43
HETATM   43  C31 UNL     1     -18.222  -1.965  17.639  1.00  0.00     0.176 C 
HETATM   44  O8  UNL     1     -19.381  -2.267  17.417  1.00  0.00    -0.646 OA
BRANCH  43  45
HETATM   45  O9  UNL     1     -17.499  -2.611  18.570  1.00  0.00    -0.773 OA
HETATM   46  H37 UNL     1     -18.123  -3.280  18.924  1.00  0.00     0.167 HD
ENDBRANCH  43  45
ENDBRANCH  40  43
ENDBRANCH  36  37
ENDBRANCH  34  36
ENDBRANCH  31  32
ENDBRANCH  30  31
ENDBRANCH  28  30
ENDBRANCH  27  28
ENDBRANCH  26  27
ENDBRANCH  24  26
ENDBRANCH  21  24
TORSDOF 12
ENDMDL
MODEL 5
REMARK minimizedAffinity -8.01397038
REMARK CNNscore 0.495573759
REMARK CNNaffinity 7.37915659
REMARK  12 active torsions:
REMARK  status: ('A' for Active; 'I' for Inactive)
REMARK    1  A    between atoms: C19_21  and  O3_22 
REMARK    2  A    between atoms: C19_21  and  C20_23 
REMARK    3  A    between atoms: C20_23  and  C21_25 
REMARK    4  A    between atoms: C21_25  and  O5_26 
REMARK    5  A    between atoms: O5_26  and  C22_27 
REMARK    6  A    between atoms: C22_27  and  C23_29 
REMARK    7  A    between atoms: C23_29  and  C24_30 
REMARK    8  A    between atoms: C24_30  and  C25_31 
REMARK       I    between atoms: C25_31  and  N1_33 
REMARK    9  A    between atoms: N1_33  and  C26_34 
REMARK   10  A    between atoms: C26_34  and  C27_35 
REMARK   11  A    between atoms: C30_38  and  C31_39 
REMARK   12  A    between atoms: C31_39  and  O9_41 
ROOT
HETATM    1  C1  UNL     1      -7.773   4.339  14.785  1.00  0.00     0.021 C 
HETATM    2  C2  UNL     1      -7.233   5.712  14.329  1.00  0.00    -0.009 C 
HETATM    3  C3  UNL     1      -6.354   5.534  13.053  1.00  0.00     0.022 C 
HETATM    4  C4  UNL     1      -4.990   4.912  13.317  1.00  0.00     0.084 C 
HETATM    5  C5  UNL     1      -4.244   5.697  14.362  1.00  0.00     0.149 C 
HETATM    6  O1  UNL     1      -3.020   5.790  14.372  1.00  0.00    -0.293 OA
HETATM    7  C6  UNL     1      -5.026   6.304  15.462  1.00  0.00     0.053 C 
HETATM    8  C7  UNL     1      -6.372   6.276  15.476  1.00  0.00    -0.067 C 
HETATM    9  C8  UNL     1      -7.109   6.801  16.687  1.00  0.00     0.035 C 
HETATM   10  C9  UNL     1      -8.209   7.785  16.307  1.00  0.00     0.010 C 
HETATM   11  C10 UNL     1      -9.174   7.178  15.279  1.00  0.00     0.003 C 
HETATM   12  C11 UNL     1      -8.382   6.736  14.012  1.00  0.00     0.072 C 
HETATM   13  C12 UNL     1      -9.364   6.318  12.898  1.00  0.00     0.133 C 
HETATM   14  O2  UNL     1      -9.255   5.279  12.252  1.00  0.00    -0.297 OA
HETATM   15  C13 UNL     1     -10.472   7.310  12.561  1.00  0.00     0.091 C 
HETATM   16  C14 UNL     1     -11.265   7.646  13.830  1.00  0.00     0.005 C 
HETATM   17  C15 UNL     1     -12.007   6.369  14.322  1.00  0.00     0.019 C 
HETATM   18  C16 UNL     1     -10.254   8.193  14.873  1.00  0.00     0.002 C 
HETATM   19  C17 UNL     1     -11.146   8.765  15.970  1.00  0.00     0.009 C 
HETATM   20  C18 UNL     1     -12.397   9.276  15.229  1.00  0.00     0.047 C 
HETATM   21  C19 UNL     1     -12.238   8.865  13.744  1.00  0.00     0.128 C 
ENDROOT
BRANCH  21  22
HETATM   22  O3  UNL     1     -11.616   9.966  13.064  1.00  0.00    -0.381 OA
HETATM   23  H25 UNL     1     -11.526   9.723  12.122  1.00  0.00     0.211 HD
ENDBRANCH  21  22
BRANCH  21  24
HETATM   24  C20 UNL     1     -13.575   8.628  13.020  1.00  0.00     0.185 C 
HETATM   25  O4  UNL     1     -13.804   9.140  11.918  1.00  0.00    -0.292 OA
BRANCH  24  26
HETATM   26  C21 UNL     1     -14.673   7.888  13.789  1.00  0.00     0.260 C 
BRANCH  26  27
HETATM   27  O5  UNL     1     -15.760   7.490  12.954  1.00  0.00    -0.314 OA
BRANCH  27  28
HETATM   28  C22 UNL     1     -16.278   6.277  13.290  1.00  0.00     0.259 C 
HETATM   29  O6  UNL     1     -17.002   5.609  12.559  1.00  0.00    -0.265 OA
BRANCH  28  30
HETATM   30  C23 UNL     1     -15.931   5.876  14.703  1.00  0.00     0.120 C 
BRANCH  30  31
HETATM   31  C24 UNL     1     -15.253   4.519  14.846  1.00  0.00     0.112 C 
BRANCH  31  32
HETATM   32  C25 UNL     1     -16.241   3.401  15.120  1.00  0.00     0.218 C 
HETATM   33  O7  UNL     1     -16.817   3.261  16.193  1.00  0.00    -0.274 OA
HETATM   34  N1  UNL     1     -16.452   2.590  14.027  1.00  0.00    -0.357 N 
HETATM   35  H32 UNL     1     -15.801   2.637  13.257  1.00  0.00     0.162 HD
BRANCH  34  36
HETATM   36  C26 UNL     1     -17.305   1.424  14.104  1.00  0.00     0.161 C 
BRANCH  36  37
HETATM   37  C27 UNL     1     -16.494   0.158  14.234  1.00  0.00    -0.040 A 
HETATM   38  C28 UNL     1     -16.225  -0.642  13.114  1.00  0.00     0.010 A 
HETATM   39  C29 UNL     1     -15.469  -1.813  13.244  1.00  0.00     0.019 A 
HETATM   40  C30 UNL     1     -14.967  -2.191  14.496  1.00  0.00     0.037 A 
HETATM   41  C32 UNL     1     -15.217  -1.385  15.612  1.00  0.00     0.019 A 
HETATM   42  C33 UNL     1     -15.975  -0.218  15.482  1.00  0.00     0.010 A 
BRANCH  40  43
HETATM   43  C31 UNL     1     -14.167  -3.425  14.686  1.00  0.00     0.176 C 
HETATM   44  O8  UNL     1     -13.292  -3.592  15.517  1.00  0.00    -0.646 OA
BRANCH  43  45
HETATM   45  O9  UNL     1     -14.509  -4.400  13.827  1.00  0.00    -0.773 OA
HETATM   46  H37 UNL     1     -13.917  -5.143  14.074  1.00  0.00     0.167 HD
ENDBRANCH  43  45
ENDBRANCH  40  43
ENDBRANCH  36  37
ENDBRANCH  34  36
ENDBRANCH  31  32
ENDBRANCH  30  31
ENDBRANCH  28  30
ENDBRANCH  27  28
ENDBRANCH  26  27
ENDBRANCH  24  26
ENDBRANCH  21  24
TORSDOF 12
ENDMDL
MODEL 6
REMARK minimizedAffinity -7.9414115
REMARK CNNscore 0.414693505
REMARK CNNaffinity 6.36256456
REMARK  12 active torsions:
REMARK  status: ('A' for Active; 'I' for Inactive)
REMARK    1  A    between atoms: C19_21  and  O3_22 
REMARK    2  A    between atoms: C19_21  and  C20_23 
REMARK    3  A    between atoms: C20_23  and  C21_25 
REMARK    4  A    between atoms: C21_25  and  O5_26 
REMARK    5  A    between atoms: O5_26  and  C22_27 
REMARK    6  A    between atoms: C22_27  and  C23_29 
REMARK    7  A    between atoms: C23_29  and  C24_30 
REMARK    8  A    between atoms: C24_30  and  C25_31 
REMARK       I    between atoms: C25_31  and  N1_33 
REMARK    9  A    between atoms: N1_33  and  C26_34 
REMARK   10  A    between atoms: C26_34  and  C27_35 
REMARK   11  A    between atoms: C30_38  and  C31_39 
REMARK   12  A    between atoms: C31_39  and  O9_41 
ROOT
HETATM    1  C1  UNL     1      -2.741   7.757  12.632  1.00  0.00     0.021 C 
HETATM    2  C2  UNL     1      -3.305   7.052  13.884  1.00  0.00    -0.009 C 
HETATM    3  C3  UNL     1      -2.679   5.631  14.016  1.00  0.00     0.022 C 
HETATM    4  C4  UNL     1      -3.216   4.617  13.015  1.00  0.00     0.084 C 
HETATM    5  C5  UNL     1      -4.718   4.539  13.095  1.00  0.00     0.149 C 
HETATM    6  O1  UNL     1      -5.340   3.507  12.860  1.00  0.00    -0.293 OA
HETATM    7  C6  UNL     1      -5.462   5.784  13.387  1.00  0.00     0.053 C 
HETATM    8  C7  UNL     1      -4.831   6.932  13.700  1.00  0.00    -0.067 C 
HETATM    9  C8  UNL     1      -5.640   8.198  13.864  1.00  0.00     0.035 C 
HETATM   10  C9  UNL     1      -5.312   8.925  15.162  1.00  0.00     0.010 C 
HETATM   11  C10 UNL     1      -3.806   9.197  15.288  1.00  0.00     0.003 C 
HETATM   12  C11 UNL     1      -3.020   7.854  15.206  1.00  0.00     0.072 C 
HETATM   13  C12 UNL     1      -1.533   8.095  15.537  1.00  0.00     0.133 C 
HETATM   14  O2  UNL     1      -0.608   7.662  14.854  1.00  0.00    -0.297 OA
HETATM   15  C13 UNL     1      -1.237   8.851  16.827  1.00  0.00     0.091 C 
HETATM   16  C14 UNL     1      -1.973  10.196  16.815  1.00  0.00     0.005 C 
HETATM   17  C15 UNL     1      -1.387  11.090  15.684  1.00  0.00     0.019 C 
HETATM   18  C16 UNL     1      -3.483   9.893  16.619  1.00  0.00     0.002 C 
HETATM   19  C17 UNL     1      -4.157  11.230  16.909  1.00  0.00     0.009 C 
HETATM   20  C18 UNL     1      -3.265  11.894  17.976  1.00  0.00     0.047 C 
HETATM   21  C19 UNL     1      -2.036  10.971  18.170  1.00  0.00     0.128 C 
ENDROOT
BRANCH  21  22
HETATM   22  O3  UNL     1      -2.342  10.079  19.253  1.00  0.00    -0.381 OA
HETATM   23  H25 UNL     1      -1.566   9.503  19.394  1.00  0.00     0.211 HD
ENDBRANCH  21  22
BRANCH  21  24
HETATM   24  C20 UNL     1      -0.759  11.719  18.594  1.00  0.00     0.185 C 
HETATM   25  O4  UNL     1      -0.303  12.643  17.910  1.00  0.00    -0.292 OA
BRANCH  24  26
HETATM   26  C21 UNL     1       0.021  11.162  19.789  1.00  0.00     0.260 C 
BRANCH  26  27
HETATM   27  O5  UNL     1       1.212  10.477  19.400  1.00  0.00    -0.314 OA
BRANCH  27  28
HETATM   28  C22 UNL     1       2.104  10.335  20.419  1.00  0.00     0.259 C 
HETATM   29  O6  UNL     1       2.359   9.269  20.969  1.00  0.00    -0.265 OA
BRANCH  28  30
HETATM   30  C23 UNL     1       2.689  11.655  20.857  1.00  0.00     0.120 C 
BRANCH  30  31
HETATM   31  C24 UNL     1       4.191  11.647  21.113  1.00  0.00     0.112 C 
BRANCH  31  32
HETATM   32  C25 UNL     1       4.963  12.426  20.065  1.00  0.00     0.218 C 
HETATM   33  O7  UNL     1       4.657  12.443  18.878  1.00  0.00    -0.274 OA
HETATM   34  N1  UNL     1       6.014  13.143  20.593  1.00  0.00    -0.357 N 
HETATM   35  H32 UNL     1       6.329  12.922  21.526  1.00  0.00     0.162 HD
BRANCH  34  36
HETATM   36  C26 UNL     1       6.917  13.896  19.750  1.00  0.00     0.161 C 
BRANCH  36  37
HETATM   37  C27 UNL     1       8.311  13.317  19.784  1.00  0.00    -0.040 A 
HETATM   38  C28 UNL     1       8.513  11.933  19.885  1.00  0.00     0.010 A 
HETATM   39  C29 UNL     1       9.809  11.406  19.914  1.00  0.00     0.019 A 
HETATM   40  C30 UNL     1      10.918  12.259  19.831  1.00  0.00     0.037 A 
HETATM   41  C32 UNL     1      10.720  13.639  19.710  1.00  0.00     0.019 A 
HETATM   42  C33 UNL     1       9.425  14.165  19.686  1.00  0.00     0.010 A 
BRANCH  40  43
HETATM   43  C31 UNL     1      12.310  11.749  19.863  1.00  0.00     0.176 C 
HETATM   44  O8  UNL     1      13.155  12.024  20.696  1.00  0.00    -0.646 OA
BRANCH  43  45
HETATM   45  O9  UNL     1      12.577  10.909  18.849  1.00  0.00    -0.773 OA
HETATM   46  H37 UNL     1      13.510  10.649  19.004  1.00  0.00     0.167 HD
ENDBRANCH  43  45
ENDBRANCH  40  43
ENDBRANCH  36  37
ENDBRANCH  34  36
ENDBRANCH  31  32
ENDBRANCH  30  31
ENDBRANCH  28  30
ENDBRANCH  27  28
ENDBRANCH  26  27
ENDBRANCH  24  26
ENDBRANCH  21  24
TORSDOF 12
ENDMDL
MODEL 7
REMARK minimizedAffinity -9.63334274
REMARK CNNscore 0.398053497
REMARK CNNaffinity 7.16025782
REMARK  12 active torsions:
REMARK  status: ('A' for Active; 'I' for Inactive)
REMARK    1  A    between atoms: C19_21  and  O3_22 
REMARK    2  A    between atoms: C19_21  and  C20_23 
REMARK    3  A    between atoms: C20_23  and  C21_25 
REMARK    4  A    between atoms: C21_25  and  O5_26 
REMARK    5  A    between atoms: O5_26  and  C22_27 
REMARK    6  A    between atoms: C22_27  and  C23_29 
REMARK    7  A    between atoms: C23_29  and  C24_30 
REMARK    8  A    between atoms: C24_30  and  C25_31 
REMARK       I    between atoms: C25_31  and  N1_33 
REMARK    9  A    between atoms: N1_33  and  C26_34 
REMARK   10  A    between atoms: C26_34  and  C27_35 
REMARK   11  A    between atoms: C30_38  and  C31_39 
REMARK   12  A    between atoms: C31_39  and  O9_41 
ROOT
HETATM    1  C1  UNL     1       3.008   8.663  10.443  1.00  0.00     0.021 C 
HETATM    2  C2  UNL     1       3.378   7.637  11.536  1.00  0.00    -0.009 C 
HETATM    3  C3  UNL     1       4.663   8.104  12.283  1.00  0.00     0.022 C 
HETATM    4  C4  UNL     1       5.946   7.941  11.480  1.00  0.00     0.084 C 
HETATM    5  C5  UNL     1       6.100   6.519  11.011  1.00  0.00     0.149 C 
HETATM    6  O1  UNL     1       7.196   5.987  10.859  1.00  0.00    -0.293 OA
HETATM    7  C6  UNL     1       4.875   5.775  10.643  1.00  0.00     0.053 C 
HETATM    8  C7  UNL     1       3.646   6.290  10.836  1.00  0.00    -0.067 C 
HETATM    9  C8  UNL     1       2.441   5.535  10.325  1.00  0.00     0.035 C 
HETATM   10  C9  UNL     1       1.364   5.380  11.393  1.00  0.00     0.010 C 
HETATM   11  C10 UNL     1       0.968   6.737  11.991  1.00  0.00     0.003 C 
HETATM   12  C11 UNL     1       2.227   7.436  12.588  1.00  0.00     0.072 C 
HETATM   13  C12 UNL     1       1.806   8.698  13.370  1.00  0.00     0.133 C 
HETATM   14  O2  UNL     1       2.346   9.793  13.232  1.00  0.00    -0.297 OA
HETATM   15  C13 UNL     1       0.707   8.518  14.410  1.00  0.00     0.091 C 
HETATM   16  C14 UNL     1      -0.531   7.900  13.748  1.00  0.00     0.005 C 
HETATM   17  C15 UNL     1      -1.118   8.908  12.718  1.00  0.00     0.019 C 
HETATM   18  C16 UNL     1      -0.086   6.564  13.095  1.00  0.00     0.002 C 
HETATM   19  C17 UNL     1      -1.403   5.889  12.726  1.00  0.00     0.009 C 
HETATM   20  C18 UNL     1      -2.393   6.341  13.818  1.00  0.00     0.047 C 
HETATM   21  C19 UNL     1      -1.643   7.364  14.708  1.00  0.00     0.128 C 
ENDROOT
BRANCH  21  22
HETATM   22  O3  UNL     1      -1.064   6.633  15.800  1.00  0.00    -0.381 OA
HETATM   23  H25 UNL     1      -0.602   7.272  16.375  1.00  0.00     0.211 HD
ENDBRANCH  21  22
BRANCH  21  24
HETATM   24  C20 UNL     1      -2.562   8.418  15.351  1.00  0.00     0.185 C 
HETATM   25  O4  UNL     1      -2.270   8.946  16.430  1.00  0.00    -0.292 OA
BRANCH  24  26
HETATM   26  C21 UNL     1      -3.929   8.654  14.701  1.00  0.00     0.260 C 
BRANCH  26  27
HETATM   27  O5  UNL     1      -4.996   8.036  15.420  1.00  0.00    -0.314 OA
BRANCH  27  28
HETATM   28  C22 UNL     1      -5.925   7.460  14.609  1.00  0.00     0.259 C 
HETATM   29  O6  UNL     1      -5.829   7.395  13.388  1.00  0.00    -0.265 OA
BRANCH  28  30
HETATM   30  C23 UNL     1      -7.137   6.983  15.371  1.00  0.00     0.120 C 
BRANCH  30  31
HETATM   31  C24 UNL     1      -8.448   7.018  14.596  1.00  0.00     0.112 C 
BRANCH  31  32
HETATM   32  C25 UNL     1      -8.548   5.903  13.572  1.00  0.00     0.218 C 
HETATM   33  O7  UNL     1      -9.127   6.025  12.500  1.00  0.00    -0.274 OA
HETATM   34  N1  UNL     1      -7.887   4.758  13.958  1.00  0.00    -0.357 N 
HETATM   35  H32 UNL     1      -7.616   4.659  14.926  1.00  0.00     0.162 HD
BRANCH  34  36
HETATM   36  C26 UNL     1      -7.922   3.556  13.154  1.00  0.00     0.161 C 
BRANCH  36  37
HETATM   37  C27 UNL     1      -6.553   3.211  12.622  1.00  0.00    -0.040 A 
HETATM   38  C28 UNL     1      -5.430   3.973  12.977  1.00  0.00     0.010 A 
HETATM   39  C29 UNL     1      -4.164   3.644  12.481  1.00  0.00     0.019 A 
HETATM   40  C30 UNL     1      -4.006   2.542  11.630  1.00  0.00     0.037 A 
HETATM   41  C32 UNL     1      -5.120   1.768  11.289  1.00  0.00     0.019 A 
HETATM   42  C33 UNL     1      -6.386   2.099  11.782  1.00  0.00     0.010 A 
BRANCH  40  43
HETATM   43  C31 UNL     1      -2.686   2.157  11.073  1.00  0.00     0.176 C 
HETATM   44  O8  UNL     1      -1.851   2.916  10.616  1.00  0.00    -0.646 OA
BRANCH  43  45
HETATM   45  O9  UNL     1      -2.471   0.831  11.124  1.00  0.00    -0.773 OA
HETATM   46  H37 UNL     1      -1.573   0.729  10.741  1.00  0.00     0.167 HD
ENDBRANCH  43  45
ENDBRANCH  40  43
ENDBRANCH  36  37
ENDBRANCH  34  36
ENDBRANCH  31  32
ENDBRANCH  30  31
ENDBRANCH  28  30
ENDBRANCH  27  28
ENDBRANCH  26  27
ENDBRANCH  24  26
ENDBRANCH  21  24
TORSDOF 12
ENDMDL
MODEL 8
REMARK minimizedAffinity -9.54484177
REMARK CNNscore 0.363282919
REMARK CNNaffinity 6.779531
REMARK  12 active torsions:
REMARK  status: ('A' for Active; 'I' for Inactive)
REMARK    1  A    between atoms: C19_21  and  O3_22 
REMARK    2  A    between atoms: C19_21  and  C20_23 
REMARK    3  A    between atoms: C20_23  and  C21_25 
REMARK    4  A    between atoms: C21_25  and  O5_26 
REMARK    5  A    between atoms: O5_26  and  C22_27 
REMARK    6  A    between atoms: C22_27  and  C23_29 
REMARK    7  A    between atoms: C23_29  and  C24_30 
REMARK    8  A    between atoms: C24_30  and  C25_31 
REMARK       I    between atoms: C25_31  and  N1_33 
REMARK    9  A    between atoms: N1_33  and  C26_34 
REMARK   10  A    between atoms: C26_34  and  C27_35 
REMARK   11  A    between atoms: C30_38  and  C31_39 
REMARK   12  A    between atoms: C31_39  and  O9_41 
ROOT
HETATM    1  C1  UNL     1       2.291   6.159  11.654  1.00  0.00     0.021 C 
HETATM    2  C2  UNL     1       2.411   7.696  11.746  1.00  0.00    -0.009 C 
HETATM    3  C3  UNL     1       2.695   8.288  10.332  1.00  0.00     0.022 C 
HETATM    4  C4  UNL     1       4.113   8.054   9.831  1.00  0.00     0.084 C 
HETATM    5  C5  UNL     1       5.118   8.568  10.827  1.00  0.00     0.149 C 
HETATM    6  O1  UNL     1       6.213   9.013  10.493  1.00  0.00    -0.293 OA
HETATM    7  C6  UNL     1       4.792   8.447  12.266  1.00  0.00     0.053 C 
HETATM    8  C7  UNL     1       3.590   8.013  12.688  1.00  0.00    -0.067 C 
HETATM    9  C8  UNL     1       3.362   7.792  14.165  1.00  0.00     0.035 C 
HETATM   10  C9  UNL     1       2.086   8.466  14.656  1.00  0.00     0.010 C 
HETATM   11  C10 UNL     1       0.869   8.035  13.827  1.00  0.00     0.003 C 
HETATM   12  C11 UNL     1       1.112   8.368  12.324  1.00  0.00     0.072 C 
HETATM   13  C12 UNL     1      -0.181   8.130  11.517  1.00  0.00     0.133 C 
HETATM   14  O2  UNL     1      -0.217   7.498  10.464  1.00  0.00    -0.297 OA
HETATM   15  C13 UNL     1      -1.446   8.793  12.049  1.00  0.00     0.091 C 
HETATM   16  C14 UNL     1      -1.676   8.367  13.505  1.00  0.00     0.005 C 
HETATM   17  C15 UNL     1      -1.975   6.840  13.550  1.00  0.00     0.019 C 
HETATM   18  C16 UNL     1      -0.403   8.753  14.305  1.00  0.00     0.002 C 
HETATM   19  C17 UNL     1      -0.824   8.570  15.759  1.00  0.00     0.009 C 
HETATM   20  C18 UNL     1      -2.324   8.923  15.779  1.00  0.00     0.047 C 
HETATM   21  C19 UNL     1      -2.746   9.174  14.309  1.00  0.00     0.128 C 
ENDROOT
BRANCH  21  22
HETATM   22  O3  UNL     1      -2.610  10.583  14.064  1.00  0.00    -0.381 OA
HETATM   23  H25 UNL     1      -2.888  10.754  13.144  1.00  0.00     0.211 HD
ENDBRANCH  21  22
BRANCH  21  24
HETATM   24  C20 UNL     1      -4.220   8.840  14.020  1.00  0.00     0.185 C 
HETATM   25  O4  UNL     1      -4.631   8.718  12.861  1.00  0.00    -0.292 OA
BRANCH  24  26
HETATM   26  C21 UNL     1      -5.190   8.844  15.206  1.00  0.00     0.260 C 
BRANCH  26  27
HETATM   27  O5  UNL     1      -6.441   8.230  14.897  1.00  0.00    -0.314 OA
BRANCH  27  28
HETATM   28  C22 UNL     1      -6.560   6.973  15.407  1.00  0.00     0.259 C 
HETATM   29  O6  UNL     1      -5.611   6.240  15.665  1.00  0.00    -0.265 OA
BRANCH  28  30
HETATM   30  C23 UNL     1      -8.000   6.543  15.544  1.00  0.00     0.120 C 
BRANCH  30  31
HETATM   31  C24 UNL     1      -8.846   6.698  14.286  1.00  0.00     0.112 C 
BRANCH  31  32
HETATM   32  C25 UNL     1      -8.538   5.640  13.244  1.00  0.00     0.218 C 
HETATM   33  O7  UNL     1      -8.579   5.851  12.038  1.00  0.00    -0.274 OA
HETATM   34  N1  UNL     1      -8.169   4.433  13.796  1.00  0.00    -0.357 N 
HETATM   35  H32 UNL     1      -8.356   4.272  14.775  1.00  0.00     0.162 HD
BRANCH  34  36
HETATM   36  C26 UNL     1      -7.903   3.273  12.974  1.00  0.00     0.161 C 
BRANCH  36  37
HETATM   37  C27 UNL     1      -6.463   3.239  12.522  1.00  0.00    -0.040 A 
HETATM   38  C28 UNL     1      -5.533   4.166  13.013  1.00  0.00     0.010 A 
HETATM   39  C29 UNL     1      -4.199   4.125  12.591  1.00  0.00     0.019 A 
HETATM   40  C30 UNL     1      -3.780   3.148  11.678  1.00  0.00     0.037 A 
HETATM   41  C32 UNL     1      -4.701   2.209  11.201  1.00  0.00     0.019 A 
HETATM   42  C33 UNL     1      -6.034   2.253  11.620  1.00  0.00     0.010 A 
BRANCH  40  43
HETATM   43  C31 UNL     1      -2.380   3.067  11.196  1.00  0.00     0.176 C 
HETATM   44  O8  UNL     1      -1.379   3.155  11.883  1.00  0.00    -0.646 OA
BRANCH  43  45
HETATM   45  O9  UNL     1      -2.301   2.869   9.869  1.00  0.00    -0.773 OA
HETATM   46  H37 UNL     1      -1.336   2.825   9.699  1.00  0.00     0.167 HD
ENDBRANCH  43  45
ENDBRANCH  40  43
ENDBRANCH  36  37
ENDBRANCH  34  36
ENDBRANCH  31  32
ENDBRANCH  30  31
ENDBRANCH  28  30
ENDBRANCH  27  28
ENDBRANCH  26  27
ENDBRANCH  24  26
ENDBRANCH  21  24
TORSDOF 12
ENDMDL
MODEL 9
REMARK minimizedAffinity -8.553936
REMARK CNNscore 0.347625792
REMARK CNNaffinity 6.7339859
REMARK  12 active torsions:
REMARK  status: ('A' for Active; 'I' for Inactive)
REMARK    1  A    between atoms: C19_21  and  O3_22 
REMARK    2  A    between atoms: C19_21  and  C20_23 
REMARK    3  A    between atoms: C20_23  and  C21_25 
REMARK    4  A    between atoms: C21_25  and  O5_26 
REMARK    5  A    between atoms: O5_26  and  C22_27 
REMARK    6  A    between atoms: C22_27  and  C23_29 
REMARK    7  A    between atoms: C23_29  and  C24_30 
REMARK    8  A    between atoms: C24_30  and  C25_31 
REMARK       I    between atoms: C25_31  and  N1_33 
REMARK    9  A    between atoms: N1_33  and  C26_34 
REMARK   10  A    between atoms: C26_34  and  C27_35 
REMARK   11  A    between atoms: C30_38  and  C31_39 
REMARK   12  A    between atoms: C31_39  and  O9_41 
ROOT
HETATM    1  C1  UNL     1       0.448   7.305   9.851  1.00  0.00     0.021 C 
HETATM    2  C2  UNL     1       1.298   7.074  11.119  1.00  0.00    -0.009 C 
HETATM    3  C3  UNL     1       2.491   8.077  11.144  1.00  0.00     0.022 C 
HETATM    4  C4  UNL     1       3.601   7.750  10.155  1.00  0.00     0.084 C 
HETATM    5  C5  UNL     1       4.094   6.342  10.359  1.00  0.00     0.149 C 
HETATM    6  O1  UNL     1       5.255   6.009  10.139  1.00  0.00    -0.293 OA
HETATM    7  C6  UNL     1       3.108   5.314  10.760  1.00  0.00     0.053 C 
HETATM    8  C7  UNL     1       1.834   5.630  11.061  1.00  0.00    -0.067 C 
HETATM    9  C8  UNL     1       0.845   4.523  11.340  1.00  0.00     0.035 C 
HETATM   10  C9  UNL     1       0.071   4.756  12.632  1.00  0.00     0.010 C 
HETATM   11  C10 UNL     1      -0.607   6.133  12.639  1.00  0.00     0.003 C 
HETATM   12  C11 UNL     1       0.464   7.248  12.441  1.00  0.00     0.072 C 
HETATM   13  C12 UNL     1      -0.175   8.635  12.653  1.00  0.00     0.133 C 
HETATM   14  O2  UNL     1      -0.025   9.577  11.878  1.00  0.00    -0.297 OA
HETATM   15  C13 UNL     1      -0.968   8.829  13.941  1.00  0.00     0.091 C 
HETATM   16  C14 UNL     1      -2.056   7.753  14.042  1.00  0.00     0.005 C 
HETATM   17  C15 UNL     1      -3.091   7.964  12.899  1.00  0.00     0.019 C 
HETATM   18  C16 UNL     1      -1.348   6.374  13.964  1.00  0.00     0.002 C 
HETATM   19  C17 UNL     1      -2.442   5.387  14.360  1.00  0.00     0.009 C 
HETATM   20  C18 UNL     1      -3.314   6.156  15.371  1.00  0.00     0.047 C 
HETATM   21  C19 UNL     1      -2.766   7.605  15.426  1.00  0.00     0.128 C 
ENDROOT
BRANCH  21  22
HETATM   22  O3  UNL     1      -1.810   7.656  16.497  1.00  0.00    -0.381 OA
HETATM   23  H25 UNL     1      -1.471   8.570  16.549  1.00  0.00     0.211 HD
ENDBRANCH  21  22
BRANCH  21  24
HETATM   24  C20 UNL     1      -3.834   8.659  15.767  1.00  0.00     0.185 C 
HETATM   25  O4  UNL     1      -3.677   9.445  16.709  1.00  0.00    -0.292 OA
BRANCH  24  26
HETATM   26  C21 UNL     1      -5.167   8.582  15.017  1.00  0.00     0.260 C 
BRANCH  26  27
HETATM   27  O5  UNL     1      -6.136   7.781  15.694  1.00  0.00    -0.314 OA
BRANCH  27  28
HETATM   28  C22 UNL     1      -7.385   8.322  15.675  1.00  0.00     0.259 C 
HETATM   29  O6  UNL     1      -7.669   9.384  15.130  1.00  0.00    -0.265 OA
BRANCH  28  30
HETATM   30  C23 UNL     1      -8.374   7.511  16.476  1.00  0.00     0.120 C 
BRANCH  30  31
HETATM   31  C24 UNL     1      -9.824   7.619  16.019  1.00  0.00     0.112 C 
BRANCH  31  32
HETATM   32  C25 UNL     1     -10.079   6.886  14.716  1.00  0.00     0.218 C 
HETATM   33  O7  UNL     1     -11.033   7.124  13.986  1.00  0.00    -0.274 OA
HETATM   34  N1  UNL     1      -9.104   5.958  14.421  1.00  0.00    -0.357 N 
HETATM   35  H32 UNL     1      -8.471   5.672  15.154  1.00  0.00     0.162 HD
BRANCH  34  36
HETATM   36  C26 UNL     1      -9.200   5.104  13.258  1.00  0.00     0.161 C 
BRANCH  36  37
HETATM   37  C27 UNL     1      -7.853   4.536  12.881  1.00  0.00    -0.040 A 
HETATM   38  C28 UNL     1      -7.726   3.205  12.458  1.00  0.00     0.010 A 
HETATM   39  C29 UNL     1      -6.473   2.688  12.108  1.00  0.00     0.019 A 
HETATM   40  C30 UNL     1      -5.334   3.502  12.170  1.00  0.00     0.037 A 
HETATM   41  C32 UNL     1      -5.460   4.837  12.572  1.00  0.00     0.019 A 
HETATM   42  C33 UNL     1      -6.711   5.351  12.926  1.00  0.00     0.010 A 
BRANCH  40  43
HETATM   43  C31 UNL     1      -3.984   3.000  11.815  1.00  0.00     0.176 C 
HETATM   44  O8  UNL     1      -3.097   2.715  12.599  1.00  0.00    -0.646 OA
BRANCH  43  45
HETATM   45  O9  UNL     1      -3.813   2.869  10.489  1.00  0.00    -0.773 OA
HETATM   46  H37 UNL     1      -2.898   2.524  10.407  1.00  0.00     0.167 HD
ENDBRANCH  43  45
ENDBRANCH  40  43
ENDBRANCH  36  37
ENDBRANCH  34  36
ENDBRANCH  31  32
ENDBRANCH  30  31
ENDBRANCH  28  30
ENDBRANCH  27  28
ENDBRANCH  26  27
ENDBRANCH  24  26
ENDBRANCH  21  24
TORSDOF 12
ENDMDL
