MODEL 1
REMARK minimizedAffinity -8.14305878
REMARK CNNscore 0.595188677
REMARK CNNaffinity 7.34328461
REMARK  16 active torsions:
REMARK  status: ('A' for Active; 'I' for Inactive)
REMARK    1  A    between atoms: C2_2  and  C3_3 
REMARK    2  A    between atoms: C2_2  and  C4_5 
REMARK    3  A    between atoms: C12_13  and  O2_14 
REMARK    4  A    between atoms: O2_14  and  C13_15 
REMARK    5  A    between atoms: C13_15  and  C14_17 
REMARK    6  A    between atoms: C14_17  and  C16_19 
REMARK    7  A    between atoms: C16_19  and  O4_20 
REMARK    8  A    between atoms: C16_19  and  C17_21 
REMARK    9  A    between atoms: C19_23  and  C20_24 
REMARK   10  A    between atoms: C20_24  and  C21_25 
REMARK   11  A    between atoms: C20_24  and  C22_27 
REMARK   12  A    between atoms: C21_25  and  O5_26 
REMARK   13  A    between atoms: C22_27  and  C23_28 
REMARK   14  A    between atoms: C23_28  and  C24_29 
REMARK   15  A    between atoms: C24_29  and  C25_30 
REMARK   16  A    between atoms: C25_30  and  C26_31 
ROOT
HETATM    1  C13 UNL     1       0.141  52.448 -24.607  1.00  0.00     0.266 C 
HETATM    2  O3  UNL     1       0.953  53.366 -24.607  1.00  0.00    -0.265 OA
ENDROOT
BRANCH   1   3
HETATM    3  O2  UNL     1      -0.794  52.240 -23.635  1.00  0.00    -0.312 OA
BRANCH   3   4
HETATM    4  C12 UNL     1      -0.660  51.004 -22.910  1.00  0.00     0.170 C 
HETATM    5  C11 UNL     1      -1.892  50.144 -23.179  1.00  0.00     0.036 C 
HETATM    6  C10 UNL     1      -1.929  48.864 -22.343  1.00  0.00     0.007 C 
HETATM    7  C8  UNL     1      -1.193  48.960 -20.989  1.00  0.00    -0.007 C 
HETATM    8  C6  UNL     1      -1.187  50.411 -20.405  1.00  0.00    -0.003 C 
HETATM    9  C9  UNL     1      -1.737  47.887 -20.041  1.00  0.00     0.011 C 
HETATM   10  C5  UNL     1      -0.377  50.471 -19.068  1.00  0.00     0.030 C 
HETATM   11  C7  UNL     1      -2.625  50.915 -20.117  1.00  0.00     0.019 C 
HETATM   12  C28 UNL     1      -0.486  51.317 -21.432  1.00  0.00     0.129 A 
HETATM   13  C4  UNL     1      -0.249  51.895 -18.480  1.00  0.00     0.094 C 
HETATM   14  C30 UNL     1      -0.085  53.020 -19.511  1.00  0.00     0.167 C 
HETATM   15  C29 UNL     1       0.073  52.643 -20.936  1.00  0.00     0.230 A 
HETATM   16  O7  UNL     1      -0.123  54.209 -19.201  1.00  0.00    -0.294 OA
HETATM   17  O6  UNL     1       0.924  51.520 -21.151  1.00  0.00    -0.358 OA
BRANCH  13  18
HETATM   18  C2  UNL     1       0.848  51.963 -17.441  1.00  0.00    -0.018 C 
HETATM   19  C1  UNL     1       1.963  52.710 -17.531  1.00  0.00     0.022 C 
BRANCH  18  20
HETATM   20  C3  UNL     1       0.657  51.141 -16.210  1.00  0.00     0.265 C 
HETATM   21  O1  UNL     1       0.336  51.607 -15.122  1.00  0.00    -0.302 OA
ENDBRANCH  18  20
ENDBRANCH  13  18
ENDBRANCH   3   4
ENDBRANCH   1   3
BRANCH   1  22
HETATM   22  C14 UNL     1       0.027  51.428 -25.721  1.00  0.00     0.114 C 
HETATM   23  C15 UNL     1       1.404  51.210 -26.355  1.00  0.00     0.023 C 
BRANCH  22  24
HETATM   24  C16 UNL     1      -1.049  51.868 -26.727  1.00  0.00     0.159 C 
BRANCH  24  25
HETATM   25  O4  UNL     1      -1.233  53.281 -26.640  1.00  0.00    -0.390 OA
HETATM   26  H24 UNL     1      -2.040  53.491 -27.142  1.00  0.00     0.210 HD
ENDBRANCH  24  25
BRANCH  24  27
HETATM   27  C17 UNL     1      -2.415  51.229 -26.504  1.00  0.00    -0.058 C 
HETATM   28  C18 UNL     1      -3.443  52.090 -25.809  1.00  0.00     0.046 C 
HETATM   29  C19 UNL     1      -2.657  49.969 -26.931  1.00  0.00    -0.015 C 
BRANCH  29  30
HETATM   30  C20 UNL     1      -3.941  49.177 -26.743  1.00  0.00     0.032 C 
BRANCH  30  31
HETATM   31  C21 UNL     1      -3.889  48.302 -25.476  1.00  0.00     0.172 C 
BRANCH  31  32
HETATM   32  O5  UNL     1      -4.835  48.768 -24.516  1.00  0.00    -0.400 OA
HETATM   33  H32 UNL     1      -4.823  48.141 -23.772  1.00  0.00     0.209 HD
ENDBRANCH  31  32
ENDBRANCH  30  31
BRANCH  30  34
HETATM   34  C22 UNL     1      -4.322  48.367 -28.002  1.00  0.00     0.010 C 
BRANCH  34  35
HETATM   35  C23 UNL     1      -5.759  47.838 -28.123  1.00  0.00     0.001 C 
BRANCH  35  36
HETATM   36  C24 UNL     1      -6.359  47.954 -29.524  1.00  0.00     0.000 C 
BRANCH  36  37
HETATM   37  C25 UNL     1      -5.341  47.705 -30.646  1.00  0.00    -0.000 C 
BRANCH  37  38
HETATM   38  C26 UNL     1      -5.461  46.351 -31.353  1.00  0.00    -0.005 C 
HETATM   39  C27 UNL     1      -4.235  45.942 -32.151  1.00  0.00     0.005 C 
ENDBRANCH  37  38
ENDBRANCH  36  37
ENDBRANCH  35  36
ENDBRANCH  34  35
ENDBRANCH  30  34
ENDBRANCH  29  30
ENDBRANCH  24  27
ENDBRANCH  22  24
ENDBRANCH   1  22
TORSDOF 16
ENDMDL
MODEL 2
REMARK minimizedAffinity -7.7155261
REMARK CNNscore 0.521890163
REMARK CNNaffinity 7.1298604
REMARK  16 active torsions:
REMARK  status: ('A' for Active; 'I' for Inactive)
REMARK    1  A    between atoms: C2_2  and  C3_3 
REMARK    2  A    between atoms: C2_2  and  C4_5 
REMARK    3  A    between atoms: C12_13  and  O2_14 
REMARK    4  A    between atoms: O2_14  and  C13_15 
REMARK    5  A    between atoms: C13_15  and  C14_17 
REMARK    6  A    between atoms: C14_17  and  C16_19 
REMARK    7  A    between atoms: C16_19  and  O4_20 
REMARK    8  A    between atoms: C16_19  and  C17_21 
REMARK    9  A    between atoms: C19_23  and  C20_24 
REMARK   10  A    between atoms: C20_24  and  C21_25 
REMARK   11  A    between atoms: C20_24  and  C22_27 
REMARK   12  A    between atoms: C21_25  and  O5_26 
REMARK   13  A    between atoms: C22_27  and  C23_28 
REMARK   14  A    between atoms: C23_28  and  C24_29 
REMARK   15  A    between atoms: C24_29  and  C25_30 
REMARK   16  A    between atoms: C25_30  and  C26_31 
ROOT
HETATM    1  C13 UNL     1      -3.541  49.953 -19.007  1.00  0.00     0.266 C 
HETATM    2  O3  UNL     1      -4.020  49.290 -18.095  1.00  0.00    -0.265 OA
ENDROOT
BRANCH   1   3
HETATM    3  O2  UNL     1      -4.230  50.875 -19.740  1.00  0.00    -0.312 OA
BRANCH   3   4
HETATM    4  C12 UNL     1      -5.290  50.342 -20.555  1.00  0.00     0.170 C 
HETATM    5  C11 UNL     1      -5.999  49.238 -19.775  1.00  0.00     0.036 C 
HETATM    6  C10 UNL     1      -7.053  48.498 -20.598  1.00  0.00     0.007 C 
HETATM    7  C8  UNL     1      -6.781  48.474 -22.118  1.00  0.00    -0.007 C 
HETATM    8  C6  UNL     1      -5.256  48.532 -22.460  1.00  0.00    -0.003 C 
HETATM    9  C9  UNL     1      -7.538  47.301 -22.749  1.00  0.00     0.011 C 
HETATM   10  C5  UNL     1      -5.032  48.570 -24.008  1.00  0.00     0.030 C 
HETATM   11  C7  UNL     1      -4.497  47.303 -21.897  1.00  0.00     0.019 C 
HETATM   12  C28 UNL     1      -4.700  49.837 -21.862  1.00  0.00     0.129 A 
HETATM   13  C4  UNL     1      -3.550  48.723 -24.420  1.00  0.00     0.094 C 
HETATM   14  C30 UNL     1      -2.706  49.630 -23.515  1.00  0.00     0.167 C 
HETATM   15  C29 UNL     1      -3.394  50.373 -22.433  1.00  0.00     0.230 A 
HETATM   16  O7  UNL     1      -1.486  49.725 -23.631  1.00  0.00    -0.294 OA
HETATM   17  O6  UNL     1      -4.650  50.930 -22.817  1.00  0.00    -0.358 OA
BRANCH  13  18
HETATM   18  C2  UNL     1      -3.424  49.151 -25.866  1.00  0.00    -0.018 C 
HETATM   19  C1  UNL     1      -3.650  48.365 -26.934  1.00  0.00     0.022 C 
BRANCH  18  20
HETATM   20  C3  UNL     1      -3.034  50.569 -26.115  1.00  0.00     0.265 C 
HETATM   21  O1  UNL     1      -3.771  51.526 -25.905  1.00  0.00    -0.302 OA
ENDBRANCH  18  20
ENDBRANCH  13  18
ENDBRANCH   3   4
ENDBRANCH   1   3
BRANCH   1  22
HETATM   22  C14 UNL     1      -2.088  49.878 -19.426  1.00  0.00     0.114 C 
HETATM   23  C15 UNL     1      -1.643  48.413 -19.462  1.00  0.00     0.023 C 
BRANCH  22  24
HETATM   24  C16 UNL     1      -1.229  50.758 -18.503  1.00  0.00     0.159 C 
BRANCH  24  25
HETATM   25  O4  UNL     1      -2.078  51.605 -17.728  1.00  0.00    -0.390 OA
HETATM   26  H24 UNL     1      -1.504  52.269 -17.307  1.00  0.00     0.210 HD
ENDBRANCH  24  25
BRANCH  24  27
HETATM   27  C17 UNL     1      -0.247  51.665 -19.236  1.00  0.00    -0.058 C 
HETATM   28  C18 UNL     1       0.713  52.440 -18.365  1.00  0.00     0.046 C 
HETATM   29  C19 UNL     1      -0.257  51.732 -20.586  1.00  0.00    -0.015 C 
BRANCH  29  30
HETATM   30  C20 UNL     1       0.617  52.617 -21.458  1.00  0.00     0.032 C 
BRANCH  30  31
HETATM   31  C21 UNL     1       0.671  54.063 -20.927  1.00  0.00     0.172 C 
BRANCH  31  32
HETATM   32  O5  UNL     1       2.005  54.562 -20.990  1.00  0.00    -0.400 OA
HETATM   33  H32 UNL     1       1.975  55.497 -20.722  1.00  0.00     0.209 HD
ENDBRANCH  31  32
ENDBRANCH  30  31
BRANCH  30  34
HETATM   34  C22 UNL     1       0.218  52.553 -22.949  1.00  0.00     0.010 C 
BRANCH  34  35
HETATM   35  C23 UNL     1       0.779  53.619 -23.902  1.00  0.00     0.001 C 
BRANCH  35  36
HETATM   36  C24 UNL     1       0.467  53.373 -25.379  1.00  0.00     0.000 C 
BRANCH  36  37
HETATM   37  C25 UNL     1       0.124  51.910 -25.694  1.00  0.00    -0.000 C 
BRANCH  37  38
HETATM   38  C26 UNL     1       1.001  51.244 -26.758  1.00  0.00    -0.005 C 
HETATM   39  C27 UNL     1       2.481  51.192 -26.418  1.00  0.00     0.005 C 
ENDBRANCH  37  38
ENDBRANCH  36  37
ENDBRANCH  35  36
ENDBRANCH  34  35
ENDBRANCH  30  34
ENDBRANCH  29  30
ENDBRANCH  24  27
ENDBRANCH  22  24
ENDBRANCH   1  22
TORSDOF 16
ENDMDL
MODEL 3
REMARK minimizedAffinity -8.16104889
REMARK CNNscore 0.472755492
REMARK CNNaffinity 7.06809998
REMARK  16 active torsions:
REMARK  status: ('A' for Active; 'I' for Inactive)
REMARK    1  A    between atoms: C2_2  and  C3_3 
REMARK    2  A    between atoms: C2_2  and  C4_5 
REMARK    3  A    between atoms: C12_13  and  O2_14 
REMARK    4  A    between atoms: O2_14  and  C13_15 
REMARK    5  A    between atoms: C13_15  and  C14_17 
REMARK    6  A    between atoms: C14_17  and  C16_19 
REMARK    7  A    between atoms: C16_19  and  O4_20 
REMARK    8  A    between atoms: C16_19  and  C17_21 
REMARK    9  A    between atoms: C19_23  and  C20_24 
REMARK   10  A    between atoms: C20_24  and  C21_25 
REMARK   11  A    between atoms: C20_24  and  C22_27 
REMARK   12  A    between atoms: C21_25  and  O5_26 
REMARK   13  A    between atoms: C22_27  and  C23_28 
REMARK   14  A    between atoms: C23_28  and  C24_29 
REMARK   15  A    between atoms: C24_29  and  C25_30 
REMARK   16  A    between atoms: C25_30  and  C26_31 
ROOT
HETATM    1  C13 UNL     1       0.253  52.678 -24.432  1.00  0.00     0.266 C 
HETATM    2  O3  UNL     1       1.006  53.645 -24.452  1.00  0.00    -0.265 OA
ENDROOT
BRANCH   1   3
HETATM    3  O2  UNL     1      -0.664  52.431 -23.453  1.00  0.00    -0.312 OA
BRANCH   3   4
HETATM    4  C12 UNL     1      -0.518  51.167 -22.780  1.00  0.00     0.170 C 
HETATM    5  C11 UNL     1      -1.714  50.286 -23.129  1.00  0.00     0.036 C 
HETATM    6  C10 UNL     1      -1.740  48.968 -22.354  1.00  0.00     0.007 C 
HETATM    7  C8  UNL     1      -1.052  49.022 -20.972  1.00  0.00    -0.007 C 
HETATM    8  C6  UNL     1      -1.109  50.444 -20.324  1.00  0.00    -0.003 C 
HETATM    9  C9  UNL     1      -1.595  47.891 -20.093  1.00  0.00     0.011 C 
HETATM   10  C5  UNL     1      -0.346  50.465 -18.958  1.00  0.00     0.030 C 
HETATM   11  C7  UNL     1      -2.570  50.894 -20.063  1.00  0.00     0.019 C 
HETATM   12  C28 UNL     1      -0.402  51.416 -21.284  1.00  0.00     0.129 A 
HETATM   13  C4  UNL     1      -0.279  51.864 -18.302  1.00  0.00     0.094 C 
HETATM   14  C30 UNL     1      -0.115  53.039 -19.276  1.00  0.00     0.167 C 
HETATM   15  C29 UNL     1       0.101  52.733 -20.709  1.00  0.00     0.230 A 
HETATM   16  O7  UNL     1      -0.198  54.211 -18.914  1.00  0.00    -0.294 OA
HETATM   17  O6  UNL     1       0.992  51.645 -20.946  1.00  0.00    -0.358 OA
BRANCH  13  18
HETATM   18  C2  UNL     1       0.780  51.914 -17.224  1.00  0.00    -0.018 C 
HETATM   19  C1  UNL     1       0.663  51.392 -15.990  1.00  0.00     0.022 C 
BRANCH  18  20
HETATM   20  C3  UNL     1       2.065  52.587 -17.577  1.00  0.00     0.265 C 
HETATM   21  O1  UNL     1       2.886  52.964 -16.749  1.00  0.00    -0.302 OA
ENDBRANCH  18  20
ENDBRANCH  13  18
ENDBRANCH   3   4
ENDBRANCH   1   3
BRANCH   1  22
HETATM   22  C14 UNL     1       0.201  51.631 -25.525  1.00  0.00     0.114 C 
HETATM   23  C15 UNL     1       1.580  51.507 -26.179  1.00  0.00     0.023 C 
BRANCH  22  24
HETATM   24  C16 UNL     1      -0.922  51.967 -26.520  1.00  0.00     0.159 C 
BRANCH  24  25
HETATM   25  O4  UNL     1      -1.408  53.285 -26.262  1.00  0.00    -0.390 OA
HETATM   26  H24 UNL     1      -2.230  53.386 -26.773  1.00  0.00     0.210 HD
ENDBRANCH  24  25
BRANCH  24  27
HETATM   27  C17 UNL     1      -2.123  51.030 -26.450  1.00  0.00    -0.058 C 
HETATM   28  C18 UNL     1      -3.404  51.636 -25.927  1.00  0.00     0.046 C 
HETATM   29  C19 UNL     1      -2.011  49.746 -26.855  1.00  0.00    -0.015 C 
BRANCH  29  30
HETATM   30  C20 UNL     1      -3.093  48.680 -26.804  1.00  0.00     0.032 C 
BRANCH  30  31
HETATM   31  C21 UNL     1      -4.212  48.955 -27.827  1.00  0.00     0.172 C 
BRANCH  31  32
HETATM   32  O5  UNL     1      -3.726  49.787 -28.878  1.00  0.00    -0.400 OA
HETATM   33  H32 UNL     1      -4.439  49.866 -29.535  1.00  0.00     0.209 HD
ENDBRANCH  31  32
ENDBRANCH  30  31
BRANCH  30  34
HETATM   34  C22 UNL     1      -3.641  48.466 -25.375  1.00  0.00     0.010 C 
BRANCH  34  35
HETATM   35  C23 UNL     1      -5.118  48.788 -25.103  1.00  0.00     0.001 C 
BRANCH  35  36
HETATM   36  C24 UNL     1      -5.757  47.942 -24.001  1.00  0.00     0.000 C 
BRANCH  36  37
HETATM   37  C25 UNL     1      -5.192  48.235 -22.604  1.00  0.00    -0.000 C 
BRANCH  37  38
HETATM   38  C26 UNL     1      -5.661  49.547 -21.968  1.00  0.00    -0.005 C 
HETATM   39  C27 UNL     1      -7.106  49.912 -22.260  1.00  0.00     0.005 C 
ENDBRANCH  37  38
ENDBRANCH  36  37
ENDBRANCH  35  36
ENDBRANCH  34  35
ENDBRANCH  30  34
ENDBRANCH  29  30
ENDBRANCH  24  27
ENDBRANCH  22  24
ENDBRANCH   1  22
TORSDOF 16
ENDMDL
MODEL 4
REMARK minimizedAffinity -7.72168064
REMARK CNNscore 0.465190053
REMARK CNNaffinity 7.15056849
REMARK  16 active torsions:
REMARK  status: ('A' for Active; 'I' for Inactive)
REMARK    1  A    between atoms: C2_2  and  C3_3 
REMARK    2  A    between atoms: C2_2  and  C4_5 
REMARK    3  A    between atoms: C12_13  and  O2_14 
REMARK    4  A    between atoms: O2_14  and  C13_15 
REMARK    5  A    between atoms: C13_15  and  C14_17 
REMARK    6  A    between atoms: C14_17  and  C16_19 
REMARK    7  A    between atoms: C16_19  and  O4_20 
REMARK    8  A    between atoms: C16_19  and  C17_21 
REMARK    9  A    between atoms: C19_23  and  C20_24 
REMARK   10  A    between atoms: C20_24  and  C21_25 
REMARK   11  A    between atoms: C20_24  and  C22_27 
REMARK   12  A    between atoms: C21_25  and  O5_26 
REMARK   13  A    between atoms: C22_27  and  C23_28 
REMARK   14  A    between atoms: C23_28  and  C24_29 
REMARK   15  A    between atoms: C24_29  and  C25_30 
REMARK   16  A    between atoms: C25_30  and  C26_31 
ROOT
HETATM    1  C13 UNL     1      -4.735  48.049 -20.637  1.00  0.00     0.266 C 
HETATM    2  O3  UNL     1      -5.272  47.375 -19.767  1.00  0.00    -0.265 OA
ENDROOT
BRANCH   1   3
HETATM    3  O2  UNL     1      -3.487  47.818 -21.137  1.00  0.00    -0.312 OA
BRANCH   3   4
HETATM    4  C12 UNL     1      -2.403  48.076 -20.225  1.00  0.00     0.170 C 
HETATM    5  C11 UNL     1      -2.928  47.960 -18.797  1.00  0.00     0.036 C 
HETATM    6  C10 UNL     1      -1.897  48.357 -17.740  1.00  0.00     0.007 C 
HETATM    7  C8  UNL     1      -0.851  49.388 -18.220  1.00  0.00    -0.007 C 
HETATM    8  C6  UNL     1      -1.403  50.337 -19.334  1.00  0.00    -0.003 C 
HETATM    9  C9  UNL     1      -0.252  50.102 -17.005  1.00  0.00     0.011 C 
HETATM   10  C5  UNL     1      -0.292  51.319 -19.832  1.00  0.00     0.030 C 
HETATM   11  C7  UNL     1      -2.596  51.184 -18.822  1.00  0.00     0.019 C 
HETATM   12  C28 UNL     1      -1.830  49.453 -20.520  1.00  0.00     0.129 A 
HETATM   13  C4  UNL     1      -0.739  52.225 -21.002  1.00  0.00     0.094 C 
HETATM   14  C30 UNL     1      -1.675  51.566 -22.024  1.00  0.00     0.167 C 
HETATM   15  C29 UNL     1      -1.951  50.117 -21.884  1.00  0.00     0.230 A 
HETATM   16  O7  UNL     1      -2.228  52.204 -22.917  1.00  0.00    -0.294 OA
HETATM   17  O6  UNL     1      -0.808  49.335 -21.545  1.00  0.00    -0.358 OA
BRANCH  13  18
HETATM   18  C2  UNL     1       0.450  52.851 -21.696  1.00  0.00    -0.018 C 
HETATM   19  C1  UNL     1       0.919  52.502 -22.907  1.00  0.00     0.022 C 
BRANCH  18  20
HETATM   20  C3  UNL     1       1.141  53.959 -20.974  1.00  0.00     0.265 C 
HETATM   21  O1  UNL     1       1.919  54.741 -21.510  1.00  0.00    -0.302 OA
ENDBRANCH  18  20
ENDBRANCH  13  18
ENDBRANCH   3   4
ENDBRANCH   1   3
BRANCH   1  22
HETATM   22  C14 UNL     1      -5.403  49.222 -21.324  1.00  0.00     0.114 C 
HETATM   23  C15 UNL     1      -6.445  49.837 -20.384  1.00  0.00     0.023 C 
BRANCH  22  24
HETATM   24  C16 UNL     1      -5.983  48.778 -22.677  1.00  0.00     0.159 C 
BRANCH  24  25
HETATM   25  O4  UNL     1      -5.836  47.364 -22.816  1.00  0.00    -0.390 OA
HETATM   26  H24 UNL     1      -6.034  47.151 -23.745  1.00  0.00     0.210 HD
ENDBRANCH  24  25
BRANCH  24  27
HETATM   27  C17 UNL     1      -5.310  49.414 -23.887  1.00  0.00    -0.058 C 
HETATM   28  C18 UNL     1      -5.282  50.925 -23.910  1.00  0.00     0.046 C 
HETATM   29  C19 UNL     1      -4.770  48.640 -24.854  1.00  0.00    -0.015 C 
BRANCH  29  30
HETATM   30  C20 UNL     1      -4.113  49.116 -26.139  1.00  0.00     0.032 C 
BRANCH  30  31
HETATM   31  C21 UNL     1      -4.537  48.259 -27.347  1.00  0.00     0.172 C 
BRANCH  31  32
HETATM   32  O5  UNL     1      -4.693  49.079 -28.503  1.00  0.00    -0.400 OA
HETATM   33  H32 UNL     1      -4.881  48.487 -29.252  1.00  0.00     0.209 HD
ENDBRANCH  31  32
ENDBRANCH  30  31
BRANCH  30  34
HETATM   34  C22 UNL     1      -2.578  49.229 -26.007  1.00  0.00     0.010 C 
BRANCH  34  35
HETATM   35  C23 UNL     1      -1.914  50.578 -26.321  1.00  0.00     0.001 C 
BRANCH  35  36
HETATM   36  C24 UNL     1      -0.441  50.666 -25.921  1.00  0.00     0.000 C 
BRANCH  36  37
HETATM   37  C25 UNL     1       0.272  51.901 -26.490  1.00  0.00    -0.000 C 
BRANCH  37  38
HETATM   38  C26 UNL     1       1.199  51.634 -27.679  1.00  0.00    -0.005 C 
HETATM   39  C27 UNL     1       2.681  51.717 -27.358  1.00  0.00     0.005 C 
ENDBRANCH  37  38
ENDBRANCH  36  37
ENDBRANCH  35  36
ENDBRANCH  34  35
ENDBRANCH  30  34
ENDBRANCH  29  30
ENDBRANCH  24  27
ENDBRANCH  22  24
ENDBRANCH   1  22
TORSDOF 16
ENDMDL
MODEL 5
REMARK minimizedAffinity -7.02775908
REMARK CNNscore 0.440064728
REMARK CNNaffinity 7.050488
REMARK  16 active torsions:
REMARK  status: ('A' for Active; 'I' for Inactive)
REMARK    1  A    between atoms: C2_2  and  C3_3 
REMARK    2  A    between atoms: C2_2  and  C4_5 
REMARK    3  A    between atoms: C12_13  and  O2_14 
REMARK    4  A    between atoms: O2_14  and  C13_15 
REMARK    5  A    between atoms: C13_15  and  C14_17 
REMARK    6  A    between atoms: C14_17  and  C16_19 
REMARK    7  A    between atoms: C16_19  and  O4_20 
REMARK    8  A    between atoms: C16_19  and  C17_21 
REMARK    9  A    between atoms: C19_23  and  C20_24 
REMARK   10  A    between atoms: C20_24  and  C21_25 
REMARK   11  A    between atoms: C20_24  and  C22_27 
REMARK   12  A    between atoms: C21_25  and  O5_26 
REMARK   13  A    between atoms: C22_27  and  C23_28 
REMARK   14  A    between atoms: C23_28  and  C24_29 
REMARK   15  A    between atoms: C24_29  and  C25_30 
REMARK   16  A    between atoms: C25_30  and  C26_31 
ROOT
HETATM    1  C13 UNL     1      -1.157  52.172 -22.684  1.00  0.00     0.266 C 
HETATM    2  O3  UNL     1      -1.867  52.723 -23.517  1.00  0.00    -0.265 OA
ENDROOT
BRANCH   1   3
HETATM    3  O2  UNL     1      -1.610  51.634 -21.515  1.00  0.00    -0.312 OA
BRANCH   3   4
HETATM    4  C12 UNL     1      -1.579  50.196 -21.448  1.00  0.00     0.170 C 
HETATM    5  C11 UNL     1      -2.524  49.638 -22.509  1.00  0.00     0.036 C 
HETATM    6  C10 UNL     1      -2.685  48.119 -22.435  1.00  0.00     0.007 C 
HETATM    7  C8  UNL     1      -2.478  47.519 -21.026  1.00  0.00    -0.007 C 
HETATM    8  C6  UNL     1      -2.857  48.516 -19.883  1.00  0.00    -0.003 C 
HETATM    9  C9  UNL     1      -3.175  46.157 -20.951  1.00  0.00     0.011 C 
HETATM   10  C5  UNL     1      -2.571  47.889 -18.478  1.00  0.00     0.030 C 
HETATM   11  C7  UNL     1      -4.357  48.904 -19.938  1.00  0.00     0.019 C 
HETATM   12  C28 UNL     1      -1.965  49.760 -20.043  1.00  0.00     0.129 A 
HETATM   13  C4  UNL     1      -2.834  48.854 -17.299  1.00  0.00     0.094 C 
HETATM   14  C30 UNL     1      -2.468  50.322 -17.557  1.00  0.00     0.167 C 
HETATM   15  C29 UNL     1      -1.784  50.658 -18.827  1.00  0.00     0.230 A 
HETATM   16  O7  UNL     1      -2.760  51.221 -16.772  1.00  0.00    -0.294 OA
HETATM   17  O6  UNL     1      -0.775  49.725 -19.211  1.00  0.00    -0.358 OA
BRANCH  13  18
HETATM   18  C2  UNL     1      -2.180  48.358 -16.029  1.00  0.00    -0.018 C 
HETATM   19  C1  UNL     1      -0.871  48.464 -15.732  1.00  0.00     0.022 C 
BRANCH  18  20
HETATM   20  C3  UNL     1      -3.073  47.716 -15.021  1.00  0.00     0.265 C 
HETATM   21  O1  UNL     1      -3.226  48.137 -13.879  1.00  0.00    -0.302 OA
ENDBRANCH  18  20
ENDBRANCH  13  18
ENDBRANCH   3   4
ENDBRANCH   1   3
BRANCH   1  22
HETATM   22  C14 UNL     1       0.333  51.965 -22.855  1.00  0.00     0.114 C 
HETATM   23  C15 UNL     1       1.037  52.197 -21.515  1.00  0.00     0.023 C 
BRANCH  22  24
HETATM   24  C16 UNL     1       0.861  52.860 -23.988  1.00  0.00     0.159 C 
BRANCH  24  25
HETATM   25  O4  UNL     1       0.255  54.150 -23.896  1.00  0.00    -0.390 OA
HETATM   26  H24 UNL     1       0.461  54.617 -24.725  1.00  0.00     0.210 HD
ENDBRANCH  24  25
BRANCH  24  27
HETATM   27  C17 UNL     1       0.572  52.334 -25.389  1.00  0.00    -0.058 C 
HETATM   28  C18 UNL     1       1.502  51.255 -25.895  1.00  0.00     0.046 C 
HETATM   29  C19 UNL     1      -0.471  52.818 -26.099  1.00  0.00    -0.015 C 
BRANCH  29  30
HETATM   30  C20 UNL     1      -0.860  52.436 -27.518  1.00  0.00     0.032 C 
BRANCH  30  31
HETATM   31  C21 UNL     1      -0.732  53.631 -28.484  1.00  0.00     0.172 C 
BRANCH  31  32
HETATM   32  O5  UNL     1      -1.966  54.342 -28.553  1.00  0.00    -0.400 OA
HETATM   33  H32 UNL     1      -1.814  55.128 -29.107  1.00  0.00     0.209 HD
ENDBRANCH  31  32
ENDBRANCH  30  31
BRANCH  30  34
HETATM   34  C22 UNL     1      -2.251  51.770 -27.587  1.00  0.00     0.010 C 
BRANCH  34  35
HETATM   35  C23 UNL     1      -2.836  51.163 -26.303  1.00  0.00     0.001 C 
BRANCH  35  36
HETATM   36  C24 UNL     1      -2.451  49.702 -26.062  1.00  0.00     0.000 C 
BRANCH  36  37
HETATM   37  C25 UNL     1      -3.077  48.733 -27.075  1.00  0.00    -0.000 C 
BRANCH  37  38
HETATM   38  C26 UNL     1      -4.526  48.329 -26.787  1.00  0.00    -0.005 C 
HETATM   39  C27 UNL     1      -4.926  48.400 -25.324  1.00  0.00     0.005 C 
ENDBRANCH  37  38
ENDBRANCH  36  37
ENDBRANCH  35  36
ENDBRANCH  34  35
ENDBRANCH  30  34
ENDBRANCH  29  30
ENDBRANCH  24  27
ENDBRANCH  22  24
ENDBRANCH   1  22
TORSDOF 16
ENDMDL
MODEL 6
REMARK minimizedAffinity -8.16604042
REMARK CNNscore 0.419443429
REMARK CNNaffinity 6.91686201
REMARK  16 active torsions:
REMARK  status: ('A' for Active; 'I' for Inactive)
REMARK    1  A    between atoms: C2_2  and  C3_3 
REMARK    2  A    between atoms: C2_2  and  C4_5 
REMARK    3  A    between atoms: C12_13  and  O2_14 
REMARK    4  A    between atoms: O2_14  and  C13_15 
REMARK    5  A    between atoms: C13_15  and  C14_17 
REMARK    6  A    between atoms: C14_17  and  C16_19 
REMARK    7  A    between atoms: C16_19  and  O4_20 
REMARK    8  A    between atoms: C16_19  and  C17_21 
REMARK    9  A    between atoms: C19_23  and  C20_24 
REMARK   10  A    between atoms: C20_24  and  C21_25 
REMARK   11  A    between atoms: C20_24  and  C22_27 
REMARK   12  A    between atoms: C21_25  and  O5_26 
REMARK   13  A    between atoms: C22_27  and  C23_28 
REMARK   14  A    between atoms: C23_28  and  C24_29 
REMARK   15  A    between atoms: C24_29  and  C25_30 
REMARK   16  A    between atoms: C25_30  and  C26_31 
ROOT
HETATM    1  C13 UNL     1      -4.442  49.669 -21.956  1.00  0.00     0.266 C 
HETATM    2  O3  UNL     1      -5.406  49.069 -21.496  1.00  0.00    -0.265 OA
ENDROOT
BRANCH   1   3
HETATM    3  O2  UNL     1      -4.525  50.734 -22.805  1.00  0.00    -0.312 OA
BRANCH   3   4
HETATM    4  C12 UNL     1      -4.733  50.399 -24.189  1.00  0.00     0.170 C 
HETATM    5  C11 UNL     1      -5.209  48.952 -24.277  1.00  0.00     0.036 C 
HETATM    6  C10 UNL     1      -5.323  48.438 -25.712  1.00  0.00     0.007 C 
HETATM    7  C8  UNL     1      -4.365  49.119 -26.715  1.00  0.00    -0.007 C 
HETATM    8  C6  UNL     1      -3.044  49.619 -26.045  1.00  0.00    -0.003 C 
HETATM    9  C9  UNL     1      -4.166  48.201 -27.925  1.00  0.00     0.011 C 
HETATM   10  C5  UNL     1      -2.135  50.357 -27.085  1.00  0.00     0.030 C 
HETATM   11  C7  UNL     1      -2.228  48.445 -25.445  1.00  0.00     0.019 C 
HETATM   12  C28 UNL     1      -3.436  50.627 -24.951  1.00  0.00     0.129 A 
HETATM   13  C4  UNL     1      -0.852  50.962 -26.472  1.00  0.00     0.094 C 
HETATM   14  C30 UNL     1      -1.008  51.545 -25.062  1.00  0.00     0.167 C 
HETATM   15  C29 UNL     1      -2.368  51.604 -24.477  1.00  0.00     0.230 A 
HETATM   16  O7  UNL     1      -0.047  51.921 -24.394  1.00  0.00    -0.294 OA
HETATM   17  O6  UNL     1      -3.381  52.009 -25.396  1.00  0.00    -0.358 OA
BRANCH  13  18
HETATM   18  C2  UNL     1      -0.228  51.979 -27.402  1.00  0.00    -0.018 C 
HETATM   19  C1  UNL     1       0.952  51.840 -28.033  1.00  0.00     0.022 C 
BRANCH  18  20
HETATM   20  C3  UNL     1      -1.004  53.231 -27.645  1.00  0.00     0.265 C 
HETATM   21  O1  UNL     1      -2.229  53.278 -27.676  1.00  0.00    -0.302 OA
ENDBRANCH  18  20
ENDBRANCH  13  18
ENDBRANCH   3   4
ENDBRANCH   1   3
BRANCH   1  22
HETATM   22  C14 UNL     1      -3.005  49.342 -21.607  1.00  0.00     0.114 C 
HETATM   23  C15 UNL     1      -2.753  47.849 -21.834  1.00  0.00     0.023 C 
BRANCH  22  24
HETATM   24  C16 UNL     1      -2.694  49.806 -20.175  1.00  0.00     0.159 C 
BRANCH  24  25
HETATM   25  O4  UNL     1      -3.786  50.581 -19.678  1.00  0.00    -0.390 OA
HETATM   26  H24 UNL     1      -3.477  51.010 -18.860  1.00  0.00     0.210 HD
ENDBRANCH  24  25
BRANCH  24  27
HETATM   27  C17 UNL     1      -1.445  50.673 -20.054  1.00  0.00    -0.058 C 
HETATM   28  C18 UNL     1      -0.264  50.252 -20.897  1.00  0.00     0.046 C 
HETATM   29  C19 UNL     1      -1.440  51.753 -19.242  1.00  0.00    -0.015 C 
BRANCH  29  30
HETATM   30  C20 UNL     1      -0.268  52.683 -18.975  1.00  0.00     0.032 C 
BRANCH  30  31
HETATM   31  C21 UNL     1       0.372  53.182 -20.285  1.00  0.00     0.172 C 
BRANCH  31  32
HETATM   32  O5  UNL     1       1.191  54.321 -20.031  1.00  0.00    -0.400 OA
HETATM   33  H32 UNL     1       1.634  54.549 -20.867  1.00  0.00     0.209 HD
ENDBRANCH  31  32
ENDBRANCH  30  31
BRANCH  30  34
HETATM   34  C22 UNL     1       0.769  52.062 -18.013  1.00  0.00     0.010 C 
BRANCH  34  35
HETATM   35  C23 UNL     1       0.321  50.911 -17.100  1.00  0.00     0.001 C 
BRANCH  35  36
HETATM   36  C24 UNL     1       0.905  50.961 -15.687  1.00  0.00     0.000 C 
BRANCH  36  37
HETATM   37  C25 UNL     1       1.834  52.161 -15.455  1.00  0.00    -0.000 C 
BRANCH  37  38
HETATM   38  C26 UNL     1       3.313  51.817 -15.255  1.00  0.00    -0.005 C 
HETATM   39  C27 UNL     1       4.264  52.544 -16.189  1.00  0.00     0.005 C 
ENDBRANCH  37  38
ENDBRANCH  36  37
ENDBRANCH  35  36
ENDBRANCH  34  35
ENDBRANCH  30  34
ENDBRANCH  29  30
ENDBRANCH  24  27
ENDBRANCH  22  24
ENDBRANCH   1  22
TORSDOF 16
ENDMDL
MODEL 7
REMARK minimizedAffinity -7.16505241
REMARK CNNscore 0.366863638
REMARK CNNaffinity 6.41541433
REMARK  16 active torsions:
REMARK  status: ('A' for Active; 'I' for Inactive)
REMARK    1  A    between atoms: C2_2  and  C3_3 
REMARK    2  A    between atoms: C2_2  and  C4_5 
REMARK    3  A    between atoms: C12_13  and  O2_14 
REMARK    4  A    between atoms: O2_14  and  C13_15 
REMARK    5  A    between atoms: C13_15  and  C14_17 
REMARK    6  A    between atoms: C14_17  and  C16_19 
REMARK    7  A    between atoms: C16_19  and  O4_20 
REMARK    8  A    between atoms: C16_19  and  C17_21 
REMARK    9  A    between atoms: C19_23  and  C20_24 
REMARK   10  A    between atoms: C20_24  and  C21_25 
REMARK   11  A    between atoms: C20_24  and  C22_27 
REMARK   12  A    between atoms: C21_25  and  O5_26 
REMARK   13  A    between atoms: C22_27  and  C23_28 
REMARK   14  A    between atoms: C23_28  and  C24_29 
REMARK   15  A    between atoms: C24_29  and  C25_30 
REMARK   16  A    between atoms: C25_30  and  C26_31 
ROOT
HETATM    1  C13 UNL     1      -6.442  47.762 -26.152  1.00  0.00     0.266 C 
HETATM    2  O3  UNL     1      -7.170  47.101 -25.420  1.00  0.00    -0.265 OA
ENDROOT
BRANCH   1   3
HETATM    3  O2  UNL     1      -5.658  48.797 -25.735  1.00  0.00    -0.312 OA
BRANCH   3   4
HETATM    4  C12 UNL     1      -4.566  48.430 -24.873  1.00  0.00     0.170 C 
HETATM    5  C11 UNL     1      -5.118  48.142 -23.480  1.00  0.00     0.036 C 
HETATM    6  C10 UNL     1      -4.029  47.883 -22.439  1.00  0.00     0.007 C 
HETATM    7  C8  UNL     1      -2.682  48.581 -22.732  1.00  0.00    -0.007 C 
HETATM    8  C6  UNL     1      -2.853  49.911 -23.538  1.00  0.00    -0.003 C 
HETATM    9  C9  UNL     1      -1.889  48.716 -21.428  1.00  0.00     0.011 C 
HETATM   10  C5  UNL     1      -1.462  50.548 -23.865  1.00  0.00     0.030 C 
HETATM   11  C7  UNL     1      -3.683  50.954 -22.747  1.00  0.00     0.019 C 
HETATM   12  C28 UNL     1      -3.544  49.557 -24.866  1.00  0.00     0.129 A 
HETATM   13  C4  UNL     1      -1.548  51.817 -24.743  1.00  0.00     0.094 C 
HETATM   14  C30 UNL     1      -2.640  51.798 -25.820  1.00  0.00     0.167 C 
HETATM   15  C29 UNL     1      -3.407  50.545 -26.016  1.00  0.00     0.230 A 
HETATM   16  O7  UNL     1      -2.924  52.791 -26.488  1.00  0.00    -0.294 OA
HETATM   17  O6  UNL     1      -2.613  49.362 -25.964  1.00  0.00    -0.358 OA
BRANCH  13  18
HETATM   18  C2  UNL     1      -0.206  52.155 -25.352  1.00  0.00    -0.018 C 
HETATM   19  C1  UNL     1       0.467  51.391 -26.232  1.00  0.00     0.022 C 
BRANCH  18  20
HETATM   20  C3  UNL     1       0.406  53.455 -24.949  1.00  0.00     0.265 C 
HETATM   21  O1  UNL     1       0.810  53.696 -23.817  1.00  0.00    -0.302 OA
ENDBRANCH  18  20
ENDBRANCH  13  18
ENDBRANCH   3   4
ENDBRANCH   1   3
BRANCH   1  22
HETATM   22  C14 UNL     1      -6.273  47.492 -27.632  1.00  0.00     0.114 C 
HETATM   23  C15 UNL     1      -4.992  48.167 -28.130  1.00  0.00     0.023 C 
BRANCH  22  24
HETATM   24  C16 UNL     1      -7.534  47.932 -28.394  1.00  0.00     0.159 C 
BRANCH  24  25
HETATM   25  O4  UNL     1      -8.427  48.591 -27.495  1.00  0.00    -0.390 OA
HETATM   26  H24 UNL     1      -9.278  48.680 -27.959  1.00  0.00     0.210 HD
ENDBRANCH  24  25
BRANCH  24  27
HETATM   27  C17 UNL     1      -8.313  46.787 -29.033  1.00  0.00    -0.058 C 
HETATM   28  C18 UNL     1      -7.582  45.469 -29.140  1.00  0.00     0.046 C 
HETATM   29  C19 UNL     1      -9.584  46.977 -29.451  1.00  0.00    -0.015 C 
BRANCH  29  30
HETATM   30  C20 UNL     1     -10.472  45.959 -30.147  1.00  0.00     0.032 C 
BRANCH  30  31
HETATM   31  C21 UNL     1     -10.353  46.054 -31.681  1.00  0.00     0.172 C 
BRANCH  31  32
HETATM   32  O5  UNL     1     -11.467  46.762 -32.219  1.00  0.00    -0.400 OA
HETATM   33  H32 UNL     1     -11.308  46.867 -33.173  1.00  0.00     0.209 HD
ENDBRANCH  31  32
ENDBRANCH  30  31
BRANCH  30  34
HETATM   34  C22 UNL     1     -11.938  46.030 -29.665  1.00  0.00     0.010 C 
BRANCH  34  35
HETATM   35  C23 UNL     1     -12.229  46.672 -28.300  1.00  0.00     0.001 C 
BRANCH  35  36
HETATM   36  C24 UNL     1     -13.690  46.583 -27.858  1.00  0.00     0.000 C 
BRANCH  36  37
HETATM   37  C25 UNL     1     -14.479  45.481 -28.580  1.00  0.00    -0.000 C 
BRANCH  37  38
HETATM   38  C26 UNL     1     -15.804  45.084 -27.923  1.00  0.00    -0.005 C 
HETATM   39  C27 UNL     1     -16.612  44.057 -28.696  1.00  0.00     0.005 C 
ENDBRANCH  37  38
ENDBRANCH  36  37
ENDBRANCH  35  36
ENDBRANCH  34  35
ENDBRANCH  30  34
ENDBRANCH  29  30
ENDBRANCH  24  27
ENDBRANCH  22  24
ENDBRANCH   1  22
TORSDOF 16
ENDMDL
MODEL 8
REMARK minimizedAffinity -7.86493683
REMARK CNNscore 0.347347438
REMARK CNNaffinity 7.1337657
REMARK  16 active torsions:
REMARK  status: ('A' for Active; 'I' for Inactive)
REMARK    1  A    between atoms: C2_2  and  C3_3 
REMARK    2  A    between atoms: C2_2  and  C4_5 
REMARK    3  A    between atoms: C12_13  and  O2_14 
REMARK    4  A    between atoms: O2_14  and  C13_15 
REMARK    5  A    between atoms: C13_15  and  C14_17 
REMARK    6  A    between atoms: C14_17  and  C16_19 
REMARK    7  A    between atoms: C16_19  and  O4_20 
REMARK    8  A    between atoms: C16_19  and  C17_21 
REMARK    9  A    between atoms: C19_23  and  C20_24 
REMARK   10  A    between atoms: C20_24  and  C21_25 
REMARK   11  A    between atoms: C20_24  and  C22_27 
REMARK   12  A    between atoms: C21_25  and  O5_26 
REMARK   13  A    between atoms: C22_27  and  C23_28 
REMARK   14  A    between atoms: C23_28  and  C24_29 
REMARK   15  A    between atoms: C24_29  and  C25_30 
REMARK   16  A    between atoms: C25_30  and  C26_31 
ROOT
HETATM    1  C13 UNL     1      -1.331  51.872 -19.339  1.00  0.00     0.266 C 
HETATM    2  O3  UNL     1      -2.008  52.448 -18.496  1.00  0.00    -0.265 OA
ENDROOT
BRANCH   1   3
HETATM    3  O2  UNL     1      -1.830  51.284 -20.464  1.00  0.00    -0.312 OA
BRANCH   3   4
HETATM    4  C12 UNL     1      -2.340  49.950 -20.285  1.00  0.00     0.170 C 
HETATM    5  C11 UNL     1      -1.198  48.958 -20.488  1.00  0.00     0.036 C 
HETATM    6  C10 UNL     1      -1.653  47.499 -20.466  1.00  0.00     0.007 C 
HETATM    7  C8  UNL     1      -3.113  47.275 -20.918  1.00  0.00    -0.007 C 
HETATM    8  C6  UNL     1      -3.599  48.349 -21.945  1.00  0.00    -0.003 C 
HETATM    9  C9  UNL     1      -3.282  45.823 -21.375  1.00  0.00     0.011 C 
HETATM   10  C5  UNL     1      -5.100  48.119 -22.325  1.00  0.00     0.030 C 
HETATM   11  C7  UNL     1      -2.764  48.309 -23.251  1.00  0.00     0.019 C 
HETATM   12  C28 UNL     1      -3.482  49.724 -21.264  1.00  0.00     0.129 A 
HETATM   13  C4  UNL     1      -5.677  49.201 -23.266  1.00  0.00     0.094 C 
HETATM   14  C30 UNL     1      -5.175  50.628 -23.014  1.00  0.00     0.167 C 
HETATM   15  C29 UNL     1      -4.310  50.866 -21.835  1.00  0.00     0.230 A 
HETATM   16  O7  UNL     1      -5.429  51.560 -23.775  1.00  0.00    -0.294 OA
HETATM   17  O6  UNL     1      -4.723  50.173 -20.659  1.00  0.00    -0.358 OA
BRANCH  13  18
HETATM   18  C2  UNL     1      -7.190  49.164 -23.280  1.00  0.00    -0.018 C 
HETATM   19  C1  UNL     1      -7.955  48.942 -24.364  1.00  0.00     0.022 C 
BRANCH  18  20
HETATM   20  C3  UNL     1      -7.878  49.377 -21.973  1.00  0.00     0.265 C 
HETATM   21  O1  UNL     1      -7.604  48.759 -20.950  1.00  0.00    -0.302 OA
ENDBRANCH  18  20
ENDBRANCH  13  18
ENDBRANCH   3   4
ENDBRANCH   1   3
BRANCH   1  22
HETATM   22  C14 UNL     1       0.178  51.768 -19.276  1.00  0.00     0.114 C 
HETATM   23  C15 UNL     1       0.604  51.385 -17.855  1.00  0.00     0.023 C 
BRANCH  22  24
HETATM   24  C16 UNL     1       0.816  53.074 -19.776  1.00  0.00     0.159 C 
BRANCH  24  25
HETATM   25  O4  UNL     1       0.083  54.188 -19.264  1.00  0.00    -0.390 OA
HETATM   26  H24 UNL     1       0.392  54.974 -19.749  1.00  0.00     0.210 HD
ENDBRANCH  24  25
BRANCH  24  27
HETATM   27  C17 UNL     1       0.841  53.219 -21.293  1.00  0.00    -0.058 C 
HETATM   28  C18 UNL     1       1.492  54.474 -21.827  1.00  0.00     0.046 C 
HETATM   29  C19 UNL     1       0.316  52.254 -22.080  1.00  0.00    -0.015 C 
BRANCH  29  30
HETATM   30  C20 UNL     1       0.219  52.271 -23.596  1.00  0.00     0.032 C 
BRANCH  30  31
HETATM   31  C21 UNL     1       0.758  53.588 -24.186  1.00  0.00     0.172 C 
BRANCH  31  32
HETATM   32  O5  UNL     1      -0.222  54.188 -25.030  1.00  0.00    -0.400 OA
HETATM   33  H32 UNL     1       0.130  55.051 -25.312  1.00  0.00     0.209 HD
ENDBRANCH  31  32
ENDBRANCH  30  31
BRANCH  30  34
HETATM   34  C22 UNL     1      -1.204  51.940 -24.099  1.00  0.00     0.010 C 
BRANCH  34  35
HETATM   35  C23 UNL     1      -1.351  51.105 -25.380  1.00  0.00     0.001 C 
BRANCH  35  36
HETATM   36  C24 UNL     1      -0.026  50.732 -26.046  1.00  0.00     0.000 C 
BRANCH  36  37
HETATM   37  C25 UNL     1       0.157  51.366 -27.433  1.00  0.00    -0.000 C 
BRANCH  37  38
HETATM   38  C26 UNL     1       1.576  51.849 -27.751  1.00  0.00    -0.005 C 
HETATM   39  C27 UNL     1       2.598  51.573 -26.663  1.00  0.00     0.005 C 
ENDBRANCH  37  38
ENDBRANCH  36  37
ENDBRANCH  35  36
ENDBRANCH  34  35
ENDBRANCH  30  34
ENDBRANCH  29  30
ENDBRANCH  24  27
ENDBRANCH  22  24
ENDBRANCH   1  22
TORSDOF 16
ENDMDL
MODEL 9
REMARK minimizedAffinity -6.97674799
REMARK CNNscore 0.336052418
REMARK CNNaffinity 6.03270102
REMARK  16 active torsions:
REMARK  status: ('A' for Active; 'I' for Inactive)
REMARK    1  A    between atoms: C2_2  and  C3_3 
REMARK    2  A    between atoms: C2_2  and  C4_5 
REMARK    3  A    between atoms: C12_13  and  O2_14 
REMARK    4  A    between atoms: O2_14  and  C13_15 
REMARK    5  A    between atoms: C13_15  and  C14_17 
REMARK    6  A    between atoms: C14_17  and  C16_19 
REMARK    7  A    between atoms: C16_19  and  O4_20 
REMARK    8  A    between atoms: C16_19  and  C17_21 
REMARK    9  A    between atoms: C19_23  and  C20_24 
REMARK   10  A    between atoms: C20_24  and  C21_25 
REMARK   11  A    between atoms: C20_24  and  C22_27 
REMARK   12  A    between atoms: C21_25  and  O5_26 
REMARK   13  A    between atoms: C22_27  and  C23_28 
REMARK   14  A    between atoms: C23_28  and  C24_29 
REMARK   15  A    between atoms: C24_29  and  C25_30 
REMARK   16  A    between atoms: C25_30  and  C26_31 
ROOT
HETATM    1  C13 UNL     1      -1.261  51.405 -18.832  1.00  0.00     0.266 C 
HETATM    2  O3  UNL     1      -2.172  52.093 -18.387  1.00  0.00    -0.265 OA
ENDROOT
BRANCH   1   3
HETATM    3  O2  UNL     1      -1.269  50.808 -20.059  1.00  0.00    -0.312 OA
BRANCH   3   4
HETATM    4  C12 UNL     1      -2.559  50.361 -20.516  1.00  0.00     0.170 C 
HETATM    5  C11 UNL     1      -2.873  49.021 -19.858  1.00  0.00     0.036 C 
HETATM    6  C10 UNL     1      -4.157  48.377 -20.381  1.00  0.00     0.007 C 
HETATM    7  C8  UNL     1      -4.522  48.760 -21.833  1.00  0.00    -0.007 C 
HETATM    8  C6  UNL     1      -3.266  49.090 -22.704  1.00  0.00    -0.003 C 
HETATM    9  C9  UNL     1      -5.449  47.691 -22.419  1.00  0.00     0.011 C 
HETATM   10  C5  UNL     1      -3.687  49.533 -24.145  1.00  0.00     0.030 C 
HETATM   11  C7  UNL     1      -2.324  47.865 -22.836  1.00  0.00     0.019 C 
HETATM   12  C28 UNL     1      -2.538  50.268 -22.034  1.00  0.00     0.129 A 
HETATM   13  C4  UNL     1      -2.500  49.966 -25.036  1.00  0.00     0.094 C 
HETATM   14  C30 UNL     1      -1.378  50.723 -24.313  1.00  0.00     0.167 C 
HETATM   15  C29 UNL     1      -1.584  51.087 -22.892  1.00  0.00     0.230 A 
HETATM   16  O7  UNL     1      -0.310  50.996 -24.858  1.00  0.00    -0.294 OA
HETATM   17  O6  UNL     1      -2.896  51.559 -22.595  1.00  0.00    -0.358 OA
BRANCH  13  18
HETATM   18  C2  UNL     1      -2.976  50.746 -26.242  1.00  0.00    -0.018 C 
HETATM   19  C1  UNL     1      -3.254  50.222 -27.450  1.00  0.00     0.022 C 
BRANCH  18  20
HETATM   20  C3  UNL     1      -3.166  52.214 -26.059  1.00  0.00     0.265 C 
HETATM   21  O1  UNL     1      -2.547  53.065 -26.687  1.00  0.00    -0.302 OA
ENDBRANCH  18  20
ENDBRANCH  13  18
ENDBRANCH   3   4
ENDBRANCH   1   3
BRANCH   1  22
HETATM   22  C14 UNL     1       0.038  51.152 -18.095  1.00  0.00     0.114 C 
HETATM   23  C15 UNL     1      -0.151  49.994 -17.111  1.00  0.00     0.023 C 
BRANCH  22  24
HETATM   24  C16 UNL     1       0.524  52.450 -17.429  1.00  0.00     0.159 C 
BRANCH  24  25
HETATM   25  O4  UNL     1       1.145  53.283 -18.409  1.00  0.00    -0.390 OA
HETATM   26  H24 UNL     1       1.602  53.993 -17.925  1.00  0.00     0.210 HD
ENDBRANCH  24  25
BRANCH  24  27
HETATM   27  C17 UNL     1       1.545  52.239 -16.317  1.00  0.00    -0.058 C 
HETATM   28  C18 UNL     1       2.991  52.455 -16.696  1.00  0.00     0.046 C 
HETATM   29  C19 UNL     1       1.139  51.895 -15.074  1.00  0.00    -0.015 C 
BRANCH  29  30
HETATM   30  C20 UNL     1       2.027  51.602 -13.877  1.00  0.00     0.032 C 
BRANCH  30  31
HETATM   31  C21 UNL     1       2.471  50.127 -13.845  1.00  0.00     0.172 C 
BRANCH  31  32
HETATM   32  O5  UNL     1       1.489  49.303 -14.467  1.00  0.00    -0.400 OA
HETATM   33  H32 UNL     1       1.848  48.398 -14.495  1.00  0.00     0.209 HD
ENDBRANCH  31  32
ENDBRANCH  30  31
BRANCH  30  34
HETATM   34  C22 UNL     1       1.387  52.053 -12.545  1.00  0.00     0.010 C 
BRANCH  34  35
HETATM   35  C23 UNL     1       0.018  52.749 -12.591  1.00  0.00     0.001 C 
BRANCH  35  36
HETATM   36  C24 UNL     1      -0.279  53.639 -11.383  1.00  0.00     0.000 C 
BRANCH  36  37
HETATM   37  C25 UNL     1      -1.422  53.112 -10.504  1.00  0.00    -0.000 C 
BRANCH  37  38
HETATM   38  C26 UNL     1      -2.798  53.066 -11.175  1.00  0.00    -0.005 C 
HETATM   39  C27 UNL     1      -3.773  52.080 -10.555  1.00  0.00     0.005 C 
ENDBRANCH  37  38
ENDBRANCH  36  37
ENDBRANCH  35  36
ENDBRANCH  34  35
ENDBRANCH  30  34
ENDBRANCH  29  30
ENDBRANCH  24  27
ENDBRANCH  22  24
ENDBRANCH   1  22
TORSDOF 16
ENDMDL
