MODEL 1
REMARK minimizedAffinity -7.27680683
REMARK CNNscore 0.567024231
REMARK CNNaffinity 6.78419924
REMARK  16 active torsions:
REMARK  status: ('A' for Active; 'I' for Inactive)
REMARK    1  A    between atoms: C4_4  and  C5_5 
REMARK    2  A    between atoms: C5_5  and  C6_6 
REMARK    3  A    between atoms: C6_6  and  C7_7 
REMARK    4  A    between atoms: C9_9  and  C10_10 
REMARK    5  A    between atoms: C10_10  and  O1_11 
REMARK    6  A    between atoms: C10_10  and  C11_12 
REMARK    7  A    between atoms: C11_12  and  C12_13 
REMARK    8  A    between atoms: C14_15  and  C15_16 
REMARK    9  A    between atoms: C15_16  and  C16_17 
REMARK   10  A    between atoms: C16_17  and  C17_18 
REMARK   11  A    between atoms: C19_20  and  C20_21 
REMARK   12  A    between atoms: C20_21  and  C21_22 
REMARK   13  A    between atoms: C21_22  and  C22_23 
REMARK   14  A    between atoms: C22_23  and  O2_24 
REMARK   15  A    between atoms: C24_26  and  C26_28 
REMARK   16  A    between atoms: C29_32  and  O4_34 
ROOT
HETATM    1  C17 UNL     1      -2.346  50.820 -21.912  1.00  0.00    -0.006 C 
HETATM    2  C18 UNL     1      -1.973  49.595 -22.794  1.00  0.00     0.019 C 
HETATM    3  C19 UNL     1      -1.079  51.772 -21.657  1.00  0.00     0.026 C 
HETATM    4  C23 UNL     1      -0.344  51.517 -20.329  1.00  0.00    -0.066 C 
HETATM    5  C24 UNL     1       0.241  52.488 -19.583  1.00  0.00    -0.021 C 
HETATM    6  C25 UNL     1       0.945  52.237 -18.277  1.00  0.00     0.052 C 
HETATM    7  C27 UNL     1      -0.362  50.072 -19.907  1.00  0.00     0.038 C 
HETATM    8  C28 UNL     1      -1.783  49.536 -19.738  1.00  0.00     0.042 C 
HETATM    9  C29 UNL     1      -2.879  50.307 -20.516  1.00  0.00     0.062 C 
HETATM   10  C30 UNL     1      -3.463  51.423 -19.627  1.00  0.00     0.046 C 
ENDROOT
BRANCH   1  11
HETATM   11  C16 UNL     1      -3.411  51.669 -22.713  1.00  0.00     0.016 C 
BRANCH  11  12
HETATM   12  C15 UNL     1      -3.454  51.605 -24.251  1.00  0.00     0.028 C 
BRANCH  12  13
HETATM   13  C14 UNL     1      -4.038  50.347 -24.831  1.00  0.00    -0.024 C 
HETATM   14  C12 UNL     1      -3.588  49.628 -25.878  1.00  0.00    -0.085 C 
HETATM   15  C13 UNL     1      -2.381  49.983 -26.702  1.00  0.00     0.043 C 
BRANCH  14  16
HETATM   16  C11 UNL     1      -4.290  48.332 -26.265  1.00  0.00     0.069 C 
BRANCH  16  17
HETATM   17  C10 UNL     1      -4.866  48.351 -27.693  1.00  0.00     0.145 C 
BRANCH  17  18
HETATM   18  C9  UNL     1      -6.035  47.412 -27.850  1.00  0.00     0.007 C 
HETATM   19  C7  UNL     1      -6.984  47.368 -28.809  1.00  0.00    -0.085 C 
HETATM   20  C8  UNL     1      -7.059  48.300 -29.988  1.00  0.00     0.043 C 
BRANCH  19  21
HETATM   21  C6  UNL     1      -8.105  46.348 -28.724  1.00  0.00     0.037 C 
BRANCH  21  22
HETATM   22  C5  UNL     1      -7.644  44.904 -28.473  1.00  0.00     0.031 C 
BRANCH  22  23
HETATM   23  C4  UNL     1      -8.623  44.080 -27.680  1.00  0.00    -0.024 C 
HETATM   24  C2  UNL     1      -8.820  44.094 -26.346  1.00  0.00    -0.091 C 
HETATM   25  C1  UNL     1      -8.114  45.003 -25.380  1.00  0.00     0.042 C 
HETATM   26  C3  UNL     1      -9.824  43.170 -25.708  1.00  0.00     0.042 C 
ENDBRANCH  22  23
ENDBRANCH  21  22
ENDBRANCH  19  21
ENDBRANCH  17  18
BRANCH  17  27
HETATM   27  O1  UNL     1      -3.874  48.040 -28.665  1.00  0.00    -0.391 OA
HETATM   28  H17 UNL     1      -3.224  48.763 -28.633  1.00  0.00     0.210 HD
ENDBRANCH  17  27
ENDBRANCH  16  17
ENDBRANCH  14  16
ENDBRANCH  12  13
ENDBRANCH  11  12
ENDBRANCH   1  11
BRANCH   3  29
HETATM   29  C20 UNL     1      -0.005  51.813 -22.782  1.00  0.00     0.012 C 
BRANCH  29  30
HETATM   30  C21 UNL     1      -0.321  52.814 -23.902  1.00  0.00     0.027 C 
BRANCH  30  31
HETATM   31  C22 UNL     1       0.931  53.498 -24.440  1.00  0.00     0.164 C 
BRANCH  31  32
HETATM   32  O2  UNL     1       1.106  53.273 -25.832  1.00  0.00    -0.401 OA
HETATM   33  H38 UNL     1       0.628  52.452 -26.083  1.00  0.00     0.209 HD
ENDBRANCH  31  32
ENDBRANCH  30  31
ENDBRANCH  29  30
ENDBRANCH   3  29
BRANCH   9  34
HETATM   34  O4  UNL     1      -3.942  49.365 -20.721  1.00  0.00    -0.389 OA
HETATM   35  H50 UNL     1      -4.204  49.007 -19.852  1.00  0.00     0.210 HD
ENDBRANCH   9  34
BRANCH   5  36
HETATM   36  C26 UNL     1       0.260  53.934 -19.988  1.00  0.00     0.265 C 
HETATM   37  O3  UNL     1       1.127  54.464 -20.673  1.00  0.00    -0.302 OA
ENDBRANCH   5  36
TORSDOF 16
ENDMDL
MODEL 2
REMARK minimizedAffinity -6.81930733
REMARK CNNscore 0.452301145
REMARK CNNaffinity 6.51262712
REMARK  16 active torsions:
REMARK  status: ('A' for Active; 'I' for Inactive)
REMARK    1  A    between atoms: C4_4  and  C5_5 
REMARK    2  A    between atoms: C5_5  and  C6_6 
REMARK    3  A    between atoms: C6_6  and  C7_7 
REMARK    4  A    between atoms: C9_9  and  C10_10 
REMARK    5  A    between atoms: C10_10  and  O1_11 
REMARK    6  A    between atoms: C10_10  and  C11_12 
REMARK    7  A    between atoms: C11_12  and  C12_13 
REMARK    8  A    between atoms: C14_15  and  C15_16 
REMARK    9  A    between atoms: C15_16  and  C16_17 
REMARK   10  A    between atoms: C16_17  and  C17_18 
REMARK   11  A    between atoms: C19_20  and  C20_21 
REMARK   12  A    between atoms: C20_21  and  C21_22 
REMARK   13  A    between atoms: C21_22  and  C22_23 
REMARK   14  A    between atoms: C22_23  and  O2_24 
REMARK   15  A    between atoms: C24_26  and  C26_28 
REMARK   16  A    between atoms: C29_32  and  O4_34 
ROOT
HETATM    1  C17 UNL     1      -2.310  50.893 -21.989  1.00  0.00    -0.006 C 
HETATM    2  C18 UNL     1      -1.917  49.726 -22.937  1.00  0.00     0.019 C 
HETATM    3  C19 UNL     1      -1.059  51.849 -21.679  1.00  0.00     0.026 C 
HETATM    4  C23 UNL     1      -0.321  51.531 -20.366  1.00  0.00    -0.066 C 
HETATM    5  C24 UNL     1       0.248  52.467 -19.565  1.00  0.00    -0.021 C 
HETATM    6  C25 UNL     1       0.954  52.154 -18.274  1.00  0.00     0.052 C 
HETATM    7  C27 UNL     1      -0.317  50.065 -20.025  1.00  0.00     0.038 C 
HETATM    8  C28 UNL     1      -1.729  49.498 -19.889  1.00  0.00     0.042 C 
HETATM    9  C29 UNL     1      -2.837  50.294 -20.625  1.00  0.00     0.062 C 
HETATM   10  C30 UNL     1      -3.439  51.349 -19.676  1.00  0.00     0.046 C 
ENDROOT
BRANCH   1  11
HETATM   11  C16 UNL     1      -3.387  51.769 -22.743  1.00  0.00     0.016 C 
BRANCH  11  12
HETATM   12  C15 UNL     1      -3.947  51.309 -24.102  1.00  0.00     0.028 C 
BRANCH  12  13
HETATM   13  C14 UNL     1      -5.256  50.573 -24.048  1.00  0.00    -0.024 C 
HETATM   14  C12 UNL     1      -5.526  49.324 -24.479  1.00  0.00    -0.085 C 
HETATM   15  C13 UNL     1      -4.527  48.414 -25.139  1.00  0.00     0.043 C 
BRANCH  14  16
HETATM   16  C11 UNL     1      -6.913  48.732 -24.264  1.00  0.00     0.069 C 
BRANCH  16  17
HETATM   17  C10 UNL     1      -6.976  47.215 -24.517  1.00  0.00     0.145 C 
BRANCH  17  18
HETATM   18  C9  UNL     1      -7.659  46.881 -25.819  1.00  0.00     0.007 C 
HETATM   19  C7  UNL     1      -8.965  46.956 -26.153  1.00  0.00    -0.085 C 
HETATM   20  C8  UNL     1     -10.062  47.428 -25.236  1.00  0.00     0.043 C 
BRANCH  19  21
HETATM   21  C6  UNL     1      -9.426  46.509 -27.529  1.00  0.00     0.037 C 
BRANCH  21  22
HETATM   22  C5  UNL     1     -10.125  47.597 -28.357  1.00  0.00     0.031 C 
BRANCH  22  23
HETATM   23  C4  UNL     1      -9.277  48.154 -29.470  1.00  0.00    -0.024 C 
HETATM   24  C2  UNL     1      -9.441  47.979 -30.797  1.00  0.00    -0.091 C 
HETATM   25  C1  UNL     1     -10.568  47.215 -31.432  1.00  0.00     0.042 C 
HETATM   26  C3  UNL     1      -8.470  48.584 -31.777  1.00  0.00     0.042 C 
ENDBRANCH  22  23
ENDBRANCH  21  22
ENDBRANCH  19  21
ENDBRANCH  17  18
BRANCH  17  27
HETATM   27  O1  UNL     1      -7.627  46.531 -23.451  1.00  0.00    -0.391 OA
HETATM   28  H17 UNL     1      -7.061  46.644 -22.669  1.00  0.00     0.210 HD
ENDBRANCH  17  27
ENDBRANCH  16  17
ENDBRANCH  14  16
ENDBRANCH  12  13
ENDBRANCH  11  12
ENDBRANCH   1  11
BRANCH   3  29
HETATM   29  C20 UNL     1       0.016  51.970 -22.798  1.00  0.00     0.012 C 
BRANCH  29  30
HETATM   30  C21 UNL     1      -0.275  53.081 -23.816  1.00  0.00     0.027 C 
BRANCH  30  31
HETATM   31  C22 UNL     1       0.976  53.521 -24.568  1.00  0.00     0.164 C 
BRANCH  31  32
HETATM   32  O2  UNL     1       1.385  54.832 -24.202  1.00  0.00    -0.401 OA
HETATM   33  H38 UNL     1       0.609  55.318 -23.846  1.00  0.00     0.209 HD
ENDBRANCH  31  32
ENDBRANCH  30  31
ENDBRANCH  29  30
ENDBRANCH   3  29
BRANCH   9  34
HETATM   34  O4  UNL     1      -3.885  49.349 -20.885  1.00  0.00    -0.389 OA
HETATM   35  H50 UNL     1      -4.142  48.939 -20.038  1.00  0.00     0.210 HD
ENDBRANCH   9  34
BRANCH   5  36
HETATM   36  C26 UNL     1       0.245  53.935 -19.888  1.00  0.00     0.265 C 
HETATM   37  O3  UNL     1       1.037  54.494 -20.638  1.00  0.00    -0.302 OA
ENDBRANCH   5  36
TORSDOF 16
ENDMDL
MODEL 3
REMARK minimizedAffinity -7.31365681
REMARK CNNscore 0.432302594
REMARK CNNaffinity 7.00070238
REMARK  16 active torsions:
REMARK  status: ('A' for Active; 'I' for Inactive)
REMARK    1  A    between atoms: C4_4  and  C5_5 
REMARK    2  A    between atoms: C5_5  and  C6_6 
REMARK    3  A    between atoms: C6_6  and  C7_7 
REMARK    4  A    between atoms: C9_9  and  C10_10 
REMARK    5  A    between atoms: C10_10  and  O1_11 
REMARK    6  A    between atoms: C10_10  and  C11_12 
REMARK    7  A    between atoms: C11_12  and  C12_13 
REMARK    8  A    between atoms: C14_15  and  C15_16 
REMARK    9  A    between atoms: C15_16  and  C16_17 
REMARK   10  A    between atoms: C16_17  and  C17_18 
REMARK   11  A    between atoms: C19_20  and  C20_21 
REMARK   12  A    between atoms: C20_21  and  C21_22 
REMARK   13  A    between atoms: C21_22  and  C22_23 
REMARK   14  A    between atoms: C22_23  and  O2_24 
REMARK   15  A    between atoms: C24_26  and  C26_28 
REMARK   16  A    between atoms: C29_32  and  O4_34 
ROOT
HETATM    1  C17 UNL     1      -5.357  48.787 -23.521  1.00  0.00    -0.006 C 
HETATM    2  C18 UNL     1      -4.999  50.185 -24.098  1.00  0.00     0.019 C 
HETATM    3  C19 UNL     1      -6.230  47.926 -24.557  1.00  0.00     0.026 C 
HETATM    4  C23 UNL     1      -7.750  47.994 -24.323  1.00  0.00    -0.066 C 
HETATM    5  C24 UNL     1      -8.601  46.959 -24.537  1.00  0.00    -0.021 C 
HETATM    6  C25 UNL     1     -10.084  47.024 -24.291  1.00  0.00     0.052 C 
HETATM    7  C27 UNL     1      -8.211  49.325 -23.792  1.00  0.00     0.038 C 
HETATM    8  C28 UNL     1      -7.542  49.684 -22.467  1.00  0.00     0.042 C 
HETATM    9  C29 UNL     1      -6.192  48.975 -22.193  1.00  0.00     0.062 C 
HETATM   10  C30 UNL     1      -6.438  47.661 -21.424  1.00  0.00     0.046 C 
ENDROOT
BRANCH   1  11
HETATM   11  C16 UNL     1      -3.999  48.008 -23.300  1.00  0.00     0.016 C 
BRANCH  11  12
HETATM   12  C15 UNL     1      -2.660  48.656 -23.698  1.00  0.00     0.028 C 
BRANCH  12  13
HETATM   13  C14 UNL     1      -1.978  49.448 -22.618  1.00  0.00    -0.024 C 
HETATM   14  C12 UNL     1      -1.366  48.986 -21.509  1.00  0.00    -0.085 C 
HETATM   15  C13 UNL     1      -1.272  47.534 -21.128  1.00  0.00     0.043 C 
BRANCH  14  16
HETATM   16  C11 UNL     1      -0.666  49.960 -20.569  1.00  0.00     0.069 C 
BRANCH  16  17
HETATM   17  C10 UNL     1      -0.995  51.435 -20.861  1.00  0.00     0.145 C 
BRANCH  17  18
HETATM   18  C9  UNL     1      -0.061  52.038 -21.879  1.00  0.00     0.007 C 
HETATM   19  C7  UNL     1      -0.329  52.556 -23.097  1.00  0.00    -0.085 C 
HETATM   20  C8  UNL     1      -1.700  52.647 -23.710  1.00  0.00     0.043 C 
BRANCH  19  21
HETATM   21  C6  UNL     1       0.802  53.064 -23.974  1.00  0.00     0.037 C 
BRANCH  21  22
HETATM   22  C5  UNL     1       0.359  53.958 -25.141  1.00  0.00     0.031 C 
BRANCH  22  23
HETATM   23  C4  UNL     1       0.104  53.207 -26.421  1.00  0.00    -0.024 C 
HETATM   24  C2  UNL     1       0.892  52.281 -27.003  1.00  0.00    -0.091 C 
HETATM   25  C1  UNL     1       2.186  51.771 -26.435  1.00  0.00     0.042 C 
HETATM   26  C3  UNL     1       0.499  51.651 -28.314  1.00  0.00     0.042 C 
ENDBRANCH  22  23
ENDBRANCH  21  22
ENDBRANCH  19  21
ENDBRANCH  17  18
BRANCH  17  27
HETATM   27  O1  UNL     1      -0.975  52.223 -19.675  1.00  0.00    -0.391 OA
HETATM   28  H17 UNL     1      -1.703  51.896 -19.119  1.00  0.00     0.210 HD
ENDBRANCH  17  27
ENDBRANCH  16  17
ENDBRANCH  14  16
ENDBRANCH  12  13
ENDBRANCH  11  12
ENDBRANCH   1  11
BRANCH   3  29
HETATM   29  C20 UNL     1      -5.980  48.199 -26.069  1.00  0.00     0.012 C 
BRANCH  29  30
HETATM   30  C21 UNL     1      -4.502  48.124 -26.474  1.00  0.00     0.027 C 
BRANCH  30  31
HETATM   31  C22 UNL     1      -4.289  48.435 -27.951  1.00  0.00     0.164 C 
BRANCH  31  32
HETATM   32  O2  UNL     1      -3.432  49.553 -28.143  1.00  0.00    -0.401 OA
HETATM   33  H38 UNL     1      -3.454  50.111 -27.335  1.00  0.00     0.209 HD
ENDBRANCH  31  32
ENDBRANCH  30  31
ENDBRANCH  29  30
ENDBRANCH   3  29
BRANCH   9  34
HETATM   34  O4  UNL     1      -5.479  49.834 -21.292  1.00  0.00    -0.389 OA
HETATM   35  H50 UNL     1      -6.044  49.995 -20.513  1.00  0.00     0.210 HD
ENDBRANCH   9  34
BRANCH   5  36
HETATM   36  C26 UNL     1      -8.153  45.623 -25.058  1.00  0.00     0.265 C 
HETATM   37  O3  UNL     1      -8.003  44.615 -24.379  1.00  0.00    -0.302 OA
ENDBRANCH   5  36
TORSDOF 16
ENDMDL
MODEL 4
REMARK minimizedAffinity -8.14602566
REMARK CNNscore 0.427131325
REMARK CNNaffinity 7.17406607
REMARK  16 active torsions:
REMARK  status: ('A' for Active; 'I' for Inactive)
REMARK    1  A    between atoms: C4_4  and  C5_5 
REMARK    2  A    between atoms: C5_5  and  C6_6 
REMARK    3  A    between atoms: C6_6  and  C7_7 
REMARK    4  A    between atoms: C9_9  and  C10_10 
REMARK    5  A    between atoms: C10_10  and  O1_11 
REMARK    6  A    between atoms: C10_10  and  C11_12 
REMARK    7  A    between atoms: C11_12  and  C12_13 
REMARK    8  A    between atoms: C14_15  and  C15_16 
REMARK    9  A    between atoms: C15_16  and  C16_17 
REMARK   10  A    between atoms: C16_17  and  C17_18 
REMARK   11  A    between atoms: C19_20  and  C20_21 
REMARK   12  A    between atoms: C20_21  and  C21_22 
REMARK   13  A    between atoms: C21_22  and  C22_23 
REMARK   14  A    between atoms: C22_23  and  O2_24 
REMARK   15  A    between atoms: C24_26  and  C26_28 
REMARK   16  A    between atoms: C29_32  and  O4_34 
ROOT
HETATM    1  C17 UNL     1      -2.226  51.256 -24.154  1.00  0.00    -0.006 C 
HETATM    2  C18 UNL     1      -3.042  52.457 -23.599  1.00  0.00     0.019 C 
HETATM    3  C19 UNL     1      -0.717  51.677 -24.503  1.00  0.00     0.026 C 
HETATM    4  C23 UNL     1      -0.480  52.034 -25.982  1.00  0.00    -0.066 C 
HETATM    5  C24 UNL     1       0.668  51.769 -26.656  1.00  0.00    -0.021 C 
HETATM    6  C25 UNL     1       0.891  52.106 -28.105  1.00  0.00     0.052 C 
HETATM    7  C27 UNL     1      -1.669  52.686 -26.636  1.00  0.00     0.038 C 
HETATM    8  C28 UNL     1      -2.913  51.801 -26.588  1.00  0.00     0.042 C 
HETATM    9  C29 UNL     1      -2.919  50.726 -25.472  1.00  0.00     0.062 C 
HETATM   10  C30 UNL     1      -2.313  49.414 -26.007  1.00  0.00     0.046 C 
ENDROOT
BRANCH   1  11
HETATM   11  C16 UNL     1      -2.151  50.170 -23.009  1.00  0.00     0.016 C 
BRANCH  11  12
HETATM   12  C15 UNL     1      -3.309  49.175 -22.807  1.00  0.00     0.028 C 
BRANCH  12  13
HETATM   13  C14 UNL     1      -3.537  48.725 -21.391  1.00  0.00    -0.024 C 
HETATM   14  C12 UNL     1      -2.699  48.033 -20.593  1.00  0.00    -0.085 C 
HETATM   15  C13 UNL     1      -1.335  47.548 -21.005  1.00  0.00     0.043 C 
BRANCH  14  16
HETATM   16  C11 UNL     1      -3.096  47.736 -19.153  1.00  0.00     0.069 C 
BRANCH  16  17
HETATM   17  C10 UNL     1      -3.134  48.989 -18.258  1.00  0.00     0.145 C 
BRANCH  17  18
HETATM   18  C9  UNL     1      -1.935  49.078 -17.349  1.00  0.00     0.007 C 
HETATM   19  C7  UNL     1      -0.742  49.679 -17.549  1.00  0.00    -0.085 C 
HETATM   20  C8  UNL     1      -0.357  50.433 -18.793  1.00  0.00     0.043 C 
BRANCH  19  21
HETATM   21  C6  UNL     1       0.343  49.587 -16.491  1.00  0.00     0.037 C 
BRANCH  21  22
HETATM   22  C5  UNL     1       0.505  50.846 -15.626  1.00  0.00     0.031 C 
BRANCH  22  23
HETATM   23  C4  UNL     1       1.931  51.313 -15.491  1.00  0.00    -0.024 C 
HETATM   24  C2  UNL     1       2.596  52.170 -16.290  1.00  0.00    -0.091 C 
HETATM   25  C1  UNL     1       2.002  52.884 -17.471  1.00  0.00     0.042 C 
HETATM   26  C3  UNL     1       4.042  52.502 -16.028  1.00  0.00     0.042 C 
ENDBRANCH  22  23
ENDBRANCH  21  22
ENDBRANCH  19  21
ENDBRANCH  17  18
BRANCH  17  27
HETATM   27  O1  UNL     1      -4.324  49.042 -17.479  1.00  0.00    -0.391 OA
HETATM   28  H17 UNL     1      -5.058  49.146 -18.109  1.00  0.00     0.210 HD
ENDBRANCH  17  27
ENDBRANCH  16  17
ENDBRANCH  14  16
ENDBRANCH  12  13
ENDBRANCH  11  12
ENDBRANCH   1  11
BRANCH   3  29
HETATM   29  C20 UNL     1      -0.099  52.817 -23.644  1.00  0.00     0.012 C 
BRANCH  29  30
HETATM   30  C21 UNL     1       0.696  52.315 -22.432  1.00  0.00     0.027 C 
BRANCH  30  31
HETATM   31  C22 UNL     1       0.779  53.356 -21.321  1.00  0.00     0.164 C 
BRANCH  31  32
HETATM   32  O2  UNL     1       1.562  54.481 -21.701  1.00  0.00    -0.401 OA
HETATM   33  H38 UNL     1       2.178  54.210 -22.417  1.00  0.00     0.209 HD
ENDBRANCH  31  32
ENDBRANCH  30  31
ENDBRANCH  29  30
ENDBRANCH   3  29
BRANCH   9  34
HETATM   34  O4  UNL     1      -4.303  50.447 -25.211  1.00  0.00    -0.389 OA
HETATM   35  H50 UNL     1      -4.726  50.194 -26.053  1.00  0.00     0.210 HD
ENDBRANCH   9  34
BRANCH   5  36
HETATM   36  C26 UNL     1       1.860  51.112 -26.018  1.00  0.00     0.265 C 
HETATM   37  O3  UNL     1       2.974  51.031 -26.522  1.00  0.00    -0.302 OA
ENDBRANCH   5  36
TORSDOF 16
ENDMDL
MODEL 5
REMARK minimizedAffinity -8.25045109
REMARK CNNscore 0.362857133
REMARK CNNaffinity 7.23308134
REMARK  16 active torsions:
REMARK  status: ('A' for Active; 'I' for Inactive)
REMARK    1  A    between atoms: C4_4  and  C5_5 
REMARK    2  A    between atoms: C5_5  and  C6_6 
REMARK    3  A    between atoms: C6_6  and  C7_7 
REMARK    4  A    between atoms: C9_9  and  C10_10 
REMARK    5  A    between atoms: C10_10  and  O1_11 
REMARK    6  A    between atoms: C10_10  and  C11_12 
REMARK    7  A    between atoms: C11_12  and  C12_13 
REMARK    8  A    between atoms: C14_15  and  C15_16 
REMARK    9  A    between atoms: C15_16  and  C16_17 
REMARK   10  A    between atoms: C16_17  and  C17_18 
REMARK   11  A    between atoms: C19_20  and  C20_21 
REMARK   12  A    between atoms: C20_21  and  C21_22 
REMARK   13  A    between atoms: C21_22  and  C22_23 
REMARK   14  A    between atoms: C22_23  and  O2_24 
REMARK   15  A    between atoms: C24_26  and  C26_28 
REMARK   16  A    between atoms: C29_32  and  O4_34 
ROOT
HETATM    1  C17 UNL     1      -2.312  50.897 -24.434  1.00  0.00    -0.006 C 
HETATM    2  C18 UNL     1      -3.111  52.070 -23.800  1.00  0.00     0.019 C 
HETATM    3  C19 UNL     1      -0.805  51.326 -24.778  1.00  0.00     0.026 C 
HETATM    4  C23 UNL     1      -0.582  51.768 -26.236  1.00  0.00    -0.066 C 
HETATM    5  C24 UNL     1       0.555  51.534 -26.938  1.00  0.00    -0.021 C 
HETATM    6  C25 UNL     1       0.763  51.952 -28.368  1.00  0.00     0.052 C 
HETATM    7  C27 UNL     1      -1.774  52.465 -26.835  1.00  0.00     0.038 C 
HETATM    8  C28 UNL     1      -3.024  51.587 -26.823  1.00  0.00     0.042 C 
HETATM    9  C29 UNL     1      -3.026  50.450 -25.771  1.00  0.00     0.062 C 
HETATM   10  C30 UNL     1      -2.437  49.166 -26.390  1.00  0.00     0.046 C 
ENDROOT
BRANCH   1  11
HETATM   11  C16 UNL     1      -2.231  49.745 -23.355  1.00  0.00     0.016 C 
BRANCH  11  12
HETATM   12  C15 UNL     1      -3.322  49.618 -22.275  1.00  0.00     0.028 C 
BRANCH  12  13
HETATM   13  C14 UNL     1      -2.857  49.813 -20.859  1.00  0.00    -0.024 C 
HETATM   14  C12 UNL     1      -2.059  49.009 -20.127  1.00  0.00    -0.085 C 
HETATM   15  C13 UNL     1      -1.487  47.705 -20.612  1.00  0.00     0.043 C 
BRANCH  14  16
HETATM   16  C11 UNL     1      -1.645  49.428 -18.723  1.00  0.00     0.069 C 
BRANCH  16  17
HETATM   17  C10 UNL     1      -1.610  50.954 -18.525  1.00  0.00     0.145 C 
BRANCH  17  18
HETATM   18  C9  UNL     1      -0.318  51.421 -17.904  1.00  0.00     0.007 C 
HETATM   19  C7  UNL     1       0.533  52.390 -18.304  1.00  0.00    -0.085 C 
HETATM   20  C8  UNL     1       0.339  53.256 -19.520  1.00  0.00     0.043 C 
BRANCH  19  21
HETATM   21  C6  UNL     1       1.815  52.645 -17.532  1.00  0.00     0.037 C 
BRANCH  21  22
HETATM   22  C5  UNL     1       1.676  52.544 -16.005  1.00  0.00     0.031 C 
BRANCH  22  23
HETATM   23  C4  UNL     1       2.815  51.821 -15.336  1.00  0.00    -0.024 C 
HETATM   24  C2  UNL     1       2.740  50.809 -14.449  1.00  0.00    -0.091 C 
HETATM   25  C1  UNL     1       1.465  50.158 -13.991  1.00  0.00     0.042 C 
HETATM   26  C3  UNL     1       3.989  50.221 -13.846  1.00  0.00     0.042 C 
ENDBRANCH  22  23
ENDBRANCH  21  22
ENDBRANCH  19  21
ENDBRANCH  17  18
BRANCH  17  27
HETATM   27  O1  UNL     1      -2.705  51.408 -17.736  1.00  0.00    -0.391 OA
HETATM   28  H17 UNL     1      -3.507  51.227 -18.255  1.00  0.00     0.210 HD
ENDBRANCH  17  27
ENDBRANCH  16  17
ENDBRANCH  14  16
ENDBRANCH  12  13
ENDBRANCH  11  12
ENDBRANCH   1  11
BRANCH   3  29
HETATM   29  C20 UNL     1      -0.166  52.410 -23.862  1.00  0.00     0.012 C 
BRANCH  29  30
HETATM   30  C21 UNL     1       0.292  53.665 -24.618  1.00  0.00     0.027 C 
BRANCH  30  31
HETATM   31  C22 UNL     1       1.047  54.639 -23.720  1.00  0.00     0.164 C 
BRANCH  31  32
HETATM   32  O2  UNL     1       1.259  55.894 -24.353  1.00  0.00    -0.401 OA
HETATM   33  H38 UNL     1       1.221  55.768 -25.327  1.00  0.00     0.209 HD
ENDBRANCH  31  32
ENDBRANCH  30  31
ENDBRANCH  29  30
ENDBRANCH   3  29
BRANCH   9  34
HETATM   34  O4  UNL     1      -4.408  50.166 -25.510  1.00  0.00    -0.389 OA
HETATM   35  H50 UNL     1      -4.844  49.965 -26.359  1.00  0.00     0.210 HD
ENDBRANCH   9  34
BRANCH   5  36
HETATM   36  C26 UNL     1       1.750  50.832 -26.356  1.00  0.00     0.265 C 
HETATM   37  O3  UNL     1       2.915  51.040 -26.673  1.00  0.00    -0.302 OA
ENDBRANCH   5  36
TORSDOF 16
ENDMDL
MODEL 6
REMARK minimizedAffinity -8.1403513
REMARK CNNscore 0.336617649
REMARK CNNaffinity 7.13476896
REMARK  16 active torsions:
REMARK  status: ('A' for Active; 'I' for Inactive)
REMARK    1  A    between atoms: C4_4  and  C5_5 
REMARK    2  A    between atoms: C5_5  and  C6_6 
REMARK    3  A    between atoms: C6_6  and  C7_7 
REMARK    4  A    between atoms: C9_9  and  C10_10 
REMARK    5  A    between atoms: C10_10  and  O1_11 
REMARK    6  A    between atoms: C10_10  and  C11_12 
REMARK    7  A    between atoms: C11_12  and  C12_13 
REMARK    8  A    between atoms: C14_15  and  C15_16 
REMARK    9  A    between atoms: C15_16  and  C16_17 
REMARK   10  A    between atoms: C16_17  and  C17_18 
REMARK   11  A    between atoms: C19_20  and  C20_21 
REMARK   12  A    between atoms: C20_21  and  C21_22 
REMARK   13  A    between atoms: C21_22  and  C22_23 
REMARK   14  A    between atoms: C22_23  and  O2_24 
REMARK   15  A    between atoms: C24_26  and  C26_28 
REMARK   16  A    between atoms: C29_32  and  O4_34 
ROOT
HETATM    1  C17 UNL     1      -2.529  50.926 -24.617  1.00  0.00    -0.006 C 
HETATM    2  C18 UNL     1      -3.459  52.088 -24.168  1.00  0.00     0.019 C 
HETATM    3  C19 UNL     1      -1.031  51.437 -24.882  1.00  0.00     0.026 C 
HETATM    4  C23 UNL     1      -0.717  51.755 -26.355  1.00  0.00    -0.066 C 
HETATM    5  C24 UNL     1       0.491  51.546 -26.939  1.00  0.00    -0.021 C 
HETATM    6  C25 UNL     1       0.790  51.843 -28.383  1.00  0.00     0.052 C 
HETATM    7  C27 UNL     1      -1.898  52.299 -27.113  1.00  0.00     0.038 C 
HETATM    8  C28 UNL     1      -3.081  51.333 -27.111  1.00  0.00     0.042 C 
HETATM    9  C29 UNL     1      -3.093  50.302 -25.955  1.00  0.00     0.062 C 
HETATM   10  C30 UNL     1      -2.366  49.015 -26.394  1.00  0.00     0.046 C 
ENDROOT
BRANCH   1  11
HETATM   11  C16 UNL     1      -2.462  49.890 -23.425  1.00  0.00     0.016 C 
BRANCH  11  12
HETATM   12  C15 UNL     1      -3.141  48.514 -23.555  1.00  0.00     0.028 C 
BRANCH  12  13
HETATM   13  C14 UNL     1      -3.590  47.889 -22.264  1.00  0.00    -0.024 C 
HETATM   14  C12 UNL     1      -2.828  47.468 -21.235  1.00  0.00    -0.085 C 
HETATM   15  C13 UNL     1      -1.325  47.531 -21.203  1.00  0.00     0.043 C 
BRANCH  14  16
HETATM   16  C11 UNL     1      -3.490  46.924 -19.975  1.00  0.00     0.069 C 
BRANCH  16  17
HETATM   17  C10 UNL     1      -4.450  47.926 -19.307  1.00  0.00     0.145 C 
BRANCH  17  18
HETATM   18  C9  UNL     1      -3.716  48.992 -18.535  1.00  0.00     0.007 C 
HETATM   19  C7  UNL     1      -3.471  50.280 -18.860  1.00  0.00    -0.085 C 
HETATM   20  C8  UNL     1      -3.921  50.946 -20.132  1.00  0.00     0.043 C 
BRANCH  19  21
HETATM   21  C6  UNL     1      -2.653  51.157 -17.928  1.00  0.00     0.037 C 
BRANCH  21  22
HETATM   22  C5  UNL     1      -1.132  50.998 -18.065  1.00  0.00     0.031 C 
BRANCH  22  23
HETATM   23  C4  UNL     1      -0.464  52.130 -18.801  1.00  0.00    -0.024 C 
HETATM   24  C2  UNL     1       0.088  52.100 -20.030  1.00  0.00    -0.091 C 
HETATM   25  C1  UNL     1       0.091  50.907 -20.945  1.00  0.00     0.042 C 
HETATM   26  C3  UNL     1       0.752  53.324 -20.605  1.00  0.00     0.042 C 
ENDBRANCH  22  23
ENDBRANCH  21  22
ENDBRANCH  19  21
ENDBRANCH  17  18
BRANCH  17  27
HETATM   27  O1  UNL     1      -5.378  47.273 -18.448  1.00  0.00    -0.391 OA
HETATM   28  H17 UNL     1      -5.933  46.716 -19.019  1.00  0.00     0.210 HD
ENDBRANCH  17  27
ENDBRANCH  16  17
ENDBRANCH  14  16
ENDBRANCH  12  13
ENDBRANCH  11  12
ENDBRANCH   1  11
BRANCH   3  29
HETATM   29  C20 UNL     1      -0.551  52.648 -24.032  1.00  0.00     0.012 C 
BRANCH  29  30
HETATM   30  C21 UNL     1       0.159  53.735 -24.851  1.00  0.00     0.027 C 
BRANCH  30  31
HETATM   31  C22 UNL     1       1.106  54.576 -24.002  1.00  0.00     0.164 C 
BRANCH  31  32
HETATM   32  O2  UNL     1       1.146  55.931 -24.430  1.00  0.00    -0.401 OA
HETATM   33  H38 UNL     1       0.869  55.974 -25.372  1.00  0.00     0.209 HD
ENDBRANCH  31  32
ENDBRANCH  30  31
ENDBRANCH  29  30
ENDBRANCH   3  29
BRANCH   9  34
HETATM   34  O4  UNL     1      -4.470  49.938 -25.775  1.00  0.00    -0.389 OA
HETATM   35  H50 UNL     1      -4.816  49.625 -26.632  1.00  0.00     0.210 HD
ENDBRANCH   9  34
BRANCH   5  36
HETATM   36  C26 UNL     1       1.676  50.996 -26.198  1.00  0.00     0.265 C 
HETATM   37  O3  UNL     1       2.839  51.064 -26.578  1.00  0.00    -0.302 OA
ENDBRANCH   5  36
TORSDOF 16
ENDMDL
MODEL 7
REMARK minimizedAffinity -7.52397585
REMARK CNNscore 0.316952378
REMARK CNNaffinity 6.04992056
REMARK  16 active torsions:
REMARK  status: ('A' for Active; 'I' for Inactive)
REMARK    1  A    between atoms: C4_4  and  C5_5 
REMARK    2  A    between atoms: C5_5  and  C6_6 
REMARK    3  A    between atoms: C6_6  and  C7_7 
REMARK    4  A    between atoms: C9_9  and  C10_10 
REMARK    5  A    between atoms: C10_10  and  O1_11 
REMARK    6  A    between atoms: C10_10  and  C11_12 
REMARK    7  A    between atoms: C11_12  and  C12_13 
REMARK    8  A    between atoms: C14_15  and  C15_16 
REMARK    9  A    between atoms: C15_16  and  C16_17 
REMARK   10  A    between atoms: C16_17  and  C17_18 
REMARK   11  A    between atoms: C19_20  and  C20_21 
REMARK   12  A    between atoms: C20_21  and  C21_22 
REMARK   13  A    between atoms: C21_22  and  C22_23 
REMARK   14  A    between atoms: C22_23  and  O2_24 
REMARK   15  A    between atoms: C24_26  and  C26_28 
REMARK   16  A    between atoms: C29_32  and  O4_34 
ROOT
HETATM    1  C17 UNL     1      -3.815  49.146 -22.447  1.00  0.00    -0.006 C 
HETATM    2  C18 UNL     1      -3.163  47.765 -22.154  1.00  0.00     0.019 C 
HETATM    3  C19 UNL     1      -3.315  49.749 -23.847  1.00  0.00     0.026 C 
HETATM    4  C23 UNL     1      -2.149  50.748 -23.733  1.00  0.00    -0.066 C 
HETATM    5  C24 UNL     1      -1.991  51.831 -24.535  1.00  0.00    -0.021 C 
HETATM    6  C25 UNL     1      -0.859  52.814 -24.410  1.00  0.00     0.052 C 
HETATM    7  C27 UNL     1      -1.199  50.428 -22.610  1.00  0.00     0.038 C 
HETATM    8  C28 UNL     1      -1.897  50.403 -21.251  1.00  0.00     0.042 C 
HETATM    9  C29 UNL     1      -3.426  50.155 -21.295  1.00  0.00     0.062 C 
HETATM   10  C30 UNL     1      -4.172  51.502 -21.373  1.00  0.00     0.046 C 
ENDROOT
BRANCH   1  11
HETATM   11  C16 UNL     1      -5.373  48.913 -22.573  1.00  0.00     0.016 C 
BRANCH  11  12
HETATM   12  C15 UNL     1      -6.215  49.794 -23.514  1.00  0.00     0.028 C 
BRANCH  12  13
HETATM   13  C14 UNL     1      -7.593  49.279 -23.825  1.00  0.00    -0.024 C 
HETATM   14  C12 UNL     1      -7.948  48.357 -24.742  1.00  0.00    -0.085 C 
HETATM   15  C13 UNL     1      -6.990  47.667 -25.674  1.00  0.00     0.043 C 
BRANCH  14  16
HETATM   16  C11 UNL     1      -9.402  47.917 -24.851  1.00  0.00     0.069 C 
BRANCH  16  17
HETATM   17  C10 UNL     1     -10.182  48.650 -25.958  1.00  0.00     0.145 C 
BRANCH  17  18
HETATM   18  C9  UNL     1     -10.220  47.867 -27.245  1.00  0.00     0.007 C 
HETATM   19  C7  UNL     1     -11.277  47.486 -27.993  1.00  0.00    -0.085 C 
HETATM   20  C8  UNL     1     -12.714  47.798 -27.673  1.00  0.00     0.043 C 
BRANCH  19  21
HETATM   21  C6  UNL     1     -11.064  46.645 -29.240  1.00  0.00     0.037 C 
BRANCH  21  22
HETATM   22  C5  UNL     1     -11.291  47.390 -30.563  1.00  0.00     0.031 C 
BRANCH  22  23
HETATM   23  C4  UNL     1     -10.113  47.343 -31.500  1.00  0.00    -0.024 C 
HETATM   24  C2  UNL     1      -9.049  48.170 -31.526  1.00  0.00    -0.091 C 
HETATM   25  C1  UNL     1      -8.808  49.295 -30.560  1.00  0.00     0.042 C 
HETATM   26  C3  UNL     1      -7.969  48.000 -32.562  1.00  0.00     0.042 C 
ENDBRANCH  22  23
ENDBRANCH  21  22
ENDBRANCH  19  21
ENDBRANCH  17  18
BRANCH  17  27
HETATM   27  O1  UNL     1      -9.647  49.946 -26.208  1.00  0.00    -0.391 OA
HETATM   28  H17 UNL     1      -9.793  50.462 -25.397  1.00  0.00     0.210 HD
ENDBRANCH  17  27
ENDBRANCH  16  17
ENDBRANCH  14  16
ENDBRANCH  12  13
ENDBRANCH  11  12
ENDBRANCH   1  11
BRANCH   3  29
HETATM   29  C20 UNL     1      -2.939  48.720 -24.952  1.00  0.00     0.012 C 
BRANCH  29  30
HETATM   30  C21 UNL     1      -4.002  48.575 -26.049  1.00  0.00     0.027 C 
BRANCH  30  31
HETATM   31  C22 UNL     1      -3.438  48.835 -27.442  1.00  0.00     0.164 C 
BRANCH  31  32
HETATM   32  O2  UNL     1      -3.809  50.114 -27.937  1.00  0.00    -0.401 OA
HETATM   33  H38 UNL     1      -4.626  50.408 -27.477  1.00  0.00     0.209 HD
ENDBRANCH  31  32
ENDBRANCH  30  31
ENDBRANCH  29  30
ENDBRANCH   3  29
BRANCH   9  34
HETATM   34  O4  UNL     1      -3.763  49.587 -20.021  1.00  0.00    -0.389 OA
HETATM   35  H50 UNL     1      -3.447  50.193 -19.325  1.00  0.00     0.210 HD
ENDBRANCH   9  34
BRANCH   5  36
HETATM   36  C26 UNL     1      -2.935  52.168 -25.654  1.00  0.00     0.265 C 
HETATM   37  O3  UNL     1      -2.662  52.870 -26.621  1.00  0.00    -0.302 OA
ENDBRANCH   5  36
TORSDOF 16
ENDMDL
MODEL 8
REMARK minimizedAffinity -7.82431459
REMARK CNNscore 0.295193106
REMARK CNNaffinity 6.00632143
REMARK  16 active torsions:
REMARK  status: ('A' for Active; 'I' for Inactive)
REMARK    1  A    between atoms: C4_4  and  C5_5 
REMARK    2  A    between atoms: C5_5  and  C6_6 
REMARK    3  A    between atoms: C6_6  and  C7_7 
REMARK    4  A    between atoms: C9_9  and  C10_10 
REMARK    5  A    between atoms: C10_10  and  O1_11 
REMARK    6  A    between atoms: C10_10  and  C11_12 
REMARK    7  A    between atoms: C11_12  and  C12_13 
REMARK    8  A    between atoms: C14_15  and  C15_16 
REMARK    9  A    between atoms: C15_16  and  C16_17 
REMARK   10  A    between atoms: C16_17  and  C17_18 
REMARK   11  A    between atoms: C19_20  and  C20_21 
REMARK   12  A    between atoms: C20_21  and  C21_22 
REMARK   13  A    between atoms: C21_22  and  C22_23 
REMARK   14  A    between atoms: C22_23  and  O2_24 
REMARK   15  A    between atoms: C24_26  and  C26_28 
REMARK   16  A    between atoms: C29_32  and  O4_34 
ROOT
HETATM    1  C17 UNL     1      -7.442  47.407 -29.934  1.00  0.00    -0.006 C 
HETATM    2  C18 UNL     1      -6.824  48.549 -30.789  1.00  0.00     0.019 C 
HETATM    3  C19 UNL     1      -7.744  46.103 -30.819  1.00  0.00     0.026 C 
HETATM    4  C23 UNL     1      -9.193  45.997 -31.326  1.00  0.00    -0.066 C 
HETATM    5  C24 UNL     1      -9.867  44.827 -31.470  1.00  0.00    -0.021 C 
HETATM    6  C25 UNL     1     -11.289  44.727 -31.951  1.00  0.00     0.052 C 
HETATM    7  C27 UNL     1      -9.821  47.333 -31.622  1.00  0.00     0.038 C 
HETATM    8  C28 UNL     1      -9.846  48.244 -30.396  1.00  0.00     0.042 C 
HETATM    9  C29 UNL     1      -8.799  47.913 -29.302  1.00  0.00     0.062 C 
HETATM   10  C30 UNL     1      -9.408  46.936 -28.277  1.00  0.00     0.046 C 
ENDROOT
BRANCH   1  11
HETATM   11  C16 UNL     1      -6.366  46.995 -28.852  1.00  0.00     0.016 C 
BRANCH  11  12
HETATM   12  C15 UNL     1      -5.366  48.037 -28.318  1.00  0.00     0.028 C 
BRANCH  12  13
HETATM   13  C14 UNL     1      -5.267  48.130 -26.821  1.00  0.00    -0.024 C 
HETATM   14  C12 UNL     1      -4.175  48.396 -26.075  1.00  0.00    -0.085 C 
HETATM   15  C13 UNL     1      -2.798  48.634 -26.632  1.00  0.00     0.043 C 
BRANCH  14  16
HETATM   16  C11 UNL     1      -4.303  48.517 -24.562  1.00  0.00     0.069 C 
BRANCH  16  17
HETATM   17  C10 UNL     1      -4.578  49.956 -24.085  1.00  0.00     0.145 C 
BRANCH  17  18
HETATM   18  C9  UNL     1      -3.311  50.698 -23.748  1.00  0.00     0.007 C 
HETATM   19  C7  UNL     1      -2.679  51.679 -24.427  1.00  0.00    -0.085 C 
HETATM   20  C8  UNL     1      -3.152  52.267 -25.729  1.00  0.00     0.043 C 
BRANCH  19  21
HETATM   21  C6  UNL     1      -1.369  52.244 -23.905  1.00  0.00     0.037 C 
BRANCH  21  22
HETATM   22  C5  UNL     1      -0.635  53.173 -24.883  1.00  0.00     0.031 C 
BRANCH  22  23
HETATM   23  C4  UNL     1       0.734  52.684 -25.277  1.00  0.00    -0.024 C 
HETATM   24  C2  UNL     1       1.039  51.732 -26.182  1.00  0.00    -0.091 C 
HETATM   25  C1  UNL     1       0.039  50.999 -27.031  1.00  0.00     0.042 C 
HETATM   26  C3  UNL     1       2.471  51.338 -26.430  1.00  0.00     0.042 C 
ENDBRANCH  22  23
ENDBRANCH  21  22
ENDBRANCH  19  21
ENDBRANCH  17  18
BRANCH  17  27
HETATM   27  O1  UNL     1      -5.454  49.979 -22.963  1.00  0.00    -0.391 OA
HETATM   28  H17 UNL     1      -6.308  49.637 -23.276  1.00  0.00     0.210 HD
ENDBRANCH  17  27
ENDBRANCH  16  17
ENDBRANCH  14  16
ENDBRANCH  12  13
ENDBRANCH  11  12
ENDBRANCH   1  11
BRANCH   3  29
HETATM   29  C20 UNL     1      -6.806  45.860 -32.037  1.00  0.00     0.012 C 
BRANCH  29  30
HETATM   30  C21 UNL     1      -5.318  46.058 -31.720  1.00  0.00     0.027 C 
BRANCH  30  31
HETATM   31  C22 UNL     1      -4.492  46.347 -32.969  1.00  0.00     0.164 C 
BRANCH  31  32
HETATM   32  O2  UNL     1      -3.411  47.229 -32.702  1.00  0.00    -0.401 OA
HETATM   33  H38 UNL     1      -3.621  47.755 -31.899  1.00  0.00     0.209 HD
ENDBRANCH  31  32
ENDBRANCH  30  31
ENDBRANCH  29  30
ENDBRANCH   3  29
BRANCH   9  34
HETATM   34  O4  UNL     1      -8.575  49.142 -28.596  1.00  0.00    -0.389 OA
HETATM   35  H50 UNL     1      -9.437  49.472 -28.279  1.00  0.00     0.210 HD
ENDBRANCH   9  34
BRANCH   5  36
HETATM   36  C26 UNL     1      -9.256  43.487 -31.172  1.00  0.00     0.265 C 
HETATM   37  O3  UNL     1      -9.211  42.963 -30.065  1.00  0.00    -0.302 OA
ENDBRANCH   5  36
TORSDOF 16
ENDMDL
MODEL 9
REMARK minimizedAffinity -6.67507935
REMARK CNNscore 0.280361503
REMARK CNNaffinity 6.15845823
REMARK  16 active torsions:
REMARK  status: ('A' for Active; 'I' for Inactive)
REMARK    1  A    between atoms: C4_4  and  C5_5 
REMARK    2  A    between atoms: C5_5  and  C6_6 
REMARK    3  A    between atoms: C6_6  and  C7_7 
REMARK    4  A    between atoms: C9_9  and  C10_10 
REMARK    5  A    between atoms: C10_10  and  O1_11 
REMARK    6  A    between atoms: C10_10  and  C11_12 
REMARK    7  A    between atoms: C11_12  and  C12_13 
REMARK    8  A    between atoms: C14_15  and  C15_16 
REMARK    9  A    between atoms: C15_16  and  C16_17 
REMARK   10  A    between atoms: C16_17  and  C17_18 
REMARK   11  A    between atoms: C19_20  and  C20_21 
REMARK   12  A    between atoms: C20_21  and  C21_22 
REMARK   13  A    between atoms: C21_22  and  C22_23 
REMARK   14  A    between atoms: C22_23  and  O2_24 
REMARK   15  A    between atoms: C24_26  and  C26_28 
REMARK   16  A    between atoms: C29_32  and  O4_34 
ROOT
HETATM    1  C17 UNL     1      -8.298  46.756 -28.432  1.00  0.00    -0.006 C 
HETATM    2  C18 UNL     1      -7.439  45.460 -28.442  1.00  0.00     0.019 C 
HETATM    3  C19 UNL     1      -9.630  46.576 -27.556  1.00  0.00     0.026 C 
HETATM    4  C23 UNL     1     -10.883  46.202 -28.368  1.00  0.00    -0.066 C 
HETATM    5  C24 UNL     1     -12.138  46.625 -28.070  1.00  0.00    -0.021 C 
HETATM    6  C25 UNL     1     -13.359  46.271 -28.876  1.00  0.00     0.052 C 
HETATM    7  C27 UNL     1     -10.583  45.337 -29.562  1.00  0.00     0.038 C 
HETATM    8  C28 UNL     1      -9.610  46.006 -30.531  1.00  0.00     0.042 C 
HETATM    9  C29 UNL     1      -8.714  47.110 -29.915  1.00  0.00     0.062 C 
HETATM   10  C30 UNL     1      -9.404  48.481 -30.055  1.00  0.00     0.046 C 
ENDROOT
BRANCH   1  11
HETATM   11  C16 UNL     1      -7.437  47.885 -27.740  1.00  0.00     0.016 C 
BRANCH  11  12
HETATM   12  C15 UNL     1      -5.900  47.785 -27.718  1.00  0.00     0.028 C 
BRANCH  12  13
HETATM   13  C14 UNL     1      -5.257  47.975 -26.373  1.00  0.00    -0.024 C 
HETATM   14  C12 UNL     1      -4.001  48.383 -26.102  1.00  0.00    -0.085 C 
HETATM   15  C13 UNL     1      -2.968  48.714 -27.144  1.00  0.00     0.043 C 
BRANCH  14  16
HETATM   16  C11 UNL     1      -3.564  48.582 -24.657  1.00  0.00     0.069 C 
BRANCH  16  17
HETATM   17  C10 UNL     1      -2.947  49.967 -24.389  1.00  0.00     0.145 C 
BRANCH  17  18
HETATM   18  C9  UNL     1      -1.901  49.927 -23.305  1.00  0.00     0.007 C 
HETATM   19  C7  UNL     1      -1.960  49.390 -22.067  1.00  0.00    -0.085 C 
HETATM   20  C8  UNL     1      -3.154  48.674 -21.497  1.00  0.00     0.043 C 
BRANCH  19  21
HETATM   21  C6  UNL     1      -0.778  49.522 -21.123  1.00  0.00     0.037 C 
BRANCH  21  22
HETATM   22  C5  UNL     1      -1.010  50.458 -19.928  1.00  0.00     0.031 C 
BRANCH  22  23
HETATM   23  C4  UNL     1       0.048  51.518 -19.769  1.00  0.00    -0.024 C 
HETATM   24  C2  UNL     1       0.366  52.500 -20.635  1.00  0.00    -0.091 C 
HETATM   25  C1  UNL     1      -0.336  52.761 -21.938  1.00  0.00     0.042 C 
HETATM   26  C3  UNL     1       1.485  53.461 -20.331  1.00  0.00     0.042 C 
ENDBRANCH  22  23
ENDBRANCH  21  22
ENDBRANCH  19  21
ENDBRANCH  17  18
BRANCH  17  27
HETATM   27  O1  UNL     1      -3.942  50.929 -24.051  1.00  0.00    -0.391 OA
HETATM   28  H17 UNL     1      -4.497  51.036 -24.842  1.00  0.00     0.210 HD
ENDBRANCH  17  27
ENDBRANCH  16  17
ENDBRANCH  14  16
ENDBRANCH  12  13
ENDBRANCH  11  12
ENDBRANCH   1  11
BRANCH   3  29
HETATM   29  C20 UNL     1      -9.543  45.589 -26.356  1.00  0.00     0.012 C 
BRANCH  29  30
HETATM   30  C21 UNL     1      -9.013  46.230 -25.066  1.00  0.00     0.027 C 
BRANCH  30  31
HETATM   31  C22 UNL     1      -9.480  47.673 -24.902  1.00  0.00     0.164 C 
BRANCH  31  32
HETATM   32  O2  UNL     1      -8.659  48.399 -23.997  1.00  0.00    -0.401 OA
HETATM   33  H38 UNL     1      -8.212  47.764 -23.394  1.00  0.00     0.209 HD
ENDBRANCH  31  32
ENDBRANCH  30  31
ENDBRANCH  29  30
ENDBRANCH   3  29
BRANCH   9  34
HETATM   34  O4  UNL     1      -7.545  47.167 -30.744  1.00  0.00    -0.389 OA
HETATM   35  H50 UNL     1      -7.831  47.312 -31.666  1.00  0.00     0.210 HD
ENDBRANCH   9  34
BRANCH   5  36
HETATM   36  C26 UNL     1     -12.452  47.495 -26.886  1.00  0.00     0.265 C 
HETATM   37  O3  UNL     1     -12.222  48.696 -26.813  1.00  0.00    -0.302 OA
ENDBRANCH   5  36
TORSDOF 16
ENDMDL
