MODEL 1
REMARK minimizedAffinity -9.67428589
REMARK  7 active torsions:
REMARK  status: ('A' for Active; 'I' for Inactive)
REMARK    1  A    between atoms: C2_2  and  C3_3 
REMARK    2  A    between atoms: C4_5  and  C5_6 
REMARK    3  A    between atoms: C5_6  and  C6_7 
REMARK    4  A    between atoms: C6_7  and  C7_8 
REMARK    5  A    between atoms: C7_8  and  C9_10 
REMARK    6  A    between atoms: C11_12  and  O2_13 
REMARK    7  A    between atoms: C30_33  and  O4_34 
ROOT
HETATM    1  C9  UNL     1      -0.567  50.183 -20.608  1.00  0.00     0.001 C 
HETATM    2  C10 UNL     1      -0.976  49.434 -19.307  1.00  0.00     0.038 C 
HETATM    3  C11 UNL     1      -2.241  48.611 -19.624  1.00  0.00     0.132 C 
HETATM    4  C12 UNL     1      -2.324  48.583 -21.173  1.00  0.00     0.016 C 
HETATM    5  C13 UNL     1      -1.361  47.475 -21.708  1.00  0.00     0.023 C 
HETATM    6  C14 UNL     1      -3.681  48.323 -21.849  1.00  0.00    -0.037 C 
HETATM    7  C15 UNL     1      -3.950  48.877 -23.064  1.00  0.00    -0.065 C 
HETATM    8  C16 UNL     1      -2.923  49.774 -23.776  1.00  0.00     0.036 C 
HETATM    9  C17 UNL     1      -1.650  50.168 -23.002  1.00  0.00     0.015 C 
HETATM   10  C18 UNL     1      -1.852  50.063 -21.486  1.00  0.00    -0.026 C 
HETATM   11  C19 UNL     1      -2.881  51.153 -21.044  1.00  0.00     0.016 C 
HETATM   12  C20 UNL     1      -5.314  48.687 -23.787  1.00  0.00    -0.015 C 
HETATM   13  C21 UNL     1      -6.079  50.030 -23.657  1.00  0.00     0.020 C 
HETATM   14  C22 UNL     1      -5.092  48.369 -25.292  1.00  0.00     0.021 C 
HETATM   15  C23 UNL     1      -6.248  47.664 -26.002  1.00  0.00     0.080 C 
HETATM   16  C24 UNL     1      -7.554  47.740 -25.246  1.00  0.00     0.135 C 
HETATM   17  O3  UNL     1      -8.583  48.099 -25.819  1.00  0.00    -0.297 OA
HETATM   18  C25 UNL     1      -7.546  47.270 -23.785  1.00  0.00     0.018 C 
HETATM   19  C26 UNL     1      -7.882  45.764 -23.805  1.00  0.00     0.023 C 
HETATM   20  C27 UNL     1      -8.673  47.983 -23.011  1.00  0.00     0.023 C 
HETATM   21  C28 UNL     1      -6.118  47.485 -23.176  1.00  0.00     0.016 C 
HETATM   22  C29 UNL     1      -6.101  47.543 -21.641  1.00  0.00     0.043 C 
HETATM   23  C30 UNL     1      -4.669  47.441 -21.114  1.00  0.00     0.148 C 
ENDROOT
BRANCH   1  24
HETATM   24  C7  UNL     1       0.040  51.584 -20.314  1.00  0.00    -0.013 C 
HETATM   25  C8  UNL     1      -0.452  52.187 -18.993  1.00  0.00     0.010 C 
BRANCH  24  26
HETATM   26  C6  UNL     1      -0.145  52.593 -21.483  1.00  0.00     0.008 C 
BRANCH  26  27
HETATM   27  C5  UNL     1       0.781  52.480 -22.701  1.00  0.00     0.028 C 
BRANCH  27  28
HETATM   28  C4  UNL     1       0.308  53.192 -23.934  1.00  0.00    -0.017 C 
HETATM   29  C2  UNL     1       0.582  52.860 -25.208  1.00  0.00    -0.028 C 
HETATM   30  C1  UNL     1       1.459  51.740 -25.671  1.00  0.00     0.051 C 
BRANCH  29  31
HETATM   31  C3  UNL     1      -0.022  53.691 -26.295  1.00  0.00     0.265 C 
HETATM   32  O1  UNL     1       0.186  54.889 -26.434  1.00  0.00    -0.302 OA
ENDBRANCH  29  31
ENDBRANCH  27  28
ENDBRANCH  26  27
ENDBRANCH  24  26
ENDBRANCH   1  24
BRANCH   3  33
HETATM   33  O2  UNL     1      -2.142  47.323 -19.037  1.00  0.00    -0.394 OA
HETATM   34  H18 UNL     1      -2.117  47.436 -18.073  1.00  0.00     0.210 HD
ENDBRANCH   3  33
BRANCH  23  35
HETATM   35  O4  UNL     1      -4.276  46.076 -21.227  1.00  0.00    -0.391 OA
HETATM   36  H46 UNL     1      -3.671  46.002 -21.982  1.00  0.00     0.210 HD
ENDBRANCH  23  35
TORSDOF 7
ENDMDL
MODEL 2
REMARK minimizedAffinity -9.27823162
REMARK  7 active torsions:
REMARK  status: ('A' for Active; 'I' for Inactive)
REMARK    1  A    between atoms: C2_2  and  C3_3 
REMARK    2  A    between atoms: C4_5  and  C5_6 
REMARK    3  A    between atoms: C5_6  and  C6_7 
REMARK    4  A    between atoms: C6_7  and  C7_8 
REMARK    5  A    between atoms: C7_8  and  C9_10 
REMARK    6  A    between atoms: C11_12  and  O2_13 
REMARK    7  A    between atoms: C30_33  and  O4_34 
ROOT
HETATM    1  C9  UNL     1      -1.787  51.904 -22.915  1.00  0.00     0.001 C 
HETATM    2  C10 UNL     1      -2.040  51.640 -24.428  1.00  0.00     0.038 C 
HETATM    3  C11 UNL     1      -3.313  50.777 -24.541  1.00  0.00     0.132 C 
HETATM    4  C12 UNL     1      -3.990  50.878 -23.149  1.00  0.00     0.016 C 
HETATM    5  C13 UNL     1      -4.796  52.215 -23.077  1.00  0.00     0.023 C 
HETATM    6  C14 UNL     1      -4.968  49.775 -22.707  1.00  0.00    -0.037 C 
HETATM    7  C15 UNL     1      -5.087  49.466 -21.385  1.00  0.00    -0.065 C 
HETATM    8  C16 UNL     1      -4.251  50.192 -20.318  1.00  0.00     0.036 C 
HETATM    9  C17 UNL     1      -3.153  51.160 -20.798  1.00  0.00     0.015 C 
HETATM   10  C18 UNL     1      -2.702  50.843 -22.228  1.00  0.00    -0.026 C 
HETATM   11  C19 UNL     1      -1.973  49.460 -22.226  1.00  0.00     0.016 C 
HETATM   12  C20 UNL     1      -6.026  48.337 -20.872  1.00  0.00    -0.015 C 
HETATM   13  C21 UNL     1      -5.116  47.147 -20.469  1.00  0.00     0.020 C 
HETATM   14  C22 UNL     1      -6.822  48.817 -19.626  1.00  0.00     0.021 C 
HETATM   15  C23 UNL     1      -8.115  48.059 -19.328  1.00  0.00     0.080 C 
HETATM   16  C24 UNL     1      -8.213  46.732 -20.045  1.00  0.00     0.135 C 
HETATM   17  O3  UNL     1      -8.510  45.711 -19.424  1.00  0.00    -0.297 OA
HETATM   18  C25 UNL     1      -8.018  46.743 -21.567  1.00  0.00     0.018 C 
HETATM   19  C26 UNL     1      -9.414  46.949 -22.189  1.00  0.00     0.023 C 
HETATM   20  C27 UNL     1      -7.507  45.362 -22.027  1.00  0.00     0.023 C 
HETATM   21  C28 UNL     1      -7.080  47.935 -21.964  1.00  0.00     0.016 C 
HETATM   22  C29 UNL     1      -6.406  47.763 -23.333  1.00  0.00     0.043 C 
HETATM   23  C30 UNL     1      -5.768  49.076 -23.787  1.00  0.00     0.148 C 
ENDROOT
BRANCH   1  24
HETATM   24  C7  UNL     1      -0.271  51.957 -22.573  1.00  0.00    -0.013 C 
HETATM   25  C8  UNL     1       0.000  52.177 -21.081  1.00  0.00     0.010 C 
BRANCH  24  26
HETATM   26  C6  UNL     1       0.519  52.983 -23.434  1.00  0.00     0.008 C 
BRANCH  26  27
HETATM   27  C5  UNL     1       0.929  52.583 -24.858  1.00  0.00     0.028 C 
BRANCH  27  28
HETATM   28  C4  UNL     1       0.301  53.388 -25.956  1.00  0.00    -0.017 C 
HETATM   29  C2  UNL     1       0.164  53.022 -27.243  1.00  0.00    -0.028 C 
HETATM   30  C1  UNL     1       0.657  51.756 -27.869  1.00  0.00     0.051 C 
BRANCH  29  31
HETATM   31  C3  UNL     1      -0.527  53.969 -28.172  1.00  0.00     0.265 C 
HETATM   32  O1  UNL     1      -1.718  54.247 -28.103  1.00  0.00    -0.302 OA
ENDBRANCH  29  31
ENDBRANCH  27  28
ENDBRANCH  26  27
ENDBRANCH  24  26
ENDBRANCH   1  24
BRANCH   3  33
HETATM   33  O2  UNL     1      -4.126  51.249 -25.604  1.00  0.00    -0.394 OA
HETATM   34  H18 UNL     1      -3.633  51.129 -26.432  1.00  0.00     0.210 HD
ENDBRANCH   3  33
BRANCH  23  35
HETATM   35  O4  UNL     1      -6.822  49.926 -24.232  1.00  0.00    -0.391 OA
HETATM   36  H46 UNL     1      -6.973  50.597 -23.548  1.00  0.00     0.210 HD
ENDBRANCH  23  35
TORSDOF 7
ENDMDL
MODEL 3
REMARK minimizedAffinity -9.22535229
REMARK  7 active torsions:
REMARK  status: ('A' for Active; 'I' for Inactive)
REMARK    1  A    between atoms: C2_2  and  C3_3 
REMARK    2  A    between atoms: C4_5  and  C5_6 
REMARK    3  A    between atoms: C5_6  and  C6_7 
REMARK    4  A    between atoms: C6_7  and  C7_8 
REMARK    5  A    between atoms: C7_8  and  C9_10 
REMARK    6  A    between atoms: C11_12  and  O2_13 
REMARK    7  A    between atoms: C30_33  and  O4_34 
ROOT
HETATM    1  C9  UNL     1      -0.578  50.272 -21.590  1.00  0.00     0.001 C 
HETATM    2  C10 UNL     1      -0.554  49.869 -20.086  1.00  0.00     0.038 C 
HETATM    3  C11 UNL     1      -1.841  49.069 -19.802  1.00  0.00     0.132 C 
HETATM    4  C12 UNL     1      -2.394  48.688 -21.200  1.00  0.00     0.016 C 
HETATM    5  C13 UNL     1      -1.623  47.432 -21.720  1.00  0.00     0.023 C 
HETATM    6  C14 UNL     1      -3.889  48.355 -21.352  1.00  0.00    -0.037 C 
HETATM    7  C15 UNL     1      -4.527  48.627 -22.524  1.00  0.00    -0.065 C 
HETATM    8  C16 UNL     1      -3.785  49.275 -23.704  1.00  0.00     0.036 C 
HETATM    9  C17 UNL     1      -2.343  49.764 -23.469  1.00  0.00     0.015 C 
HETATM   10  C18 UNL     1      -2.068  50.025 -21.984  1.00  0.00    -0.026 C 
HETATM   11  C19 UNL     1      -2.930  51.245 -21.524  1.00  0.00     0.016 C 
HETATM   12  C20 UNL     1      -6.044  48.353 -22.734  1.00  0.00    -0.015 C 
HETATM   13  C21 UNL     1      -6.756  49.730 -22.702  1.00  0.00     0.020 C 
HETATM   14  C22 UNL     1      -6.289  47.682 -24.114  1.00  0.00     0.021 C 
HETATM   15  C23 UNL     1      -7.595  46.899 -24.253  1.00  0.00     0.080 C 
HETATM   16  C24 UNL     1      -8.607  47.222 -23.178  1.00  0.00     0.135 C 
HETATM   17  O3  UNL     1      -9.769  47.496 -23.481  1.00  0.00    -0.297 OA
HETATM   18  C25 UNL     1      -8.143  47.104 -21.720  1.00  0.00     0.018 C 
HETATM   19  C26 UNL     1      -8.442  45.656 -21.279  1.00  0.00     0.023 C 
HETATM   20  C27 UNL     1      -8.990  48.040 -20.835  1.00  0.00     0.023 C 
HETATM   21  C28 UNL     1      -6.600  47.373 -21.641  1.00  0.00     0.016 C 
HETATM   22  C29 UNL     1      -6.114  47.784 -20.243  1.00  0.00     0.043 C 
HETATM   23  C30 UNL     1      -4.589  47.726 -20.165  1.00  0.00     0.148 C 
ENDROOT
BRANCH   1  24
HETATM   24  C7  UNL     1       0.066  51.667 -21.835  1.00  0.00    -0.013 C 
HETATM   25  C8  UNL     1      -0.052  52.603 -20.628  1.00  0.00     0.010 C 
BRANCH  24  26
HETATM   26  C6  UNL     1      -0.449  52.363 -23.127  1.00  0.00     0.008 C 
BRANCH  26  27
HETATM   27  C5  UNL     1       0.409  52.279 -24.396  1.00  0.00     0.028 C 
BRANCH  27  28
HETATM   28  C4  UNL     1      -0.115  53.044 -25.575  1.00  0.00    -0.017 C 
HETATM   29  C2  UNL     1       0.114  52.775 -26.873  1.00  0.00    -0.028 C 
HETATM   30  C1  UNL     1       0.983  51.687 -27.420  1.00  0.00     0.051 C 
BRANCH  29  31
HETATM   31  C3  UNL     1      -0.537  53.650 -27.897  1.00  0.00     0.265 C 
HETATM   32  O1  UNL     1      -1.707  54.007 -27.846  1.00  0.00    -0.302 OA
ENDBRANCH  29  31
ENDBRANCH  27  28
ENDBRANCH  26  27
ENDBRANCH  24  26
ENDBRANCH   1  24
BRANCH   3  33
HETATM   33  O2  UNL     1      -1.544  47.949 -18.983  1.00  0.00    -0.394 OA
HETATM   34  H18 UNL     1      -1.226  48.281 -18.127  1.00  0.00     0.210 HD
ENDBRANCH   3  33
BRANCH  23  35
HETATM   35  O4  UNL     1      -4.225  46.352 -20.063  1.00  0.00    -0.391 OA
HETATM   36  H46 UNL     1      -3.880  46.070 -20.925  1.00  0.00     0.210 HD
ENDBRANCH  23  35
TORSDOF 7
ENDMDL
MODEL 4
REMARK minimizedAffinity -9.14240456
REMARK  7 active torsions:
REMARK  status: ('A' for Active; 'I' for Inactive)
REMARK    1  A    between atoms: C2_2  and  C3_3 
REMARK    2  A    between atoms: C4_5  and  C5_6 
REMARK    3  A    between atoms: C5_6  and  C6_7 
REMARK    4  A    between atoms: C6_7  and  C7_8 
REMARK    5  A    between atoms: C7_8  and  C9_10 
REMARK    6  A    between atoms: C11_12  and  O2_13 
REMARK    7  A    between atoms: C30_33  and  O4_34 
ROOT
HETATM    1  C9  UNL     1      -0.335  51.290 -20.125  1.00  0.00     0.001 C 
HETATM    2  C10 UNL     1      -1.127  52.170 -19.114  1.00  0.00     0.038 C 
HETATM    3  C11 UNL     1      -2.450  51.441 -18.805  1.00  0.00     0.132 C 
HETATM    4  C12 UNL     1      -2.243  49.994 -19.323  1.00  0.00     0.016 C 
HETATM    5  C13 UNL     1      -1.445  49.186 -18.250  1.00  0.00     0.023 C 
HETATM    6  C14 UNL     1      -3.472  49.135 -19.667  1.00  0.00    -0.037 C 
HETATM    7  C15 UNL     1      -3.387  48.194 -20.648  1.00  0.00    -0.065 C 
HETATM    8  C16 UNL     1      -2.083  47.976 -21.433  1.00  0.00     0.036 C 
HETATM    9  C17 UNL     1      -0.926  48.966 -21.199  1.00  0.00     0.015 C 
HETATM   10  C18 UNL     1      -1.428  50.305 -20.646  1.00  0.00    -0.026 C 
HETATM   11  C19 UNL     1      -2.276  51.014 -21.750  1.00  0.00     0.016 C 
HETATM   12  C20 UNL     1      -4.600  47.317 -21.074  1.00  0.00    -0.015 C 
HETATM   13  C21 UNL     1      -5.084  47.859 -22.444  1.00  0.00     0.020 C 
HETATM   14  C22 UNL     1      -4.167  45.832 -21.235  1.00  0.00     0.021 C 
HETATM   15  C23 UNL     1      -5.287  44.797 -21.137  1.00  0.00     0.080 C 
HETATM   16  C24 UNL     1      -6.669  45.390 -21.289  1.00  0.00     0.135 C 
HETATM   17  O3  UNL     1      -7.476  44.890 -22.074  1.00  0.00    -0.297 OA
HETATM   18  C25 UNL     1      -7.034  46.563 -20.369  1.00  0.00     0.018 C 
HETATM   19  C26 UNL     1      -7.661  45.949 -19.101  1.00  0.00     0.023 C 
HETATM   20  C27 UNL     1      -8.116  47.428 -21.046  1.00  0.00     0.023 C 
HETATM   21  C28 UNL     1      -5.733  47.351 -19.988  1.00  0.00     0.016 C 
HETATM   22  C29 UNL     1      -5.995  48.790 -19.519  1.00  0.00     0.043 C 
HETATM   23  C30 UNL     1      -4.741  49.383 -18.878  1.00  0.00     0.148 C 
ENDROOT
BRANCH   1  24
HETATM   24  C7  UNL     1       0.480  52.146 -21.136  1.00  0.00    -0.013 C 
HETATM   25  C8  UNL     1       0.798  53.551 -20.614  1.00  0.00     0.010 C 
BRANCH  24  26
HETATM   26  C6  UNL     1      -0.171  52.217 -22.547  1.00  0.00     0.008 C 
BRANCH  26  27
HETATM   27  C5  UNL     1       0.746  52.244 -23.777  1.00  0.00     0.028 C 
BRANCH  27  28
HETATM   28  C4  UNL     1       0.249  53.066 -24.929  1.00  0.00    -0.017 C 
HETATM   29  C2  UNL     1       0.459  52.827 -26.236  1.00  0.00    -0.028 C 
HETATM   30  C1  UNL     1       1.279  51.721 -26.821  1.00  0.00     0.051 C 
BRANCH  29  31
HETATM   31  C3  UNL     1      -0.159  53.760 -27.228  1.00  0.00     0.265 C 
HETATM   32  O1  UNL     1      -0.168  54.979 -27.106  1.00  0.00    -0.302 OA
ENDBRANCH  29  31
ENDBRANCH  27  28
ENDBRANCH  26  27
ENDBRANCH  24  26
ENDBRANCH   1  24
BRANCH   3  33
HETATM   33  O2  UNL     1      -2.730  51.513 -17.416  1.00  0.00    -0.394 OA
HETATM   34  H18 UNL     1      -2.865  52.447 -17.186  1.00  0.00     0.210 HD
ENDBRANCH   3  33
BRANCH  23  35
HETATM   35  O4  UNL     1      -4.621  48.811 -17.579  1.00  0.00    -0.391 OA
HETATM   36  H46 UNL     1      -3.913  48.149 -17.609  1.00  0.00     0.210 HD
ENDBRANCH  23  35
TORSDOF 7
ENDMDL
MODEL 5
REMARK minimizedAffinity -9.08763409
REMARK  7 active torsions:
REMARK  status: ('A' for Active; 'I' for Inactive)
REMARK    1  A    between atoms: C2_2  and  C3_3 
REMARK    2  A    between atoms: C4_5  and  C5_6 
REMARK    3  A    between atoms: C5_6  and  C6_7 
REMARK    4  A    between atoms: C6_7  and  C7_8 
REMARK    5  A    between atoms: C7_8  and  C9_10 
REMARK    6  A    between atoms: C11_12  and  O2_13 
REMARK    7  A    between atoms: C30_33  and  O4_34 
ROOT
HETATM    1  C9  UNL     1      -2.622  51.407 -24.958  1.00  0.00     0.001 C 
HETATM    2  C10 UNL     1      -4.100  51.854 -25.156  1.00  0.00     0.038 C 
HETATM    3  C11 UNL     1      -4.923  51.254 -23.998  1.00  0.00     0.132 C 
HETATM    4  C12 UNL     1      -3.873  50.803 -22.950  1.00  0.00     0.016 C 
HETATM    5  C13 UNL     1      -3.434  52.046 -22.111  1.00  0.00     0.023 C 
HETATM    6  C14 UNL     1      -4.250  49.718 -21.926  1.00  0.00    -0.037 C 
HETATM    7  C15 UNL     1      -3.292  48.877 -21.447  1.00  0.00    -0.065 C 
HETATM    8  C16 UNL     1      -1.832  48.980 -21.918  1.00  0.00     0.036 C 
HETATM    9  C17 UNL     1      -1.514  49.949 -23.073  1.00  0.00     0.015 C 
HETATM   10  C18 UNL     1      -2.754  50.245 -23.924  1.00  0.00    -0.026 C 
HETATM   11  C19 UNL     1      -3.172  48.937 -24.669  1.00  0.00     0.016 C 
HETATM   12  C20 UNL     1      -3.610  47.734 -20.440  1.00  0.00    -0.015 C 
HETATM   13  C21 UNL     1      -3.550  46.406 -21.239  1.00  0.00     0.020 C 
HETATM   14  C22 UNL     1      -2.547  47.697 -19.307  1.00  0.00     0.021 C 
HETATM   15  C23 UNL     1      -2.979  47.013 -18.010  1.00  0.00     0.080 C 
HETATM   16  C24 UNL     1      -4.208  46.149 -18.166  1.00  0.00     0.135 C 
HETATM   17  O3  UNL     1      -4.213  44.993 -17.741  1.00  0.00    -0.297 OA
HETATM   18  C25 UNL     1      -5.450  46.803 -18.786  1.00  0.00     0.018 C 
HETATM   19  C26 UNL     1      -6.266  47.394 -17.618  1.00  0.00     0.023 C 
HETATM   20  C27 UNL     1      -6.320  45.719 -19.455  1.00  0.00     0.023 C 
HETATM   21  C28 UNL     1      -5.005  47.952 -19.756  1.00  0.00     0.016 C 
HETATM   22  C29 UNL     1      -6.069  48.330 -20.797  1.00  0.00     0.043 C 
HETATM   23  C30 UNL     1      -5.699  49.641 -21.492  1.00  0.00     0.148 C 
ENDROOT
BRANCH   1  24
HETATM   24  C7  UNL     1      -1.897  51.158 -26.311  1.00  0.00    -0.013 C 
HETATM   25  C8  UNL     1      -2.783  50.458 -27.347  1.00  0.00     0.010 C 
BRANCH  24  26
HETATM   26  C6  UNL     1      -0.540  50.415 -26.154  1.00  0.00     0.008 C 
BRANCH  26  27
HETATM   27  C5  UNL     1       0.754  51.240 -26.177  1.00  0.00     0.028 C 
BRANCH  27  28
HETATM   28  C4  UNL     1       0.569  52.725 -26.069  1.00  0.00    -0.017 C 
HETATM   29  C2  UNL     1       0.493  53.444 -24.936  1.00  0.00    -0.028 C 
HETATM   30  C1  UNL     1       0.525  52.914 -23.537  1.00  0.00     0.051 C 
BRANCH  29  31
HETATM   31  C3  UNL     1       0.340  54.927 -25.055  1.00  0.00     0.265 C 
HETATM   32  O1  UNL     1       0.268  55.523 -26.122  1.00  0.00    -0.302 OA
ENDBRANCH  29  31
ENDBRANCH  27  28
ENDBRANCH  26  27
ENDBRANCH  24  26
ENDBRANCH   1  24
BRANCH   3  33
HETATM   33  O2  UNL     1      -5.840  52.218 -23.505  1.00  0.00    -0.394 OA
HETATM   34  H18 UNL     1      -6.468  52.424 -24.218  1.00  0.00     0.210 HD
ENDBRANCH   3  33
BRANCH  23  35
HETATM   35  O4  UNL     1      -5.986  50.697 -20.578  1.00  0.00    -0.391 OA
HETATM   36  H46 UNL     1      -5.144  51.014 -20.216  1.00  0.00     0.210 HD
ENDBRANCH  23  35
TORSDOF 7
ENDMDL
MODEL 6
REMARK minimizedAffinity -8.92560196
REMARK  7 active torsions:
REMARK  status: ('A' for Active; 'I' for Inactive)
REMARK    1  A    between atoms: C2_2  and  C3_3 
REMARK    2  A    between atoms: C4_5  and  C5_6 
REMARK    3  A    between atoms: C5_6  and  C6_7 
REMARK    4  A    between atoms: C6_7  and  C7_8 
REMARK    5  A    between atoms: C7_8  and  C9_10 
REMARK    6  A    between atoms: C11_12  and  O2_13 
REMARK    7  A    between atoms: C30_33  and  O4_34 
ROOT
HETATM    1  C9  UNL     1      -0.468  50.763 -20.457  1.00  0.00     0.001 C 
HETATM    2  C10 UNL     1      -0.830  50.036 -19.129  1.00  0.00     0.038 C 
HETATM    3  C11 UNL     1      -2.043  49.128 -19.415  1.00  0.00     0.132 C 
HETATM    4  C12 UNL     1      -2.124  49.041 -20.962  1.00  0.00     0.016 C 
HETATM    5  C13 UNL     1      -1.096  47.975 -21.460  1.00  0.00     0.023 C 
HETATM    6  C14 UNL     1      -3.463  48.675 -21.626  1.00  0.00    -0.037 C 
HETATM    7  C15 UNL     1      -3.765  49.169 -22.858  1.00  0.00    -0.065 C 
HETATM    8  C16 UNL     1      -2.795  50.101 -23.603  1.00  0.00     0.036 C 
HETATM    9  C17 UNL     1      -1.548  50.598 -22.847  1.00  0.00     0.015 C 
HETATM   10  C18 UNL     1      -1.743  50.535 -21.328  1.00  0.00    -0.026 C 
HETATM   11  C19 UNL     1      -2.836  51.575 -20.922  1.00  0.00     0.016 C 
HETATM   12  C20 UNL     1      -5.116  48.871 -23.571  1.00  0.00    -0.015 C 
HETATM   13  C21 UNL     1      -5.961  50.169 -23.486  1.00  0.00     0.020 C 
HETATM   14  C22 UNL     1      -4.874  48.515 -25.065  1.00  0.00     0.021 C 
HETATM   15  C23 UNL     1      -5.985  47.717 -25.747  1.00  0.00     0.080 C 
HETATM   16  C24 UNL     1      -7.294  47.740 -24.991  1.00  0.00     0.135 C 
HETATM   17  O3  UNL     1      -8.343  48.015 -25.574  1.00  0.00    -0.297 OA
HETATM   18  C25 UNL     1      -7.257  47.322 -23.515  1.00  0.00     0.018 C 
HETATM   19  C26 UNL     1      -7.501  45.800 -23.482  1.00  0.00     0.023 C 
HETATM   20  C27 UNL     1      -8.425  47.993 -22.763  1.00  0.00     0.023 C 
HETATM   21  C28 UNL     1      -5.844  47.645 -22.917  1.00  0.00     0.016 C 
HETATM   22  C29 UNL     1      -5.831  47.758 -21.385  1.00  0.00     0.043 C 
HETATM   23  C30 UNL     1      -4.396  47.761 -20.858  1.00  0.00     0.148 C 
ENDROOT
BRANCH   1  24
HETATM   24  C7  UNL     1       0.053  52.208 -20.213  1.00  0.00    -0.013 C 
HETATM   25  C8  UNL     1       1.367  52.504 -20.944  1.00  0.00     0.010 C 
BRANCH  24  26
HETATM   26  C6  UNL     1       0.166  52.575 -18.706  1.00  0.00     0.008 C 
BRANCH  26  27
HETATM   27  C5  UNL     1       1.558  52.593 -18.058  1.00  0.00     0.028 C 
BRANCH  27  28
HETATM   28  C4  UNL     1       1.622  52.046 -16.663  1.00  0.00    -0.017 C 
HETATM   29  C2  UNL     1       2.686  52.069 -15.840  1.00  0.00    -0.028 C 
HETATM   30  C1  UNL     1       4.049  52.597 -16.156  1.00  0.00     0.051 C 
BRANCH  29  31
HETATM   31  C3  UNL     1       2.524  51.493 -14.469  1.00  0.00     0.265 C 
HETATM   32  O1  UNL     1       2.638  50.302 -14.211  1.00  0.00    -0.302 OA
ENDBRANCH  29  31
ENDBRANCH  27  28
ENDBRANCH  26  27
ENDBRANCH  24  26
ENDBRANCH   1  24
BRANCH   3  33
HETATM   33  O2  UNL     1      -1.866  47.870 -18.784  1.00  0.00    -0.394 OA
HETATM   34  H18 UNL     1      -1.847  48.018 -17.824  1.00  0.00     0.210 HD
ENDBRANCH   3  33
BRANCH  23  35
HETATM   35  O4  UNL     1      -3.920  46.420 -20.924  1.00  0.00    -0.391 OA
HETATM   36  H46 UNL     1      -3.312  46.356 -21.677  1.00  0.00     0.210 HD
ENDBRANCH  23  35
TORSDOF 7
ENDMDL
MODEL 7
REMARK minimizedAffinity -8.66669941
REMARK  7 active torsions:
REMARK  status: ('A' for Active; 'I' for Inactive)
REMARK    1  A    between atoms: C2_2  and  C3_3 
REMARK    2  A    between atoms: C4_5  and  C5_6 
REMARK    3  A    between atoms: C5_6  and  C6_7 
REMARK    4  A    between atoms: C6_7  and  C7_8 
REMARK    5  A    between atoms: C7_8  and  C9_10 
REMARK    6  A    between atoms: C11_12  and  O2_13 
REMARK    7  A    between atoms: C30_33  and  O4_34 
ROOT
HETATM    1  C9  UNL     1      -3.065  50.489 -24.786  1.00  0.00     0.001 C 
HETATM    2  C10 UNL     1      -4.197  51.550 -24.921  1.00  0.00     0.038 C 
HETATM    3  C11 UNL     1      -5.259  51.231 -23.849  1.00  0.00     0.132 C 
HETATM    4  C12 UNL     1      -4.560  50.251 -22.870  1.00  0.00     0.016 C 
HETATM    5  C13 UNL     1      -3.678  51.075 -21.878  1.00  0.00     0.023 C 
HETATM    6  C14 UNL     1      -5.420  49.322 -21.995  1.00  0.00    -0.037 C 
HETATM    7  C15 UNL     1      -4.940  48.100 -21.632  1.00  0.00    -0.065 C 
HETATM    8  C16 UNL     1      -3.553  47.619 -22.089  1.00  0.00     0.036 C 
HETATM    9  C17 UNL     1      -2.790  48.485 -23.109  1.00  0.00     0.015 C 
HETATM   10  C18 UNL     1      -3.737  49.385 -23.911  1.00  0.00    -0.026 C 
HETATM   11  C19 UNL     1      -4.633  48.482 -24.819  1.00  0.00     0.016 C 
HETATM   12  C20 UNL     1      -5.770  47.095 -20.781  1.00  0.00    -0.015 C 
HETATM   13  C21 UNL     1      -6.240  45.976 -21.746  1.00  0.00     0.020 C 
HETATM   14  C22 UNL     1      -4.887  46.470 -19.665  1.00  0.00     0.021 C 
HETATM   15  C23 UNL     1      -5.639  45.892 -18.466  1.00  0.00     0.080 C 
HETATM   16  C24 UNL     1      -7.110  45.666 -18.731  1.00  0.00     0.135 C 
HETATM   17  O3  UNL     1      -7.631  44.584 -18.459  1.00  0.00    -0.297 OA
HETATM   18  C25 UNL     1      -7.918  46.860 -19.258  1.00  0.00     0.018 C 
HETATM   19  C26 UNL     1      -8.464  47.602 -18.021  1.00  0.00     0.023 C 
HETATM   20  C27 UNL     1      -9.130  46.344 -20.059  1.00  0.00     0.023 C 
HETATM   21  C28 UNL     1      -6.973  47.810 -20.071  1.00  0.00     0.016 C 
HETATM   22  C29 UNL     1      -7.715  48.731 -21.052  1.00  0.00     0.043 C 
HETATM   23  C30 UNL     1      -6.783  49.826 -21.571  1.00  0.00     0.148 C 
ENDROOT
BRANCH   1  24
HETATM   24  C7  UNL     1      -2.445  50.114 -26.162  1.00  0.00    -0.013 C 
HETATM   25  C8  UNL     1      -2.613  48.632 -26.513  1.00  0.00     0.010 C 
BRANCH  24  26
HETATM   26  C6  UNL     1      -0.959  50.550 -26.306  1.00  0.00     0.008 C 
BRANCH  26  27
HETATM   27  C5  UNL     1      -0.499  51.831 -25.598  1.00  0.00     0.028 C 
BRANCH  27  28
HETATM   28  C4  UNL     1      -0.142  51.670 -24.150  1.00  0.00    -0.017 C 
HETATM   29  C2  UNL     1       0.448  52.586 -23.362  1.00  0.00    -0.028 C 
HETATM   30  C1  UNL     1       0.923  53.945 -23.771  1.00  0.00     0.051 C 
BRANCH  29  31
HETATM   31  C3  UNL     1       0.686  52.230 -21.929  1.00  0.00     0.265 C 
HETATM   32  O1  UNL     1      -0.196  51.876 -21.157  1.00  0.00    -0.302 OA
ENDBRANCH  29  31
ENDBRANCH  27  28
ENDBRANCH  26  27
ENDBRANCH  24  26
ENDBRANCH   1  24
BRANCH   3  33
HETATM   33  O2  UNL     1      -5.701  52.430 -23.233  1.00  0.00    -0.394 OA
HETATM   34  H18 UNL     1      -6.140  52.969 -23.911  1.00  0.00     0.210 HD
ENDBRANCH   3  33
BRANCH  23  35
HETATM   35  O4  UNL     1      -6.640  50.786 -20.528  1.00  0.00    -0.391 OA
HETATM   36  H46 UNL     1      -5.764  50.664 -20.129  1.00  0.00     0.210 HD
ENDBRANCH  23  35
TORSDOF 7
ENDMDL
MODEL 8
REMARK minimizedAffinity -8.50081158
REMARK  7 active torsions:
REMARK  status: ('A' for Active; 'I' for Inactive)
REMARK    1  A    between atoms: C2_2  and  C3_3 
REMARK    2  A    between atoms: C4_5  and  C5_6 
REMARK    3  A    between atoms: C5_6  and  C6_7 
REMARK    4  A    between atoms: C6_7  and  C7_8 
REMARK    5  A    between atoms: C7_8  and  C9_10 
REMARK    6  A    between atoms: C11_12  and  O2_13 
REMARK    7  A    between atoms: C30_33  and  O4_34 
ROOT
HETATM    1  C9  UNL     1      -2.968  50.189 -24.699  1.00  0.00     0.001 C 
HETATM    2  C10 UNL     1      -4.104  51.229 -24.929  1.00  0.00     0.038 C 
HETATM    3  C11 UNL     1      -5.157  51.015 -23.822  1.00  0.00     0.132 C 
HETATM    4  C12 UNL     1      -4.448  50.138 -22.757  1.00  0.00     0.016 C 
HETATM    5  C13 UNL     1      -3.561  51.057 -21.858  1.00  0.00     0.023 C 
HETATM    6  C14 UNL     1      -5.298  49.297 -21.788  1.00  0.00    -0.037 C 
HETATM    7  C15 UNL     1      -4.812  48.118 -21.310  1.00  0.00    -0.065 C 
HETATM    8  C16 UNL     1      -3.427  47.598 -21.729  1.00  0.00     0.036 C 
HETATM    9  C17 UNL     1      -2.674  48.361 -22.835  1.00  0.00     0.015 C 
HETATM   10  C18 UNL     1      -3.630  49.175 -23.714  1.00  0.00    -0.026 C 
HETATM   11  C19 UNL     1      -4.530  48.185 -24.522  1.00  0.00     0.016 C 
HETATM   12  C20 UNL     1      -5.632  47.200 -20.358  1.00  0.00    -0.015 C 
HETATM   13  C21 UNL     1      -6.106  45.990 -21.204  1.00  0.00     0.020 C 
HETATM   14  C22 UNL     1      -4.739  46.691 -19.192  1.00  0.00     0.021 C 
HETATM   15  C23 UNL     1      -5.480  46.231 -17.937  1.00  0.00     0.080 C 
HETATM   16  C24 UNL     1      -6.952  45.977 -18.166  1.00  0.00     0.135 C 
HETATM   17  O3  UNL     1      -7.468  44.926 -17.785  1.00  0.00    -0.297 OA
HETATM   18  C25 UNL     1      -7.767  47.111 -18.802  1.00  0.00     0.018 C 
HETATM   19  C26 UNL     1      -8.307  47.970 -17.640  1.00  0.00     0.023 C 
HETATM   20  C27 UNL     1      -8.984  46.516 -19.539  1.00  0.00     0.023 C 
HETATM   21  C28 UNL     1      -6.832  47.979 -19.712  1.00  0.00     0.016 C 
HETATM   22  C29 UNL     1      -7.584  48.797 -20.773  1.00  0.00     0.043 C 
HETATM   23  C30 UNL     1      -6.660  49.838 -21.405  1.00  0.00     0.148 C 
ENDROOT
BRANCH   1  24
HETATM   24  C7  UNL     1      -2.357  49.682 -26.036  1.00  0.00    -0.013 C 
HETATM   25  C8  UNL     1      -2.186  50.793 -27.078  1.00  0.00     0.010 C 
BRANCH  24  26
HETATM   26  C6  UNL     1      -3.122  48.471 -26.642  1.00  0.00     0.008 C 
BRANCH  26  27
HETATM   27  C5  UNL     1      -4.414  48.738 -27.426  1.00  0.00     0.028 C 
BRANCH  27  28
HETATM   28  C4  UNL     1      -4.456  48.157 -28.808  1.00  0.00    -0.017 C 
HETATM   29  C2  UNL     1      -5.557  47.846 -29.516  1.00  0.00    -0.028 C 
HETATM   30  C1  UNL     1      -6.976  47.963 -29.057  1.00  0.00     0.051 C 
BRANCH  29  31
HETATM   31  C3  UNL     1      -5.373  47.304 -30.898  1.00  0.00     0.265 C 
HETATM   32  O1  UNL     1      -4.595  47.775 -31.718  1.00  0.00    -0.302 OA
ENDBRANCH  29  31
ENDBRANCH  27  28
ENDBRANCH  26  27
ENDBRANCH  24  26
ENDBRANCH   1  24
BRANCH   3  33
HETATM   33  O2  UNL     1      -5.598  52.268 -23.324  1.00  0.00    -0.394 OA
HETATM   34  H18 UNL     1      -6.045  52.736 -24.048  1.00  0.00     0.210 HD
ENDBRANCH   3  33
BRANCH  23  35
HETATM   35  O4  UNL     1      -6.512  50.896 -20.463  1.00  0.00    -0.391 OA
HETATM   36  H46 UNL     1      -5.632  50.816 -20.061  1.00  0.00     0.210 HD
ENDBRANCH  23  35
TORSDOF 7
ENDMDL
MODEL 9
REMARK minimizedAffinity -8.49628067
REMARK  7 active torsions:
REMARK  status: ('A' for Active; 'I' for Inactive)
REMARK    1  A    between atoms: C2_2  and  C3_3 
REMARK    2  A    between atoms: C4_5  and  C5_6 
REMARK    3  A    between atoms: C5_6  and  C6_7 
REMARK    4  A    between atoms: C6_7  and  C7_8 
REMARK    5  A    between atoms: C7_8  and  C9_10 
REMARK    6  A    between atoms: C11_12  and  O2_13 
REMARK    7  A    between atoms: C30_33  and  O4_34 
ROOT
HETATM    1  C9  UNL     1      -2.018  49.926 -24.221  1.00  0.00     0.001 C 
HETATM    2  C10 UNL     1      -1.277  50.559 -23.007  1.00  0.00     0.038 C 
HETATM    3  C11 UNL     1      -2.071  50.190 -21.737  1.00  0.00     0.132 C 
HETATM    4  C12 UNL     1      -3.020  49.045 -22.176  1.00  0.00     0.016 C 
HETATM    5  C13 UNL     1      -2.222  47.701 -22.175  1.00  0.00     0.023 C 
HETATM    6  C14 UNL     1      -4.299  48.774 -21.362  1.00  0.00    -0.037 C 
HETATM    7  C15 UNL     1      -5.406  48.282 -21.985  1.00  0.00    -0.065 C 
HETATM    8  C16 UNL     1      -5.411  47.999 -23.496  1.00  0.00     0.036 C 
HETATM    9  C17 UNL     1      -4.187  48.447 -24.318  1.00  0.00     0.015 C 
HETATM   10  C18 UNL     1      -3.413  49.569 -23.619  1.00  0.00    -0.026 C 
HETATM   11  C19 UNL     1      -4.306  50.851 -23.596  1.00  0.00     0.016 C 
HETATM   12  C20 UNL     1      -6.742  48.022 -21.232  1.00  0.00    -0.015 C 
HETATM   13  C21 UNL     1      -7.720  49.149 -21.656  1.00  0.00     0.020 C 
HETATM   14  C22 UNL     1      -7.338  46.646 -21.643  1.00  0.00     0.021 C 
HETATM   15  C23 UNL     1      -8.324  46.025 -20.655  1.00  0.00     0.080 C 
HETATM   16  C24 UNL     1      -8.858  47.008 -19.639  1.00  0.00     0.135 C 
HETATM   17  O3  UNL     1     -10.069  47.094 -19.434  1.00  0.00    -0.297 OA
HETATM   18  C25 UNL     1      -7.828  47.809 -18.831  1.00  0.00     0.018 C 
HETATM   19  C26 UNL     1      -7.522  46.982 -17.565  1.00  0.00     0.023 C 
HETATM   20  C27 UNL     1      -8.458  49.139 -18.372  1.00  0.00     0.023 C 
HETATM   21  C28 UNL     1      -6.521  47.982 -19.679  1.00  0.00     0.016 C 
HETATM   22  C29 UNL     1      -5.638  49.154 -19.225  1.00  0.00     0.043 C 
HETATM   23  C30 UNL     1      -4.258  49.073 -19.878  1.00  0.00     0.148 C 
ENDROOT
BRANCH   1  24
HETATM   24  C7  UNL     1      -1.929  50.816 -25.493  1.00  0.00    -0.013 C 
HETATM   25  C8  UNL     1      -3.269  50.956 -26.223  1.00  0.00     0.010 C 
BRANCH  24  26
HETATM   26  C6  UNL     1      -0.809  50.373 -26.476  1.00  0.00     0.008 C 
BRANCH  26  27
HETATM   27  C5  UNL     1       0.590  50.984 -26.318  1.00  0.00     0.028 C 
BRANCH  27  28
HETATM   28  C4  UNL     1       0.630  52.331 -25.660  1.00  0.00    -0.017 C 
HETATM   29  C2  UNL     1       0.237  53.500 -26.198  1.00  0.00    -0.028 C 
HETATM   30  C1  UNL     1      -0.274  53.716 -27.587  1.00  0.00     0.051 C 
BRANCH  29  31
HETATM   31  C3  UNL     1       0.332  54.729 -25.352  1.00  0.00     0.265 C 
HETATM   32  O1  UNL     1       0.328  55.869 -25.800  1.00  0.00    -0.302 OA
ENDBRANCH  29  31
ENDBRANCH  27  28
ENDBRANCH  26  27
ENDBRANCH  24  26
ENDBRANCH   1  24
BRANCH   3  33
HETATM   33  O2  UNL     1      -1.178  49.821 -20.698  1.00  0.00    -0.394 OA
HETATM   34  H18 UNL     1      -0.641  50.599 -20.475  1.00  0.00     0.210 HD
ENDBRANCH   3  33
BRANCH  23  35
HETATM   35  O4  UNL     1      -3.530  48.052 -19.200  1.00  0.00    -0.391 OA
HETATM   36  H46 UNL     1      -3.504  47.273 -19.776  1.00  0.00     0.210 HD
ENDBRANCH  23  35
TORSDOF 7
ENDMDL
