MODEL 1
REMARK minimizedAffinity -9.50962734
REMARK  13 active torsions:
REMARK  status: ('A' for Active; 'I' for Inactive)
REMARK    1  A    between atoms: C4_4  and  C5_5 
REMARK    2  A    between atoms: C5_5  and  C6_6 
REMARK    3  A    between atoms: C6_6  and  C7_7 
REMARK    4  A    between atoms: C9_9  and  C10_10 
REMARK    5  A    between atoms: C11_11  and  C12_12 
REMARK    6  A    between atoms: C14_14  and  C15_15 
REMARK    7  A    between atoms: C18_18  and  C19_19 
REMARK    8  A    between atoms: C19_19  and  C20_20 
REMARK    9  A    between atoms: C20_20  and  C21_21 
REMARK   10  A    between atoms: C21_21  and  O1_22 
REMARK   11  A    between atoms: C23_24  and  C25_26 
REMARK   12  A    between atoms: C28_30  and  O3_32 
REMARK   13  A    between atoms: C30_33  and  O4_34 
ROOT
HETATM    1  C15 UNL     1      -3.146  50.163 -26.080  1.00  0.00     0.149 C 
HETATM    2  C16 UNL     1      -1.637  50.094 -26.262  1.00  0.00     0.054 C 
HETATM    3  C17 UNL     1      -1.115  51.491 -25.838  1.00  0.00     0.050 C 
HETATM    4  C18 UNL     1      -0.602  51.508 -24.321  1.00  0.00     0.032 C 
HETATM    5  C22 UNL     1       0.122  52.830 -23.929  1.00  0.00    -0.066 C 
HETATM    6  C23 UNL     1       0.747  53.024 -22.733  1.00  0.00    -0.021 C 
HETATM    7  C24 UNL     1       1.043  51.964 -21.706  1.00  0.00     0.052 C 
HETATM    8  C26 UNL     1       0.108  53.894 -25.015  1.00  0.00     0.038 C 
HETATM    9  C27 UNL     1       0.555  53.383 -26.390  1.00  0.00     0.042 C 
HETATM   10  C28 UNL     1       0.102  51.945 -26.731  1.00  0.00     0.067 C 
HETATM   11  C29 UNL     1       1.317  50.999 -26.638  1.00  0.00     0.047 C 
HETATM   12  C30 UNL     1      -2.392  52.355 -26.066  1.00  0.00     0.270 C 
HETATM   13  O5  UNL     1      -3.531  51.525 -26.239  1.00  0.00    -0.351 OA
ENDROOT
BRANCH   4  14
HETATM   14  C19 UNL     1      -1.599  50.983 -23.244  1.00  0.00     0.012 C 
BRANCH  14  15
HETATM   15  C20 UNL     1      -2.665  51.948 -22.708  1.00  0.00     0.027 C 
BRANCH  15  16
HETATM   16  C21 UNL     1      -3.451  51.323 -21.554  1.00  0.00     0.164 C 
BRANCH  16  17
HETATM   17  O1  UNL     1      -4.742  51.910 -21.494  1.00  0.00    -0.401 OA
HETATM   18  H32 UNL     1      -5.194  51.550 -20.711  1.00  0.00     0.209 HD
ENDBRANCH  16  17
ENDBRANCH  15  16
ENDBRANCH  14  15
ENDBRANCH   4  14
BRANCH  10  19
HETATM   19  O3  UNL     1      -0.250  51.918 -28.124  1.00  0.00    -0.389 OA
HETATM   20  H44 UNL     1      -1.048  52.484 -28.215  1.00  0.00     0.210 HD
ENDBRANCH  10  19
BRANCH  12  21
HETATM   21  O4  UNL     1      -2.329  53.153 -27.239  1.00  0.00    -0.370 OA
HETATM   22  H46 UNL     1      -3.224  53.542 -27.292  1.00  0.00     0.212 HD
ENDBRANCH  12  21
BRANCH   1  23
HETATM   23  C14 UNL     1      -3.980  49.260 -26.947  1.00  0.00     0.011 C 
HETATM   24  C12 UNL     1      -4.976  48.408 -26.620  1.00  0.00    -0.063 C 
HETATM   25  C13 UNL     1      -5.530  48.260 -25.227  1.00  0.00     0.048 C 
BRANCH  24  26
HETATM   26  C11 UNL     1      -5.537  47.559 -27.674  1.00  0.00     0.006 C 
HETATM   27  C10 UNL     1      -6.826  47.204 -27.827  1.00  0.00     0.001 C 
BRANCH  27  28
HETATM   28  C9  UNL     1      -7.273  46.303 -28.871  1.00  0.00     0.002 C 
HETATM   29  C7  UNL     1      -7.701  45.032 -28.715  1.00  0.00    -0.084 C 
HETATM   30  C8  UNL     1      -7.877  44.324 -27.394  1.00  0.00     0.043 C 
BRANCH  29  31
HETATM   31  C6  UNL     1      -8.098  44.212 -29.937  1.00  0.00     0.037 C 
BRANCH  31  32
HETATM   32  C5  UNL     1      -6.923  43.739 -30.813  1.00  0.00     0.031 C 
BRANCH  32  33
HETATM   33  C4  UNL     1      -6.127  44.868 -31.413  1.00  0.00    -0.024 C 
HETATM   34  C2  UNL     1      -5.040  44.796 -32.207  1.00  0.00    -0.091 C 
HETATM   35  C1  UNL     1      -4.393  46.057 -32.724  1.00  0.00     0.042 C 
HETATM   36  C3  UNL     1      -4.359  43.532 -32.655  1.00  0.00     0.042 C 
ENDBRANCH  32  33
ENDBRANCH  31  32
ENDBRANCH  29  31
ENDBRANCH  27  28
ENDBRANCH  24  26
ENDBRANCH   1  23
BRANCH   6  37
HETATM   37  C25 UNL     1       1.208  54.380 -22.280  1.00  0.00     0.265 C 
HETATM   38  O2  UNL     1       1.660  54.598 -21.158  1.00  0.00    -0.302 OA
ENDBRANCH   6  37
TORSDOF 13
ENDMDL
MODEL 2
REMARK minimizedAffinity -9.39285469
REMARK  13 active torsions:
REMARK  status: ('A' for Active; 'I' for Inactive)
REMARK    1  A    between atoms: C4_4  and  C5_5 
REMARK    2  A    between atoms: C5_5  and  C6_6 
REMARK    3  A    between atoms: C6_6  and  C7_7 
REMARK    4  A    between atoms: C9_9  and  C10_10 
REMARK    5  A    between atoms: C11_11  and  C12_12 
REMARK    6  A    between atoms: C14_14  and  C15_15 
REMARK    7  A    between atoms: C18_18  and  C19_19 
REMARK    8  A    between atoms: C19_19  and  C20_20 
REMARK    9  A    between atoms: C20_20  and  C21_21 
REMARK   10  A    between atoms: C21_21  and  O1_22 
REMARK   11  A    between atoms: C23_24  and  C25_26 
REMARK   12  A    between atoms: C28_30  and  O3_32 
REMARK   13  A    between atoms: C30_33  and  O4_34 
ROOT
HETATM    1  C15 UNL     1      -3.104  50.213 -26.019  1.00  0.00     0.149 C 
HETATM    2  C16 UNL     1      -1.593  50.124 -26.174  1.00  0.00     0.054 C 
HETATM    3  C17 UNL     1      -1.058  51.509 -25.728  1.00  0.00     0.050 C 
HETATM    4  C18 UNL     1      -0.572  51.505 -24.202  1.00  0.00     0.032 C 
HETATM    5  C22 UNL     1       0.164  52.813 -23.785  1.00  0.00    -0.066 C 
HETATM    6  C23 UNL     1       0.769  52.987 -22.576  1.00  0.00    -0.021 C 
HETATM    7  C24 UNL     1       1.031  51.914 -21.554  1.00  0.00     0.052 C 
HETATM    8  C26 UNL     1       0.185  53.887 -24.862  1.00  0.00     0.038 C 
HETATM    9  C27 UNL     1       0.649  53.381 -26.233  1.00  0.00     0.042 C 
HETATM   10  C28 UNL     1       0.181  51.954 -26.595  1.00  0.00     0.067 C 
HETATM   11  C29 UNL     1       1.381  50.989 -26.488  1.00  0.00     0.047 C 
HETATM   12  C30 UNL     1      -2.318  52.394 -25.971  1.00  0.00     0.270 C 
HETATM   13  O5  UNL     1      -3.466  51.582 -26.173  1.00  0.00    -0.351 OA
ENDROOT
BRANCH   4  14
HETATM   14  C19 UNL     1      -1.597  50.986 -23.148  1.00  0.00     0.012 C 
BRANCH  14  15
HETATM   15  C20 UNL     1      -2.611  51.980 -22.567  1.00  0.00     0.027 C 
BRANCH  15  16
HETATM   16  C21 UNL     1      -4.026  51.401 -22.579  1.00  0.00     0.164 C 
BRANCH  16  17
HETATM   17  O1  UNL     1      -4.795  52.021 -21.559  1.00  0.00    -0.401 OA
HETATM   18  H32 UNL     1      -5.666  51.586 -21.539  1.00  0.00     0.209 HD
ENDBRANCH  16  17
ENDBRANCH  15  16
ENDBRANCH  14  15
ENDBRANCH   4  14
BRANCH  10  19
HETATM   19  O3  UNL     1      -0.145  51.944 -27.994  1.00  0.00    -0.389 OA
HETATM   20  H44 UNL     1      -0.933  52.523 -28.095  1.00  0.00     0.210 HD
ENDBRANCH  10  19
BRANCH  12  21
HETATM   21  O4  UNL     1      -2.222  53.202 -27.136  1.00  0.00    -0.370 OA
HETATM   22  H46 UNL     1      -3.110  53.604 -27.201  1.00  0.00     0.212 HD
ENDBRANCH  12  21
BRANCH   1  23
HETATM   23  C14 UNL     1      -3.934  49.331 -26.909  1.00  0.00     0.011 C 
HETATM   24  C12 UNL     1      -4.902  48.439 -26.601  1.00  0.00    -0.063 C 
HETATM   25  C13 UNL     1      -5.419  48.212 -25.204  1.00  0.00     0.048 C 
BRANCH  24  26
HETATM   26  C11 UNL     1      -5.466  47.626 -27.681  1.00  0.00     0.006 C 
HETATM   27  C10 UNL     1      -5.425  47.890 -29.000  1.00  0.00     0.001 C 
BRANCH  27  28
HETATM   28  C9  UNL     1      -6.072  47.050 -29.989  1.00  0.00     0.002 C 
HETATM   29  C7  UNL     1      -5.956  47.143 -31.330  1.00  0.00    -0.084 C 
HETATM   30  C8  UNL     1      -5.054  48.102 -32.066  1.00  0.00     0.043 C 
BRANCH  29  31
HETATM   31  C6  UNL     1      -6.745  46.194 -32.225  1.00  0.00     0.037 C 
BRANCH  31  32
HETATM   32  C5  UNL     1      -8.019  46.794 -32.847  1.00  0.00     0.031 C 
BRANCH  32  33
HETATM   33  C4  UNL     1      -9.179  46.870 -31.889  1.00  0.00    -0.024 C 
HETATM   34  C2  UNL     1      -9.538  47.893 -31.089  1.00  0.00    -0.091 C 
HETATM   35  C1  UNL     1     -10.758  47.776 -30.208  1.00  0.00     0.042 C 
HETATM   36  C3  UNL     1      -8.818  49.208 -30.963  1.00  0.00     0.042 C 
ENDBRANCH  32  33
ENDBRANCH  31  32
ENDBRANCH  29  31
ENDBRANCH  27  28
ENDBRANCH  24  26
ENDBRANCH   1  23
BRANCH   6  37
HETATM   37  C25 UNL     1       1.242  54.333 -22.103  1.00  0.00     0.265 C 
HETATM   38  O2  UNL     1       1.772  54.513 -21.009  1.00  0.00    -0.302 OA
ENDBRANCH   6  37
TORSDOF 13
ENDMDL
MODEL 3
REMARK minimizedAffinity -9.26535702
REMARK  13 active torsions:
REMARK  status: ('A' for Active; 'I' for Inactive)
REMARK    1  A    between atoms: C4_4  and  C5_5 
REMARK    2  A    between atoms: C5_5  and  C6_6 
REMARK    3  A    between atoms: C6_6  and  C7_7 
REMARK    4  A    between atoms: C9_9  and  C10_10 
REMARK    5  A    between atoms: C11_11  and  C12_12 
REMARK    6  A    between atoms: C14_14  and  C15_15 
REMARK    7  A    between atoms: C18_18  and  C19_19 
REMARK    8  A    between atoms: C19_19  and  C20_20 
REMARK    9  A    between atoms: C20_20  and  C21_21 
REMARK   10  A    between atoms: C21_21  and  O1_22 
REMARK   11  A    between atoms: C23_24  and  C25_26 
REMARK   12  A    between atoms: C28_30  and  O3_32 
REMARK   13  A    between atoms: C30_33  and  O4_34 
ROOT
HETATM    1  C15 UNL     1      -3.109  50.203 -26.200  1.00  0.00     0.149 C 
HETATM    2  C16 UNL     1      -1.597  50.137 -26.348  1.00  0.00     0.054 C 
HETATM    3  C17 UNL     1      -1.083  51.522 -25.877  1.00  0.00     0.050 C 
HETATM    4  C18 UNL     1      -0.606  51.500 -24.348  1.00  0.00     0.032 C 
HETATM    5  C22 UNL     1       0.110  52.812 -23.907  1.00  0.00    -0.066 C 
HETATM    6  C23 UNL     1       0.706  52.975 -22.692  1.00  0.00    -0.021 C 
HETATM    7  C24 UNL     1       0.976  51.889 -21.684  1.00  0.00     0.052 C 
HETATM    8  C26 UNL     1       0.124  53.902 -24.967  1.00  0.00     0.038 C 
HETATM    9  C27 UNL     1       0.602  53.424 -26.343  1.00  0.00     0.042 C 
HETATM   10  C28 UNL     1       0.156  51.996 -26.729  1.00  0.00     0.067 C 
HETATM   11  C29 UNL     1       1.367  51.045 -26.630  1.00  0.00     0.047 C 
HETATM   12  C30 UNL     1      -2.353  52.394 -26.114  1.00  0.00     0.270 C 
HETATM   13  O5  UNL     1      -3.489  51.570 -26.335  1.00  0.00    -0.351 OA
ENDROOT
BRANCH   4  14
HETATM   14  C19 UNL     1      -1.630  50.951 -23.308  1.00  0.00     0.012 C 
BRANCH  14  15
HETATM   15  C20 UNL     1      -2.732  51.893 -22.806  1.00  0.00     0.027 C 
BRANCH  15  16
HETATM   16  C21 UNL     1      -3.679  51.176 -21.843  1.00  0.00     0.164 C 
BRANCH  16  17
HETATM   17  O1  UNL     1      -4.778  52.024 -21.548  1.00  0.00    -0.401 OA
HETATM   18  H32 UNL     1      -5.327  51.575 -20.880  1.00  0.00     0.209 HD
ENDBRANCH  16  17
ENDBRANCH  15  16
ENDBRANCH  14  15
ENDBRANCH   4  14
BRANCH  10  19
HETATM   19  O3  UNL     1      -0.163  52.003 -28.130  1.00  0.00    -0.389 OA
HETATM   20  H44 UNL     1      -0.957  52.573 -28.227  1.00  0.00     0.210 HD
ENDBRANCH  10  19
BRANCH  12  21
HETATM   21  O4  UNL     1      -2.261  53.220 -27.266  1.00  0.00    -0.370 OA
HETATM   22  H46 UNL     1      -3.154  53.612 -27.330  1.00  0.00     0.212 HD
ENDBRANCH  12  21
BRANCH   1  23
HETATM   23  C14 UNL     1      -3.923  49.324 -27.108  1.00  0.00     0.011 C 
HETATM   24  C12 UNL     1      -4.906  48.442 -26.823  1.00  0.00    -0.063 C 
HETATM   25  C13 UNL     1      -5.464  48.227 -25.440  1.00  0.00     0.048 C 
BRANCH  24  26
HETATM   26  C11 UNL     1      -5.448  47.628 -27.915  1.00  0.00     0.006 C 
HETATM   27  C10 UNL     1      -5.569  47.984 -29.207  1.00  0.00     0.001 C 
BRANCH  27  28
HETATM   28  C9  UNL     1      -6.180  47.125 -30.202  1.00  0.00     0.002 C 
HETATM   29  C7  UNL     1      -5.965  47.151 -31.534  1.00  0.00    -0.084 C 
HETATM   30  C8  UNL     1      -4.973  48.039 -32.244  1.00  0.00     0.043 C 
BRANCH  29  31
HETATM   31  C6  UNL     1      -6.729  46.194 -32.442  1.00  0.00     0.037 C 
BRANCH  31  32
HETATM   32  C5  UNL     1      -6.703  44.719 -32.002  1.00  0.00     0.031 C 
BRANCH  32  33
HETATM   33  C4  UNL     1      -5.377  44.044 -32.237  1.00  0.00    -0.024 C 
HETATM   34  C2  UNL     1      -5.136  42.848 -32.809  1.00  0.00    -0.091 C 
HETATM   35  C1  UNL     1      -3.719  42.355 -32.971  1.00  0.00     0.042 C 
HETATM   36  C3  UNL     1      -6.177  41.893 -33.327  1.00  0.00     0.042 C 
ENDBRANCH  32  33
ENDBRANCH  31  32
ENDBRANCH  29  31
ENDBRANCH  27  28
ENDBRANCH  24  26
ENDBRANCH   1  23
BRANCH   6  37
HETATM   37  C25 UNL     1       1.158  54.319 -22.195  1.00  0.00     0.265 C 
HETATM   38  O2  UNL     1       1.519  54.523 -21.038  1.00  0.00    -0.302 OA
ENDBRANCH   6  37
TORSDOF 13
ENDMDL
MODEL 4
REMARK minimizedAffinity -9.19714642
REMARK  13 active torsions:
REMARK  status: ('A' for Active; 'I' for Inactive)
REMARK    1  A    between atoms: C4_4  and  C5_5 
REMARK    2  A    between atoms: C5_5  and  C6_6 
REMARK    3  A    between atoms: C6_6  and  C7_7 
REMARK    4  A    between atoms: C9_9  and  C10_10 
REMARK    5  A    between atoms: C11_11  and  C12_12 
REMARK    6  A    between atoms: C14_14  and  C15_15 
REMARK    7  A    between atoms: C18_18  and  C19_19 
REMARK    8  A    between atoms: C19_19  and  C20_20 
REMARK    9  A    between atoms: C20_20  and  C21_21 
REMARK   10  A    between atoms: C21_21  and  O1_22 
REMARK   11  A    between atoms: C23_24  and  C25_26 
REMARK   12  A    between atoms: C28_30  and  O3_32 
REMARK   13  A    between atoms: C30_33  and  O4_34 
ROOT
HETATM    1  C15 UNL     1      -3.036  50.273 -26.187  1.00  0.00     0.149 C 
HETATM    2  C16 UNL     1      -1.520  50.184 -26.281  1.00  0.00     0.054 C 
HETATM    3  C17 UNL     1      -1.003  51.559 -25.785  1.00  0.00     0.050 C 
HETATM    4  C18 UNL     1      -0.582  51.523 -24.240  1.00  0.00     0.032 C 
HETATM    5  C22 UNL     1       0.138  52.821 -23.766  1.00  0.00    -0.066 C 
HETATM    6  C23 UNL     1       0.692  52.969 -22.530  1.00  0.00    -0.021 C 
HETATM    7  C24 UNL     1       0.910  51.874 -21.519  1.00  0.00     0.052 C 
HETATM    8  C26 UNL     1       0.205  53.916 -24.819  1.00  0.00     0.038 C 
HETATM    9  C27 UNL     1       0.725  53.438 -26.179  1.00  0.00     0.042 C 
HETATM   10  C28 UNL     1       0.272  52.019 -26.589  1.00  0.00     0.067 C 
HETATM   11  C29 UNL     1       1.465  51.049 -26.453  1.00  0.00     0.047 C 
HETATM   12  C30 UNL     1      -2.252  52.451 -26.062  1.00  0.00     0.270 C 
HETATM   13  O5  UNL     1      -3.390  51.645 -26.327  1.00  0.00    -0.351 OA
ENDROOT
BRANCH   4  14
HETATM   14  C19 UNL     1      -1.650  50.984 -23.240  1.00  0.00     0.012 C 
BRANCH  14  15
HETATM   15  C20 UNL     1      -2.600  51.990 -22.578  1.00  0.00     0.027 C 
BRANCH  15  16
HETATM   16  C21 UNL     1      -4.062  51.645 -22.865  1.00  0.00     0.164 C 
BRANCH  16  17
HETATM   17  O1  UNL     1      -4.860  52.023 -21.754  1.00  0.00    -0.401 OA
HETATM   18  H32 UNL     1      -5.771  51.729 -21.930  1.00  0.00     0.209 HD
ENDBRANCH  16  17
ENDBRANCH  15  16
ENDBRANCH  14  15
ENDBRANCH   4  14
BRANCH  10  19
HETATM   19  O3  UNL     1       0.004  52.038 -28.001  1.00  0.00    -0.389 OA
HETATM   20  H44 UNL     1      -0.778  52.620 -28.123  1.00  0.00     0.210 HD
ENDBRANCH  10  19
BRANCH  12  21
HETATM   21  O4  UNL     1      -2.106  53.282 -27.204  1.00  0.00    -0.370 OA
HETATM   22  H46 UNL     1      -2.990  53.687 -27.298  1.00  0.00     0.212 HD
ENDBRANCH  12  21
BRANCH   1  23
HETATM   23  C14 UNL     1      -3.830  49.410 -27.128  1.00  0.00     0.011 C 
HETATM   24  C12 UNL     1      -4.799  48.502 -26.878  1.00  0.00    -0.063 C 
HETATM   25  C13 UNL     1      -5.359  48.230 -25.506  1.00  0.00     0.048 C 
BRANCH  24  26
HETATM   26  C11 UNL     1      -5.320  47.716 -27.999  1.00  0.00     0.006 C 
HETATM   27  C10 UNL     1      -5.322  48.063 -29.299  1.00  0.00     0.001 C 
BRANCH  27  28
HETATM   28  C9  UNL     1      -5.923  47.238 -30.330  1.00  0.00     0.002 C 
HETATM   29  C7  UNL     1      -7.070  47.486 -30.997  1.00  0.00    -0.084 C 
HETATM   30  C8  UNL     1      -7.916  48.727 -30.854  1.00  0.00     0.043 C 
BRANCH  29  31
HETATM   31  C6  UNL     1      -7.576  46.483 -32.027  1.00  0.00     0.037 C 
BRANCH  31  32
HETATM   32  C5  UNL     1      -8.721  46.991 -32.923  1.00  0.00     0.031 C 
BRANCH  32  33
HETATM   33  C4  UNL     1      -8.260  47.464 -34.277  1.00  0.00    -0.024 C 
HETATM   34  C2  UNL     1      -8.617  47.001 -35.491  1.00  0.00    -0.091 C 
HETATM   35  C1  UNL     1      -8.051  47.630 -36.741  1.00  0.00     0.042 C 
HETATM   36  C3  UNL     1      -9.562  45.861 -35.757  1.00  0.00     0.042 C 
ENDBRANCH  32  33
ENDBRANCH  31  32
ENDBRANCH  29  31
ENDBRANCH  27  28
ENDBRANCH  24  26
ENDBRANCH   1  23
BRANCH   6  37
HETATM   37  C25 UNL     1       1.146  54.304 -22.009  1.00  0.00     0.265 C 
HETATM   38  O2  UNL     1       1.786  54.438 -20.969  1.00  0.00    -0.302 OA
ENDBRANCH   6  37
TORSDOF 13
ENDMDL
MODEL 5
REMARK minimizedAffinity -9.11208248
REMARK  13 active torsions:
REMARK  status: ('A' for Active; 'I' for Inactive)
REMARK    1  A    between atoms: C4_4  and  C5_5 
REMARK    2  A    between atoms: C5_5  and  C6_6 
REMARK    3  A    between atoms: C6_6  and  C7_7 
REMARK    4  A    between atoms: C9_9  and  C10_10 
REMARK    5  A    between atoms: C11_11  and  C12_12 
REMARK    6  A    between atoms: C14_14  and  C15_15 
REMARK    7  A    between atoms: C18_18  and  C19_19 
REMARK    8  A    between atoms: C19_19  and  C20_20 
REMARK    9  A    between atoms: C20_20  and  C21_21 
REMARK   10  A    between atoms: C21_21  and  O1_22 
REMARK   11  A    between atoms: C23_24  and  C25_26 
REMARK   12  A    between atoms: C28_30  and  O3_32 
REMARK   13  A    between atoms: C30_33  and  O4_34 
ROOT
HETATM    1  C15 UNL     1      -5.167  47.706 -28.843  1.00  0.00     0.149 C 
HETATM    2  C16 UNL     1      -6.592  47.550 -28.334  1.00  0.00     0.054 C 
HETATM    3  C17 UNL     1      -7.473  47.499 -29.608  1.00  0.00     0.050 C 
HETATM    4  C18 UNL     1      -7.814  45.996 -30.045  1.00  0.00     0.032 C 
HETATM    5  C22 UNL     1      -8.867  45.911 -31.190  1.00  0.00    -0.066 C 
HETATM    6  C23 UNL     1      -9.399  44.740 -31.641  1.00  0.00    -0.021 C 
HETATM    7  C24 UNL     1      -9.252  43.391 -30.990  1.00  0.00     0.052 C 
HETATM    8  C26 UNL     1      -9.288  47.260 -31.752  1.00  0.00     0.038 C 
HETATM    9  C27 UNL     1      -9.689  48.280 -30.681  1.00  0.00     0.042 C 
HETATM   10  C28 UNL     1      -8.853  48.227 -29.382  1.00  0.00     0.067 C 
HETATM   11  C29 UNL     1      -9.704  47.595 -28.260  1.00  0.00     0.047 C 
HETATM   12  C30 UNL     1      -6.552  48.242 -30.623  1.00  0.00     0.270 C 
HETATM   13  O5  UNL     1      -5.237  48.366 -30.103  1.00  0.00    -0.351 OA
ENDROOT
BRANCH   4  14
HETATM   14  C19 UNL     1      -6.602  45.031 -30.219  1.00  0.00     0.012 C 
BRANCH  14  15
HETATM   15  C20 UNL     1      -6.135  44.699 -31.643  1.00  0.00     0.027 C 
BRANCH  15  16
HETATM   16  C21 UNL     1      -4.824  45.411 -31.977  1.00  0.00     0.164 C 
BRANCH  16  17
HETATM   17  O1  UNL     1      -4.982  46.144 -33.183  1.00  0.00    -0.401 OA
HETATM   18  H32 UNL     1      -4.117  46.527 -33.411  1.00  0.00     0.209 HD
ENDBRANCH  16  17
ENDBRANCH  15  16
ENDBRANCH  14  15
ENDBRANCH   4  14
BRANCH  10  19
HETATM   19  O3  UNL     1      -8.650  49.579 -28.940  1.00  0.00    -0.389 OA
HETATM   20  H44 UNL     1      -8.078  50.005 -29.616  1.00  0.00     0.210 HD
ENDBRANCH  10  19
BRANCH  12  21
HETATM   21  O4  UNL     1      -6.974  49.571 -30.895  1.00  0.00    -0.370 OA
HETATM   22  H46 UNL     1      -6.251  49.924 -31.451  1.00  0.00     0.212 HD
ENDBRANCH  12  21
BRANCH   1  23
HETATM   23  C14 UNL     1      -4.186  48.387 -27.929  1.00  0.00     0.011 C 
HETATM   24  C12 UNL     1      -4.239  48.612 -26.598  1.00  0.00    -0.063 C 
HETATM   25  C13 UNL     1      -5.343  48.106 -25.706  1.00  0.00     0.048 C 
BRANCH  24  26
HETATM   26  C11 UNL     1      -3.178  49.415 -25.986  1.00  0.00     0.006 C 
HETATM   27  C10 UNL     1      -2.053  49.857 -26.578  1.00  0.00     0.001 C 
BRANCH  27  28
HETATM   28  C9  UNL     1      -1.029  50.594 -25.864  1.00  0.00     0.002 C 
HETATM   29  C7  UNL     1      -0.010  51.294 -26.406  1.00  0.00    -0.084 C 
HETATM   30  C8  UNL     1       0.214  51.513 -27.882  1.00  0.00     0.043 C 
BRANCH  29  31
HETATM   31  C6  UNL     1       1.003  51.980 -25.497  1.00  0.00     0.037 C 
BRANCH  31  32
HETATM   32  C5  UNL     1       0.404  52.974 -24.485  1.00  0.00     0.031 C 
BRANCH  32  33
HETATM   33  C4  UNL     1       0.255  52.403 -23.099  1.00  0.00    -0.024 C 
HETATM   34  C2  UNL     1       0.683  52.921 -21.931  1.00  0.00    -0.091 C 
HETATM   35  C1  UNL     1       0.415  52.197 -20.635  1.00  0.00     0.042 C 
HETATM   36  C3  UNL     1       1.445  54.208 -21.764  1.00  0.00     0.042 C 
ENDBRANCH  32  33
ENDBRANCH  31  32
ENDBRANCH  29  31
ENDBRANCH  27  28
ENDBRANCH  24  26
ENDBRANCH   1  23
BRANCH   6  37
HETATM   37  C25 UNL     1     -10.208  44.661 -32.906  1.00  0.00     0.265 C 
HETATM   38  O2  UNL     1      -9.709  44.471 -34.013  1.00  0.00    -0.302 OA
ENDBRANCH   6  37
TORSDOF 13
ENDMDL
MODEL 6
REMARK minimizedAffinity -8.93880463
REMARK  13 active torsions:
REMARK  status: ('A' for Active; 'I' for Inactive)
REMARK    1  A    between atoms: C4_4  and  C5_5 
REMARK    2  A    between atoms: C5_5  and  C6_6 
REMARK    3  A    between atoms: C6_6  and  C7_7 
REMARK    4  A    between atoms: C9_9  and  C10_10 
REMARK    5  A    between atoms: C11_11  and  C12_12 
REMARK    6  A    between atoms: C14_14  and  C15_15 
REMARK    7  A    between atoms: C18_18  and  C19_19 
REMARK    8  A    between atoms: C19_19  and  C20_20 
REMARK    9  A    between atoms: C20_20  and  C21_21 
REMARK   10  A    between atoms: C21_21  and  O1_22 
REMARK   11  A    between atoms: C23_24  and  C25_26 
REMARK   12  A    between atoms: C28_30  and  O3_32 
REMARK   13  A    between atoms: C30_33  and  O4_34 
ROOT
HETATM    1  C15 UNL     1      -2.932  50.259 -26.291  1.00  0.00     0.149 C 
HETATM    2  C16 UNL     1      -1.416  50.247 -26.419  1.00  0.00     0.054 C 
HETATM    3  C17 UNL     1      -0.953  51.620 -25.868  1.00  0.00     0.050 C 
HETATM    4  C18 UNL     1      -0.496  51.531 -24.335  1.00  0.00     0.032 C 
HETATM    5  C22 UNL     1       0.172  52.839 -23.814  1.00  0.00    -0.066 C 
HETATM    6  C23 UNL     1       0.746  52.955 -22.583  1.00  0.00    -0.021 C 
HETATM    7  C24 UNL     1       1.037  51.826 -21.630  1.00  0.00     0.052 C 
HETATM    8  C26 UNL     1       0.165  53.984 -24.814  1.00  0.00     0.038 C 
HETATM    9  C27 UNL     1       0.677  53.595 -26.206  1.00  0.00     0.042 C 
HETATM   10  C28 UNL     1       0.282  52.177 -26.674  1.00  0.00     0.067 C 
HETATM   11  C29 UNL     1       1.521  51.260 -26.608  1.00  0.00     0.047 C 
HETATM   12  C30 UNL     1      -2.247  52.464 -26.077  1.00  0.00     0.270 C 
HETATM   13  O5  UNL     1      -3.352  51.618 -26.358  1.00  0.00    -0.351 OA
ENDROOT
BRANCH   4  14
HETATM   14  C19 UNL     1      -1.516  50.896 -23.341  1.00  0.00     0.012 C 
BRANCH  14  15
HETATM   15  C20 UNL     1      -2.542  51.815 -22.665  1.00  0.00     0.027 C 
BRANCH  15  16
HETATM   16  C21 UNL     1      -2.848  51.353 -21.240  1.00  0.00     0.164 C 
BRANCH  16  17
HETATM   17  O1  UNL     1      -4.237  51.503 -20.987  1.00  0.00    -0.401 OA
HETATM   18  H32 UNL     1      -4.393  51.271 -20.054  1.00  0.00     0.209 HD
ENDBRANCH  16  17
ENDBRANCH  15  16
ENDBRANCH  14  15
ENDBRANCH   4  14
BRANCH  10  19
HETATM   19  O3  UNL     1      -0.018  52.250 -28.078  1.00  0.00    -0.389 OA
HETATM   20  H44 UNL     1      -0.829  52.799 -28.156  1.00  0.00     0.210 HD
ENDBRANCH  10  19
BRANCH  12  21
HETATM   21  O4  UNL     1      -2.165  53.353 -27.181  1.00  0.00    -0.370 OA
HETATM   22  H46 UNL     1      -3.069  53.720 -27.238  1.00  0.00     0.212 HD
ENDBRANCH  12  21
BRANCH   1  23
HETATM   23  C14 UNL     1      -3.705  49.405 -27.256  1.00  0.00     0.011 C 
HETATM   24  C12 UNL     1      -4.689  48.505 -27.037  1.00  0.00    -0.063 C 
HETATM   25  C13 UNL     1      -5.291  48.236 -25.682  1.00  0.00     0.048 C 
BRANCH  24  26
HETATM   26  C11 UNL     1      -5.184  47.725 -28.174  1.00  0.00     0.006 C 
HETATM   27  C10 UNL     1      -6.408  47.184 -28.313  1.00  0.00     0.001 C 
BRANCH  27  28
HETATM   28  C9  UNL     1      -6.781  46.371 -29.454  1.00  0.00     0.002 C 
HETATM   29  C7  UNL     1      -7.230  45.099 -29.428  1.00  0.00    -0.084 C 
HETATM   30  C8  UNL     1      -7.509  44.294 -28.183  1.00  0.00     0.043 C 
BRANCH  29  31
HETATM   31  C6  UNL     1      -7.539  44.380 -30.736  1.00  0.00     0.037 C 
BRANCH  31  32
HETATM   32  C5  UNL     1      -9.010  43.961 -30.918  1.00  0.00     0.031 C 
BRANCH  32  33
HETATM   33  C4  UNL     1      -9.990  45.068 -30.629  1.00  0.00    -0.024 C 
HETATM   34  C2  UNL     1     -10.192  46.208 -31.319  1.00  0.00    -0.091 C 
HETATM   35  C1  UNL     1     -11.247  47.190 -30.872  1.00  0.00     0.042 C 
HETATM   36  C3  UNL     1      -9.439  46.639 -32.548  1.00  0.00     0.042 C 
ENDBRANCH  32  33
ENDBRANCH  31  32
ENDBRANCH  29  31
ENDBRANCH  27  28
ENDBRANCH  24  26
ENDBRANCH   1  23
BRANCH   6  37
HETATM   37  C25 UNL     1       1.149  54.284 -22.008  1.00  0.00     0.265 C 
HETATM   38  O2  UNL     1       1.901  54.400 -21.043  1.00  0.00    -0.302 OA
ENDBRANCH   6  37
TORSDOF 13
ENDMDL
MODEL 7
REMARK minimizedAffinity -8.88073635
REMARK  13 active torsions:
REMARK  status: ('A' for Active; 'I' for Inactive)
REMARK    1  A    between atoms: C4_4  and  C5_5 
REMARK    2  A    between atoms: C5_5  and  C6_6 
REMARK    3  A    between atoms: C6_6  and  C7_7 
REMARK    4  A    between atoms: C9_9  and  C10_10 
REMARK    5  A    between atoms: C11_11  and  C12_12 
REMARK    6  A    between atoms: C14_14  and  C15_15 
REMARK    7  A    between atoms: C18_18  and  C19_19 
REMARK    8  A    between atoms: C19_19  and  C20_20 
REMARK    9  A    between atoms: C20_20  and  C21_21 
REMARK   10  A    between atoms: C21_21  and  O1_22 
REMARK   11  A    between atoms: C23_24  and  C25_26 
REMARK   12  A    between atoms: C28_30  and  O3_32 
REMARK   13  A    between atoms: C30_33  and  O4_34 
ROOT
HETATM    1  C15 UNL     1      -3.610  49.932 -24.900  1.00  0.00     0.149 C 
HETATM    2  C16 UNL     1      -2.159  49.853 -25.350  1.00  0.00     0.054 C 
HETATM    3  C17 UNL     1      -1.585  51.274 -25.116  1.00  0.00     0.050 C 
HETATM    4  C18 UNL     1      -0.804  51.388 -23.723  1.00  0.00     0.032 C 
HETATM    5  C22 UNL     1      -0.037  52.733 -23.553  1.00  0.00    -0.066 C 
HETATM    6  C23 UNL     1       0.793  53.002 -22.506  1.00  0.00    -0.021 C 
HETATM    7  C24 UNL     1       1.285  52.009 -21.487  1.00  0.00     0.052 C 
HETATM    8  C26 UNL     1      -0.262  53.726 -24.682  1.00  0.00     0.038 C 
HETATM    9  C27 UNL     1      -0.068  53.129 -26.081  1.00  0.00     0.042 C 
HETATM   10  C28 UNL     1      -0.558  51.673 -26.243  1.00  0.00     0.067 C 
HETATM   11  C29 UNL     1       0.666  50.735 -26.316  1.00  0.00     0.047 C 
HETATM   12  C30 UNL     1      -2.893  52.122 -25.159  1.00  0.00     0.270 C 
HETATM   13  O5  UNL     1      -4.034  51.281 -25.070  1.00  0.00    -0.351 OA
ENDROOT
BRANCH   4  14
HETATM   14  C19 UNL     1      -1.581  50.931 -22.451  1.00  0.00     0.012 C 
BRANCH  14  15
HETATM   15  C20 UNL     1      -1.597  49.436 -22.105  1.00  0.00     0.027 C 
BRANCH  15  16
HETATM   16  C21 UNL     1      -0.707  49.136 -20.898  1.00  0.00     0.164 C 
BRANCH  16  17
HETATM   17  O1  UNL     1      -0.636  47.731 -20.707  1.00  0.00    -0.401 OA
HETATM   18  H32 UNL     1      -0.125  47.569 -19.894  1.00  0.00     0.209 HD
ENDBRANCH  16  17
ENDBRANCH  15  16
ENDBRANCH  14  15
ENDBRANCH   4  14
BRANCH  10  19
HETATM   19  O3  UNL     1      -1.157  51.557 -27.544  1.00  0.00    -0.389 OA
HETATM   20  H44 UNL     1      -1.965  52.116 -27.523  1.00  0.00     0.210 HD
ENDBRANCH  10  19
BRANCH  12  21
HETATM   21  O4  UNL     1      -3.055  52.844 -26.372  1.00  0.00    -0.370 OA
HETATM   22  H46 UNL     1      -3.949  53.228 -26.284  1.00  0.00     0.212 HD
ENDBRANCH  12  21
BRANCH   1  23
HETATM   23  C14 UNL     1      -4.577  48.976 -25.541  1.00  0.00     0.011 C 
HETATM   24  C12 UNL     1      -4.602  48.462 -26.790  1.00  0.00    -0.063 C 
HETATM   25  C13 UNL     1      -3.532  48.713 -27.821  1.00  0.00     0.048 C 
BRANCH  24  26
HETATM   26  C11 UNL     1      -5.746  47.634 -27.178  1.00  0.00     0.006 C 
HETATM   27  C10 UNL     1      -6.137  47.326 -28.428  1.00  0.00     0.001 C 
BRANCH  27  28
HETATM   28  C9  UNL     1      -7.327  46.548 -28.709  1.00  0.00     0.002 C 
HETATM   29  C7  UNL     1      -8.584  47.016 -28.857  1.00  0.00    -0.084 C 
HETATM   30  C8  UNL     1      -8.984  48.470 -28.838  1.00  0.00     0.043 C 
BRANCH  29  31
HETATM   31  C6  UNL     1      -9.729  46.042 -29.112  1.00  0.00     0.037 C 
BRANCH  31  32
HETATM   32  C5  UNL     1     -10.490  45.587 -27.853  1.00  0.00     0.031 C 
BRANCH  32  33
HETATM   33  C4  UNL     1     -11.965  45.389 -28.082  1.00  0.00    -0.024 C 
HETATM   34  C2  UNL     1     -12.939  46.320 -28.119  1.00  0.00    -0.091 C 
HETATM   35  C1  UNL     1     -14.368  45.914 -28.384  1.00  0.00     0.042 C 
HETATM   36  C3  UNL     1     -12.753  47.798 -27.908  1.00  0.00     0.042 C 
ENDBRANCH  32  33
ENDBRANCH  31  32
ENDBRANCH  29  31
ENDBRANCH  27  28
ENDBRANCH  24  26
ENDBRANCH   1  23
BRANCH   6  37
HETATM   37  C25 UNL     1       1.313  54.385 -22.230  1.00  0.00     0.265 C 
HETATM   38  O2  UNL     1       1.979  54.668 -21.237  1.00  0.00    -0.302 OA
ENDBRANCH   6  37
TORSDOF 13
ENDMDL
MODEL 8
REMARK minimizedAffinity -8.43212795
REMARK  13 active torsions:
REMARK  status: ('A' for Active; 'I' for Inactive)
REMARK    1  A    between atoms: C4_4  and  C5_5 
REMARK    2  A    between atoms: C5_5  and  C6_6 
REMARK    3  A    between atoms: C6_6  and  C7_7 
REMARK    4  A    between atoms: C9_9  and  C10_10 
REMARK    5  A    between atoms: C11_11  and  C12_12 
REMARK    6  A    between atoms: C14_14  and  C15_15 
REMARK    7  A    between atoms: C18_18  and  C19_19 
REMARK    8  A    between atoms: C19_19  and  C20_20 
REMARK    9  A    between atoms: C20_20  and  C21_21 
REMARK   10  A    between atoms: C21_21  and  O1_22 
REMARK   11  A    between atoms: C23_24  and  C25_26 
REMARK   12  A    between atoms: C28_30  and  O3_32 
REMARK   13  A    between atoms: C30_33  and  O4_34 
ROOT
HETATM    1  C15 UNL     1      -3.112  49.351 -26.073  1.00  0.00     0.149 C 
HETATM    2  C16 UNL     1      -3.582  50.579 -25.308  1.00  0.00     0.054 C 
HETATM    3  C17 UNL     1      -2.788  50.555 -23.977  1.00  0.00     0.050 C 
HETATM    4  C18 UNL     1      -1.489  51.491 -24.032  1.00  0.00     0.032 C 
HETATM    5  C22 UNL     1      -0.789  51.657 -22.650  1.00  0.00    -0.066 C 
HETATM    6  C23 UNL     1       0.259  52.500 -22.431  1.00  0.00    -0.021 C 
HETATM    7  C24 UNL     1       0.762  53.555 -23.380  1.00  0.00     0.052 C 
HETATM    8  C26 UNL     1      -1.397  50.816 -21.538  1.00  0.00     0.038 C 
HETATM    9  C27 UNL     1      -2.920  50.943 -21.427  1.00  0.00     0.042 C 
HETATM   10  C28 UNL     1      -3.666  51.072 -22.774  1.00  0.00     0.067 C 
HETATM   11  C29 UNL     1      -4.146  52.528 -22.948  1.00  0.00     0.047 C 
HETATM   12  C30 UNL     1      -2.449  49.037 -23.874  1.00  0.00     0.270 C 
HETATM   13  O5  UNL     1      -2.696  48.386 -25.112  1.00  0.00    -0.351 OA
ENDROOT
BRANCH   4  14
HETATM   14  C19 UNL     1      -0.509  51.250 -25.220  1.00  0.00     0.012 C 
BRANCH  14  15
HETATM   15  C20 UNL     1      -0.752  52.012 -26.529  1.00  0.00     0.027 C 
BRANCH  15  16
HETATM   16  C21 UNL     1       0.335  53.061 -26.772  1.00  0.00     0.164 C 
BRANCH  16  17
HETATM   17  O1  UNL     1      -0.262  54.246 -27.276  1.00  0.00    -0.401 OA
HETATM   18  H32 UNL     1       0.454  54.870 -27.489  1.00  0.00     0.209 HD
ENDBRANCH  16  17
ENDBRANCH  15  16
ENDBRANCH  14  15
ENDBRANCH   4  14
BRANCH  10  19
HETATM   19  O3  UNL     1      -4.884  50.317 -22.671  1.00  0.00    -0.389 OA
HETATM   20  H44 UNL     1      -4.617  49.375 -22.596  1.00  0.00     0.210 HD
ENDBRANCH  10  19
BRANCH  12  21
HETATM   21  O4  UNL     1      -3.246  48.346 -22.922  1.00  0.00    -0.370 OA
HETATM   22  H46 UNL     1      -2.989  47.413 -23.053  1.00  0.00     0.212 HD
ENDBRANCH  12  21
BRANCH   1  23
HETATM   23  C14 UNL     1      -4.075  48.751 -27.060  1.00  0.00     0.011 C 
HETATM   24  C12 UNL     1      -5.271  48.155 -26.864  1.00  0.00    -0.063 C 
HETATM   25  C13 UNL     1      -5.946  48.050 -25.521  1.00  0.00     0.048 C 
BRANCH  24  26
HETATM   26  C11 UNL     1      -5.944  47.552 -28.018  1.00  0.00     0.006 C 
HETATM   27  C10 UNL     1      -5.507  47.533 -29.291  1.00  0.00     0.001 C 
BRANCH  27  28
HETATM   28  C9  UNL     1      -6.281  46.964 -30.376  1.00  0.00     0.002 C 
HETATM   29  C7  UNL     1      -6.100  47.175 -31.697  1.00  0.00    -0.084 C 
HETATM   30  C8  UNL     1      -4.990  47.994 -32.308  1.00  0.00     0.043 C 
BRANCH  29  31
HETATM   31  C6  UNL     1      -7.039  46.521 -32.703  1.00  0.00     0.037 C 
BRANCH  31  32
HETATM   32  C5  UNL     1      -8.296  47.340 -33.051  1.00  0.00     0.031 C 
BRANCH  32  33
HETATM   33  C4  UNL     1      -9.377  47.254 -32.006  1.00  0.00    -0.024 C 
HETATM   34  C2  UNL     1      -9.645  48.118 -31.007  1.00  0.00    -0.091 C 
HETATM   35  C1  UNL     1     -10.797  47.859 -30.067  1.00  0.00     0.042 C 
HETATM   36  C3  UNL     1      -8.880  49.377 -30.701  1.00  0.00     0.042 C 
ENDBRANCH  32  33
ENDBRANCH  31  32
ENDBRANCH  29  31
ENDBRANCH  27  28
ENDBRANCH  24  26
ENDBRANCH   1  23
BRANCH   6  37
HETATM   37  C25 UNL     1       1.076  52.452 -21.171  1.00  0.00     0.265 C 
HETATM   38  O2  UNL     1       1.169  53.398 -20.392  1.00  0.00    -0.302 OA
ENDBRANCH   6  37
TORSDOF 13
ENDMDL
MODEL 9
REMARK minimizedAffinity -8.36360264
REMARK  13 active torsions:
REMARK  status: ('A' for Active; 'I' for Inactive)
REMARK    1  A    between atoms: C4_4  and  C5_5 
REMARK    2  A    between atoms: C5_5  and  C6_6 
REMARK    3  A    between atoms: C6_6  and  C7_7 
REMARK    4  A    between atoms: C9_9  and  C10_10 
REMARK    5  A    between atoms: C11_11  and  C12_12 
REMARK    6  A    between atoms: C14_14  and  C15_15 
REMARK    7  A    between atoms: C18_18  and  C19_19 
REMARK    8  A    between atoms: C19_19  and  C20_20 
REMARK    9  A    between atoms: C20_20  and  C21_21 
REMARK   10  A    between atoms: C21_21  and  O1_22 
REMARK   11  A    between atoms: C23_24  and  C25_26 
REMARK   12  A    between atoms: C28_30  and  O3_32 
REMARK   13  A    between atoms: C30_33  and  O4_34 
ROOT
HETATM    1  C15 UNL     1      -3.149  49.139 -25.558  1.00  0.00     0.149 C 
HETATM    2  C16 UNL     1      -3.620  50.427 -24.898  1.00  0.00     0.054 C 
HETATM    3  C17 UNL     1      -2.711  50.599 -23.654  1.00  0.00     0.050 C 
HETATM    4  C18 UNL     1      -1.479  51.583 -23.939  1.00  0.00     0.032 C 
HETATM    5  C22 UNL     1      -0.670  51.945 -22.659  1.00  0.00    -0.066 C 
HETATM    6  C23 UNL     1       0.342  52.858 -22.638  1.00  0.00    -0.021 C 
HETATM    7  C24 UNL     1       0.697  53.814 -23.746  1.00  0.00     0.052 C 
HETATM    8  C26 UNL     1      -1.127  51.216 -21.405  1.00  0.00     0.038 C 
HETATM    9  C27 UNL     1      -2.640  51.284 -21.164  1.00  0.00     0.042 C 
HETATM   10  C28 UNL     1      -3.508  51.215 -22.441  1.00  0.00     0.067 C 
HETATM   11  C29 UNL     1      -4.085  52.616 -22.734  1.00  0.00     0.047 C 
HETATM   12  C30 UNL     1      -2.277  49.122 -23.410  1.00  0.00     0.270 C 
HETATM   13  O5  UNL     1      -2.594  48.317 -24.536  1.00  0.00    -0.351 OA
ENDROOT
BRANCH   4  14
HETATM   14  C19 UNL     1      -0.596  51.248 -25.179  1.00  0.00     0.012 C 
BRANCH  14  15
HETATM   15  C20 UNL     1       0.894  51.615 -25.132  1.00  0.00     0.027 C 
BRANCH  15  16
HETATM   16  C21 UNL     1       1.572  51.361 -26.478  1.00  0.00     0.164 C 
BRANCH  16  17
HETATM   17  O1  UNL     1       2.941  51.052 -26.263  1.00  0.00    -0.401 OA
HETATM   18  H32 UNL     1       3.365  50.966 -27.135  1.00  0.00     0.209 HD
ENDBRANCH  16  17
ENDBRANCH  15  16
ENDBRANCH  14  15
ENDBRANCH   4  14
BRANCH  10  19
HETATM   19  O3  UNL     1      -4.666  50.421 -22.137  1.00  0.00    -0.389 OA
HETATM   20  H44 UNL     1      -4.339  49.508 -21.980  1.00  0.00     0.210 HD
ENDBRANCH  10  19
BRANCH  12  21
HETATM   21  O4  UNL     1      -2.945  48.514 -22.314  1.00  0.00    -0.370 OA
HETATM   22  H46 UNL     1      -2.646  47.585 -22.360  1.00  0.00     0.212 HD
ENDBRANCH  12  21
BRANCH   1  23
HETATM   23  C14 UNL     1      -4.159  48.381 -26.373  1.00  0.00     0.011 C 
HETATM   24  C12 UNL     1      -4.529  48.525 -27.664  1.00  0.00    -0.063 C 
HETATM   25  C13 UNL     1      -3.882  49.496 -28.618  1.00  0.00     0.048 C 
BRANCH  24  26
HETATM   26  C11 UNL     1      -5.638  47.709 -28.165  1.00  0.00     0.006 C 
HETATM   27  C10 UNL     1      -6.444  47.989 -29.206  1.00  0.00     0.001 C 
BRANCH  27  28
HETATM   28  C9  UNL     1      -7.560  47.144 -29.584  1.00  0.00     0.002 C 
HETATM   29  C7  UNL     1      -8.399  47.330 -30.624  1.00  0.00    -0.084 C 
HETATM   30  C8  UNL     1      -8.286  48.424 -31.656  1.00  0.00     0.043 C 
BRANCH  29  31
HETATM   31  C6  UNL     1      -9.550  46.356 -30.850  1.00  0.00     0.037 C 
BRANCH  31  32
HETATM   32  C5  UNL     1     -10.941  47.006 -30.965  1.00  0.00     0.031 C 
BRANCH  32  33
HETATM   33  C4  UNL     1     -11.370  47.732 -29.717  1.00  0.00    -0.024 C 
HETATM   34  C2  UNL     1     -12.325  47.382 -28.832  1.00  0.00    -0.091 C 
HETATM   35  C1  UNL     1     -12.592  48.244 -27.623  1.00  0.00     0.042 C 
HETATM   36  C3  UNL     1     -13.207  46.167 -28.923  1.00  0.00     0.042 C 
ENDBRANCH  32  33
ENDBRANCH  31  32
ENDBRANCH  29  31
ENDBRANCH  27  28
ENDBRANCH  24  26
ENDBRANCH   1  23
BRANCH   6  37
HETATM   37  C25 UNL     1       1.270  53.000 -21.464  1.00  0.00     0.265 C 
HETATM   38  O2  UNL     1       1.785  54.067 -21.138  1.00  0.00    -0.302 OA
ENDBRANCH   6  37
TORSDOF 13
ENDMDL
