MODEL 1
REMARK minimizedAffinity -7.33991146
REMARK  12 active torsions:
REMARK  status: ('A' for Active; 'I' for Inactive)
REMARK    1  A    between atoms: C2_2  and  O1_3 
REMARK    2  A    between atoms: O1_3  and  C3_4 
REMARK    3  A    between atoms: C3_4  and  C4_6 
REMARK    4  A    between atoms: C6_8  and  N1_9 
REMARK       I    between atoms: N1_9  and  C7_10 
REMARK    5  A    between atoms: C7_10  and  C8_12 
REMARK    6  A    between atoms: C14_19  and  O4_20 
REMARK    7  A    between atoms: O4_20  and  C15_21 
REMARK    8  A    between atoms: C15_21  and  C16_22 
REMARK    9  A    between atoms: C16_22  and  O5_23 
REMARK   10  A    between atoms: C16_22  and  C17_24 
REMARK   11  A    between atoms: C17_24  and  N2_25 
REMARK   12  A    between atoms: N2_25  and  C18_26 
ROOT
HETATM    1  C4  UNL     1      -1.103   5.309  12.061  1.00  0.00     0.074 A 
HETATM    2  C5  UNL     1      -2.355   5.325  12.696  1.00  0.00     0.050 A 
HETATM    3  C6  UNL     1      -2.924   6.535  13.080  1.00  0.00     0.036 A 
HETATM    4  C12 UNL     1      -2.217   7.716  12.825  1.00  0.00     0.032 A 
HETATM    5  C13 UNL     1      -0.965   7.693  12.191  1.00  0.00     0.040 A 
HETATM    6  C14 UNL     1      -0.389   6.486  11.802  1.00  0.00     0.085 A 
ENDROOT
BRANCH   6   7
HETATM    7  O4  UNL     1       0.815   6.346  11.178  1.00  0.00    -0.348 OA
BRANCH   7   8
HETATM    8  C15 UNL     1       1.999   6.961  11.710  1.00  0.00     0.209 C 
BRANCH   8   9
HETATM    9  C16 UNL     1       3.259   6.297  11.132  1.00  0.00     0.170 C 
BRANCH   9  10
HETATM   10  O5  UNL     1       4.417   6.703  11.887  1.00  0.00    -0.392 OA
HETATM   11  H16 UNL     1       4.690   5.912  12.403  1.00  0.00     0.210 HD
ENDBRANCH   9  10
BRANCH   9  12
HETATM   12  C17 UNL     1       3.515   6.693   9.660  1.00  0.00     0.304 C 
BRANCH  12  13
HETATM   13  N2  UNL     1       2.395   6.442   8.747  1.00  0.00     0.094 N 
HETATM   14  H19 UNL     1       1.595   6.131   9.302  1.00  0.00     0.317 HD
BRANCH  13  15
HETATM   15  C18 UNL     1       1.952   7.576   7.904  1.00  0.00     0.147 C 
HETATM   16  C19 UNL     1       1.809   7.141   6.432  1.00  0.00     0.048 C 
HETATM   17  C20 UNL     1       3.077   8.629   7.995  1.00  0.00     0.048 C 
HETATM   18  C21 UNL     1       0.643   8.224   8.386  1.00  0.00     0.048 C 
ENDBRANCH  13  15
ENDBRANCH  12  13
ENDBRANCH   9  12
ENDBRANCH   8   9
ENDBRANCH   7   8
ENDBRANCH   6   7
BRANCH   1  19
HETATM   19  C3  UNL     1      -0.540   3.999  11.689  1.00  0.00     0.296 C 
HETATM   20  O2  UNL     1       0.614   3.810  11.343  1.00  0.00    -0.259 OA
BRANCH  19  21
HETATM   21  O1  UNL     1      -1.528   3.081  11.828  1.00  0.00    -0.318 OA
BRANCH  21  22
HETATM   22  C2  UNL     1      -1.788   2.266  10.679  1.00  0.00     0.174 C 
HETATM   23  C1  UNL     1      -1.061   0.939  10.798  1.00  0.00     0.034 C 
ENDBRANCH  21  22
ENDBRANCH  19  21
ENDBRANCH   1  19
BRANCH   3  24
HETATM   24  N1  UNL     1      -4.169   6.660  13.731  1.00  0.00    -0.322 N 
HETATM   25  C7  UNL     1      -4.449   6.458  15.080  1.00  0.00     0.263 C 
HETATM   26  O3  UNL     1      -3.618   6.077  15.900  1.00  0.00    -0.267 OA
HETATM   27  H7  UNL     1      -4.959   6.859  13.134  1.00  0.00     0.169 HD
BRANCH  25  28
HETATM   28  C8  UNL     1      -5.845   6.722  15.437  1.00  0.00     0.072 A 
HETATM   29  C9  UNL     1      -6.758   5.944  16.134  1.00  0.00     0.025 A 
HETATM   30  C10 UNL     1      -8.028   6.582  16.275  1.00  0.00     0.009 A 
HETATM   31  C11 UNL     1      -8.054   7.819  15.674  1.00  0.00     0.050 A 
HETATM   32  S1  UNL     1      -6.561   8.204  14.937  1.00  0.00    -0.097 SA
ENDBRANCH  25  28
ENDBRANCH   3  24
TORSDOF 12
ENDMDL
MODEL 2
REMARK minimizedAffinity -7.23019695
REMARK  12 active torsions:
REMARK  status: ('A' for Active; 'I' for Inactive)
REMARK    1  A    between atoms: C2_2  and  O1_3 
REMARK    2  A    between atoms: O1_3  and  C3_4 
REMARK    3  A    between atoms: C3_4  and  C4_6 
REMARK    4  A    between atoms: C6_8  and  N1_9 
REMARK       I    between atoms: N1_9  and  C7_10 
REMARK    5  A    between atoms: C7_10  and  C8_12 
REMARK    6  A    between atoms: C14_19  and  O4_20 
REMARK    7  A    between atoms: O4_20  and  C15_21 
REMARK    8  A    between atoms: C15_21  and  C16_22 
REMARK    9  A    between atoms: C16_22  and  O5_23 
REMARK   10  A    between atoms: C16_22  and  C17_24 
REMARK   11  A    between atoms: C17_24  and  N2_25 
REMARK   12  A    between atoms: N2_25  and  C18_26 
ROOT
HETATM    1  C4  UNL     1      -3.702   4.281  12.609  1.00  0.00     0.074 A 
HETATM    2  C5  UNL     1      -5.038   4.628  12.868  1.00  0.00     0.050 A 
HETATM    3  C6  UNL     1      -5.340   5.869  13.420  1.00  0.00     0.036 A 
HETATM    4  C12 UNL     1      -4.287   6.744  13.711  1.00  0.00     0.032 A 
HETATM    5  C13 UNL     1      -2.953   6.391  13.451  1.00  0.00     0.040 A 
HETATM    6  C14 UNL     1      -2.642   5.151  12.897  1.00  0.00     0.085 A 
ENDROOT
BRANCH   6   7
HETATM    7  O4  UNL     1      -1.388   4.706  12.601  1.00  0.00    -0.348 OA
BRANCH   7   8
HETATM    8  C15 UNL     1      -0.300   5.627  12.424  1.00  0.00     0.209 C 
BRANCH   8   9
HETATM    9  C16 UNL     1       0.353   5.432  11.046  1.00  0.00     0.170 C 
BRANCH   9  10
HETATM   10  O5  UNL     1       1.158   4.237  11.050  1.00  0.00    -0.392 OA
HETATM   11  H16 UNL     1       0.671   3.586  10.498  1.00  0.00     0.210 HD
ENDBRANCH   9  10
BRANCH   9  12
HETATM   12  C17 UNL     1       1.284   6.604  10.660  1.00  0.00     0.304 C 
BRANCH  12  13
HETATM   13  N2  UNL     1       1.136   7.084   9.282  1.00  0.00     0.094 N 
HETATM   14  H19 UNL     1       0.813   8.054   9.315  1.00  0.00     0.317 HD
BRANCH  13  15
HETATM   15  C18 UNL     1       2.342   7.034   8.424  1.00  0.00     0.147 C 
HETATM   16  C19 UNL     1       3.349   8.128   8.829  1.00  0.00     0.048 C 
HETATM   17  C20 UNL     1       1.847   7.333   6.992  1.00  0.00     0.048 C 
HETATM   18  C21 UNL     1       3.035   5.661   8.419  1.00  0.00     0.048 C 
ENDBRANCH  13  15
ENDBRANCH  12  13
ENDBRANCH   9  12
ENDBRANCH   8   9
ENDBRANCH   7   8
ENDBRANCH   6   7
BRANCH   1  19
HETATM   19  C3  UNL     1      -3.438   2.949  12.039  1.00  0.00     0.296 C 
HETATM   20  O2  UNL     1      -4.286   2.093  11.845  1.00  0.00    -0.259 OA
BRANCH  19  21
HETATM   21  O1  UNL     1      -2.111   2.882  11.768  1.00  0.00    -0.318 OA
BRANCH  21  22
HETATM   22  C2  UNL     1      -1.758   2.239  10.538  1.00  0.00     0.174 C 
HETATM   23  C1  UNL     1      -0.830   1.066  10.801  1.00  0.00     0.034 C 
ENDBRANCH  21  22
ENDBRANCH  19  21
ENDBRANCH   1  19
BRANCH   3  24
HETATM   24  N1  UNL     1      -6.645   6.309  13.726  1.00  0.00    -0.322 N 
HETATM   25  C7  UNL     1      -7.839   5.910  13.133  1.00  0.00     0.263 C 
HETATM   26  O3  UNL     1      -7.905   5.129  12.188  1.00  0.00    -0.267 OA
HETATM   27  H7  UNL     1      -6.709   7.045  14.416  1.00  0.00     0.169 HD
BRANCH  25  28
HETATM   28  C8  UNL     1      -9.026   6.531  13.726  1.00  0.00     0.072 A 
HETATM   29  C9  UNL     1     -10.312   6.674  13.225  1.00  0.00     0.025 A 
HETATM   30  C10 UNL     1     -11.186   7.341  14.139  1.00  0.00     0.009 A 
HETATM   31  C11 UNL     1     -10.542   7.698  15.301  1.00  0.00     0.050 A 
HETATM   32  S1  UNL     1      -8.896   7.241  15.287  1.00  0.00    -0.097 SA
ENDBRANCH  25  28
ENDBRANCH   3  24
TORSDOF 12
ENDMDL
MODEL 3
REMARK minimizedAffinity -7.2273016
REMARK  12 active torsions:
REMARK  status: ('A' for Active; 'I' for Inactive)
REMARK    1  A    between atoms: C2_2  and  O1_3 
REMARK    2  A    between atoms: O1_3  and  C3_4 
REMARK    3  A    between atoms: C3_4  and  C4_6 
REMARK    4  A    between atoms: C6_8  and  N1_9 
REMARK       I    between atoms: N1_9  and  C7_10 
REMARK    5  A    between atoms: C7_10  and  C8_12 
REMARK    6  A    between atoms: C14_19  and  O4_20 
REMARK    7  A    between atoms: O4_20  and  C15_21 
REMARK    8  A    between atoms: C15_21  and  C16_22 
REMARK    9  A    between atoms: C16_22  and  O5_23 
REMARK   10  A    between atoms: C16_22  and  C17_24 
REMARK   11  A    between atoms: C17_24  and  N2_25 
REMARK   12  A    between atoms: N2_25  and  C18_26 
ROOT
HETATM    1  C4  UNL     1      -5.516   5.286  13.453  1.00  0.00     0.074 A 
HETATM    2  C5  UNL     1      -6.786   5.867  13.594  1.00  0.00     0.050 A 
HETATM    3  C6  UNL     1      -7.919   5.171  13.184  1.00  0.00     0.036 A 
HETATM    4  C12 UNL     1      -7.753   3.896  12.628  1.00  0.00     0.032 A 
HETATM    5  C13 UNL     1      -6.480   3.322  12.489  1.00  0.00     0.040 A 
HETATM    6  C14 UNL     1      -5.342   4.011  12.899  1.00  0.00     0.085 A 
ENDROOT
BRANCH   6   7
HETATM    7  O4  UNL     1      -4.061   3.551  12.815  1.00  0.00    -0.348 OA
BRANCH   7   8
HETATM    8  C15 UNL     1      -3.645   2.719  11.720  1.00  0.00     0.209 C 
BRANCH   8   9
HETATM    9  C16 UNL     1      -2.506   3.388  10.936  1.00  0.00     0.170 C 
BRANCH   9  10
HETATM   10  O5  UNL     1      -1.895   2.433  10.048  1.00  0.00    -0.392 OA
HETATM   11  H16 UNL     1      -2.173   2.694   9.142  1.00  0.00     0.210 HD
ENDBRANCH   9  10
BRANCH   9  12
HETATM   12  C17 UNL     1      -1.390   3.930  11.857  1.00  0.00     0.304 C 
BRANCH  12  13
HETATM   13  N2  UNL     1      -1.341   5.391  11.977  1.00  0.00     0.094 N 
HETATM   14  H19 UNL     1      -1.755   5.652  12.874  1.00  0.00     0.317 HD
BRANCH  13  15
HETATM   15  C18 UNL     1      -0.005   6.025  11.890  1.00  0.00     0.147 C 
HETATM   16  C19 UNL     1       0.020   7.102  10.788  1.00  0.00     0.048 C 
HETATM   17  C20 UNL     1       0.968   4.896  11.491  1.00  0.00     0.048 C 
HETATM   18  C21 UNL     1       0.475   6.629  13.221  1.00  0.00     0.048 C 
ENDBRANCH  13  15
ENDBRANCH  12  13
ENDBRANCH   9  12
ENDBRANCH   8   9
ENDBRANCH   7   8
ENDBRANCH   6   7
BRANCH   1  19
HETATM   19  C3  UNL     1      -4.350   6.074  13.889  1.00  0.00     0.296 C 
HETATM   20  O2  UNL     1      -3.844   6.016  14.997  1.00  0.00    -0.259 OA
BRANCH  19  21
HETATM   21  O1  UNL     1      -3.959   6.833  12.835  1.00  0.00    -0.318 OA
BRANCH  21  22
HETATM   22  C2  UNL     1      -3.971   8.250  13.049  1.00  0.00     0.174 C 
HETATM   23  C1  UNL     1      -2.591   8.832  12.803  1.00  0.00     0.034 C 
ENDBRANCH  21  22
ENDBRANCH  19  21
ENDBRANCH   1  19
BRANCH   3  24
HETATM   24  N1  UNL     1      -9.236   5.667  13.273  1.00  0.00    -0.322 N 
HETATM   25  C7  UNL     1      -9.675   6.798  13.955  1.00  0.00     0.263 C 
HETATM   26  O3  UNL     1      -8.945   7.509  14.640  1.00  0.00    -0.267 OA
HETATM   27  H7  UNL     1      -9.950   5.097  12.840  1.00  0.00     0.169 HD
BRANCH  25  28
HETATM   28  C8  UNL     1     -11.109   7.058  13.800  1.00  0.00     0.072 A 
HETATM   29  C9  UNL     1     -12.205   6.416  14.358  1.00  0.00     0.025 A 
HETATM   30  C10 UNL     1     -13.446   6.995  13.951  1.00  0.00     0.009 A 
HETATM   31  C11 UNL     1     -13.265   8.050  13.088  1.00  0.00     0.050 A 
HETATM   32  S1  UNL     1     -11.612   8.335  12.763  1.00  0.00    -0.097 SA
ENDBRANCH  25  28
ENDBRANCH   3  24
TORSDOF 12
ENDMDL
MODEL 4
REMARK minimizedAffinity -7.15701866
REMARK  12 active torsions:
REMARK  status: ('A' for Active; 'I' for Inactive)
REMARK    1  A    between atoms: C2_2  and  O1_3 
REMARK    2  A    between atoms: O1_3  and  C3_4 
REMARK    3  A    between atoms: C3_4  and  C4_6 
REMARK    4  A    between atoms: C6_8  and  N1_9 
REMARK       I    between atoms: N1_9  and  C7_10 
REMARK    5  A    between atoms: C7_10  and  C8_12 
REMARK    6  A    between atoms: C14_19  and  O4_20 
REMARK    7  A    between atoms: O4_20  and  C15_21 
REMARK    8  A    between atoms: C15_21  and  C16_22 
REMARK    9  A    between atoms: C16_22  and  O5_23 
REMARK   10  A    between atoms: C16_22  and  C17_24 
REMARK   11  A    between atoms: C17_24  and  N2_25 
REMARK   12  A    between atoms: N2_25  and  C18_26 
ROOT
HETATM    1  C4  UNL     1      -0.892   7.241  12.458  1.00  0.00     0.074 A 
HETATM    2  C5  UNL     1      -2.108   6.564  12.641  1.00  0.00     0.050 A 
HETATM    3  C6  UNL     1      -2.285   5.293  12.104  1.00  0.00     0.036 A 
HETATM    4  C12 UNL     1      -1.230   4.722  11.381  1.00  0.00     0.032 A 
HETATM    5  C13 UNL     1      -0.017   5.405  11.201  1.00  0.00     0.040 A 
HETATM    6  C14 UNL     1       0.168   6.677  11.737  1.00  0.00     0.085 A 
ENDROOT
BRANCH   6   7
HETATM    7  O4  UNL     1       1.301   7.427  11.628  1.00  0.00    -0.348 OA
BRANCH   7   8
HETATM    8  C15 UNL     1       2.527   7.010  12.249  1.00  0.00     0.209 C 
BRANCH   8   9
HETATM    9  C16 UNL     1       3.456   6.349  11.219  1.00  0.00     0.170 C 
BRANCH   9  10
HETATM   10  O5  UNL     1       4.810   6.347  11.711  1.00  0.00    -0.392 OA
HETATM   11  H16 UNL     1       5.011   5.412  11.939  1.00  0.00     0.210 HD
ENDBRANCH   9  10
BRANCH   9  12
HETATM   12  C17 UNL     1       3.466   7.094   9.865  1.00  0.00     0.304 C 
BRANCH  12  13
HETATM   13  N2  UNL     1       2.475   6.622   8.892  1.00  0.00     0.094 N 
HETATM   14  H19 UNL     1       1.682   6.233   9.407  1.00  0.00     0.317 HD
BRANCH  13  15
HETATM   15  C18 UNL     1       1.951   7.621   7.933  1.00  0.00     0.147 C 
HETATM   16  C19 UNL     1       1.816   7.010   6.524  1.00  0.00     0.048 C 
HETATM   17  C20 UNL     1       3.010   8.743   7.878  1.00  0.00     0.048 C 
HETATM   18  C21 UNL     1       0.611   8.241   8.364  1.00  0.00     0.048 C 
ENDBRANCH  13  15
ENDBRANCH  12  13
ENDBRANCH   9  12
ENDBRANCH   8   9
ENDBRANCH   7   8
ENDBRANCH   6   7
BRANCH   1  19
HETATM   19  C3  UNL     1      -0.766   8.591  13.035  1.00  0.00     0.296 C 
HETATM   20  O2  UNL     1      -1.150   9.617  12.498  1.00  0.00    -0.259 OA
BRANCH  19  21
HETATM   21  O1  UNL     1      -0.175   8.458  14.248  1.00  0.00    -0.318 OA
BRANCH  21  22
HETATM   22  C2  UNL     1      -0.953   8.891  15.371  1.00  0.00     0.174 C 
HETATM   23  C1  UNL     1      -0.451  10.231  15.876  1.00  0.00     0.034 C 
ENDBRANCH  21  22
ENDBRANCH  19  21
ENDBRANCH   1  19
BRANCH   3  24
HETATM   24  N1  UNL     1      -3.467   4.533  12.222  1.00  0.00    -0.322 N 
HETATM   25  C7  UNL     1      -4.089   3.769  11.238  1.00  0.00     0.263 C 
HETATM   26  O3  UNL     1      -3.697   3.700  10.077  1.00  0.00    -0.267 OA
HETATM   27  H7  UNL     1      -3.949   4.605  13.107  1.00  0.00     0.169 HD
BRANCH  25  28
HETATM   28  C8  UNL     1      -5.283   3.063  11.710  1.00  0.00     0.072 A 
HETATM   29  C9  UNL     1      -5.778   1.810  11.377  1.00  0.00     0.025 A 
HETATM   30  C10 UNL     1      -6.980   1.490  12.080  1.00  0.00     0.009 A 
HETATM   31  C11 UNL     1      -7.375   2.508  12.916  1.00  0.00     0.050 A 
HETATM   32  S1  UNL     1      -6.311   3.842  12.848  1.00  0.00    -0.097 SA
ENDBRANCH  25  28
ENDBRANCH   3  24
TORSDOF 12
ENDMDL
MODEL 5
REMARK minimizedAffinity -7.15580511
REMARK  12 active torsions:
REMARK  status: ('A' for Active; 'I' for Inactive)
REMARK    1  A    between atoms: C2_2  and  O1_3 
REMARK    2  A    between atoms: O1_3  and  C3_4 
REMARK    3  A    between atoms: C3_4  and  C4_6 
REMARK    4  A    between atoms: C6_8  and  N1_9 
REMARK       I    between atoms: N1_9  and  C7_10 
REMARK    5  A    between atoms: C7_10  and  C8_12 
REMARK    6  A    between atoms: C14_19  and  O4_20 
REMARK    7  A    between atoms: O4_20  and  C15_21 
REMARK    8  A    between atoms: C15_21  and  C16_22 
REMARK    9  A    between atoms: C16_22  and  O5_23 
REMARK   10  A    between atoms: C16_22  and  C17_24 
REMARK   11  A    between atoms: C17_24  and  N2_25 
REMARK   12  A    between atoms: N2_25  and  C18_26 
ROOT
HETATM    1  C4  UNL     1       1.403   6.238  10.866  1.00  0.00     0.074 A 
HETATM    2  C5  UNL     1       0.033   5.940  10.943  1.00  0.00     0.050 A 
HETATM    3  C6  UNL     1      -0.606   5.915  12.179  1.00  0.00     0.036 A 
HETATM    4  C12 UNL     1       0.151   6.184  13.326  1.00  0.00     0.032 A 
HETATM    5  C13 UNL     1       1.521   6.480  13.242  1.00  0.00     0.040 A 
HETATM    6  C14 UNL     1       2.166   6.509  12.009  1.00  0.00     0.085 A 
ENDROOT
BRANCH   6   7
HETATM    7  O4  UNL     1       3.486   6.788  11.810  1.00  0.00    -0.348 OA
BRANCH   7   8
HETATM    8  C15 UNL     1       4.117   7.893  12.476  1.00  0.00     0.209 C 
BRANCH   8   9
HETATM    9  C16 UNL     1       5.583   7.564  12.797  1.00  0.00     0.170 C 
BRANCH   9  10
HETATM   10  O5  UNL     1       5.854   6.182  12.494  1.00  0.00    -0.392 OA
HETATM   11  H16 UNL     1       6.420   6.190  11.690  1.00  0.00     0.210 HD
ENDBRANCH   9  10
BRANCH   9  12
HETATM   12  C17 UNL     1       5.926   7.777  14.289  1.00  0.00     0.304 C 
BRANCH  12  13
HETATM   13  N2  UNL     1       7.174   7.147  14.733  1.00  0.00     0.094 N 
HETATM   14  H19 UNL     1       7.430   6.429  14.051  1.00  0.00     0.317 HD
BRANCH  13  15
HETATM   15  C18 UNL     1       8.343   8.036  14.919  1.00  0.00     0.147 C 
HETATM   16  C19 UNL     1       9.055   7.734  16.253  1.00  0.00     0.048 C 
HETATM   17  C20 UNL     1       7.772   9.468  14.984  1.00  0.00     0.048 C 
HETATM   18  C21 UNL     1       9.354   7.970  13.761  1.00  0.00     0.048 C 
ENDBRANCH  13  15
ENDBRANCH  12  13
ENDBRANCH   9  12
ENDBRANCH   8   9
ENDBRANCH   7   8
ENDBRANCH   6   7
BRANCH   1  19
HETATM   19  C3  UNL     1       2.031   6.235   9.534  1.00  0.00     0.296 C 
HETATM   20  O2  UNL     1       2.672   5.307   9.067  1.00  0.00    -0.259 OA
BRANCH  19  21
HETATM   21  O1  UNL     1       1.742   7.423   8.949  1.00  0.00    -0.318 OA
BRANCH  21  22
HETATM   22  C2  UNL     1       2.490   7.735   7.767  1.00  0.00     0.174 C 
HETATM   23  C1  UNL     1       1.753   7.249   6.532  1.00  0.00     0.034 C 
ENDBRANCH  21  22
ENDBRANCH  19  21
ENDBRANCH   1  19
BRANCH   3  24
HETATM   24  N1  UNL     1      -1.972   5.618  12.366  1.00  0.00    -0.322 N 
HETATM   25  C7  UNL     1      -2.592   4.374  12.278  1.00  0.00     0.263 C 
HETATM   26  O3  UNL     1      -2.010   3.341  11.959  1.00  0.00    -0.267 OA
HETATM   27  H7  UNL     1      -2.576   6.412  12.521  1.00  0.00     0.169 HD
BRANCH  25  28
HETATM   28  C8  UNL     1      -4.025   4.410  12.580  1.00  0.00     0.072 A 
HETATM   29  C9  UNL     1      -5.032   3.506  12.274  1.00  0.00     0.025 A 
HETATM   30  C10 UNL     1      -6.309   3.919  12.766  1.00  0.00     0.009 A 
HETATM   31  C11 UNL     1      -6.244   5.127  13.420  1.00  0.00     0.050 A 
HETATM   32  S1  UNL     1      -4.658   5.763  13.432  1.00  0.00    -0.097 SA
ENDBRANCH  25  28
ENDBRANCH   3  24
TORSDOF 12
ENDMDL
MODEL 6
REMARK minimizedAffinity -7.07247257
REMARK  12 active torsions:
REMARK  status: ('A' for Active; 'I' for Inactive)
REMARK    1  A    between atoms: C2_2  and  O1_3 
REMARK    2  A    between atoms: O1_3  and  C3_4 
REMARK    3  A    between atoms: C3_4  and  C4_6 
REMARK    4  A    between atoms: C6_8  and  N1_9 
REMARK       I    between atoms: N1_9  and  C7_10 
REMARK    5  A    between atoms: C7_10  and  C8_12 
REMARK    6  A    between atoms: C14_19  and  O4_20 
REMARK    7  A    between atoms: O4_20  and  C15_21 
REMARK    8  A    between atoms: C15_21  and  C16_22 
REMARK    9  A    between atoms: C16_22  and  O5_23 
REMARK   10  A    between atoms: C16_22  and  C17_24 
REMARK   11  A    between atoms: C17_24  and  N2_25 
REMARK   12  A    between atoms: N2_25  and  C18_26 
ROOT
HETATM    1  C4  UNL     1      -4.440   5.267  13.271  1.00  0.00     0.074 A 
HETATM    2  C5  UNL     1      -3.300   5.430  12.467  1.00  0.00     0.050 A 
HETATM    3  C6  UNL     1      -2.266   6.261  12.886  1.00  0.00     0.036 A 
HETATM    4  C12 UNL     1      -2.400   6.926  14.111  1.00  0.00     0.032 A 
HETATM    5  C13 UNL     1      -3.542   6.760  14.910  1.00  0.00     0.040 A 
HETATM    6  C14 UNL     1      -4.581   5.928  14.498  1.00  0.00     0.085 A 
ENDROOT
BRANCH   6   7
HETATM    7  O4  UNL     1      -5.730   5.690  15.191  1.00  0.00    -0.348 OA
BRANCH   7   8
HETATM    8  C15 UNL     1      -6.584   6.770  15.600  1.00  0.00     0.209 C 
BRANCH   8   9
HETATM    9  C16 UNL     1      -7.998   6.255  15.908  1.00  0.00     0.170 C 
BRANCH   9  10
HETATM   10  O5  UNL     1      -8.164   4.928  15.370  1.00  0.00    -0.392 OA
HETATM   11  H16 UNL     1      -8.178   4.325  16.146  1.00  0.00     0.210 HD
ENDBRANCH   9  10
BRANCH   9  12
HETATM   12  C17 UNL     1      -9.101   7.139  15.282  1.00  0.00     0.304 C 
BRANCH  12  13
HETATM   13  N2  UNL     1     -10.395   6.474  15.093  1.00  0.00     0.094 N 
HETATM   14  H19 UNL     1     -10.795   6.285  16.015  1.00  0.00     0.317 HD
BRANCH  13  15
HETATM   15  C18 UNL     1     -11.410   7.199  14.296  1.00  0.00     0.147 C 
HETATM   16  C19 UNL     1     -11.702   8.583  14.909  1.00  0.00     0.048 C 
HETATM   17  C20 UNL     1     -12.694   6.347  14.380  1.00  0.00     0.048 C 
HETATM   18  C21 UNL     1     -11.029   7.355  12.814  1.00  0.00     0.048 C 
ENDBRANCH  13  15
ENDBRANCH  12  13
ENDBRANCH   9  12
ENDBRANCH   8   9
ENDBRANCH   7   8
ENDBRANCH   6   7
BRANCH   1  19
HETATM   19  C3  UNL     1      -5.511   4.388  12.771  1.00  0.00     0.296 C 
HETATM   20  O2  UNL     1      -6.690   4.693  12.705  1.00  0.00    -0.259 OA
BRANCH  19  21
HETATM   21  O1  UNL     1      -4.932   3.221  12.394  1.00  0.00    -0.318 OA
BRANCH  21  22
HETATM   22  C2  UNL     1      -5.359   2.690  11.134  1.00  0.00     0.174 C 
HETATM   23  C1  UNL     1      -6.040   1.348  11.330  1.00  0.00     0.034 C 
ENDBRANCH  21  22
ENDBRANCH  19  21
ENDBRANCH   1  19
BRANCH   3  24
HETATM   24  N1  UNL     1      -1.086   6.500  12.151  1.00  0.00    -0.322 N 
HETATM   25  C7  UNL     1      -0.447   5.639  11.265  1.00  0.00     0.263 C 
HETATM   26  O3  UNL     1      -0.818   4.489  11.042  1.00  0.00    -0.267 OA
HETATM   27  H7  UNL     1      -0.622   7.377  12.340  1.00  0.00     0.169 HD
BRANCH  25  28
HETATM   28  C8  UNL     1       0.737   6.222  10.629  1.00  0.00     0.072 A 
HETATM   29  C9  UNL     1       1.998   5.685  10.410  1.00  0.00     0.025 A 
HETATM   30  C10 UNL     1       2.874   6.594   9.741  1.00  0.00     0.009 A 
HETATM   31  C11 UNL     1       2.264   7.799   9.480  1.00  0.00     0.050 A 
HETATM   32  S1  UNL     1       0.653   7.838  10.046  1.00  0.00    -0.097 SA
ENDBRANCH  25  28
ENDBRANCH   3  24
TORSDOF 12
ENDMDL
MODEL 7
REMARK minimizedAffinity -7.05081463
REMARK  12 active torsions:
REMARK  status: ('A' for Active; 'I' for Inactive)
REMARK    1  A    between atoms: C2_2  and  O1_3 
REMARK    2  A    between atoms: O1_3  and  C3_4 
REMARK    3  A    between atoms: C3_4  and  C4_6 
REMARK    4  A    between atoms: C6_8  and  N1_9 
REMARK       I    between atoms: N1_9  and  C7_10 
REMARK    5  A    between atoms: C7_10  and  C8_12 
REMARK    6  A    between atoms: C14_19  and  O4_20 
REMARK    7  A    between atoms: O4_20  and  C15_21 
REMARK    8  A    between atoms: C15_21  and  C16_22 
REMARK    9  A    between atoms: C16_22  and  O5_23 
REMARK   10  A    between atoms: C16_22  and  C17_24 
REMARK   11  A    between atoms: C17_24  and  N2_25 
REMARK   12  A    between atoms: N2_25  and  C18_26 
ROOT
HETATM    1  C4  UNL     1      -2.716   4.317  12.257  1.00  0.00     0.074 A 
HETATM    2  C5  UNL     1      -3.982   4.618  12.784  1.00  0.00     0.050 A 
HETATM    3  C6  UNL     1      -4.135   5.690  13.658  1.00  0.00     0.036 A 
HETATM    4  C12 UNL     1      -3.004   6.442  13.995  1.00  0.00     0.032 A 
HETATM    5  C13 UNL     1      -1.740   6.135  13.466  1.00  0.00     0.040 A 
HETATM    6  C14 UNL     1      -1.579   5.065  12.589  1.00  0.00     0.085 A 
ENDROOT
BRANCH   6   7
HETATM    7  O4  UNL     1      -0.405   4.680  12.014  1.00  0.00    -0.348 OA
BRANCH   7   8
HETATM    8  C15 UNL     1       0.186   5.449  10.954  1.00  0.00     0.209 C 
BRANCH   8   9
HETATM    9  C16 UNL     1       1.679   5.691  11.230  1.00  0.00     0.170 C 
BRANCH   9  10
HETATM   10  O5  UNL     1       1.869   6.056  12.611  1.00  0.00    -0.392 OA
HETATM   11  H16 UNL     1       2.298   5.280  13.036  1.00  0.00     0.210 HD
ENDBRANCH   9  10
BRANCH   9  12
HETATM   12  C17 UNL     1       2.262   6.837  10.373  1.00  0.00     0.304 C 
BRANCH  12  13
HETATM   13  N2  UNL     1       2.408   6.530   8.946  1.00  0.00     0.094 N 
HETATM   14  H19 UNL     1       1.831   5.713   8.735  1.00  0.00     0.317 HD
BRANCH  13  15
HETATM   15  C18 UNL     1       2.046   7.603   7.991  1.00  0.00     0.147 C 
HETATM   16  C19 UNL     1       3.111   8.718   7.991  1.00  0.00     0.048 C 
HETATM   17  C20 UNL     1       0.719   8.195   8.511  1.00  0.00     0.048 C 
HETATM   18  C21 UNL     1       1.820   7.096   6.556  1.00  0.00     0.048 C 
ENDBRANCH  13  15
ENDBRANCH  12  13
ENDBRANCH   9  12
ENDBRANCH   8   9
ENDBRANCH   7   8
ENDBRANCH   6   7
BRANCH   1  19
HETATM   19  C3  UNL     1      -2.609   3.162  11.349  1.00  0.00     0.296 C 
HETATM   20  O2  UNL     1      -1.560   2.650  10.994  1.00  0.00    -0.259 OA
BRANCH  19  21
HETATM   21  O1  UNL     1      -3.870   2.789  11.021  1.00  0.00    -0.318 OA
BRANCH  21  22
HETATM   22  C2  UNL     1      -4.298   1.520  11.530  1.00  0.00     0.174 C 
HETATM   23  C1  UNL     1      -5.766   1.293  11.220  1.00  0.00     0.034 C 
ENDBRANCH  21  22
ENDBRANCH  19  21
ENDBRANCH   1  19
BRANCH   3  24
HETATM   24  N1  UNL     1      -5.358   6.069  14.249  1.00  0.00    -0.322 N 
HETATM   25  C7  UNL     1      -6.081   7.240  14.034  1.00  0.00     0.263 C 
HETATM   26  O3  UNL     1      -5.699   8.155  13.309  1.00  0.00    -0.267 OA
HETATM   27  H7  UNL     1      -5.717   5.443  14.956  1.00  0.00     0.169 HD
BRANCH  25  28
HETATM   28  C8  UNL     1      -7.343   7.297  14.775  1.00  0.00     0.072 A 
HETATM   29  C9  UNL     1      -7.645   7.889  15.993  1.00  0.00     0.025 A 
HETATM   30  C10 UNL     1      -9.015   7.718  16.362  1.00  0.00     0.009 A 
HETATM   31  C11 UNL     1      -9.714   6.992  15.426  1.00  0.00     0.050 A 
HETATM   32  S1  UNL     1      -8.725   6.512  14.119  1.00  0.00    -0.097 SA
ENDBRANCH  25  28
ENDBRANCH   3  24
TORSDOF 12
ENDMDL
MODEL 8
REMARK minimizedAffinity -6.96381855
REMARK  12 active torsions:
REMARK  status: ('A' for Active; 'I' for Inactive)
REMARK    1  A    between atoms: C2_2  and  O1_3 
REMARK    2  A    between atoms: O1_3  and  C3_4 
REMARK    3  A    between atoms: C3_4  and  C4_6 
REMARK    4  A    between atoms: C6_8  and  N1_9 
REMARK       I    between atoms: N1_9  and  C7_10 
REMARK    5  A    between atoms: C7_10  and  C8_12 
REMARK    6  A    between atoms: C14_19  and  O4_20 
REMARK    7  A    between atoms: O4_20  and  C15_21 
REMARK    8  A    between atoms: C15_21  and  C16_22 
REMARK    9  A    between atoms: C16_22  and  O5_23 
REMARK   10  A    between atoms: C16_22  and  C17_24 
REMARK   11  A    between atoms: C17_24  and  N2_25 
REMARK   12  A    between atoms: N2_25  and  C18_26 
ROOT
HETATM    1  C4  UNL     1      -6.004   5.296  13.761  1.00  0.00     0.074 A 
HETATM    2  C5  UNL     1      -4.771   5.226  13.092  1.00  0.00     0.050 A 
HETATM    3  C6  UNL     1      -3.659   5.881  13.610  1.00  0.00     0.036 A 
HETATM    4  C12 UNL     1      -3.807   6.607  14.798  1.00  0.00     0.032 A 
HETATM    5  C13 UNL     1      -5.042   6.675  15.463  1.00  0.00     0.040 A 
HETATM    6  C14 UNL     1      -6.159   6.020  14.951  1.00  0.00     0.085 A 
ENDROOT
BRANCH   6   7
HETATM    7  O4  UNL     1      -7.402   6.014  15.511  1.00  0.00    -0.348 OA
BRANCH   7   8
HETATM    8  C15 UNL     1      -7.745   6.935  16.558  1.00  0.00     0.209 C 
BRANCH   8   9
HETATM    9  C16 UNL     1      -8.828   7.916  16.082  1.00  0.00     0.170 C 
BRANCH   9  10
HETATM   10  O5  UNL     1      -9.834   8.069  17.101  1.00  0.00    -0.392 OA
HETATM   11  H16 UNL     1      -9.706   8.970  17.471  1.00  0.00     0.210 HD
ENDBRANCH   9  10
BRANCH   9  12
HETATM   12  C17 UNL     1      -9.547   7.431  14.803  1.00  0.00     0.304 C 
BRANCH  12  13
HETATM   13  N2  UNL     1     -10.777   6.666  15.037  1.00  0.00     0.094 N 
HETATM   14  H19 UNL     1     -10.950   6.641  16.044  1.00  0.00     0.317 HD
BRANCH  13  15
HETATM   15  C18 UNL     1     -12.006   7.158  14.375  1.00  0.00     0.147 C 
HETATM   16  C19 UNL     1     -13.062   6.039  14.278  1.00  0.00     0.048 C 
HETATM   17  C20 UNL     1     -11.581   7.553  12.945  1.00  0.00     0.048 C 
HETATM   18  C21 UNL     1     -12.617   8.395  15.056  1.00  0.00     0.048 C 
ENDBRANCH  13  15
ENDBRANCH  12  13
ENDBRANCH   9  12
ENDBRANCH   8   9
ENDBRANCH   7   8
ENDBRANCH   6   7
BRANCH   1  19
HETATM   19  C3  UNL     1      -7.152   4.597  13.159  1.00  0.00     0.296 C 
HETATM   20  O2  UNL     1      -7.946   5.102  12.382  1.00  0.00    -0.259 OA
BRANCH  19  21
HETATM   21  O1  UNL     1      -7.131   3.320  13.614  1.00  0.00    -0.318 OA
BRANCH  21  22
HETATM   22  C2  UNL     1      -7.522   2.315  12.671  1.00  0.00     0.174 C 
HETATM   23  C1  UNL     1      -6.360   1.962  11.762  1.00  0.00     0.034 C 
ENDBRANCH  21  22
ENDBRANCH  19  21
ENDBRANCH   1  19
BRANCH   3  24
HETATM   24  N1  UNL     1      -2.382   5.881  13.012  1.00  0.00    -0.322 N 
HETATM   25  C7  UNL     1      -1.814   4.889  12.217  1.00  0.00     0.263 C 
HETATM   26  O3  UNL     1      -2.359   3.817  11.970  1.00  0.00    -0.267 OA
HETATM   27  H7  UNL     1      -1.791   6.668  13.240  1.00  0.00     0.169 HD
BRANCH  25  28
HETATM   28  C8  UNL     1      -0.482   5.231  11.713  1.00  0.00     0.072 A 
HETATM   29  C9  UNL     1       0.665   4.458  11.605  1.00  0.00     0.025 A 
HETATM   30  C10 UNL     1       1.763   5.180  11.045  1.00  0.00     0.009 A 
HETATM   31  C11 UNL     1       1.430   6.482  10.754  1.00  0.00     0.050 A 
HETATM   32  S1  UNL     1      -0.191   6.834  11.162  1.00  0.00    -0.097 SA
ENDBRANCH  25  28
ENDBRANCH   3  24
TORSDOF 12
ENDMDL
MODEL 9
REMARK minimizedAffinity -6.94862413
REMARK  12 active torsions:
REMARK  status: ('A' for Active; 'I' for Inactive)
REMARK    1  A    between atoms: C2_2  and  O1_3 
REMARK    2  A    between atoms: O1_3  and  C3_4 
REMARK    3  A    between atoms: C3_4  and  C4_6 
REMARK    4  A    between atoms: C6_8  and  N1_9 
REMARK       I    between atoms: N1_9  and  C7_10 
REMARK    5  A    between atoms: C7_10  and  C8_12 
REMARK    6  A    between atoms: C14_19  and  O4_20 
REMARK    7  A    between atoms: O4_20  and  C15_21 
REMARK    8  A    between atoms: C15_21  and  C16_22 
REMARK    9  A    between atoms: C16_22  and  O5_23 
REMARK   10  A    between atoms: C16_22  and  C17_24 
REMARK   11  A    between atoms: C17_24  and  N2_25 
REMARK   12  A    between atoms: N2_25  and  C18_26 
ROOT
HETATM    1  C4  UNL     1      -4.321   4.398  12.733  1.00  0.00     0.074 A 
HETATM    2  C5  UNL     1      -5.594   4.907  13.037  1.00  0.00     0.050 A 
HETATM    3  C6  UNL     1      -5.717   6.118  13.710  1.00  0.00     0.036 A 
HETATM    4  C12 UNL     1      -4.549   6.800  14.075  1.00  0.00     0.032 A 
HETATM    5  C13 UNL     1      -3.279   6.285  13.769  1.00  0.00     0.040 A 
HETATM    6  C14 UNL     1      -3.148   5.074  13.094  1.00  0.00     0.085 A 
ENDROOT
BRANCH   6   7
HETATM    7  O4  UNL     1      -1.970   4.484  12.744  1.00  0.00    -0.348 OA
BRANCH   7   8
HETATM    8  C15 UNL     1      -0.793   5.270  12.501  1.00  0.00     0.209 C 
BRANCH   8   9
HETATM    9  C16 UNL     1      -0.179   4.917  11.137  1.00  0.00     0.170 C 
BRANCH   9  10
HETATM   10  O5  UNL     1       0.288   3.554  11.149  1.00  0.00    -0.392 OA
HETATM   11  H16 UNL     1      -0.338   3.053  10.579  1.00  0.00     0.210 HD
ENDBRANCH   9  10
BRANCH   9  12
HETATM   12  C17 UNL     1       1.033   5.809  10.783  1.00  0.00     0.304 C 
BRANCH  12  13
HETATM   13  N2  UNL     1       2.343   5.176  10.971  1.00  0.00     0.094 N 
HETATM   14  H19 UNL     1       2.201   4.167  11.053  1.00  0.00     0.317 HD
BRANCH  13  15
HETATM   15  C18 UNL     1       3.356   5.411   9.918  1.00  0.00     0.147 C 
HETATM   16  C19 UNL     1       4.528   6.252  10.462  1.00  0.00     0.048 C 
HETATM   17  C20 UNL     1       2.638   6.227   8.822  1.00  0.00     0.048 C 
HETATM   18  C21 UNL     1       3.893   4.117   9.284  1.00  0.00     0.048 C 
ENDBRANCH  13  15
ENDBRANCH  12  13
ENDBRANCH   9  12
ENDBRANCH   8   9
ENDBRANCH   7   8
ENDBRANCH   6   7
BRANCH   1  19
HETATM   19  C3  UNL     1      -4.249   3.103  12.034  1.00  0.00     0.296 C 
HETATM   20  O2  UNL     1      -3.324   2.314  12.123  1.00  0.00    -0.259 OA
BRANCH  19  21
HETATM   21  O1  UNL     1      -5.392   2.969  11.317  1.00  0.00    -0.318 OA
BRANCH  21  22
HETATM   22  C2  UNL     1      -6.040   1.694  11.409  1.00  0.00     0.174 C 
HETATM   23  C1  UNL     1      -7.218   1.768  12.364  1.00  0.00     0.034 C 
ENDBRANCH  21  22
ENDBRANCH  19  21
ENDBRANCH   1  19
BRANCH   3  24
HETATM   24  N1  UNL     1      -6.945   6.710  14.070  1.00  0.00    -0.322 N 
HETATM   25  C7  UNL     1      -8.227   6.220  13.837  1.00  0.00     0.263 C 
HETATM   26  O3  UNL     1      -8.461   5.189  13.211  1.00  0.00    -0.267 OA
HETATM   27  H7  UNL     1      -6.884   7.626  14.493  1.00  0.00     0.169 HD
BRANCH  25  28
HETATM   28  C8  UNL     1      -9.289   7.064  14.389  1.00  0.00     0.072 A 
HETATM   29  C9  UNL     1      -9.333   7.802  15.563  1.00  0.00     0.025 A 
HETATM   30  C10 UNL     1     -10.568   8.502  15.726  1.00  0.00     0.009 A 
HETATM   31  C11 UNL     1     -11.434   8.271  14.683  1.00  0.00     0.050 A 
HETATM   32  S1  UNL     1     -10.767   7.210  13.521  1.00  0.00    -0.097 SA
ENDBRANCH  25  28
ENDBRANCH   3  24
TORSDOF 12
ENDMDL
