MODEL 1
REMARK minimizedAffinity -9.59276962
REMARK  9 active torsions:
REMARK  status: ('A' for Active; 'I' for Inactive)
REMARK    1  A    between atoms: C2_2  and  C3_3 
REMARK    2  A    between atoms: C2_2  and  C9_12 
REMARK    3  A    between atoms: C3_3  and  C4_4 
REMARK    4  A    between atoms: C4_4  and  C5_5 
REMARK    5  A    between atoms: C5_5  and  O1_6 
REMARK    6  A    between atoms: C5_5  and  C6_7 
REMARK    7  A    between atoms: C6_7  and  O2_9 
REMARK    8  A    between atoms: C6_7  and  C8_10 
REMARK    9  A    between atoms: C8_10  and  O3_11 
ROOT
HETATM    1  C9  UNL     1      -5.441  48.466 -22.212  1.00  0.00    -0.002 C 
HETATM    2  C10 UNL     1      -4.254  47.577 -21.785  1.00  0.00     0.007 C 
HETATM    3  C11 UNL     1      -2.966  48.360 -22.019  1.00  0.00     0.015 C 
HETATM    4  C12 UNL     1      -3.369  49.790 -22.437  1.00  0.00    -0.005 C 
HETATM    5  C13 UNL     1      -3.508  50.681 -21.170  1.00  0.00     0.021 C 
HETATM    6  C14 UNL     1      -2.316  50.384 -23.392  1.00  0.00    -0.000 C 
HETATM    7  C15 UNL     1      -2.505  50.564 -24.723  1.00  0.00    -0.060 C 
HETATM    8  C16 UNL     1      -3.766  50.055 -25.397  1.00  0.00     0.036 C 
HETATM    9  C17 UNL     1      -4.569  49.061 -24.561  1.00  0.00     0.015 C 
HETATM   10  C18 UNL     1      -4.783  49.564 -23.119  1.00  0.00    -0.028 C 
HETATM   11  C19 UNL     1      -5.616  50.868 -23.144  1.00  0.00     0.016 C 
HETATM   12  C20 UNL     1      -1.457  51.240 -25.647  1.00  0.00    -0.014 C 
HETATM   13  C21 UNL     1      -0.618  50.093 -26.255  1.00  0.00     0.020 C 
HETATM   14  C22 UNL     1      -2.141  52.046 -26.784  1.00  0.00     0.021 C 
HETATM   15  C23 UNL     1      -1.168  52.857 -27.624  1.00  0.00     0.080 C 
HETATM   16  C24 UNL     1      -0.400  53.823 -26.760  1.00  0.00     0.135 C 
HETATM   17  O4  UNL     1      -0.288  55.000 -27.105  1.00  0.00    -0.297 OA
HETATM   18  C25 UNL     1       0.310  53.255 -25.521  1.00  0.00     0.018 C 
HETATM   19  C26 UNL     1       0.636  54.445 -24.581  1.00  0.00     0.023 C 
HETATM   20  C27 UNL     1       1.652  52.662 -25.976  1.00  0.00     0.023 C 
HETATM   21  C28 UNL     1      -0.647  52.260 -24.776  1.00  0.00     0.020 C 
HETATM   22  C29 UNL     1       0.021  51.529 -23.611  1.00  0.00     0.090 C 
HETATM   23  C30 UNL     1      -0.959  50.699 -22.816  1.00  0.00     0.157 C 
HETATM   24  O5  UNL     1      -0.612  50.243 -21.727  1.00  0.00    -0.293 OA
ENDROOT
BRANCH   1  25
HETATM   25  C2  UNL     1      -6.630  47.612 -22.763  1.00  0.00    -0.014 C 
HETATM   26  C1  UNL     1      -6.707  46.225 -22.114  1.00  0.00     0.010 C 
BRANCH  25  27
HETATM   27  C3  UNL     1      -6.515  47.468 -24.310  1.00  0.00     0.007 C 
BRANCH  27  28
HETATM   28  C4  UNL     1      -7.858  47.237 -25.020  1.00  0.00     0.035 C 
BRANCH  28  29
HETATM   29  C5  UNL     1      -8.865  48.399 -24.915  1.00  0.00     0.154 C 
BRANCH  29  30
HETATM   30  O1  UNL     1      -8.144  49.558 -24.466  1.00  0.00    -0.392 OA
HETATM   31  H10 UNL     1      -8.814  50.266 -24.339  1.00  0.00     0.210 HD
ENDBRANCH  29  30
BRANCH  29  32
HETATM   32  C6  UNL     1      -9.657  48.764 -26.208  1.00  0.00     0.101 C 
HETATM   33  C7  UNL     1      -8.947  48.326 -27.487  1.00  0.00     0.051 C 
BRANCH  32  34
HETATM   34  O2  UNL     1      -9.850  50.190 -26.262  1.00  0.00    -0.385 OA
HETATM   35  H14 UNL     1      -9.807  50.495 -25.333  1.00  0.00     0.210 HD
ENDBRANCH  32  34
BRANCH  32  36
HETATM   36  C8  UNL     1     -11.068  48.133 -26.171  1.00  0.00     0.204 C 
BRANCH  36  37
HETATM   37  O3  UNL     1     -12.002  48.956 -26.877  1.00  0.00    -0.398 OA
HETATM   38  H17 UNL     1     -11.770  48.849 -27.821  1.00  0.00     0.209 HD
ENDBRANCH  36  37
ENDBRANCH  32  36
ENDBRANCH  29  32
ENDBRANCH  28  29
ENDBRANCH  27  28
ENDBRANCH  25  27
ENDBRANCH   1  25
TORSDOF 9
ENDMDL
MODEL 2
REMARK minimizedAffinity -9.53444195
REMARK  9 active torsions:
REMARK  status: ('A' for Active; 'I' for Inactive)
REMARK    1  A    between atoms: C2_2  and  C3_3 
REMARK    2  A    between atoms: C2_2  and  C9_12 
REMARK    3  A    between atoms: C3_3  and  C4_4 
REMARK    4  A    between atoms: C4_4  and  C5_5 
REMARK    5  A    between atoms: C5_5  and  O1_6 
REMARK    6  A    between atoms: C5_5  and  C6_7 
REMARK    7  A    between atoms: C6_7  and  O2_9 
REMARK    8  A    between atoms: C6_7  and  C8_10 
REMARK    9  A    between atoms: C8_10  and  O3_11 
ROOT
HETATM    1  C9  UNL     1      -0.150  50.817 -21.352  1.00  0.00    -0.002 C 
HETATM    2  C10 UNL     1      -0.326  50.637 -19.829  1.00  0.00     0.007 C 
HETATM    3  C11 UNL     1      -1.520  49.718 -19.594  1.00  0.00     0.015 C 
HETATM    4  C12 UNL     1      -1.980  49.203 -20.974  1.00  0.00    -0.005 C 
HETATM    5  C13 UNL     1      -1.224  47.888 -21.316  1.00  0.00     0.021 C 
HETATM    6  C14 UNL     1      -3.501  48.955 -20.972  1.00  0.00    -0.000 C 
HETATM    7  C15 UNL     1      -4.405  49.741 -21.609  1.00  0.00    -0.060 C 
HETATM    8  C16 UNL     1      -3.967  51.030 -22.281  1.00  0.00     0.036 C 
HETATM    9  C17 UNL     1      -2.575  51.509 -21.875  1.00  0.00     0.015 C 
HETATM   10  C18 UNL     1      -1.533  50.373 -21.945  1.00  0.00    -0.028 C 
HETATM   11  C19 UNL     1      -1.403  49.881 -23.407  1.00  0.00     0.016 C 
HETATM   12  C20 UNL     1      -5.923  49.422 -21.658  1.00  0.00    -0.014 C 
HETATM   13  C21 UNL     1      -6.563  50.201 -20.487  1.00  0.00     0.020 C 
HETATM   14  C22 UNL     1      -6.556  49.884 -22.999  1.00  0.00     0.021 C 
HETATM   15  C23 UNL     1      -8.004  49.456 -23.167  1.00  0.00     0.080 C 
HETATM   16  C24 UNL     1      -8.126  47.957 -23.082  1.00  0.00     0.135 C 
HETATM   17  O4  UNL     1      -8.782  47.345 -23.926  1.00  0.00    -0.297 OA
HETATM   18  C25 UNL     1      -7.504  47.263 -21.859  1.00  0.00     0.018 C 
HETATM   19  C26 UNL     1      -7.360  45.757 -22.198  1.00  0.00     0.023 C 
HETATM   20  C27 UNL     1      -8.503  47.368 -20.697  1.00  0.00     0.023 C 
HETATM   21  C28 UNL     1      -6.082  47.866 -21.580  1.00  0.00     0.020 C 
HETATM   22  C29 UNL     1      -5.441  47.343 -20.294  1.00  0.00     0.090 C 
HETATM   23  C30 UNL     1      -4.016  47.815 -20.130  1.00  0.00     0.157 C 
HETATM   24  O5  UNL     1      -3.308  47.294 -19.269  1.00  0.00    -0.293 OA
ENDROOT
BRANCH   1  25
HETATM   25  C2  UNL     1       0.431  52.227 -21.700  1.00  0.00    -0.014 C 
HETATM   26  C1  UNL     1       0.142  53.266 -20.611  1.00  0.00     0.010 C 
BRANCH  25  27
HETATM   27  C3  UNL     1      -0.135  52.718 -23.066  1.00  0.00     0.007 C 
BRANCH  27  28
HETATM   28  C4  UNL     1       0.898  52.737 -24.203  1.00  0.00     0.035 C 
BRANCH  28  29
HETATM   29  C5  UNL     1       0.309  52.736 -25.627  1.00  0.00     0.154 C 
BRANCH  29  30
HETATM   30  O1  UNL     1       0.464  54.062 -26.160  1.00  0.00    -0.392 OA
HETATM   31  H10 UNL     1       0.021  54.058 -27.038  1.00  0.00     0.210 HD
ENDBRANCH  29  30
BRANCH  29  32
HETATM   32  C6  UNL     1       0.908  51.710 -26.637  1.00  0.00     0.101 C 
HETATM   33  C7  UNL     1       0.843  52.190 -28.085  1.00  0.00     0.051 C 
BRANCH  32  34
HETATM   34  O2  UNL     1       0.188  50.468 -26.537  1.00  0.00    -0.385 OA
HETATM   35  H14 UNL     1      -0.187  50.454 -25.634  1.00  0.00     0.210 HD
ENDBRANCH  32  34
BRANCH  32  36
HETATM   36  C8  UNL     1       2.377  51.394 -26.273  1.00  0.00     0.204 C 
BRANCH  36  37
HETATM   37  O3  UNL     1       3.216  51.523 -27.426  1.00  0.00    -0.398 OA
HETATM   38  H17 UNL     1       3.265  52.485 -27.596  1.00  0.00     0.209 HD
ENDBRANCH  36  37
ENDBRANCH  32  36
ENDBRANCH  29  32
ENDBRANCH  28  29
ENDBRANCH  27  28
ENDBRANCH  25  27
ENDBRANCH   1  25
TORSDOF 9
ENDMDL
MODEL 3
REMARK minimizedAffinity -9.28017521
REMARK  9 active torsions:
REMARK  status: ('A' for Active; 'I' for Inactive)
REMARK    1  A    between atoms: C2_2  and  C3_3 
REMARK    2  A    between atoms: C2_2  and  C9_12 
REMARK    3  A    between atoms: C3_3  and  C4_4 
REMARK    4  A    between atoms: C4_4  and  C5_5 
REMARK    5  A    between atoms: C5_5  and  O1_6 
REMARK    6  A    between atoms: C5_5  and  C6_7 
REMARK    7  A    between atoms: C6_7  and  O2_9 
REMARK    8  A    between atoms: C6_7  and  C8_10 
REMARK    9  A    between atoms: C8_10  and  O3_11 
ROOT
HETATM    1  C9  UNL     1      -2.694  50.776 -23.006  1.00  0.00    -0.002 C 
HETATM    2  C10 UNL     1      -3.049  50.936 -21.513  1.00  0.00     0.007 C 
HETATM    3  C11 UNL     1      -3.760  49.666 -21.056  1.00  0.00     0.015 C 
HETATM    4  C12 UNL     1      -3.698  48.661 -22.225  1.00  0.00    -0.005 C 
HETATM    5  C13 UNL     1      -2.406  47.804 -22.105  1.00  0.00     0.021 C 
HETATM    6  C14 UNL     1      -4.941  47.751 -22.213  1.00  0.00    -0.000 C 
HETATM    7  C15 UNL     1      -5.962  47.837 -23.102  1.00  0.00    -0.060 C 
HETATM    8  C16 UNL     1      -6.000  48.961 -24.123  1.00  0.00     0.036 C 
HETATM    9  C17 UNL     1      -5.044  50.113 -23.827  1.00  0.00     0.015 C 
HETATM   10  C18 UNL     1      -3.624  49.610 -23.492  1.00  0.00    -0.028 C 
HETATM   11  C19 UNL     1      -3.034  48.874 -24.720  1.00  0.00     0.016 C 
HETATM   12  C20 UNL     1      -7.163  46.855 -23.117  1.00  0.00    -0.014 C 
HETATM   13  C21 UNL     1      -8.274  47.524 -22.277  1.00  0.00     0.020 C 
HETATM   14  C22 UNL     1      -7.678  46.610 -24.561  1.00  0.00     0.021 C 
HETATM   15  C23 UNL     1      -8.749  45.536 -24.651  1.00  0.00     0.080 C 
HETATM   16  C24 UNL     1      -8.235  44.229 -24.107  1.00  0.00     0.135 C 
HETATM   17  O4  UNL     1      -8.403  43.189 -24.746  1.00  0.00    -0.297 OA
HETATM   18  C25 UNL     1      -7.610  44.242 -22.703  1.00  0.00     0.018 C 
HETATM   19  C26 UNL     1      -6.780  42.941 -22.547  1.00  0.00     0.023 C 
HETATM   20  C27 UNL     1      -8.750  44.171 -21.677  1.00  0.00     0.023 C 
HETATM   21  C28 UNL     1      -6.656  45.480 -22.564  1.00  0.00     0.020 C 
HETATM   22  C29 UNL     1      -6.099  45.664 -21.152  1.00  0.00     0.090 C 
HETATM   23  C30 UNL     1      -5.065  46.762 -21.081  1.00  0.00     0.157 C 
HETATM   24  O5  UNL     1      -4.373  46.868 -20.069  1.00  0.00    -0.293 OA
ENDROOT
BRANCH   1  25
HETATM   25  C2  UNL     1      -2.716  52.151 -23.752  1.00  0.00    -0.014 C 
HETATM   26  C1  UNL     1      -3.659  52.150 -24.961  1.00  0.00     0.010 C 
BRANCH  25  27
HETATM   27  C3  UNL     1      -1.277  52.540 -24.202  1.00  0.00     0.007 C 
BRANCH  27  28
HETATM   28  C4  UNL     1      -1.117  52.702 -25.722  1.00  0.00     0.035 C 
BRANCH  28  29
HETATM   29  C5  UNL     1       0.331  52.889 -26.215  1.00  0.00     0.154 C 
BRANCH  29  30
HETATM   30  O1  UNL     1       1.127  53.280 -25.083  1.00  0.00    -0.392 OA
HETATM   31  H10 UNL     1       2.028  53.462 -25.431  1.00  0.00     0.210 HD
ENDBRANCH  29  30
BRANCH  29  32
HETATM   32  C6  UNL     1       1.004  51.664 -26.908  1.00  0.00     0.101 C 
HETATM   33  C7  UNL     1       1.038  51.784 -28.430  1.00  0.00     0.051 C 
BRANCH  32  34
HETATM   34  O2  UNL     1       0.283  50.467 -26.562  1.00  0.00    -0.385 OA
HETATM   35  H14 UNL     1      -0.154  50.661 -25.709  1.00  0.00     0.210 HD
ENDBRANCH  32  34
BRANCH  32  36
HETATM   36  C8  UNL     1       2.445  51.474 -26.382  1.00  0.00     0.204 C 
BRANCH  36  37
HETATM   37  O3  UNL     1       3.383  51.537 -27.461  1.00  0.00    -0.398 OA
HETATM   38  H17 UNL     1       3.400  52.478 -27.727  1.00  0.00     0.209 HD
ENDBRANCH  36  37
ENDBRANCH  32  36
ENDBRANCH  29  32
ENDBRANCH  28  29
ENDBRANCH  27  28
ENDBRANCH  25  27
ENDBRANCH   1  25
TORSDOF 9
ENDMDL
MODEL 4
REMARK minimizedAffinity -9.25992775
REMARK  9 active torsions:
REMARK  status: ('A' for Active; 'I' for Inactive)
REMARK    1  A    between atoms: C2_2  and  C3_3 
REMARK    2  A    between atoms: C2_2  and  C9_12 
REMARK    3  A    between atoms: C3_3  and  C4_4 
REMARK    4  A    between atoms: C4_4  and  C5_5 
REMARK    5  A    between atoms: C5_5  and  O1_6 
REMARK    6  A    between atoms: C5_5  and  C6_7 
REMARK    7  A    between atoms: C6_7  and  O2_9 
REMARK    8  A    between atoms: C6_7  and  C8_10 
REMARK    9  A    between atoms: C8_10  and  O3_11 
ROOT
HETATM    1  C9  UNL     1      -2.457  48.514 -18.877  1.00  0.00    -0.002 C 
HETATM    2  C10 UNL     1      -3.896  48.437 -19.431  1.00  0.00     0.007 C 
HETATM    3  C11 UNL     1      -3.842  48.710 -20.931  1.00  0.00     0.015 C 
HETATM    4  C12 UNL     1      -2.353  48.794 -21.328  1.00  0.00    -0.005 C 
HETATM    5  C13 UNL     1      -1.839  47.380 -21.716  1.00  0.00     0.021 C 
HETATM    6  C14 UNL     1      -2.169  49.768 -22.507  1.00  0.00    -0.000 C 
HETATM    7  C15 UNL     1      -1.613  51.001 -22.402  1.00  0.00    -0.060 C 
HETATM    8  C16 UNL     1      -1.242  51.565 -21.042  1.00  0.00     0.036 C 
HETATM    9  C17 UNL     1      -1.856  50.817 -19.862  1.00  0.00     0.015 C 
HETATM   10  C18 UNL     1      -1.667  49.290 -19.987  1.00  0.00    -0.028 C 
HETATM   11  C19 UNL     1      -0.157  48.954 -19.964  1.00  0.00     0.016 C 
HETATM   12  C20 UNL     1      -1.366  51.930 -23.621  1.00  0.00    -0.014 C 
HETATM   13  C21 UNL     1      -2.601  52.854 -23.713  1.00  0.00     0.020 C 
HETATM   14  C22 UNL     1      -0.086  52.787 -23.430  1.00  0.00     0.021 C 
HETATM   15  C23 UNL     1       0.293  53.597 -24.658  1.00  0.00     0.080 C 
HETATM   16  C24 UNL     1       0.505  52.693 -25.844  1.00  0.00     0.135 C 
HETATM   17  O4  UNL     1       1.506  52.829 -26.549  1.00  0.00    -0.297 OA
HETATM   18  C25 UNL     1      -0.615  51.698 -26.187  1.00  0.00     0.018 C 
HETATM   19  C26 UNL     1      -0.011  50.614 -27.117  1.00  0.00     0.023 C 
HETATM   20  C27 UNL     1      -1.679  52.446 -27.002  1.00  0.00     0.023 C 
HETATM   21  C28 UNL     1      -1.132  51.015 -24.871  1.00  0.00     0.020 C 
HETATM   22  C29 UNL     1      -2.348  50.115 -25.089  1.00  0.00     0.090 C 
HETATM   23  C30 UNL     1      -2.728  49.351 -23.844  1.00  0.00     0.157 C 
HETATM   24  O5  UNL     1      -3.536  48.427 -23.932  1.00  0.00    -0.293 OA
ENDROOT
BRANCH   1  25
HETATM   25  C2  UNL     1      -2.438  49.031 -17.401  1.00  0.00    -0.014 C 
HETATM   26  C1  UNL     1      -3.097  50.408 -17.252  1.00  0.00     0.010 C 
BRANCH  25  27
HETATM   27  C3  UNL     1      -0.975  49.083 -16.870  1.00  0.00     0.007 C 
BRANCH  27  28
HETATM   28  C4  UNL     1      -0.629  50.372 -16.109  1.00  0.00     0.035 C 
BRANCH  28  29
HETATM   29  C5  UNL     1       0.752  50.977 -16.431  1.00  0.00     0.154 C 
BRANCH  29  30
HETATM   30  O1  UNL     1       0.666  51.582 -17.733  1.00  0.00    -0.392 OA
HETATM   31  H10 UNL     1       1.571  51.898 -17.948  1.00  0.00     0.210 HD
ENDBRANCH  29  30
BRANCH  29  32
HETATM   32  C6  UNL     1       1.317  52.022 -15.422  1.00  0.00     0.101 C 
HETATM   33  C7  UNL     1       0.479  52.140 -14.152  1.00  0.00     0.051 C 
BRANCH  32  34
HETATM   34  O2  UNL     1       1.368  53.315 -16.054  1.00  0.00    -0.385 OA
HETATM   35  H14 UNL     1       1.427  53.135 -17.014  1.00  0.00     0.210 HD
ENDBRANCH  32  34
BRANCH  32  36
HETATM   36  C8  UNL     1       2.772  51.667 -15.038  1.00  0.00     0.204 C 
BRANCH  36  37
HETATM   37  O3  UNL     1       3.615  52.818 -15.152  1.00  0.00    -0.398 OA
HETATM   38  H17 UNL     1       3.356  53.395 -14.406  1.00  0.00     0.209 HD
ENDBRANCH  36  37
ENDBRANCH  32  36
ENDBRANCH  29  32
ENDBRANCH  28  29
ENDBRANCH  27  28
ENDBRANCH  25  27
ENDBRANCH   1  25
TORSDOF 9
ENDMDL
MODEL 5
REMARK minimizedAffinity -9.20081615
REMARK  9 active torsions:
REMARK  status: ('A' for Active; 'I' for Inactive)
REMARK    1  A    between atoms: C2_2  and  C3_3 
REMARK    2  A    between atoms: C2_2  and  C9_12 
REMARK    3  A    between atoms: C3_3  and  C4_4 
REMARK    4  A    between atoms: C4_4  and  C5_5 
REMARK    5  A    between atoms: C5_5  and  O1_6 
REMARK    6  A    between atoms: C5_5  and  C6_7 
REMARK    7  A    between atoms: C6_7  and  O2_9 
REMARK    8  A    between atoms: C6_7  and  C8_10 
REMARK    9  A    between atoms: C8_10  and  O3_11 
ROOT
HETATM    1  C9  UNL     1       0.303  51.852 -20.405  1.00  0.00    -0.002 C 
HETATM    2  C10 UNL     1      -0.449  52.772 -19.419  1.00  0.00     0.007 C 
HETATM    3  C11 UNL     1      -1.646  52.002 -18.871  1.00  0.00     0.015 C 
HETATM    4  C12 UNL     1      -1.539  50.555 -19.396  1.00  0.00    -0.005 C 
HETATM    5  C13 UNL     1      -0.716  49.699 -18.393  1.00  0.00     0.021 C 
HETATM    6  C14 UNL     1      -2.944  49.950 -19.583  1.00  0.00    -0.000 C 
HETATM    7  C15 UNL     1      -3.527  49.728 -20.787  1.00  0.00    -0.060 C 
HETATM    8  C16 UNL     1      -2.857  50.199 -22.066  1.00  0.00     0.036 C 
HETATM    9  C17 UNL     1      -1.728  51.203 -21.851  1.00  0.00     0.015 C 
HETATM   10  C18 UNL     1      -0.745  50.739 -20.756  1.00  0.00    -0.028 C 
HETATM   11  C19 UNL     1      -0.063  49.422 -21.199  1.00  0.00     0.016 C 
HETATM   12  C20 UNL     1      -4.910  49.043 -20.949  1.00  0.00    -0.014 C 
HETATM   13  C21 UNL     1      -5.949  50.183 -21.024  1.00  0.00     0.020 C 
HETATM   14  C22 UNL     1      -4.973  48.193 -22.248  1.00  0.00     0.021 C 
HETATM   15  C23 UNL     1      -6.245  47.373 -22.378  1.00  0.00     0.080 C 
HETATM   16  C24 UNL     1      -6.399  46.445 -21.201  1.00  0.00     0.135 C 
HETATM   17  O4  UNL     1      -6.681  45.260 -21.387  1.00  0.00    -0.297 OA
HETATM   18  C25 UNL     1      -6.302  47.059 -19.796  1.00  0.00     0.018 C 
HETATM   19  C26 UNL     1      -6.045  45.902 -18.795  1.00  0.00     0.023 C 
HETATM   20  C27 UNL     1      -7.671  47.659 -19.446  1.00  0.00     0.023 C 
HETATM   21  C28 UNL     1      -5.095  48.061 -19.743  1.00  0.00     0.020 C 
HETATM   22  C29 UNL     1      -5.003  48.835 -18.427  1.00  0.00     0.090 C 
HETATM   23  C30 UNL     1      -3.750  49.672 -18.339  1.00  0.00     0.157 C 
HETATM   24  O5  UNL     1      -3.433  50.164 -17.257  1.00  0.00    -0.293 OA
ENDROOT
BRANCH   1  25
HETATM   25  C2  UNL     1       0.980  52.672 -21.552  1.00  0.00    -0.014 C 
HETATM   26  C1  UNL     1       1.368  54.089 -21.112  1.00  0.00     0.010 C 
BRANCH  25  27
HETATM   27  C3  UNL     1       0.039  52.741 -22.791  1.00  0.00     0.007 C 
BRANCH  27  28
HETATM   28  C4  UNL     1       0.773  52.928 -24.128  1.00  0.00     0.035 C 
BRANCH  28  29
HETATM   29  C5  UNL     1      -0.063  53.564 -25.255  1.00  0.00     0.154 C 
BRANCH  29  30
HETATM   30  O1  UNL     1       0.310  54.950 -25.342  1.00  0.00    -0.392 OA
HETATM   31  H10 UNL     1      -0.283  55.351 -26.015  1.00  0.00     0.210 HD
ENDBRANCH  29  30
BRANCH  29  32
HETATM   32  C6  UNL     1       0.052  52.918 -26.669  1.00  0.00     0.101 C 
HETATM   33  C7  UNL     1      -0.780  51.646 -26.815  1.00  0.00     0.051 C 
BRANCH  32  34
HETATM   34  O2  UNL     1       1.429  52.593 -26.933  1.00  0.00    -0.385 OA
HETATM   35  H14 UNL     1       1.954  53.200 -26.374  1.00  0.00     0.210 HD
ENDBRANCH  32  34
BRANCH  32  36
HETATM   36  C8  UNL     1      -0.374  53.930 -27.758  1.00  0.00     0.204 C 
BRANCH  36  37
HETATM   37  O3  UNL     1      -1.741  53.721 -28.128  1.00  0.00    -0.398 OA
HETATM   38  H17 UNL     1      -2.261  54.035 -27.361  1.00  0.00     0.209 HD
ENDBRANCH  36  37
ENDBRANCH  32  36
ENDBRANCH  29  32
ENDBRANCH  28  29
ENDBRANCH  27  28
ENDBRANCH  25  27
ENDBRANCH   1  25
TORSDOF 9
ENDMDL
MODEL 6
REMARK minimizedAffinity -9.17908096
REMARK  9 active torsions:
REMARK  status: ('A' for Active; 'I' for Inactive)
REMARK    1  A    between atoms: C2_2  and  C3_3 
REMARK    2  A    between atoms: C2_2  and  C9_12 
REMARK    3  A    between atoms: C3_3  and  C4_4 
REMARK    4  A    between atoms: C4_4  and  C5_5 
REMARK    5  A    between atoms: C5_5  and  O1_6 
REMARK    6  A    between atoms: C5_5  and  C6_7 
REMARK    7  A    between atoms: C6_7  and  O2_9 
REMARK    8  A    between atoms: C6_7  and  C8_10 
REMARK    9  A    between atoms: C8_10  and  O3_11 
ROOT
HETATM    1  C9  UNL     1      -0.177  51.941 -20.861  1.00  0.00    -0.002 C 
HETATM    2  C10 UNL     1      -0.336  50.409 -20.967  1.00  0.00     0.007 C 
HETATM    3  C11 UNL     1      -0.887  49.897 -19.641  1.00  0.00     0.015 C 
HETATM    4  C12 UNL     1      -1.219  51.131 -18.775  1.00  0.00    -0.005 C 
HETATM    5  C13 UNL     1      -2.685  51.574 -19.044  1.00  0.00     0.021 C 
HETATM    6  C14 UNL     1      -1.029  50.802 -17.282  1.00  0.00    -0.000 C 
HETATM    7  C15 UNL     1      -0.006  51.265 -16.521  1.00  0.00    -0.060 C 
HETATM    8  C16 UNL     1       1.124  52.060 -17.151  1.00  0.00     0.036 C 
HETATM    9  C17 UNL     1       1.182  51.972 -18.674  1.00  0.00     0.015 C 
HETATM   10  C18 UNL     1      -0.199  52.216 -19.317  1.00  0.00    -0.028 C 
HETATM   11  C19 UNL     1      -0.672  53.653 -18.993  1.00  0.00     0.016 C 
HETATM   12  C20 UNL     1       0.117  50.985 -15.000  1.00  0.00    -0.014 C 
HETATM   13  C21 UNL     1       1.016  49.735 -14.864  1.00  0.00     0.020 C 
HETATM   14  C22 UNL     1       0.770  52.180 -14.254  1.00  0.00     0.021 C 
HETATM   15  C23 UNL     1       0.771  52.027 -12.742  1.00  0.00     0.080 C 
HETATM   16  C24 UNL     1      -0.635  51.863 -12.226  1.00  0.00     0.135 C 
HETATM   17  O4  UNL     1      -1.017  52.529 -11.263  1.00  0.00    -0.297 OA
HETATM   18  C25 UNL     1      -1.504  50.773 -12.871  1.00  0.00     0.018 C 
HETATM   19  C26 UNL     1      -2.982  51.078 -12.514  1.00  0.00     0.023 C 
HETATM   20  C27 UNL     1      -1.151  49.433 -12.210  1.00  0.00     0.023 C 
HETATM   21  C28 UNL     1      -1.333  50.819 -14.431  1.00  0.00     0.020 C 
HETATM   22  C29 UNL     1      -2.046  49.676 -15.156  1.00  0.00     0.090 C 
HETATM   23  C30 UNL     1      -1.998  49.831 -16.657  1.00  0.00     0.157 C 
HETATM   24  O5  UNL     1      -2.718  49.117 -17.356  1.00  0.00    -0.293 OA
ENDROOT
BRANCH   1  25
HETATM   25  C2  UNL     1       1.021  52.454 -21.727  1.00  0.00    -0.014 C 
HETATM   26  C1  UNL     1       1.364  53.921 -21.444  1.00  0.00     0.010 C 
BRANCH  25  27
HETATM   27  C3  UNL     1       0.709  52.265 -23.241  1.00  0.00     0.007 C 
BRANCH  27  28
HETATM   28  C4  UNL     1       0.820  53.553 -24.071  1.00  0.00     0.035 C 
BRANCH  28  29
HETATM   29  C5  UNL     1       0.082  53.530 -25.424  1.00  0.00     0.154 C 
BRANCH  29  30
HETATM   30  O1  UNL     1       0.147  54.856 -25.975  1.00  0.00    -0.392 OA
HETATM   31  H10 UNL     1      -0.387  54.836 -26.800  1.00  0.00     0.210 HD
ENDBRANCH  29  30
BRANCH  29  32
HETATM   32  C6  UNL     1       0.595  52.513 -26.489  1.00  0.00     0.101 C 
HETATM   33  C7  UNL     1       0.052  51.102 -26.276  1.00  0.00     0.051 C 
BRANCH  32  34
HETATM   34  O2  UNL     1       2.032  52.458 -26.442  1.00  0.00    -0.385 OA
HETATM   35  H14 UNL     1       2.316  53.319 -26.074  1.00  0.00     0.210 HD
ENDBRANCH  32  34
BRANCH  32  36
HETATM   36  C8  UNL     1       0.222  52.991 -27.911  1.00  0.00     0.204 C 
BRANCH  36  37
HETATM   37  O3  UNL     1      -0.326  51.910 -28.674  1.00  0.00    -0.398 OA
HETATM   38  H17 UNL     1      -1.210  51.751 -28.288  1.00  0.00     0.209 HD
ENDBRANCH  36  37
ENDBRANCH  32  36
ENDBRANCH  29  32
ENDBRANCH  28  29
ENDBRANCH  27  28
ENDBRANCH  25  27
ENDBRANCH   1  25
TORSDOF 9
ENDMDL
MODEL 7
REMARK minimizedAffinity -8.98179817
REMARK  9 active torsions:
REMARK  status: ('A' for Active; 'I' for Inactive)
REMARK    1  A    between atoms: C2_2  and  C3_3 
REMARK    2  A    between atoms: C2_2  and  C9_12 
REMARK    3  A    between atoms: C3_3  and  C4_4 
REMARK    4  A    between atoms: C4_4  and  C5_5 
REMARK    5  A    between atoms: C5_5  and  O1_6 
REMARK    6  A    between atoms: C5_5  and  C6_7 
REMARK    7  A    between atoms: C6_7  and  O2_9 
REMARK    8  A    between atoms: C6_7  and  C8_10 
REMARK    9  A    between atoms: C8_10  and  O3_11 
ROOT
HETATM    1  C9  UNL     1      -0.429  50.998 -20.402  1.00  0.00    -0.002 C 
HETATM    2  C10 UNL     1      -1.256  51.878 -19.441  1.00  0.00     0.007 C 
HETATM    3  C11 UNL     1      -2.581  51.172 -19.173  1.00  0.00     0.015 C 
HETATM    4  C12 UNL     1      -2.503  49.782 -19.840  1.00  0.00    -0.005 C 
HETATM    5  C13 UNL     1      -1.920  48.754 -18.830  1.00  0.00     0.021 C 
HETATM    6  C14 UNL     1      -3.901  49.334 -20.306  1.00  0.00    -0.000 C 
HETATM    7  C15 UNL     1      -4.299  49.293 -21.602  1.00  0.00    -0.060 C 
HETATM    8  C16 UNL     1      -3.399  49.828 -22.701  1.00  0.00     0.036 C 
HETATM    9  C17 UNL     1      -2.245  50.694 -22.204  1.00  0.00     0.015 C 
HETATM   10  C18 UNL     1      -1.489  50.030 -21.034  1.00  0.00    -0.028 C 
HETATM   11  C19 UNL     1      -0.848  48.707 -21.518  1.00  0.00     0.016 C 
HETATM   12  C20 UNL     1      -5.687  48.761 -22.049  1.00  0.00    -0.014 C 
HETATM   13  C21 UNL     1      -6.610  49.996 -22.147  1.00  0.00     0.020 C 
HETATM   14  C22 UNL     1      -5.605  48.059 -23.432  1.00  0.00     0.021 C 
HETATM   15  C23 UNL     1      -6.900  47.380 -23.847  1.00  0.00     0.080 C 
HETATM   16  C24 UNL     1      -7.311  46.354 -22.823  1.00  0.00     0.135 C 
HETATM   17  O4  UNL     1      -7.649  45.226 -23.186  1.00  0.00    -0.297 OA
HETATM   18  C25 UNL     1      -7.393  46.809 -21.358  1.00  0.00     0.018 C 
HETATM   19  C26 UNL     1      -7.390  45.536 -20.471  1.00  0.00     0.023 C 
HETATM   20  C27 UNL     1      -8.751  47.495 -21.151  1.00  0.00     0.023 C 
HETATM   21  C28 UNL     1      -6.137  47.682 -21.007  1.00  0.00     0.020 C 
HETATM   22  C29 UNL     1      -6.199  48.305 -19.612  1.00  0.00     0.090 C 
HETATM   23  C30 UNL     1      -4.915  49.007 -19.239  1.00  0.00     0.157 C 
HETATM   24  O5  UNL     1      -4.740  49.354 -18.071  1.00  0.00    -0.293 OA
ENDROOT
BRANCH   1  25
HETATM   25  C2  UNL     1       0.485  51.864 -21.331  1.00  0.00    -0.014 C 
HETATM   26  C1  UNL     1       0.722  53.273 -20.773  1.00  0.00     0.010 C 
BRANCH  25  27
HETATM   27  C3  UNL     1      -0.133  51.956 -22.757  1.00  0.00     0.007 C 
BRANCH  27  28
HETATM   28  C4  UNL     1       0.871  52.346 -23.853  1.00  0.00     0.035 C 
BRANCH  28  29
HETATM   29  C5  UNL     1       0.262  52.587 -25.248  1.00  0.00     0.154 C 
BRANCH  29  30
HETATM   30  O1  UNL     1       0.419  53.983 -25.553  1.00  0.00    -0.392 OA
HETATM   31  H10 UNL     1      -0.036  54.129 -26.412  1.00  0.00     0.210 HD
ENDBRANCH  29  30
BRANCH  29  32
HETATM   32  C6  UNL     1       0.840  51.743 -26.425  1.00  0.00     0.101 C 
HETATM   33  C7  UNL     1       0.661  52.414 -27.785  1.00  0.00     0.051 C 
BRANCH  32  34
HETATM   34  O2  UNL     1       0.183  50.463 -26.460  1.00  0.00    -0.385 OA
HETATM   35  H14 UNL     1      -0.132  50.305 -25.547  1.00  0.00     0.210 HD
ENDBRANCH  32  34
BRANCH  32  36
HETATM   36  C8  UNL     1       2.342  51.457 -26.194  1.00  0.00     0.204 C 
BRANCH  36  37
HETATM   37  O3  UNL     1       3.119  51.959 -27.286  1.00  0.00    -0.398 OA
HETATM   38  H17 UNL     1       3.093  52.932 -27.189  1.00  0.00     0.209 HD
ENDBRANCH  36  37
ENDBRANCH  32  36
ENDBRANCH  29  32
ENDBRANCH  28  29
ENDBRANCH  27  28
ENDBRANCH  25  27
ENDBRANCH   1  25
TORSDOF 9
ENDMDL
MODEL 8
REMARK minimizedAffinity -8.94823265
REMARK  9 active torsions:
REMARK  status: ('A' for Active; 'I' for Inactive)
REMARK    1  A    between atoms: C2_2  and  C3_3 
REMARK    2  A    between atoms: C2_2  and  C9_12 
REMARK    3  A    between atoms: C3_3  and  C4_4 
REMARK    4  A    between atoms: C4_4  and  C5_5 
REMARK    5  A    between atoms: C5_5  and  O1_6 
REMARK    6  A    between atoms: C5_5  and  C6_7 
REMARK    7  A    between atoms: C6_7  and  O2_9 
REMARK    8  A    between atoms: C6_7  and  C8_10 
REMARK    9  A    between atoms: C8_10  and  O3_11 
ROOT
HETATM    1  C9  UNL     1      -2.326  49.560 -21.504  1.00  0.00    -0.002 C 
HETATM    2  C10 UNL     1      -2.940  50.950 -21.234  1.00  0.00     0.007 C 
HETATM    3  C11 UNL     1      -2.075  51.657 -20.196  1.00  0.00     0.015 C 
HETATM    4  C12 UNL     1      -0.838  50.768 -19.948  1.00  0.00    -0.005 C 
HETATM    5  C13 UNL     1       0.291  51.161 -20.941  1.00  0.00     0.021 C 
HETATM    6  C14 UNL     1      -0.348  50.928 -18.496  1.00  0.00    -0.000 C 
HETATM    7  C15 UNL     1      -0.498  49.989 -17.530  1.00  0.00    -0.060 C 
HETATM    8  C16 UNL     1      -1.300  48.728 -17.799  1.00  0.00     0.036 C 
HETATM    9  C17 UNL     1      -2.172  48.793 -19.050  1.00  0.00     0.015 C 
HETATM   10  C18 UNL     1      -1.387  49.316 -20.272  1.00  0.00    -0.028 C 
HETATM   11  C19 UNL     1      -0.238  48.336 -20.605  1.00  0.00     0.016 C 
HETATM   12  C20 UNL     1       0.078  50.143 -16.097  1.00  0.00    -0.014 C 
HETATM   13  C21 UNL     1      -1.061  50.735 -15.238  1.00  0.00     0.020 C 
HETATM   14  C22 UNL     1       0.515  48.773 -15.511  1.00  0.00     0.021 C 
HETATM   15  C23 UNL     1       1.231  48.882 -14.175  1.00  0.00     0.080 C 
HETATM   16  C24 UNL     1       2.455  49.751 -14.301  1.00  0.00     0.135 C 
HETATM   17  O4  UNL     1       3.528  49.371 -13.831  1.00  0.00    -0.297 OA
HETATM   18  C25 UNL     1       2.275  51.144 -14.925  1.00  0.00     0.018 C 
HETATM   19  C26 UNL     1       3.677  51.652 -15.350  1.00  0.00     0.023 C 
HETATM   20  C27 UNL     1       1.768  52.092 -13.829  1.00  0.00     0.023 C 
HETATM   21  C28 UNL     1       1.361  51.036 -16.196  1.00  0.00     0.020 C 
HETATM   22  C29 UNL     1       1.002  52.392 -16.805  1.00  0.00     0.090 C 
HETATM   23  C30 UNL     1       0.257  52.255 -18.112  1.00  0.00     0.157 C 
HETATM   24  O5  UNL     1       0.106  53.249 -18.822  1.00  0.00    -0.293 OA
ENDROOT
BRANCH   1  25
HETATM   25  C2  UNL     1      -3.425  48.508 -21.866  1.00  0.00    -0.014 C 
HETATM   26  C1  UNL     1      -3.008  47.076 -21.508  1.00  0.00     0.010 C 
BRANCH  25  27
HETATM   27  C3  UNL     1      -3.773  48.595 -23.382  1.00  0.00     0.007 C 
BRANCH  27  28
HETATM   28  C4  UNL     1      -3.083  49.753 -24.119  1.00  0.00     0.035 C 
BRANCH  28  29
HETATM   29  C5  UNL     1      -3.823  50.273 -25.367  1.00  0.00     0.154 C 
BRANCH  29  30
HETATM   30  O1  UNL     1      -4.483  51.497 -25.001  1.00  0.00    -0.392 OA
HETATM   31  H10 UNL     1      -5.003  51.773 -25.787  1.00  0.00     0.210 HD
ENDBRANCH  29  30
BRANCH  29  32
HETATM   32  C6  UNL     1      -2.963  50.523 -26.643  1.00  0.00     0.101 C 
HETATM   33  C7  UNL     1      -1.484  50.204 -26.438  1.00  0.00     0.051 C 
BRANCH  32  34
HETATM   34  O2  UNL     1      -3.081  51.903 -27.034  1.00  0.00    -0.385 OA
HETATM   35  H14 UNL     1      -3.938  52.206 -26.672  1.00  0.00     0.210 HD
ENDBRANCH  32  34
BRANCH  32  36
HETATM   36  C8  UNL     1      -3.503  49.687 -27.827  1.00  0.00     0.204 C 
BRANCH  36  37
HETATM   37  O3  UNL     1      -3.547  50.478 -29.018  1.00  0.00    -0.398 OA
HETATM   38  H17 UNL     1      -2.612  50.596 -29.278  1.00  0.00     0.209 HD
ENDBRANCH  36  37
ENDBRANCH  32  36
ENDBRANCH  29  32
ENDBRANCH  28  29
ENDBRANCH  27  28
ENDBRANCH  25  27
ENDBRANCH   1  25
TORSDOF 9
ENDMDL
MODEL 9
REMARK minimizedAffinity -8.87021828
REMARK  9 active torsions:
REMARK  status: ('A' for Active; 'I' for Inactive)
REMARK    1  A    between atoms: C2_2  and  C3_3 
REMARK    2  A    between atoms: C2_2  and  C9_12 
REMARK    3  A    between atoms: C3_3  and  C4_4 
REMARK    4  A    between atoms: C4_4  and  C5_5 
REMARK    5  A    between atoms: C5_5  and  O1_6 
REMARK    6  A    between atoms: C5_5  and  C6_7 
REMARK    7  A    between atoms: C6_7  and  O2_9 
REMARK    8  A    between atoms: C6_7  and  C8_10 
REMARK    9  A    between atoms: C8_10  and  O3_11 
ROOT
HETATM    1  C9  UNL     1      -1.270  51.989 -22.303  1.00  0.00    -0.002 C 
HETATM    2  C10 UNL     1      -2.036  51.555 -23.571  1.00  0.00     0.007 C 
HETATM    3  C11 UNL     1      -3.207  50.677 -23.140  1.00  0.00     0.015 C 
HETATM    4  C12 UNL     1      -3.256  50.704 -21.598  1.00  0.00    -0.005 C 
HETATM    5  C13 UNL     1      -4.156  51.880 -21.127  1.00  0.00     0.021 C 
HETATM    6  C14 UNL     1      -3.802  49.368 -21.058  1.00  0.00    -0.000 C 
HETATM    7  C15 UNL     1      -3.046  48.426 -20.441  1.00  0.00    -0.060 C 
HETATM    8  C16 UNL     1      -1.538  48.582 -20.356  1.00  0.00     0.036 C 
HETATM    9  C17 UNL     1      -0.962  49.640 -21.293  1.00  0.00     0.015 C 
HETATM   10  C18 UNL     1      -1.742  50.969 -21.209  1.00  0.00    -0.028 C 
HETATM   11  C19 UNL     1      -1.615  51.553 -19.782  1.00  0.00     0.016 C 
HETATM   12  C20 UNL     1      -3.637  47.125 -19.835  1.00  0.00    -0.014 C 
HETATM   13  C21 UNL     1      -3.505  46.043 -20.929  1.00  0.00     0.020 C 
HETATM   14  C22 UNL     1      -2.854  46.684 -18.568  1.00  0.00     0.021 C 
HETATM   15  C23 UNL     1      -3.485  45.507 -17.842  1.00  0.00     0.080 C 
HETATM   16  C24 UNL     1      -4.897  45.833 -17.432  1.00  0.00     0.135 C 
HETATM   17  O4  UNL     1      -5.275  45.592 -16.285  1.00  0.00    -0.297 OA
HETATM   18  C25 UNL     1      -5.847  46.360 -18.519  1.00  0.00     0.018 C 
HETATM   19  C26 UNL     1      -7.052  47.027 -17.805  1.00  0.00     0.023 C 
HETATM   20  C27 UNL     1      -6.397  45.153 -19.293  1.00  0.00     0.023 C 
HETATM   21  C28 UNL     1      -5.106  47.436 -19.388  1.00  0.00     0.020 C 
HETATM   22  C29 UNL     1      -5.921  47.915 -20.590  1.00  0.00     0.090 C 
HETATM   23  C30 UNL     1      -5.255  49.059 -21.318  1.00  0.00     0.157 C 
HETATM   24  O5  UNL     1      -5.897  49.689 -22.157  1.00  0.00    -0.293 OA
ENDROOT
BRANCH   1  25
HETATM   25  C2  UNL     1       0.257  52.172 -22.591  1.00  0.00    -0.014 C 
HETATM   26  C1  UNL     1       1.057  52.509 -21.326  1.00  0.00     0.010 C 
BRANCH  25  27
HETATM   27  C3  UNL     1       0.472  53.279 -23.665  1.00  0.00     0.007 C 
BRANCH  27  28
HETATM   28  C4  UNL     1       0.775  52.739 -25.071  1.00  0.00     0.035 C 
BRANCH  28  29
HETATM   29  C5  UNL     1      -0.160  53.246 -26.186  1.00  0.00     0.154 C 
BRANCH  29  30
HETATM   30  O1  UNL     1       0.216  54.602 -26.483  1.00  0.00    -0.392 OA
HETATM   31  H10 UNL     1      -0.434  54.928 -27.143  1.00  0.00     0.210 HD
ENDBRANCH  29  30
BRANCH  29  32
HETATM   32  C6  UNL     1      -0.186  52.426 -27.512  1.00  0.00     0.101 C 
HETATM   33  C7  UNL     1       1.166  51.805 -27.857  1.00  0.00     0.051 C 
BRANCH  32  34
HETATM   34  O2  UNL     1      -0.582  53.286 -28.596  1.00  0.00    -0.385 OA
HETATM   35  H14 UNL     1      -1.101  54.006 -28.184  1.00  0.00     0.210 HD
ENDBRANCH  32  34
BRANCH  32  36
HETATM   36  C8  UNL     1      -1.251  51.308 -27.431  1.00  0.00     0.204 C 
BRANCH  36  37
HETATM   37  O3  UNL     1      -2.448  51.707 -28.107  1.00  0.00    -0.398 OA
HETATM   38  H17 UNL     1      -2.219  51.685 -29.058  1.00  0.00     0.209 HD
ENDBRANCH  36  37
ENDBRANCH  32  36
ENDBRANCH  29  32
ENDBRANCH  28  29
ENDBRANCH  27  28
ENDBRANCH  25  27
ENDBRANCH   1  25
TORSDOF 9
ENDMDL
