MODEL 1
REMARK minimizedAffinity -9.50294113
REMARK  10 active torsions:
REMARK  status: ('A' for Active; 'I' for Inactive)
REMARK    1  A    between atoms: C5_5  and  C6_6 
REMARK    2  A    between atoms: C6_6  and  C8_8 
REMARK    3  A    between atoms: C8_8  and  O1_9 
REMARK    4  A    between atoms: O1_9  and  C9_10 
REMARK    5  A    between atoms: C15_18  and  O4_20 
REMARK    6  A    between atoms: C17_21  and  O5_22 
REMARK    7  A    between atoms: C20_25  and  O6_27 
REMARK    8  A    between atoms: O6_27  and  C22_28 
REMARK    9  A    between atoms: C22_28  and  C23_30 
REMARK   10  A    between atoms: C23_30  and  C24_31 
ROOT
HETATM    1  C1  UNL     1      -4.205  48.379 -27.967  1.00  0.00     0.015 C 
HETATM    2  C2  UNL     1      -3.577  49.287 -27.201  1.00  0.00    -0.082 C 
HETATM    3  C3  UNL     1      -3.097  50.586 -27.781  1.00  0.00     0.034 C 
HETATM    4  C4  UNL     1      -1.630  50.813 -27.421  1.00  0.00     0.010 C 
HETATM    5  C5  UNL     1      -1.487  51.018 -25.902  1.00  0.00    -0.001 C 
HETATM    6  C11 UNL     1      -2.021  49.781 -25.141  1.00  0.00     0.033 C 
HETATM    7  C12 UNL     1      -2.405  49.909 -23.631  1.00  0.00     0.162 C 
HETATM    8  O3  UNL     1      -3.542  49.046 -23.529  1.00  0.00    -0.376 OA
HETATM    9  C13 UNL     1      -4.304  49.241 -24.725  1.00  0.00     0.133 C 
HETATM   10  C14 UNL     1      -5.495  48.316 -24.596  1.00  0.00     0.072 C 
HETATM   11  C15 UNL     1      -6.494  48.823 -23.507  1.00  0.00     0.082 C 
HETATM   12  C16 UNL     1      -7.517  47.696 -23.264  1.00  0.00     0.049 C 
HETATM   13  C17 UNL     1      -5.880  49.260 -22.113  1.00  0.00     0.152 C 
HETATM   14  C18 UNL     1      -5.250  50.688 -22.020  1.00  0.00     0.038 C 
HETATM   15  C19 UNL     1      -3.747  50.874 -21.650  1.00  0.00     0.043 C 
HETATM   16  C20 UNL     1      -2.745  51.223 -22.822  1.00  0.00     0.093 C 
HETATM   17  C21 UNL     1      -3.274  52.422 -23.622  1.00  0.00     0.049 C 
HETATM   18  C26 UNL     1      -3.227  48.997 -25.766  1.00  0.00     0.050 C 
ENDROOT
BRANCH   5  19
HETATM   19  C6  UNL     1      -0.045  51.397 -25.432  1.00  0.00     0.010 C 
HETATM   20  C7  UNL     1       1.062  50.877 -26.358  1.00  0.00     0.012 C 
BRANCH  19  21
HETATM   21  C8  UNL     1       0.129  52.911 -25.186  1.00  0.00     0.183 C 
BRANCH  21  22
HETATM   22  O1  UNL     1       0.781  53.561 -26.285  1.00  0.00    -0.321 OA
BRANCH  22  23
HETATM   23  C9  UNL     1       0.133  54.614 -26.849  1.00  0.00     0.254 C 
HETATM   24  C10 UNL     1      -0.619  54.154 -28.060  1.00  0.00     0.126 C 
HETATM   25  O2  UNL     1       0.142  55.765 -26.439  1.00  0.00    -0.266 OA
ENDBRANCH  22  23
ENDBRANCH  21  22
ENDBRANCH  19  21
ENDBRANCH   5  19
BRANCH  16  26
HETATM   26  O6  UNL     1      -1.439  51.583 -22.242  1.00  0.00    -0.308 OA
BRANCH  26  27
HETATM   27  C22 UNL     1      -0.754  50.755 -21.407  1.00  0.00     0.259 C 
HETATM   28  O7  UNL     1      -0.880  49.542 -21.340  1.00  0.00    -0.265 OA
BRANCH  27  29
HETATM   29  C23 UNL     1       0.139  51.581 -20.507  1.00  0.00     0.111 C 
BRANCH  29  30
HETATM   30  C24 UNL     1       0.906  52.661 -21.266  1.00  0.00     0.005 C 
HETATM   31  C25 UNL     1       0.922  53.988 -20.521  1.00  0.00     0.005 C 
ENDBRANCH  29  30
ENDBRANCH  27  29
ENDBRANCH  26  27
ENDBRANCH  16  26
BRANCH  11  32
HETATM   32  O4  UNL     1      -7.219  49.936 -24.058  1.00  0.00    -0.388 OA
HETATM   33  H25 UNL     1      -7.760  49.611 -24.799  1.00  0.00     0.210 HD
ENDBRANCH  11  32
BRANCH  13  34
HETATM   34  O5  UNL     1      -5.027  48.252 -21.575  1.00  0.00    -0.393 OA
HETATM   35  H27 UNL     1      -4.248  48.228 -22.170  1.00  0.00     0.210 HD
ENDBRANCH  13  34
TORSDOF 10
ENDMDL
MODEL 2
REMARK minimizedAffinity -9.06078815
REMARK  10 active torsions:
REMARK  status: ('A' for Active; 'I' for Inactive)
REMARK    1  A    between atoms: C5_5  and  C6_6 
REMARK    2  A    between atoms: C6_6  and  C8_8 
REMARK    3  A    between atoms: C8_8  and  O1_9 
REMARK    4  A    between atoms: O1_9  and  C9_10 
REMARK    5  A    between atoms: C15_18  and  O4_20 
REMARK    6  A    between atoms: C17_21  and  O5_22 
REMARK    7  A    between atoms: C20_25  and  O6_27 
REMARK    8  A    between atoms: O6_27  and  C22_28 
REMARK    9  A    between atoms: C22_28  and  C23_30 
REMARK   10  A    between atoms: C23_30  and  C24_31 
ROOT
HETATM    1  C1  UNL     1      -4.260  48.451 -28.049  1.00  0.00     0.015 C 
HETATM    2  C2  UNL     1      -3.630  49.314 -27.233  1.00  0.00    -0.082 C 
HETATM    3  C3  UNL     1      -3.121  50.629 -27.748  1.00  0.00     0.034 C 
HETATM    4  C4  UNL     1      -1.656  50.816 -27.353  1.00  0.00     0.010 C 
HETATM    5  C5  UNL     1      -1.535  50.952 -25.824  1.00  0.00    -0.001 C 
HETATM    6  C11 UNL     1      -2.102  49.692 -25.128  1.00  0.00     0.033 C 
HETATM    7  C12 UNL     1      -2.510  49.760 -23.620  1.00  0.00     0.162 C 
HETATM    8  O3  UNL     1      -3.662  48.913 -23.575  1.00  0.00    -0.376 OA
HETATM    9  C13 UNL     1      -4.401  49.173 -24.774  1.00  0.00     0.133 C 
HETATM   10  C14 UNL     1      -5.608  48.262 -24.705  1.00  0.00     0.072 C 
HETATM   11  C15 UNL     1      -6.617  48.737 -23.611  1.00  0.00     0.082 C 
HETATM   12  C16 UNL     1      -7.662  47.618 -23.434  1.00  0.00     0.049 C 
HETATM   13  C17 UNL     1      -6.020  49.103 -22.189  1.00  0.00     0.152 C 
HETATM   14  C18 UNL     1      -5.370  50.515 -22.023  1.00  0.00     0.038 C 
HETATM   15  C19 UNL     1      -3.870  50.659 -21.620  1.00  0.00     0.043 C 
HETATM   16  C20 UNL     1      -2.843  51.043 -22.760  1.00  0.00     0.093 C 
HETATM   17  C21 UNL     1      -3.339  52.285 -23.515  1.00  0.00     0.049 C 
HETATM   18  C26 UNL     1      -3.309  48.957 -25.806  1.00  0.00     0.050 C 
ENDROOT
BRANCH   5  19
HETATM   19  C6  UNL     1      -0.096  51.286 -25.315  1.00  0.00     0.010 C 
HETATM   20  C7  UNL     1       1.012  50.913 -26.309  1.00  0.00     0.012 C 
BRANCH  19  21
HETATM   21  C8  UNL     1       0.057  52.755 -24.866  1.00  0.00     0.183 C 
BRANCH  21  22
HETATM   22  O1  UNL     1      -0.794  53.634 -25.613  1.00  0.00    -0.321 OA
BRANCH  22  23
HETATM   23  C9  UNL     1      -0.184  54.527 -26.438  1.00  0.00     0.254 C 
HETATM   24  C10 UNL     1      -0.261  54.041 -27.853  1.00  0.00     0.126 C 
HETATM   25  O2  UNL     1       0.342  55.576 -26.097  1.00  0.00    -0.266 OA
ENDBRANCH  22  23
ENDBRANCH  21  22
ENDBRANCH  19  21
ENDBRANCH   5  19
BRANCH  16  26
HETATM   26  O6  UNL     1      -1.541  51.355 -22.143  1.00  0.00    -0.308 OA
BRANCH  26  27
HETATM   27  C22 UNL     1      -1.273  51.109 -20.832  1.00  0.00     0.259 C 
HETATM   28  O7  UNL     1      -1.746  51.711 -19.879  1.00  0.00    -0.265 OA
BRANCH  27  29
HETATM   29  C23 UNL     1      -0.227  50.021 -20.732  1.00  0.00     0.111 C 
BRANCH  29  30
HETATM   30  C24 UNL     1      -0.826  48.619 -20.788  1.00  0.00     0.005 C 
HETATM   31  C25 UNL     1      -1.602  48.272 -19.525  1.00  0.00     0.005 C 
ENDBRANCH  29  30
ENDBRANCH  27  29
ENDBRANCH  26  27
ENDBRANCH  16  26
BRANCH  11  32
HETATM   32  O4  UNL     1      -7.314  49.886 -24.124  1.00  0.00    -0.388 OA
HETATM   33  H25 UNL     1      -7.848  49.602 -24.888  1.00  0.00     0.210 HD
ENDBRANCH  11  32
BRANCH  13  34
HETATM   34  O5  UNL     1      -5.193  48.058 -21.683  1.00  0.00    -0.393 OA
HETATM   35  H27 UNL     1      -4.404  48.047 -22.265  1.00  0.00     0.210 HD
ENDBRANCH  13  34
TORSDOF 10
ENDMDL
MODEL 3
REMARK minimizedAffinity -8.45984268
REMARK  10 active torsions:
REMARK  status: ('A' for Active; 'I' for Inactive)
REMARK    1  A    between atoms: C5_5  and  C6_6 
REMARK    2  A    between atoms: C6_6  and  C8_8 
REMARK    3  A    between atoms: C8_8  and  O1_9 
REMARK    4  A    between atoms: O1_9  and  C9_10 
REMARK    5  A    between atoms: C15_18  and  O4_20 
REMARK    6  A    between atoms: C17_21  and  O5_22 
REMARK    7  A    between atoms: C20_25  and  O6_27 
REMARK    8  A    between atoms: O6_27  and  C22_28 
REMARK    9  A    between atoms: C22_28  and  C23_30 
REMARK   10  A    between atoms: C23_30  and  C24_31 
ROOT
HETATM    1  C1  UNL     1      -2.843  48.459 -26.635  1.00  0.00     0.015 C 
HETATM    2  C2  UNL     1      -2.769  49.308 -25.596  1.00  0.00    -0.082 C 
HETATM    3  C3  UNL     1      -2.174  50.676 -25.760  1.00  0.00     0.034 C 
HETATM    4  C4  UNL     1      -1.117  50.923 -24.684  1.00  0.00     0.010 C 
HETATM    5  C5  UNL     1      -1.780  50.977 -23.296  1.00  0.00    -0.001 C 
HETATM    6  C11 UNL     1      -2.519  49.650 -23.002  1.00  0.00     0.033 C 
HETATM    7  C12 UNL     1      -3.624  49.608 -21.896  1.00  0.00     0.162 C 
HETATM    8  O3  UNL     1      -4.578  48.696 -22.449  1.00  0.00    -0.376 OA
HETATM    9  C13 UNL     1      -4.643  48.983 -23.851  1.00  0.00     0.133 C 
HETATM   10  C14 UNL     1      -5.651  48.004 -24.412  1.00  0.00     0.072 C 
HETATM   11  C15 UNL     1      -7.103  48.358 -23.957  1.00  0.00     0.082 C 
HETATM   12  C16 UNL     1      -8.008  47.174 -24.349  1.00  0.00     0.049 C 
HETATM   13  C17 UNL     1      -7.319  48.674 -22.419  1.00  0.00     0.152 C 
HETATM   14  C18 UNL     1      -6.947  50.109 -21.921  1.00  0.00     0.038 C 
HETATM   15  C19 UNL     1      -5.860  50.314 -20.821  1.00  0.00     0.043 C 
HETATM   16  C20 UNL     1      -4.437  50.819 -21.289  1.00  0.00     0.093 C 
HETATM   17  C21 UNL     1      -4.588  52.072 -22.163  1.00  0.00     0.049 C 
HETATM   18  C26 UNL     1      -3.171  48.888 -24.207  1.00  0.00     0.050 C 
ENDROOT
BRANCH   5  19
HETATM   19  C6  UNL     1      -0.813  51.362 -22.130  1.00  0.00     0.010 C 
HETATM   20  C7  UNL     1      -0.229  50.153 -21.389  1.00  0.00     0.012 C 
BRANCH  19  21
HETATM   21  C8  UNL     1       0.316  52.316 -22.575  1.00  0.00     0.183 C 
BRANCH  21  22
HETATM   22  O1  UNL     1       1.365  52.394 -21.602  1.00  0.00    -0.321 OA
BRANCH  22  23
HETATM   23  C9  UNL     1       1.401  53.508 -20.823  1.00  0.00     0.254 C 
HETATM   24  C10 UNL     1       0.889  53.184 -19.453  1.00  0.00     0.126 C 
HETATM   25  O2  UNL     1       1.796  54.612 -21.167  1.00  0.00    -0.266 OA
ENDBRANCH  22  23
ENDBRANCH  21  22
ENDBRANCH  19  21
ENDBRANCH   5  19
BRANCH  16  26
HETATM   26  O6  UNL     1      -3.640  51.168 -20.099  1.00  0.00    -0.308 OA
BRANCH  26  27
HETATM   27  C22 UNL     1      -3.371  50.275 -19.108  1.00  0.00     0.259 C 
HETATM   28  O7  UNL     1      -4.052  49.303 -18.817  1.00  0.00    -0.265 OA
BRANCH  27  29
HETATM   29  C23 UNL     1      -2.134  50.717 -18.359  1.00  0.00     0.111 C 
BRANCH  29  30
HETATM   30  C24 UNL     1      -1.238  49.549 -17.956  1.00  0.00     0.005 C 
HETATM   31  C25 UNL     1      -0.008  50.004 -17.184  1.00  0.00     0.005 C 
ENDBRANCH  29  30
ENDBRANCH  27  29
ENDBRANCH  26  27
ENDBRANCH  16  26
BRANCH  11  32
HETATM   32  O4  UNL     1      -7.541  49.493 -24.724  1.00  0.00    -0.388 OA
HETATM   33  H25 UNL     1      -7.603  49.224 -25.659  1.00  0.00     0.210 HD
ENDBRANCH  11  32
BRANCH  13  34
HETATM   34  O5  UNL     1      -6.774  47.651 -21.591  1.00  0.00    -0.393 OA
HETATM   35  H27 UNL     1      -5.802  47.717 -21.703  1.00  0.00     0.210 HD
ENDBRANCH  13  34
TORSDOF 10
ENDMDL
MODEL 4
REMARK minimizedAffinity -8.43212509
REMARK  10 active torsions:
REMARK  status: ('A' for Active; 'I' for Inactive)
REMARK    1  A    between atoms: C5_5  and  C6_6 
REMARK    2  A    between atoms: C6_6  and  C8_8 
REMARK    3  A    between atoms: C8_8  and  O1_9 
REMARK    4  A    between atoms: O1_9  and  C9_10 
REMARK    5  A    between atoms: C15_18  and  O4_20 
REMARK    6  A    between atoms: C17_21  and  O5_22 
REMARK    7  A    between atoms: C20_25  and  O6_27 
REMARK    8  A    between atoms: O6_27  and  C22_28 
REMARK    9  A    between atoms: C22_28  and  C23_30 
REMARK   10  A    between atoms: C23_30  and  C24_31 
ROOT
HETATM    1  C1  UNL     1       1.822  52.893 -21.022  1.00  0.00     0.015 C 
HETATM    2  C2  UNL     1       0.524  52.546 -20.973  1.00  0.00    -0.082 C 
HETATM    3  C3  UNL     1      -0.384  53.105 -19.916  1.00  0.00     0.034 C 
HETATM    4  C4  UNL     1      -1.138  51.973 -19.218  1.00  0.00     0.010 C 
HETATM    5  C5  UNL     1      -2.104  51.296 -20.208  1.00  0.00    -0.001 C 
HETATM    6  C11 UNL     1      -1.324  50.730 -21.417  1.00  0.00     0.033 C 
HETATM    7  C12 UNL     1      -2.083  50.408 -22.745  1.00  0.00     0.162 C 
HETATM    8  O3  UNL     1      -1.124  50.769 -23.743  1.00  0.00    -0.376 OA
HETATM    9  C13 UNL     1      -0.485  51.963 -23.276  1.00  0.00     0.133 C 
HETATM   10  C14 UNL     1       0.527  52.319 -24.343  1.00  0.00     0.072 C 
HETATM   11  C15 UNL     1      -0.173  52.831 -25.642  1.00  0.00     0.082 C 
HETATM   12  C16 UNL     1       0.904  52.911 -26.742  1.00  0.00     0.049 C 
HETATM   13  C17 UNL     1      -1.392  51.979 -26.189  1.00  0.00     0.152 C 
HETATM   14  C18 UNL     1      -2.783  52.193 -25.506  1.00  0.00     0.038 C 
HETATM   15  C19 UNL     1      -3.517  51.009 -24.804  1.00  0.00     0.043 C 
HETATM   16  C20 UNL     1      -3.482  50.964 -23.224  1.00  0.00     0.093 C 
HETATM   17  C21 UNL     1      -3.933  52.317 -22.653  1.00  0.00     0.049 C 
HETATM   18  C26 UNL     1      -0.048  51.503 -21.897  1.00  0.00     0.050 C 
ENDROOT
BRANCH   5  19
HETATM   19  C6  UNL     1      -3.032  50.212 -19.568  1.00  0.00     0.010 C 
HETATM   20  C7  UNL     1      -4.491  50.298 -20.032  1.00  0.00     0.012 C 
BRANCH  19  21
HETATM   21  C8  UNL     1      -2.493  48.777 -19.750  1.00  0.00     0.183 C 
BRANCH  21  22
HETATM   22  O1  UNL     1      -3.485  47.899 -20.298  1.00  0.00    -0.321 OA
BRANCH  22  23
HETATM   23  C9  UNL     1      -3.039  46.872 -21.070  1.00  0.00     0.254 C 
HETATM   24  C10 UNL     1      -3.843  45.640 -20.786  1.00  0.00     0.126 C 
HETATM   25  O2  UNL     1      -2.129  46.929 -21.883  1.00  0.00    -0.266 OA
ENDBRANCH  22  23
ENDBRANCH  21  22
ENDBRANCH  19  21
ENDBRANCH   5  19
BRANCH  16  26
HETATM   26  O6  UNL     1      -4.413  49.922 -22.756  1.00  0.00    -0.308 OA
BRANCH  26  27
HETATM   27  C22 UNL     1      -4.751  48.845 -23.516  1.00  0.00     0.259 C 
HETATM   28  O7  UNL     1      -5.661  48.063 -23.285  1.00  0.00    -0.265 OA
BRANCH  27  29
HETATM   29  C23 UNL     1      -3.770  48.713 -24.660  1.00  0.00     0.111 C 
BRANCH  29  30
HETATM   30  C24 UNL     1      -4.428  48.236 -25.951  1.00  0.00     0.005 C 
HETATM   31  C25 UNL     1      -3.488  48.321 -27.145  1.00  0.00     0.005 C 
ENDBRANCH  29  30
ENDBRANCH  27  29
ENDBRANCH  26  27
ENDBRANCH  16  26
BRANCH  11  32
HETATM   32  O4  UNL     1      -0.626  54.174 -25.399  1.00  0.00    -0.388 OA
HETATM   33  H25 UNL     1       0.156  54.740 -25.265  1.00  0.00     0.210 HD
ENDBRANCH  11  32
BRANCH  13  34
HETATM   34  O5  UNL     1      -1.054  50.600 -26.316  1.00  0.00    -0.393 OA
HETATM   35  H27 UNL     1      -0.942  50.275 -25.398  1.00  0.00     0.210 HD
ENDBRANCH  13  34
TORSDOF 10
ENDMDL
MODEL 5
REMARK minimizedAffinity -8.43080044
REMARK  10 active torsions:
REMARK  status: ('A' for Active; 'I' for Inactive)
REMARK    1  A    between atoms: C5_5  and  C6_6 
REMARK    2  A    between atoms: C6_6  and  C8_8 
REMARK    3  A    between atoms: C8_8  and  O1_9 
REMARK    4  A    between atoms: O1_9  and  C9_10 
REMARK    5  A    between atoms: C15_18  and  O4_20 
REMARK    6  A    between atoms: C17_21  and  O5_22 
REMARK    7  A    between atoms: C20_25  and  O6_27 
REMARK    8  A    between atoms: O6_27  and  C22_28 
REMARK    9  A    between atoms: C22_28  and  C23_30 
REMARK   10  A    between atoms: C23_30  and  C24_31 
ROOT
HETATM    1  C1  UNL     1       0.760  52.965 -19.112  1.00  0.00     0.015 C 
HETATM    2  C2  UNL     1       0.225  52.282 -20.139  1.00  0.00    -0.082 C 
HETATM    3  C3  UNL     1       1.050  51.925 -21.341  1.00  0.00     0.034 C 
HETATM    4  C4  UNL     1       0.329  52.353 -22.619  1.00  0.00     0.010 C 
HETATM    5  C5  UNL     1      -0.957  51.526 -22.801  1.00  0.00    -0.001 C 
HETATM    6  C11 UNL     1      -1.895  51.720 -21.587  1.00  0.00     0.033 C 
HETATM    7  C12 UNL     1      -3.025  50.676 -21.307  1.00  0.00     0.162 C 
HETATM    8  O3  UNL     1      -3.053  50.627 -19.878  1.00  0.00    -0.376 OA
HETATM    9  C13 UNL     1      -1.689  50.694 -19.446  1.00  0.00     0.133 C 
HETATM   10  C14 UNL     1      -1.745  50.647 -17.935  1.00  0.00     0.072 C 
HETATM   11  C15 UNL     1      -2.162  49.231 -17.424  1.00  0.00     0.082 C 
HETATM   12  C16 UNL     1      -2.448  49.354 -15.915  1.00  0.00     0.049 C 
HETATM   13  C17 UNL     1      -3.411  48.551 -18.123  1.00  0.00     0.152 C 
HETATM   14  C18 UNL     1      -3.170  47.847 -19.499  1.00  0.00     0.038 C 
HETATM   15  C19 UNL     1      -3.927  48.317 -20.778  1.00  0.00     0.043 C 
HETATM   16  C20 UNL     1      -3.120  49.186 -21.825  1.00  0.00     0.093 C 
HETATM   17  C21 UNL     1      -1.804  48.482 -22.183  1.00  0.00     0.049 C 
HETATM   18  C26 UNL     1      -1.242  51.946 -20.180  1.00  0.00     0.050 C 
ENDROOT
BRANCH   5  19
HETATM   19  C6  UNL     1      -1.706  51.781 -24.149  1.00  0.00     0.010 C 
HETATM   20  C7  UNL     1      -2.959  52.653 -24.002  1.00  0.00     0.012 C 
BRANCH  19  21
HETATM   21  C8  UNL     1      -0.786  52.344 -25.252  1.00  0.00     0.183 C 
BRANCH  21  22
HETATM   22  O1  UNL     1       0.130  51.356 -25.741  1.00  0.00    -0.321 OA
BRANCH  22  23
HETATM   23  C9  UNL     1       1.062  51.772 -26.640  1.00  0.00     0.254 C 
HETATM   24  C10 UNL     1       0.430  51.920 -27.990  1.00  0.00     0.126 C 
HETATM   25  O2  UNL     1       2.237  52.004 -26.399  1.00  0.00    -0.266 OA
ENDBRANCH  22  23
ENDBRANCH  21  22
ENDBRANCH  19  21
ENDBRANCH   5  19
BRANCH  16  26
HETATM   26  O6  UNL     1      -3.927  49.328 -23.050  1.00  0.00    -0.308 OA
BRANCH  26  27
HETATM   27  C22 UNL     1      -4.706  48.324 -23.536  1.00  0.00     0.259 C 
HETATM   28  O7  UNL     1      -5.318  47.504 -22.867  1.00  0.00    -0.265 OA
BRANCH  27  29
HETATM   29  C23 UNL     1      -4.636  48.325 -25.047  1.00  0.00     0.111 C 
BRANCH  29  30
HETATM   30  C24 UNL     1      -3.218  48.532 -25.572  1.00  0.00     0.005 C 
HETATM   31  C25 UNL     1      -3.174  48.635 -27.090  1.00  0.00     0.005 C 
ENDBRANCH  29  30
ENDBRANCH  27  29
ENDBRANCH  26  27
ENDBRANCH  16  26
BRANCH  11  32
HETATM   32  O4  UNL     1      -1.027  48.360 -17.567  1.00  0.00    -0.388 OA
HETATM   33  H25 UNL     1      -0.324  48.673 -16.968  1.00  0.00     0.210 HD
ENDBRANCH  11  32
BRANCH  13  34
HETATM   34  O5  UNL     1      -4.539  49.423 -18.147  1.00  0.00    -0.393 OA
HETATM   35  H27 UNL     1      -4.295  50.144 -18.765  1.00  0.00     0.210 HD
ENDBRANCH  13  34
TORSDOF 10
ENDMDL
MODEL 6
REMARK minimizedAffinity -8.27046776
REMARK  10 active torsions:
REMARK  status: ('A' for Active; 'I' for Inactive)
REMARK    1  A    between atoms: C5_5  and  C6_6 
REMARK    2  A    between atoms: C6_6  and  C8_8 
REMARK    3  A    between atoms: C8_8  and  O1_9 
REMARK    4  A    between atoms: O1_9  and  C9_10 
REMARK    5  A    between atoms: C15_18  and  O4_20 
REMARK    6  A    between atoms: C17_21  and  O5_22 
REMARK    7  A    between atoms: C20_25  and  O6_27 
REMARK    8  A    between atoms: O6_27  and  C22_28 
REMARK    9  A    between atoms: C22_28  and  C23_30 
REMARK   10  A    between atoms: C23_30  and  C24_31 
ROOT
HETATM    1  C1  UNL     1      -3.213  49.667 -17.653  1.00  0.00     0.015 C 
HETATM    2  C2  UNL     1      -2.686  49.969 -18.852  1.00  0.00    -0.082 C 
HETATM    3  C3  UNL     1      -1.270  49.602 -19.187  1.00  0.00     0.034 C 
HETATM    4  C4  UNL     1      -0.523  50.823 -19.724  1.00  0.00     0.010 C 
HETATM    5  C5  UNL     1      -1.118  51.251 -21.078  1.00  0.00    -0.001 C 
HETATM    6  C11 UNL     1      -2.619  51.589 -20.921  1.00  0.00     0.033 C 
HETATM    7  C12 UNL     1      -3.544  51.609 -22.182  1.00  0.00     0.162 C 
HETATM    8  O3  UNL     1      -4.774  51.089 -21.669  1.00  0.00    -0.376 OA
HETATM    9  C13 UNL     1      -4.421  50.038 -20.763  1.00  0.00     0.133 C 
HETATM   10  C14 UNL     1      -5.736  49.510 -20.231  1.00  0.00     0.072 C 
HETATM   11  C15 UNL     1      -6.518  48.721 -21.329  1.00  0.00     0.082 C 
HETATM   12  C16 UNL     1      -7.936  48.460 -20.783  1.00  0.00     0.049 C 
HETATM   13  C17 UNL     1      -6.642  49.401 -22.755  1.00  0.00     0.152 C 
HETATM   14  C18 UNL     1      -5.416  49.279 -23.719  1.00  0.00     0.038 C 
HETATM   15  C19 UNL     1      -4.683  50.552 -24.242  1.00  0.00     0.043 C 
HETATM   16  C20 UNL     1      -3.294  50.917 -23.580  1.00  0.00     0.093 C 
HETATM   17  C21 UNL     1      -2.368  49.692 -23.602  1.00  0.00     0.049 C 
HETATM   18  C26 UNL     1      -3.450  50.782 -19.864  1.00  0.00     0.050 C 
ENDROOT
BRANCH   5  19
HETATM   19  C6  UNL     1      -0.343  52.407 -21.789  1.00  0.00     0.010 C 
HETATM   20  C7  UNL     1       0.632  53.153 -20.870  1.00  0.00     0.012 C 
BRANCH  19  21
HETATM   21  C8  UNL     1       0.375  51.948 -23.076  1.00  0.00     0.183 C 
BRANCH  21  22
HETATM   22  O1  UNL     1       0.914  53.054 -23.812  1.00  0.00    -0.321 OA
BRANCH  22  23
HETATM   23  C9  UNL     1       0.816  52.997 -25.167  1.00  0.00     0.254 C 
HETATM   24  C10 UNL     1       1.393  51.706 -25.662  1.00  0.00     0.126 C 
HETATM   25  O2  UNL     1       0.326  53.854 -25.887  1.00  0.00    -0.266 OA
ENDBRANCH  22  23
ENDBRANCH  21  22
ENDBRANCH  19  21
ENDBRANCH   5  19
BRANCH  16  26
HETATM   26  O6  UNL     1      -2.664  51.998 -24.359  1.00  0.00    -0.308 OA
BRANCH  26  27
HETATM   27  C22 UNL     1      -2.704  52.042 -25.718  1.00  0.00     0.259 C 
HETATM   28  O7  UNL     1      -3.239  52.910 -26.391  1.00  0.00    -0.265 OA
BRANCH  27  29
HETATM   29  C23 UNL     1      -2.048  50.799 -26.277  1.00  0.00     0.111 C 
BRANCH  29  30
HETATM   30  C24 UNL     1      -2.896  50.112 -27.344  1.00  0.00     0.005 C 
HETATM   31  C25 UNL     1      -3.155  48.648 -27.022  1.00  0.00     0.005 C 
ENDBRANCH  29  30
ENDBRANCH  27  29
ENDBRANCH  26  27
ENDBRANCH  16  26
BRANCH  11  32
HETATM   32  O4  UNL     1      -5.886  47.439 -21.485  1.00  0.00    -0.388 OA
HETATM   33  H25 UNL     1      -5.997  46.941 -20.655  1.00  0.00     0.210 HD
ENDBRANCH  11  32
BRANCH  13  34
HETATM   34  O5  UNL     1      -7.130  50.737 -22.660  1.00  0.00    -0.393 OA
HETATM   35  H27 UNL     1      -6.411  51.244 -22.226  1.00  0.00     0.210 HD
ENDBRANCH  13  34
TORSDOF 10
ENDMDL
MODEL 7
REMARK minimizedAffinity -8.24729824
REMARK  10 active torsions:
REMARK  status: ('A' for Active; 'I' for Inactive)
REMARK    1  A    between atoms: C5_5  and  C6_6 
REMARK    2  A    between atoms: C6_6  and  C8_8 
REMARK    3  A    between atoms: C8_8  and  O1_9 
REMARK    4  A    between atoms: O1_9  and  C9_10 
REMARK    5  A    between atoms: C15_18  and  O4_20 
REMARK    6  A    between atoms: C17_21  and  O5_22 
REMARK    7  A    between atoms: C20_25  and  O6_27 
REMARK    8  A    between atoms: O6_27  and  C22_28 
REMARK    9  A    between atoms: C22_28  and  C23_30 
REMARK   10  A    between atoms: C23_30  and  C24_31 
ROOT
HETATM    1  C1  UNL     1      -3.969  49.270 -27.932  1.00  0.00     0.015 C 
HETATM    2  C2  UNL     1      -3.715  49.390 -26.618  1.00  0.00    -0.082 C 
HETATM    3  C3  UNL     1      -3.801  48.203 -25.704  1.00  0.00     0.034 C 
HETATM    4  C4  UNL     1      -4.676  48.532 -24.495  1.00  0.00     0.010 C 
HETATM    5  C5  UNL     1      -3.997  49.609 -23.630  1.00  0.00    -0.001 C 
HETATM    6  C11 UNL     1      -3.757  50.891 -24.461  1.00  0.00     0.033 C 
HETATM    7  C12 UNL     1      -2.705  51.941 -23.976  1.00  0.00     0.162 C 
HETATM    8  O3  UNL     1      -2.143  52.405 -25.207  1.00  0.00    -0.376 OA
HETATM    9  C13 UNL     1      -2.022  51.255 -26.053  1.00  0.00     0.133 C 
HETATM   10  C14 UNL     1      -1.432  51.772 -27.347  1.00  0.00     0.072 C 
HETATM   11  C15 UNL     1       0.064  52.181 -27.168  1.00  0.00     0.082 C 
HETATM   12  C16 UNL     1       0.491  52.932 -28.445  1.00  0.00     0.049 C 
HETATM   13  C17 UNL     1       0.420  53.079 -25.911  1.00  0.00     0.152 C 
HETATM   14  C18 UNL     1       0.584  52.355 -24.534  1.00  0.00     0.038 C 
HETATM   15  C19 UNL     1      -0.333  52.722 -23.327  1.00  0.00     0.043 C 
HETATM   16  C20 UNL     1      -1.505  51.722 -22.971  1.00  0.00     0.093 C 
HETATM   17  C21 UNL     1      -0.953  50.296 -22.838  1.00  0.00     0.049 C 
HETATM   18  C26 UNL     1      -3.445  50.732 -25.989  1.00  0.00     0.050 C 
ENDROOT
BRANCH   5  19
HETATM   19  C6  UNL     1      -4.737  49.926 -22.290  1.00  0.00     0.010 C 
HETATM   20  C7  UNL     1      -6.084  50.634 -22.483  1.00  0.00     0.012 C 
BRANCH  19  21
HETATM   21  C8  UNL     1      -4.906  48.685 -21.388  1.00  0.00     0.183 C 
BRANCH  21  22
HETATM   22  O1  UNL     1      -3.662  48.270 -20.810  1.00  0.00    -0.321 OA
BRANCH  22  23
HETATM   23  C9  UNL     1      -3.225  47.020 -21.122  1.00  0.00     0.254 C 
HETATM   24  C10 UNL     1      -1.878  47.103 -21.771  1.00  0.00     0.126 C 
HETATM   25  O2  UNL     1      -3.823  45.977 -20.905  1.00  0.00    -0.266 OA
ENDBRANCH  22  23
ENDBRANCH  21  22
ENDBRANCH  19  21
ENDBRANCH   5  19
BRANCH  16  26
HETATM   26  O6  UNL     1      -2.097  52.121 -21.682  1.00  0.00    -0.308 OA
BRANCH  26  27
HETATM   27  C22 UNL     1      -1.753  51.534 -20.504  1.00  0.00     0.259 C 
HETATM   28  O7  UNL     1      -2.509  50.933 -19.755  1.00  0.00    -0.265 OA
BRANCH  27  29
HETATM   29  C23 UNL     1      -0.293  51.810 -20.216  1.00  0.00     0.111 C 
BRANCH  29  30
HETATM   30  C24 UNL     1      -0.051  53.222 -19.690  1.00  0.00     0.005 C 
HETATM   31  C25 UNL     1       1.231  53.830 -20.237  1.00  0.00     0.005 C 
ENDBRANCH  29  30
ENDBRANCH  27  29
ENDBRANCH  26  27
ENDBRANCH  16  26
BRANCH  11  32
HETATM   32  O4  UNL     1       0.847  50.977 -27.107  1.00  0.00    -0.388 OA
HETATM   33  H25 UNL     1       0.785  50.529 -27.970  1.00  0.00     0.210 HD
ENDBRANCH  11  32
BRANCH  13  34
HETATM   34  O5  UNL     1      -0.423  54.225 -25.827  1.00  0.00    -0.393 OA
HETATM   35  H27 UNL     1      -1.314  53.875 -25.614  1.00  0.00     0.210 HD
ENDBRANCH  13  34
TORSDOF 10
ENDMDL
MODEL 8
REMARK minimizedAffinity -7.95021248
REMARK  10 active torsions:
REMARK  status: ('A' for Active; 'I' for Inactive)
REMARK    1  A    between atoms: C5_5  and  C6_6 
REMARK    2  A    between atoms: C6_6  and  C8_8 
REMARK    3  A    between atoms: C8_8  and  O1_9 
REMARK    4  A    between atoms: O1_9  and  C9_10 
REMARK    5  A    between atoms: C15_18  and  O4_20 
REMARK    6  A    between atoms: C17_21  and  O5_22 
REMARK    7  A    between atoms: C20_25  and  O6_27 
REMARK    8  A    between atoms: O6_27  and  C22_28 
REMARK    9  A    between atoms: C22_28  and  C23_30 
REMARK   10  A    between atoms: C23_30  and  C24_31 
ROOT
HETATM    1  C1  UNL     1      -3.745  48.483 -25.467  1.00  0.00     0.015 C 
HETATM    2  C2  UNL     1      -3.152  48.931 -24.347  1.00  0.00    -0.082 C 
HETATM    3  C3  UNL     1      -2.842  48.000 -23.212  1.00  0.00     0.034 C 
HETATM    4  C4  UNL     1      -3.379  48.571 -21.901  1.00  0.00     0.010 C 
HETATM    5  C5  UNL     1      -2.617  49.858 -21.535  1.00  0.00    -0.001 C 
HETATM    6  C11 UNL     1      -2.768  50.909 -22.659  1.00  0.00     0.033 C 
HETATM    7  C12 UNL     1      -1.753  52.094 -22.751  1.00  0.00     0.162 C 
HETATM    8  O3  UNL     1      -1.612  52.270 -24.164  1.00  0.00    -0.376 OA
HETATM    9  C13 UNL     1      -1.598  50.956 -24.734  1.00  0.00     0.133 C 
HETATM   10  C14 UNL     1      -1.455  51.169 -26.225  1.00  0.00     0.072 C 
HETATM   11  C15 UNL     1      -0.026  51.681 -26.593  1.00  0.00     0.082 C 
HETATM   12  C16 UNL     1      -0.061  52.117 -28.071  1.00  0.00     0.049 C 
HETATM   13  C17 UNL     1       0.558  52.873 -25.727  1.00  0.00     0.152 C 
HETATM   14  C18 UNL     1       1.181  52.515 -24.338  1.00  0.00     0.038 C 
HETATM   15  C19 UNL     1       0.599  53.122 -23.024  1.00  0.00     0.043 C 
HETATM   16  C20 UNL     1      -0.304  52.184 -22.126  1.00  0.00     0.093 C 
HETATM   17  C21 UNL     1       0.426  50.861 -21.854  1.00  0.00     0.049 C 
HETATM   18  C26 UNL     1      -2.876  50.397 -24.137  1.00  0.00     0.050 C 
ENDROOT
BRANCH   5  19
HETATM   19  C6  UNL     1      -2.988  50.456 -20.139  1.00  0.00     0.010 C 
HETATM   20  C7  UNL     1      -4.211  51.381 -20.171  1.00  0.00     0.012 C 
BRANCH  19  21
HETATM   21  C8  UNL     1      -3.158  49.378 -19.048  1.00  0.00     0.183 C 
BRANCH  21  22
HETATM   22  O1  UNL     1      -4.524  49.248 -18.633  1.00  0.00    -0.321 OA
BRANCH  22  23
HETATM   23  C9  UNL     1      -4.928  48.015 -18.224  1.00  0.00     0.254 C 
HETATM   24  C10 UNL     1      -3.877  47.003 -18.558  1.00  0.00     0.126 C 
HETATM   25  O2  UNL     1      -5.981  47.756 -17.660  1.00  0.00    -0.266 OA
ENDBRANCH  22  23
ENDBRANCH  21  22
ENDBRANCH  19  21
ENDBRANCH   5  19
BRANCH  16  26
HETATM   26  O6  UNL     1      -0.557  52.856 -20.839  1.00  0.00    -0.308 OA
BRANCH  26  27
HETATM   27  C22 UNL     1       0.413  53.519 -20.154  1.00  0.00     0.259 C 
HETATM   28  O7  UNL     1       1.150  54.380 -20.610  1.00  0.00    -0.265 OA
BRANCH  27  29
HETATM   29  C23 UNL     1       0.499  52.966 -18.749  1.00  0.00     0.111 C 
BRANCH  29  30
HETATM   30  C24 UNL     1      -0.305  51.681 -18.569  1.00  0.00     0.005 C 
HETATM   31  C25 UNL     1       0.180  50.857 -17.385  1.00  0.00     0.005 C 
ENDBRANCH  29  30
ENDBRANCH  27  29
ENDBRANCH  26  27
ENDBRANCH  16  26
BRANCH  11  32
HETATM   32  O4  UNL     1       0.878  50.566 -26.505  1.00  0.00    -0.388 OA
HETATM   33  H25 UNL     1       0.632  49.919 -27.191  1.00  0.00     0.210 HD
ENDBRANCH  11  32
BRANCH  13  34
HETATM   34  O5  UNL     1      -0.357  53.964 -25.650  1.00  0.00    -0.393 OA
HETATM   35  H27 UNL     1      -1.107  53.635 -25.111  1.00  0.00     0.210 HD
ENDBRANCH  13  34
TORSDOF 10
ENDMDL
MODEL 9
REMARK minimizedAffinity -7.94952011
REMARK  10 active torsions:
REMARK  status: ('A' for Active; 'I' for Inactive)
REMARK    1  A    between atoms: C5_5  and  C6_6 
REMARK    2  A    between atoms: C6_6  and  C8_8 
REMARK    3  A    between atoms: C8_8  and  O1_9 
REMARK    4  A    between atoms: O1_9  and  C9_10 
REMARK    5  A    between atoms: C15_18  and  O4_20 
REMARK    6  A    between atoms: C17_21  and  O5_22 
REMARK    7  A    between atoms: C20_25  and  O6_27 
REMARK    8  A    between atoms: O6_27  and  C22_28 
REMARK    9  A    between atoms: C22_28  and  C23_30 
REMARK   10  A    between atoms: C23_30  and  C24_31 
ROOT
HETATM    1  C1  UNL     1       2.234  53.883 -21.400  1.00  0.00     0.015 C 
HETATM    2  C2  UNL     1       1.062  53.294 -21.106  1.00  0.00    -0.082 C 
HETATM    3  C3  UNL     1       0.202  53.804 -19.986  1.00  0.00     0.034 C 
HETATM    4  C4  UNL     1      -0.187  52.656 -19.056  1.00  0.00     0.010 C 
HETATM    5  C5  UNL     1      -1.103  51.665 -19.797  1.00  0.00    -0.001 C 
HETATM    6  C11 UNL     1      -0.385  51.101 -21.045  1.00  0.00     0.033 C 
HETATM    7  C12 UNL     1      -1.224  50.447 -22.191  1.00  0.00     0.162 C 
HETATM    8  O3  UNL     1      -0.507  50.847 -23.363  1.00  0.00    -0.376 OA
HETATM    9  C13 UNL     1      -0.090  52.199 -23.139  1.00  0.00     0.133 C 
HETATM   10  C14 UNL     1       0.669  52.595 -24.387  1.00  0.00     0.072 C 
HETATM   11  C15 UNL     1      -0.292  52.766 -25.607  1.00  0.00     0.082 C 
HETATM   12  C16 UNL     1       0.586  52.903 -26.866  1.00  0.00     0.049 C 
HETATM   13  C17 UNL     1      -1.356  51.618 -25.854  1.00  0.00     0.152 C 
HETATM   14  C18 UNL     1      -2.657  51.644 -24.986  1.00  0.00     0.038 C 
HETATM   15  C19 UNL     1      -3.015  50.450 -24.049  1.00  0.00     0.043 C 
HETATM   16  C20 UNL     1      -2.762  50.638 -22.500  1.00  0.00     0.093 C 
HETATM   17  C21 UNL     1      -3.418  51.940 -22.018  1.00  0.00     0.049 C 
HETATM   18  C26 UNL     1       0.616  52.037 -21.806  1.00  0.00     0.050 C 
ENDROOT
BRANCH   5  19
HETATM   19  C6  UNL     1      -1.678  50.520 -18.902  1.00  0.00     0.010 C 
HETATM   20  C7  UNL     1      -1.043  49.149 -19.172  1.00  0.00     0.012 C 
BRANCH  19  21
HETATM   21  C8  UNL     1      -1.624  50.849 -17.395  1.00  0.00     0.183 C 
BRANCH  21  22
HETATM   22  O1  UNL     1      -2.925  51.122 -16.860  1.00  0.00    -0.321 OA
BRANCH  22  23
HETATM   23  C9  UNL     1      -3.068  51.028 -15.511  1.00  0.00     0.254 C 
HETATM   24  C10 UNL     1      -2.569  49.696 -15.041  1.00  0.00     0.126 C 
HETATM   25  O2  UNL     1      -3.522  51.892 -14.776  1.00  0.00    -0.266 OA
ENDBRANCH  22  23
ENDBRANCH  21  22
ENDBRANCH  19  21
ENDBRANCH   5  19
BRANCH  16  26
HETATM   26  O6  UNL     1      -3.371  49.508 -21.777  1.00  0.00    -0.308 OA
BRANCH  26  27
HETATM   27  C22 UNL     1      -4.688  49.187 -21.891  1.00  0.00     0.259 C 
HETATM   28  O7  UNL     1      -5.616  49.765 -21.345  1.00  0.00    -0.265 OA
BRANCH  27  29
HETATM   29  C23 UNL     1      -4.828  47.944 -22.742  1.00  0.00     0.111 C 
BRANCH  29  30
HETATM   30  C24 UNL     1      -6.208  47.303 -22.629  1.00  0.00     0.005 C 
HETATM   31  C25 UNL     1      -6.961  47.317 -23.951  1.00  0.00     0.005 C 
ENDBRANCH  29  30
ENDBRANCH  27  29
ENDBRANCH  26  27
ENDBRANCH  16  26
BRANCH  11  32
HETATM   32  O4  UNL     1      -0.992  54.012 -25.445  1.00  0.00    -0.388 OA
HETATM   33  H25 UNL     1      -0.342  54.736 -25.502  1.00  0.00     0.210 HD
ENDBRANCH  11  32
BRANCH  13  34
HETATM   34  O5  UNL     1      -0.744  50.331 -25.880  1.00  0.00    -0.393 OA
HETATM   35  H27 UNL     1      -0.442  50.170 -24.961  1.00  0.00     0.210 HD
ENDBRANCH  13  34
TORSDOF 10
ENDMDL
