MODEL 1
REMARK minimizedAffinity -8.26359272
REMARK CNNscore 0.543665051
REMARK CNNaffinity 6.3219738
REMARK  7 active torsions:
REMARK  status: ('A' for Active; 'I' for Inactive)
REMARK    1  A    between atoms: C2_2  and  C4_4 
REMARK    2  A    between atoms: C7_7  and  O1_9 
REMARK    3  A    between atoms: C9_10  and  C10_11 
REMARK    4  A    between atoms: C11_12  and  C12_13 
REMARK    5  A    between atoms: C14_15  and  C15_16 
REMARK    6  A    between atoms: C24_26  and  C26_28 
REMARK    7  A    between atoms: C29_32  and  O4_34 
ROOT
HETATM    1  C15 UNL     1      -7.077  47.428 -27.866  1.00  0.00     0.149 C 
HETATM    2  C16 UNL     1      -8.558  47.256 -27.574  1.00  0.00     0.054 C 
HETATM    3  C17 UNL     1      -9.100  46.270 -28.652  1.00  0.00     0.050 C 
HETATM    4  C18 UNL     1      -7.754  45.614 -29.139  1.00  0.00     0.272 C 
HETATM    5  O2  UNL     1      -7.599  44.211 -29.099  1.00  0.00    -0.360 OA
HETATM    6  C19 UNL     1      -8.410  43.523 -30.036  1.00  0.00     0.171 C 
HETATM    7  C20 UNL     1      -9.774  43.239 -29.435  1.00  0.00     0.027 C 
HETATM    8  C21 UNL     1      -9.924  43.794 -28.024  1.00  0.00     0.012 C 
HETATM    9  C22 UNL     1     -10.214  45.303 -27.952  1.00  0.00     0.032 C 
HETATM   10  C23 UNL     1     -11.684  45.761 -28.238  1.00  0.00    -0.066 C 
HETATM   11  C24 UNL     1     -12.815  45.024 -28.426  1.00  0.00    -0.021 C 
HETATM   12  C25 UNL     1     -13.005  43.542 -28.264  1.00  0.00     0.052 C 
HETATM   13  C27 UNL     1     -11.736  47.273 -28.196  1.00  0.00     0.038 C 
HETATM   14  C28 UNL     1     -11.037  47.863 -29.409  1.00  0.00     0.042 C 
HETATM   15  C29 UNL     1      -9.764  47.090 -29.845  1.00  0.00     0.067 C 
HETATM   16  C30 UNL     1      -8.868  48.118 -30.567  1.00  0.00     0.047 C 
HETATM   17  O5  UNL     1      -6.685  46.157 -28.342  1.00  0.00    -0.351 OA
ENDROOT
BRANCH   1  18
HETATM   18  C14 UNL     1      -6.307  47.865 -26.646  1.00  0.00     0.011 C 
HETATM   19  C12 UNL     1      -5.006  48.201 -26.510  1.00  0.00    -0.064 C 
HETATM   20  C13 UNL     1      -4.040  48.303 -27.664  1.00  0.00     0.048 C 
BRANCH  19  21
HETATM   21  C11 UNL     1      -4.515  48.521 -25.169  1.00  0.00     0.003 C 
HETATM   22  C10 UNL     1      -5.010  49.449 -24.333  1.00  0.00    -0.018 C 
BRANCH  22  23
HETATM   23  C9  UNL     1      -4.481  49.793 -22.953  1.00  0.00     0.050 C 
HETATM   24  C4  UNL     1      -3.058  49.240 -22.617  1.00  0.00     0.024 C 
HETATM   25  C5  UNL     1      -2.417  50.326 -21.741  1.00  0.00     0.013 C 
HETATM   26  C6  UNL     1      -2.932  51.614 -22.370  1.00  0.00     0.039 C 
HETATM   27  C7  UNL     1      -4.417  51.320 -22.614  1.00  0.00     0.062 C 
HETATM   28  C8  UNL     1      -5.018  52.287 -23.631  1.00  0.00     0.046 C 
BRANCH  24  29
HETATM   29  C2  UNL     1      -3.053  47.843 -22.014  1.00  0.00    -0.088 C 
HETATM   30  C1  UNL     1      -1.903  47.172 -21.825  1.00  0.00     0.014 C 
HETATM   31  C3  UNL     1      -4.372  47.216 -21.641  1.00  0.00     0.043 C 
ENDBRANCH  24  29
BRANCH  27  32
HETATM   32  O1  UNL     1      -5.107  51.538 -21.371  1.00  0.00    -0.390 OA
HETATM   33  H14 UNL     1      -6.049  51.345 -21.523  1.00  0.00     0.210 HD
ENDBRANCH  27  32
ENDBRANCH  22  23
ENDBRANCH  19  21
ENDBRANCH   1  18
BRANCH  15  34
HETATM   34  O4  UNL     1     -10.147  46.132 -30.847  1.00  0.00    -0.389 OA
HETATM   35  H44 UNL     1     -10.565  46.604 -31.588  1.00  0.00     0.210 HD
ENDBRANCH  15  34
BRANCH  11  36
HETATM   36  C26 UNL     1     -14.094  45.711 -28.825  1.00  0.00     0.265 C 
HETATM   37  O3  UNL     1     -15.211  45.276 -28.571  1.00  0.00    -0.302 OA
ENDBRANCH  11  36
TORSDOF 7
ENDMDL
MODEL 2
REMARK minimizedAffinity -9.07400894
REMARK CNNscore 0.36371851
REMARK CNNaffinity 6.02831841
REMARK  7 active torsions:
REMARK  status: ('A' for Active; 'I' for Inactive)
REMARK    1  A    between atoms: C2_2  and  C4_4 
REMARK    2  A    between atoms: C7_7  and  O1_9 
REMARK    3  A    between atoms: C9_10  and  C10_11 
REMARK    4  A    between atoms: C11_12  and  C12_13 
REMARK    5  A    between atoms: C14_15  and  C15_16 
REMARK    6  A    between atoms: C24_26  and  C26_28 
REMARK    7  A    between atoms: C29_32  and  O4_34 
ROOT
HETATM    1  C15 UNL     1      -5.318  48.684 -25.592  1.00  0.00     0.149 C 
HETATM    2  C16 UNL     1      -3.929  48.899 -25.014  1.00  0.00     0.054 C 
HETATM    3  C17 UNL     1      -4.119  49.062 -23.476  1.00  0.00     0.050 C 
HETATM    4  C18 UNL     1      -5.552  48.432 -23.300  1.00  0.00     0.272 C 
HETATM    5  O2  UNL     1      -5.747  47.366 -22.394  1.00  0.00    -0.360 OA
HETATM    6  C19 UNL     1      -5.617  47.745 -21.035  1.00  0.00     0.171 C 
HETATM    7  C20 UNL     1      -4.166  47.650 -20.603  1.00  0.00     0.027 C 
HETATM    8  C21 UNL     1      -3.241  47.218 -21.734  1.00  0.00     0.012 C 
HETATM    9  C22 UNL     1      -2.866  48.336 -22.722  1.00  0.00     0.032 C 
HETATM   10  C23 UNL     1      -1.761  49.349 -22.267  1.00  0.00    -0.066 C 
HETATM   11  C24 UNL     1      -0.960  49.342 -21.164  1.00  0.00    -0.021 C 
HETATM   12  C25 UNL     1      -0.805  48.264 -20.127  1.00  0.00     0.052 C 
HETATM   13  C27 UNL     1      -1.602  50.405 -23.340  1.00  0.00     0.038 C 
HETATM   14  C28 UNL     1      -2.809  51.327 -23.361  1.00  0.00     0.042 C 
HETATM   15  C29 UNL     1      -4.159  50.609 -23.101  1.00  0.00     0.067 C 
HETATM   16  C30 UNL     1      -5.239  51.466 -23.794  1.00  0.00     0.047 C 
HETATM   17  O5  UNL     1      -5.982  47.948 -24.585  1.00  0.00    -0.351 OA
ENDROOT
BRANCH   1  18
HETATM   18  C14 UNL     1      -5.275  47.967 -26.916  1.00  0.00     0.011 C 
HETATM   19  C12 UNL     1      -4.701  48.326 -28.084  1.00  0.00    -0.064 C 
HETATM   20  C13 UNL     1      -3.848  49.559 -28.258  1.00  0.00     0.048 C 
BRANCH  19  21
HETATM   21  C11 UNL     1      -4.886  47.448 -29.241  1.00  0.00     0.003 C 
HETATM   22  C10 UNL     1      -5.665  47.683 -30.310  1.00  0.00    -0.018 C 
BRANCH  22  23
HETATM   23  C9  UNL     1      -5.871  46.758 -31.496  1.00  0.00     0.050 C 
HETATM   24  C4  UNL     1      -4.582  46.389 -32.298  1.00  0.00     0.024 C 
HETATM   25  C5  UNL     1      -4.807  44.939 -32.749  1.00  0.00     0.013 C 
HETATM   26  C6  UNL     1      -5.525  44.323 -31.554  1.00  0.00     0.039 C 
HETATM   27  C7  UNL     1      -6.558  45.390 -31.174  1.00  0.00     0.062 C 
HETATM   28  C8  UNL     1      -7.075  45.184 -29.752  1.00  0.00     0.046 C 
BRANCH  24  29
HETATM   29  C2  UNL     1      -4.237  47.362 -33.417  1.00  0.00    -0.088 C 
HETATM   30  C1  UNL     1      -2.961  47.689 -33.685  1.00  0.00     0.014 C 
HETATM   31  C3  UNL     1      -5.363  47.966 -34.216  1.00  0.00     0.043 C 
ENDBRANCH  24  29
BRANCH  27  32
HETATM   32  O1  UNL     1      -7.684  45.228 -32.055  1.00  0.00    -0.390 OA
HETATM   33  H14 UNL     1      -8.338  45.909 -31.819  1.00  0.00     0.210 HD
ENDBRANCH  27  32
ENDBRANCH  22  23
ENDBRANCH  19  21
ENDBRANCH   1  18
BRANCH  15  34
HETATM   34  O4  UNL     1      -4.441  50.689 -21.693  1.00  0.00    -0.389 OA
HETATM   35  H44 UNL     1      -4.463  51.626 -21.430  1.00  0.00     0.210 HD
ENDBRANCH  15  34
BRANCH  11  36
HETATM   36  C26 UNL     1      -0.063  50.519 -20.888  1.00  0.00     0.265 C 
HETATM   37  O3  UNL     1      -0.375  51.461 -20.170  1.00  0.00    -0.302 OA
ENDBRANCH  11  36
TORSDOF 7
ENDMDL
MODEL 3
REMARK minimizedAffinity -7.53926134
REMARK CNNscore 0.348000705
REMARK CNNaffinity 6.14320421
REMARK  7 active torsions:
REMARK  status: ('A' for Active; 'I' for Inactive)
REMARK    1  A    between atoms: C2_2  and  C4_4 
REMARK    2  A    between atoms: C7_7  and  O1_9 
REMARK    3  A    between atoms: C9_10  and  C10_11 
REMARK    4  A    between atoms: C11_12  and  C12_13 
REMARK    5  A    between atoms: C14_15  and  C15_16 
REMARK    6  A    between atoms: C24_26  and  C26_28 
REMARK    7  A    between atoms: C29_32  and  O4_34 
ROOT
HETATM    1  C15 UNL     1      -6.405  47.959 -23.418  1.00  0.00     0.149 C 
HETATM    2  C16 UNL     1      -5.207  48.891 -23.481  1.00  0.00     0.054 C 
HETATM    3  C17 UNL     1      -4.538  48.833 -22.074  1.00  0.00     0.050 C 
HETATM    4  C18 UNL     1      -5.155  47.493 -21.523  1.00  0.00     0.272 C 
HETATM    5  O2  UNL     1      -4.305  46.456 -21.077  1.00  0.00    -0.360 OA
HETATM    6  C19 UNL     1      -3.611  46.766 -19.882  1.00  0.00     0.171 C 
HETATM    7  C20 UNL     1      -2.315  47.488 -20.203  1.00  0.00     0.027 C 
HETATM    8  C21 UNL     1      -2.125  47.720 -21.697  1.00  0.00     0.012 C 
HETATM    9  C22 UNL     1      -2.919  48.906 -22.271  1.00  0.00     0.032 C 
HETATM   10  C23 UNL     1      -2.340  50.340 -22.021  1.00  0.00    -0.066 C 
HETATM   11  C24 UNL     1      -1.154  50.727 -21.472  1.00  0.00    -0.021 C 
HETATM   12  C25 UNL     1       0.019  49.873 -21.078  1.00  0.00     0.052 C 
HETATM   13  C27 UNL     1      -3.305  51.357 -22.592  1.00  0.00     0.038 C 
HETATM   14  C28 UNL     1      -4.563  51.431 -21.743  1.00  0.00     0.042 C 
HETATM   15  C29 UNL     1      -5.035  50.061 -21.191  1.00  0.00     0.067 C 
HETATM   16  C30 UNL     1      -6.557  50.191 -20.974  1.00  0.00     0.047 C 
HETATM   17  O5  UNL     1      -5.970  46.922 -22.562  1.00  0.00    -0.351 OA
ENDROOT
BRANCH   1  18
HETATM   18  C14 UNL     1      -6.811  47.467 -24.783  1.00  0.00     0.011 C 
HETATM   19  C12 UNL     1      -6.247  47.680 -25.991  1.00  0.00    -0.064 C 
HETATM   20  C13 UNL     1      -4.950  48.425 -26.193  1.00  0.00     0.048 C 
BRANCH  19  21
HETATM   21  C11 UNL     1      -6.912  47.123 -27.169  1.00  0.00     0.003 C 
HETATM   22  C10 UNL     1      -8.151  47.412 -27.603  1.00  0.00    -0.018 C 
BRANCH  22  23
HETATM   23  C9  UNL     1      -8.845  46.814 -28.812  1.00  0.00     0.050 C 
HETATM   24  C4  UNL     1     -10.239  46.160 -28.538  1.00  0.00     0.024 C 
HETATM   25  C5  UNL     1     -11.061  46.454 -29.801  1.00  0.00     0.013 C 
HETATM   26  C6  UNL     1     -10.604  47.857 -30.180  1.00  0.00     0.039 C 
HETATM   27  C7  UNL     1      -9.082  47.793 -30.010  1.00  0.00     0.062 C 
HETATM   28  C8  UNL     1      -8.473  49.189 -29.902  1.00  0.00     0.046 C 
BRANCH  24  29
HETATM   29  C2  UNL     1     -10.177  44.693 -28.140  1.00  0.00    -0.088 C 
HETATM   30  C1  UNL     1     -11.298  43.968 -27.981  1.00  0.00     0.014 C 
HETATM   31  C3  UNL     1      -8.825  44.065 -27.915  1.00  0.00     0.043 C 
ENDBRANCH  24  29
BRANCH  27  32
HETATM   32  O1  UNL     1      -8.543  47.192 -31.201  1.00  0.00    -0.390 OA
HETATM   33  H14 UNL     1      -7.577  47.144 -31.091  1.00  0.00     0.210 HD
ENDBRANCH  27  32
ENDBRANCH  22  23
ENDBRANCH  19  21
ENDBRANCH   1  18
BRANCH  15  34
HETATM   34  O4  UNL     1      -4.467  49.889 -19.881  1.00  0.00    -0.389 OA
HETATM   35  H44 UNL     1      -4.746  50.631 -19.318  1.00  0.00     0.210 HD
ENDBRANCH  15  34
BRANCH  11  36
HETATM   36  C26 UNL     1      -0.893  52.188 -21.218  1.00  0.00     0.265 C 
HETATM   37  O3  UNL     1       0.109  52.780 -21.602  1.00  0.00    -0.302 OA
ENDBRANCH  11  36
TORSDOF 7
ENDMDL
MODEL 4
REMARK minimizedAffinity -7.97018909
REMARK CNNscore 0.333131284
REMARK CNNaffinity 6.15899038
REMARK  7 active torsions:
REMARK  status: ('A' for Active; 'I' for Inactive)
REMARK    1  A    between atoms: C2_2  and  C4_4 
REMARK    2  A    between atoms: C7_7  and  O1_9 
REMARK    3  A    between atoms: C9_10  and  C10_11 
REMARK    4  A    between atoms: C11_12  and  C12_13 
REMARK    5  A    between atoms: C14_15  and  C15_16 
REMARK    6  A    between atoms: C24_26  and  C26_28 
REMARK    7  A    between atoms: C29_32  and  O4_34 
ROOT
HETATM    1  C15 UNL     1      -6.172  48.197 -23.510  1.00  0.00     0.149 C 
HETATM    2  C16 UNL     1      -4.999  49.158 -23.421  1.00  0.00     0.054 C 
HETATM    3  C17 UNL     1      -4.366  48.941 -22.013  1.00  0.00     0.050 C 
HETATM    4  C18 UNL     1      -4.960  47.529 -21.651  1.00  0.00     0.272 C 
HETATM    5  O2  UNL     1      -4.094  46.465 -21.312  1.00  0.00    -0.360 OA
HETATM    6  C19 UNL     1      -3.441  46.640 -20.067  1.00  0.00     0.171 C 
HETATM    7  C20 UNL     1      -2.157  47.428 -20.258  1.00  0.00     0.027 C 
HETATM    8  C21 UNL     1      -1.934  47.849 -21.704  1.00  0.00     0.012 C 
HETATM    9  C22 UNL     1      -2.746  49.078 -22.150  1.00  0.00     0.032 C 
HETATM   10  C23 UNL     1      -2.214  50.483 -21.707  1.00  0.00    -0.066 C 
HETATM   11  C24 UNL     1      -1.054  50.828 -21.079  1.00  0.00    -0.021 C 
HETATM   12  C25 UNL     1       0.131  49.960 -20.759  1.00  0.00     0.052 C 
HETATM   13  C27 UNL     1      -3.192  51.540 -22.176  1.00  0.00     0.038 C 
HETATM   14  C28 UNL     1      -4.473  51.476 -21.363  1.00  0.00     0.042 C 
HETATM   15  C29 UNL     1      -4.922  50.037 -20.999  1.00  0.00     0.067 C 
HETATM   16  C30 UNL     1      -6.452  50.102 -20.814  1.00  0.00     0.047 C 
HETATM   17  O5  UNL     1      -5.731  47.071 -22.777  1.00  0.00    -0.351 OA
ENDROOT
BRANCH   1  18
HETATM   18  C14 UNL     1      -6.528  47.869 -24.937  1.00  0.00     0.011 C 
HETATM   19  C12 UNL     1      -7.527  47.110 -25.435  1.00  0.00    -0.064 C 
HETATM   20  C13 UNL     1      -8.610  46.487 -24.589  1.00  0.00     0.048 C 
BRANCH  19  21
HETATM   21  C11 UNL     1      -7.585  46.912 -26.884  1.00  0.00     0.003 C 
HETATM   22  C10 UNL     1      -8.062  47.778 -27.794  1.00  0.00    -0.018 C 
BRANCH  22  23
HETATM   23  C9  UNL     1      -8.141  47.557 -29.293  1.00  0.00     0.050 C 
HETATM   24  C4  UNL     1      -7.150  46.497 -29.874  1.00  0.00     0.024 C 
HETATM   25  C5  UNL     1      -7.925  45.824 -31.016  1.00  0.00     0.013 C 
HETATM   26  C6  UNL     1      -9.344  45.758 -30.465  1.00  0.00     0.039 C 
HETATM   27  C7  UNL     1      -9.548  47.145 -29.843  1.00  0.00     0.062 C 
HETATM   28  C8  UNL     1     -10.712  47.148 -28.855  1.00  0.00     0.046 C 
BRANCH  24  29
HETATM   29  C2  UNL     1      -5.790  47.057 -30.265  1.00  0.00    -0.088 C 
HETATM   30  C1  UNL     1      -5.167  47.968 -29.497  1.00  0.00     0.014 C 
HETATM   31  C3  UNL     1      -5.155  46.577 -31.545  1.00  0.00     0.043 C 
ENDBRANCH  24  29
BRANCH  27  32
HETATM   32  O1  UNL     1      -9.901  48.045 -30.908  1.00  0.00    -0.390 OA
HETATM   33  H14 UNL     1     -10.023  48.927 -30.515  1.00  0.00     0.210 HD
ENDBRANCH  27  32
ENDBRANCH  22  23
ENDBRANCH  19  21
ENDBRANCH   1  18
BRANCH  15  34
HETATM   34  O4  UNL     1      -4.384  49.717 -19.705  1.00  0.00    -0.389 OA
HETATM   35  H44 UNL     1      -4.699  50.376 -19.062  1.00  0.00     0.210 HD
ENDBRANCH  15  34
BRANCH  11  36
HETATM   36  C26 UNL     1      -0.841  52.252 -20.638  1.00  0.00     0.265 C 
HETATM   37  O3  UNL     1       0.071  52.963 -21.043  1.00  0.00    -0.302 OA
ENDBRANCH  11  36
TORSDOF 7
ENDMDL
MODEL 5
REMARK minimizedAffinity -7.51769018
REMARK CNNscore 0.316378385
REMARK CNNaffinity 6.00064802
REMARK  7 active torsions:
REMARK  status: ('A' for Active; 'I' for Inactive)
REMARK    1  A    between atoms: C2_2  and  C4_4 
REMARK    2  A    between atoms: C7_7  and  O1_9 
REMARK    3  A    between atoms: C9_10  and  C10_11 
REMARK    4  A    between atoms: C11_12  and  C12_13 
REMARK    5  A    between atoms: C14_15  and  C15_16 
REMARK    6  A    between atoms: C24_26  and  C26_28 
REMARK    7  A    between atoms: C29_32  and  O4_34 
ROOT
HETATM    1  C15 UNL     1      -0.380  52.679 -12.655  1.00  0.00     0.149 C 
HETATM    2  C16 UNL     1      -0.752  51.252 -12.290  1.00  0.00     0.054 C 
HETATM    3  C17 UNL     1      -1.132  50.547 -13.627  1.00  0.00     0.050 C 
HETATM    4  C18 UNL     1      -0.461  51.524 -14.662  1.00  0.00     0.272 C 
HETATM    5  O2  UNL     1       0.468  51.026 -15.603  1.00  0.00    -0.360 OA
HETATM    6  C19 UNL     1      -0.116  50.192 -16.590  1.00  0.00     0.171 C 
HETATM    7  C20 UNL     1      -0.162  48.757 -16.098  1.00  0.00     0.027 C 
HETATM    8  C21 UNL     1       0.383  48.600 -14.684  1.00  0.00     0.012 C 
HETATM    9  C22 UNL     1      -0.594  49.007 -13.568  1.00  0.00     0.032 C 
HETATM   10  C23 UNL     1      -1.720  47.983 -13.198  1.00  0.00    -0.066 C 
HETATM   11  C24 UNL     1      -1.919  46.702 -13.620  1.00  0.00    -0.021 C 
HETATM   12  C25 UNL     1      -1.018  45.843 -14.462  1.00  0.00     0.052 C 
HETATM   13  C27 UNL     1      -2.612  48.605 -12.144  1.00  0.00     0.038 C 
HETATM   14  C28 UNL     1      -3.455  49.714 -12.749  1.00  0.00     0.042 C 
HETATM   15  C29 UNL     1      -2.713  50.565 -13.813  1.00  0.00     0.067 C 
HETATM   16  C30 UNL     1      -3.400  51.947 -13.807  1.00  0.00     0.047 C 
HETATM   17  O5  UNL     1       0.232  52.545 -13.922  1.00  0.00    -0.351 OA
ENDROOT
BRANCH   1  18
HETATM   18  C14 UNL     1       0.522  53.310 -11.627  1.00  0.00     0.011 C 
HETATM   19  C12 UNL     1       0.272  54.286 -10.728  1.00  0.00    -0.064 C 
HETATM   20  C13 UNL     1      -1.090  54.897 -10.508  1.00  0.00     0.048 C 
BRANCH  19  21
HETATM   21  C11 UNL     1       1.379  54.751  -9.891  1.00  0.00     0.003 C 
HETATM   22  C10 UNL     1       1.282  55.439  -8.741  1.00  0.00    -0.018 C 
BRANCH  22  23
HETATM   23  C9  UNL     1       2.434  55.940  -7.890  1.00  0.00     0.050 C 
HETATM   24  C4  UNL     1       3.540  56.740  -8.653  1.00  0.00     0.024 C 
HETATM   25  C5  UNL     1       4.005  57.809  -7.653  1.00  0.00     0.013 C 
HETATM   26  C6  UNL     1       2.711  58.197  -6.949  1.00  0.00     0.039 C 
HETATM   27  C7  UNL     1       2.036  56.847  -6.678  1.00  0.00     0.062 C 
HETATM   28  C8  UNL     1       0.546  57.015  -6.392  1.00  0.00     0.046 C 
BRANCH  24  29
HETATM   29  C2  UNL     1       4.651  55.878  -9.234  1.00  0.00    -0.088 C 
HETATM   30  C1  UNL     1       5.637  55.397  -8.456  1.00  0.00     0.014 C 
HETATM   31  C3  UNL     1       4.632  55.580 -10.711  1.00  0.00     0.043 C 
ENDBRANCH  24  29
BRANCH  27  32
HETATM   32  O1  UNL     1       2.632  56.301  -5.488  1.00  0.00    -0.390 OA
HETATM   33  H14 UNL     1       2.210  55.441  -5.319  1.00  0.00     0.210 HD
ENDBRANCH  27  32
ENDBRANCH  22  23
ENDBRANCH  19  21
ENDBRANCH   1  18
BRANCH  15  34
HETATM   34  O4  UNL     1      -2.987  49.998 -15.106  1.00  0.00    -0.389 OA
HETATM   35  H44 UNL     1      -3.950  49.986 -15.247  1.00  0.00     0.210 HD
ENDBRANCH  15  34
BRANCH  11  36
HETATM   36  C26 UNL     1      -3.170  45.970 -13.212  1.00  0.00     0.265 C 
HETATM   37  O3  UNL     1      -3.954  45.464 -14.006  1.00  0.00    -0.302 OA
ENDBRANCH  11  36
TORSDOF 7
ENDMDL
MODEL 6
REMARK minimizedAffinity -7.58137131
REMARK CNNscore 0.310726821
REMARK CNNaffinity 5.84654379
REMARK  7 active torsions:
REMARK  status: ('A' for Active; 'I' for Inactive)
REMARK    1  A    between atoms: C2_2  and  C4_4 
REMARK    2  A    between atoms: C7_7  and  O1_9 
REMARK    3  A    between atoms: C9_10  and  C10_11 
REMARK    4  A    between atoms: C11_12  and  C12_13 
REMARK    5  A    between atoms: C14_15  and  C15_16 
REMARK    6  A    between atoms: C24_26  and  C26_28 
REMARK    7  A    between atoms: C29_32  and  O4_34 
ROOT
HETATM    1  C15 UNL     1      -7.327  46.890 -23.301  1.00  0.00     0.149 C 
HETATM    2  C16 UNL     1      -6.391  48.029 -22.936  1.00  0.00     0.054 C 
HETATM    3  C17 UNL     1      -5.829  47.693 -21.522  1.00  0.00     0.050 C 
HETATM    4  C18 UNL     1      -6.139  46.151 -21.454  1.00  0.00     0.272 C 
HETATM    5  O2  UNL     1      -5.097  45.233 -21.198  1.00  0.00    -0.360 OA
HETATM    6  C19 UNL     1      -4.585  45.308 -19.878  1.00  0.00     0.171 C 
HETATM    7  C20 UNL     1      -3.484  46.350 -19.804  1.00  0.00     0.027 C 
HETATM    8  C21 UNL     1      -3.251  47.056 -21.134  1.00  0.00     0.012 C 
HETATM    9  C22 UNL     1      -4.267  48.163 -21.463  1.00  0.00     0.032 C 
HETATM   10  C23 UNL     1      -4.074  49.544 -20.748  1.00  0.00    -0.066 C 
HETATM   11  C24 UNL     1      -3.060  49.990 -19.954  1.00  0.00    -0.021 C 
HETATM   12  C25 UNL     1      -1.746  49.326 -19.652  1.00  0.00     0.052 C 
HETATM   13  C27 UNL     1      -5.215  50.457 -21.145  1.00  0.00     0.038 C 
HETATM   14  C28 UNL     1      -6.510  50.004 -20.492  1.00  0.00     0.042 C 
HETATM   15  C29 UNL     1      -6.673  48.463 -20.412  1.00  0.00     0.067 C 
HETATM   16  C30 UNL     1      -8.192  48.197 -20.381  1.00  0.00     0.047 C 
HETATM   17  O5  UNL     1      -6.715  45.760 -22.713  1.00  0.00    -0.351 OA
ENDROOT
BRANCH   1  18
HETATM   18  C14 UNL     1      -7.504  46.757 -24.791  1.00  0.00     0.011 C 
HETATM   19  C12 UNL     1      -8.282  47.458 -25.644  1.00  0.00    -0.064 C 
HETATM   20  C13 UNL     1      -9.102  48.658 -25.238  1.00  0.00     0.048 C 
BRANCH  19  21
HETATM   21  C11 UNL     1      -8.301  47.054 -27.050  1.00  0.00     0.003 C 
HETATM   22  C10 UNL     1      -8.008  47.824 -28.111  1.00  0.00    -0.018 C 
BRANCH  22  23
HETATM   23  C9  UNL     1      -8.053  47.405 -29.569  1.00  0.00     0.050 C 
HETATM   24  C4  UNL     1      -9.048  48.205 -30.472  1.00  0.00     0.024 C 
HETATM   25  C5  UNL     1      -8.351  48.291 -31.836  1.00  0.00     0.013 C 
HETATM   26  C6  UNL     1      -6.887  48.471 -31.455  1.00  0.00     0.039 C 
HETATM   27  C7  UNL     1      -6.686  47.451 -30.328  1.00  0.00     0.062 C 
HETATM   28  C8  UNL     1      -5.439  47.767 -29.505  1.00  0.00     0.046 C 
BRANCH  24  29
HETATM   29  C2  UNL     1     -10.459  47.636 -30.507  1.00  0.00    -0.088 C 
HETATM   30  C1  UNL     1     -11.325  47.861 -29.503  1.00  0.00     0.014 C 
HETATM   31  C3  UNL     1     -10.868  46.799 -31.692  1.00  0.00     0.043 C 
ENDBRANCH  24  29
BRANCH  27  32
HETATM   32  O1  UNL     1      -6.466  46.170 -30.945  1.00  0.00    -0.390 OA
HETATM   33  H14 UNL     1      -6.345  45.520 -30.232  1.00  0.00     0.210 HD
ENDBRANCH  27  32
ENDBRANCH  22  23
ENDBRANCH  19  21
ENDBRANCH   1  18
BRANCH  15  34
HETATM   34  O4  UNL     1      -6.174  48.030 -19.134  1.00  0.00    -0.389 OA
HETATM   35  H44 UNL     1      -6.665  48.491 -18.432  1.00  0.00     0.210 HD
ENDBRANCH  15  34
BRANCH  11  36
HETATM   36  C26 UNL     1      -3.182  51.327 -19.273  1.00  0.00     0.265 C 
HETATM   37  O3  UNL     1      -2.664  51.593 -18.194  1.00  0.00    -0.302 OA
ENDBRANCH  11  36
TORSDOF 7
ENDMDL
MODEL 7
REMARK minimizedAffinity -7.5382061
REMARK CNNscore 0.296284407
REMARK CNNaffinity 6.00182724
REMARK  7 active torsions:
REMARK  status: ('A' for Active; 'I' for Inactive)
REMARK    1  A    between atoms: C2_2  and  C4_4 
REMARK    2  A    between atoms: C7_7  and  O1_9 
REMARK    3  A    between atoms: C9_10  and  C10_11 
REMARK    4  A    between atoms: C11_12  and  C12_13 
REMARK    5  A    between atoms: C14_15  and  C15_16 
REMARK    6  A    between atoms: C24_26  and  C26_28 
REMARK    7  A    between atoms: C29_32  and  O4_34 
ROOT
HETATM    1  C15 UNL     1      -1.818  51.259 -13.136  1.00  0.00     0.149 C 
HETATM    2  C16 UNL     1      -1.336  52.557 -12.511  1.00  0.00     0.054 C 
HETATM    3  C17 UNL     1      -1.038  52.233 -11.015  1.00  0.00     0.050 C 
HETATM    4  C18 UNL     1      -0.922  50.664 -11.083  1.00  0.00     0.272 C 
HETATM    5  O2  UNL     1       0.246  50.022 -10.615  1.00  0.00    -0.360 OA
HETATM    6  C19 UNL     1       0.406  50.091  -9.208  1.00  0.00     0.171 C 
HETATM    7  C20 UNL     1       1.134  51.367  -8.828  1.00  0.00     0.027 C 
HETATM    8  C21 UNL     1       1.460  52.241 -10.032  1.00  0.00     0.012 C 
HETATM    9  C22 UNL     1       0.281  53.079 -10.558  1.00  0.00     0.032 C 
HETATM   10  C23 UNL     1      -0.076  54.382  -9.766  1.00  0.00    -0.066 C 
HETATM   11  C24 UNL     1       0.571  54.990  -8.732  1.00  0.00    -0.021 C 
HETATM   12  C25 UNL     1       1.913  54.657  -8.142  1.00  0.00     0.052 C 
HETATM   13  C27 UNL     1      -1.303  55.008 -10.395  1.00  0.00     0.038 C 
HETATM   14  C28 UNL     1      -2.537  54.175 -10.097  1.00  0.00     0.042 C 
HETATM   15  C29 UNL     1      -2.287  52.644 -10.117  1.00  0.00     0.067 C 
HETATM   16  C30 UNL     1      -3.642  51.996 -10.470  1.00  0.00     0.047 C 
HETATM   17  O5  UNL     1      -1.069  50.269 -12.459  1.00  0.00    -0.351 OA
ENDROOT
BRANCH   1  18
HETATM   18  C14 UNL     1      -1.610  51.239 -14.628  1.00  0.00     0.011 C 
HETATM   19  C12 UNL     1      -1.918  50.290 -15.539  1.00  0.00    -0.064 C 
HETATM   20  C13 UNL     1      -2.673  49.025 -15.213  1.00  0.00     0.048 C 
BRANCH  19  21
HETATM   21  C11 UNL     1      -1.528  50.521 -16.931  1.00  0.00     0.003 C 
HETATM   22  C10 UNL     1      -2.258  51.137 -17.877  1.00  0.00    -0.018 C 
BRANCH  22  23
HETATM   23  C9  UNL     1      -1.858  51.351 -19.325  1.00  0.00     0.050 C 
HETATM   24  C4  UNL     1      -0.330  51.227 -19.631  1.00  0.00     0.024 C 
HETATM   25  C5  UNL     1      -0.264  50.604 -21.032  1.00  0.00     0.013 C 
HETATM   26  C6  UNL     1      -1.426  49.618 -21.017  1.00  0.00     0.039 C 
HETATM   27  C7  UNL     1      -2.561  50.417 -20.366  1.00  0.00     0.062 C 
HETATM   28  C8  UNL     1      -3.664  49.499 -19.847  1.00  0.00     0.046 C 
BRANCH  24  29
HETATM   29  C2  UNL     1       0.450  52.524 -19.468  1.00  0.00    -0.088 C 
HETATM   30  C1  UNL     1       0.518  53.424 -20.465  1.00  0.00     0.014 C 
HETATM   31  C3  UNL     1       1.160  52.777 -18.163  1.00  0.00     0.043 C 
ENDBRANCH  24  29
BRANCH  27  32
HETATM   32  O1  UNL     1      -3.147  51.239 -21.390  1.00  0.00    -0.390 OA
HETATM   33  H14 UNL     1      -3.864  51.752 -20.977  1.00  0.00     0.210 HD
ENDBRANCH  27  32
ENDBRANCH  22  23
ENDBRANCH  19  21
ENDBRANCH   1  18
BRANCH  15  34
HETATM   34  O4  UNL     1      -1.991  52.224  -8.774  1.00  0.00    -0.389 OA
HETATM   35  H44 UNL     1      -2.734  52.471  -8.197  1.00  0.00     0.210 HD
ENDBRANCH  15  34
BRANCH  11  36
HETATM   36  C26 UNL     1      -0.061  56.174  -8.051  1.00  0.00     0.265 C 
HETATM   37  O3  UNL     1      -0.448  56.167  -6.888  1.00  0.00    -0.302 OA
ENDBRANCH  11  36
TORSDOF 7
ENDMDL
MODEL 8
REMARK minimizedAffinity -7.43106079
REMARK CNNscore 0.28167063
REMARK CNNaffinity 6.34974813
REMARK  7 active torsions:
REMARK  status: ('A' for Active; 'I' for Inactive)
REMARK    1  A    between atoms: C2_2  and  C4_4 
REMARK    2  A    between atoms: C7_7  and  O1_9 
REMARK    3  A    between atoms: C9_10  and  C10_11 
REMARK    4  A    between atoms: C11_12  and  C12_13 
REMARK    5  A    between atoms: C14_15  and  C15_16 
REMARK    6  A    between atoms: C24_26  and  C26_28 
REMARK    7  A    between atoms: C29_32  and  O4_34 
ROOT
HETATM    1  C15 UNL     1      -0.673  51.514 -12.686  1.00  0.00     0.149 C 
HETATM    2  C16 UNL     1       0.212  52.717 -12.411  1.00  0.00     0.054 C 
HETATM    3  C17 UNL     1       0.962  52.408 -11.079  1.00  0.00     0.050 C 
HETATM    4  C18 UNL     1       0.778  50.847 -11.007  1.00  0.00     0.272 C 
HETATM    5  O2  UNL     1       1.909  50.008 -10.894  1.00  0.00    -0.360 OA
HETATM    6  C19 UNL     1       2.567  50.107  -9.642  1.00  0.00     0.171 C 
HETATM    7  C20 UNL     1       3.588  51.229  -9.677  1.00  0.00     0.027 C 
HETATM    8  C21 UNL     1       3.608  51.966 -11.010  1.00  0.00     0.012 C 
HETATM    9  C22 UNL     1       2.481  52.996 -11.195  1.00  0.00     0.032 C 
HETATM   10  C23 UNL     1       2.654  54.379 -10.480  1.00  0.00    -0.066 C 
HETATM   11  C24 UNL     1       3.719  54.892  -9.802  1.00  0.00    -0.021 C 
HETATM   12  C25 UNL     1       5.105  54.327  -9.669  1.00  0.00     0.052 C 
HETATM   13  C27 UNL     1       1.409  55.207 -10.721  1.00  0.00     0.038 C 
HETATM   14  C28 UNL     1       0.239  54.649  -9.930  1.00  0.00     0.042 C 
HETATM   15  C29 UNL     1       0.202  53.100  -9.862  1.00  0.00     0.067 C 
HETATM   16  C30 UNL     1      -1.279  52.717  -9.659  1.00  0.00     0.047 C 
HETATM   17  O5  UNL     1       0.088  50.427 -12.198  1.00  0.00    -0.351 OA
ENDROOT
BRANCH   1  18
HETATM   18  C14 UNL     1      -1.015  51.385 -14.148  1.00  0.00     0.011 C 
HETATM   19  C12 UNL     1      -0.235  51.058 -15.201  1.00  0.00    -0.064 C 
HETATM   20  C13 UNL     1       1.208  50.634 -15.078  1.00  0.00     0.048 C 
BRANCH  19  21
HETATM   21  C11 UNL     1      -0.835  51.081 -16.535  1.00  0.00     0.003 C 
HETATM   22  C10 UNL     1      -0.333  50.526 -17.651  1.00  0.00    -0.018 C 
BRANCH  22  23
HETATM   23  C9  UNL     1      -0.948  50.573 -19.037  1.00  0.00     0.050 C 
HETATM   24  C4  UNL     1       0.047  50.851 -20.210  1.00  0.00     0.024 C 
HETATM   25  C5  UNL     1      -0.495  50.024 -21.384  1.00  0.00     0.013 C 
HETATM   26  C6  UNL     1      -1.001  48.760 -20.700  1.00  0.00     0.039 C 
HETATM   27  C7  UNL     1      -1.742  49.296 -19.469  1.00  0.00     0.062 C 
HETATM   28  C8  UNL     1      -1.939  48.207 -18.418  1.00  0.00     0.046 C 
BRANCH  24  29
HETATM   29  C2  UNL     1       0.267  52.326 -20.512  1.00  0.00    -0.088 C 
HETATM   30  C1  UNL     1       0.753  52.728 -21.700  1.00  0.00     0.014 C 
HETATM   31  C3  UNL     1      -0.063  53.336 -19.442  1.00  0.00     0.043 C 
ENDBRANCH  24  29
BRANCH  27  32
HETATM   32  O1  UNL     1      -3.053  49.701 -19.902  1.00  0.00    -0.390 OA
HETATM   33  H14 UNL     1      -3.523  50.048 -19.124  1.00  0.00     0.210 HD
ENDBRANCH  27  32
ENDBRANCH  22  23
ENDBRANCH  19  21
ENDBRANCH   1  18
BRANCH  15  34
HETATM   34  O4  UNL     1       0.879  52.691  -8.662  1.00  0.00    -0.389 OA
HETATM   35  H44 UNL     1       0.442  53.105  -7.898  1.00  0.00     0.210 HD
ENDBRANCH  15  34
BRANCH  11  36
HETATM   36  C26 UNL     1       3.580  56.208  -9.084  1.00  0.00     0.265 C 
HETATM   37  O3  UNL     1       4.393  56.631  -8.270  1.00  0.00    -0.302 OA
ENDBRANCH  11  36
TORSDOF 7
ENDMDL
MODEL 9
REMARK minimizedAffinity -7.39743376
REMARK CNNscore 0.268223226
REMARK CNNaffinity 5.82056475
REMARK  7 active torsions:
REMARK  status: ('A' for Active; 'I' for Inactive)
REMARK    1  A    between atoms: C2_2  and  C4_4 
REMARK    2  A    between atoms: C7_7  and  O1_9 
REMARK    3  A    between atoms: C9_10  and  C10_11 
REMARK    4  A    between atoms: C11_12  and  C12_13 
REMARK    5  A    between atoms: C14_15  and  C15_16 
REMARK    6  A    between atoms: C24_26  and  C26_28 
REMARK    7  A    between atoms: C29_32  and  O4_34 
ROOT
HETATM    1  C15 UNL     1      -6.741  47.926 -28.212  1.00  0.00     0.149 C 
HETATM    2  C16 UNL     1      -7.563  46.849 -28.898  1.00  0.00     0.054 C 
HETATM    3  C17 UNL     1      -7.247  46.968 -30.420  1.00  0.00     0.050 C 
HETATM    4  C18 UNL     1      -5.904  47.786 -30.368  1.00  0.00     0.272 C 
HETATM    5  O2  UNL     1      -4.743  47.277 -30.992  1.00  0.00    -0.360 OA
HETATM    6  C19 UNL     1      -4.818  47.266 -32.408  1.00  0.00     0.171 C 
HETATM    7  C20 UNL     1      -5.460  45.977 -32.885  1.00  0.00     0.027 C 
HETATM    8  C21 UNL     1      -5.883  45.069 -31.738  1.00  0.00     0.012 C 
HETATM    9  C22 UNL     1      -7.204  45.465 -31.056  1.00  0.00     0.032 C 
HETATM   10  C23 UNL     1      -8.532  45.076 -31.791  1.00  0.00    -0.066 C 
HETATM   11  C24 UNL     1      -8.731  44.317 -32.906  1.00  0.00    -0.021 C 
HETATM   12  C25 UNL     1      -7.729  43.501 -33.674  1.00  0.00     0.052 C 
HETATM   13  C27 UNL     1      -9.700  45.623 -31.000  1.00  0.00     0.038 C 
HETATM   14  C28 UNL     1      -9.765  47.136 -31.124  1.00  0.00     0.042 C 
HETATM   15  C29 UNL     1      -8.378  47.830 -31.138  1.00  0.00     0.067 C 
HETATM   16  C30 UNL     1      -8.610  49.258 -30.602  1.00  0.00     0.047 C 
HETATM   17  O5  UNL     1      -5.559  47.981 -28.984  1.00  0.00    -0.351 OA
ENDROOT
BRANCH   1  18
HETATM   18  C14 UNL     1      -6.485  47.604 -26.762  1.00  0.00     0.011 C 
HETATM   19  C12 UNL     1      -7.296  47.709 -25.688  1.00  0.00    -0.064 C 
HETATM   20  C13 UNL     1      -8.751  48.104 -25.770  1.00  0.00     0.048 C 
BRANCH  19  21
HETATM   21  C11 UNL     1      -6.743  47.384 -24.373  1.00  0.00     0.003 C 
HETATM   22  C10 UNL     1      -6.387  48.256 -23.415  1.00  0.00    -0.018 C 
BRANCH  22  23
HETATM   23  C9  UNL     1      -5.792  47.915 -22.061  1.00  0.00     0.050 C 
HETATM   24  C4  UNL     1      -4.523  48.732 -21.654  1.00  0.00     0.024 C 
HETATM   25  C5  UNL     1      -4.647  48.911 -20.135  1.00  0.00     0.013 C 
HETATM   26  C6  UNL     1      -6.144  49.111 -19.940  1.00  0.00     0.039 C 
HETATM   27  C7  UNL     1      -6.766  48.038 -20.843  1.00  0.00     0.062 C 
HETATM   28  C8  UNL     1      -8.230  48.345 -21.147  1.00  0.00     0.046 C 
BRANCH  24  29
HETATM   29  C2  UNL     1      -3.208  48.127 -22.125  1.00  0.00    -0.088 C 
HETATM   30  C1  UNL     1      -2.495  47.310 -21.329  1.00  0.00     0.014 C 
HETATM   31  C3  UNL     1      -2.710  48.472 -23.505  1.00  0.00     0.043 C 
ENDBRANCH  24  29
BRANCH  27  32
HETATM   32  O1  UNL     1      -6.740  46.799 -20.113  1.00  0.00    -0.390 OA
HETATM   33  H14 UNL     1      -7.128  46.115 -20.687  1.00  0.00     0.210 HD
ENDBRANCH  27  32
ENDBRANCH  22  23
ENDBRANCH  19  21
ENDBRANCH   1  18
BRANCH  15  34
HETATM   34  O4  UNL     1      -7.973  47.988 -32.509  1.00  0.00    -0.389 OA
HETATM   35  H44 UNL     1      -8.651  48.506 -32.979  1.00  0.00     0.210 HD
ENDBRANCH  15  34
BRANCH  11  36
HETATM   36  C26 UNL     1     -10.112  44.207 -33.494  1.00  0.00     0.265 C 
HETATM   37  O3  UNL     1     -10.822  43.213 -33.388  1.00  0.00    -0.302 OA
ENDBRANCH  11  36
TORSDOF 7
ENDMDL
