MODEL 1
REMARK minimizedAffinity -9.8924036
REMARK CNNscore 0.77363044
REMARK CNNaffinity 7.34448099
REMARK  13 active torsions:
REMARK  status: ('A' for Active; 'I' for Inactive)
REMARK    1  A    between atoms: C2_2  and  C3_3 
REMARK    2  A    between atoms: C3_3  and  C5_5 
REMARK    3  A    between atoms: C5_5  and  N1_6 
REMARK    4  A    between atoms: C5_5  and  C31_39 
REMARK       I    between atoms: N1_6  and  C6_7 
REMARK    5  A    between atoms: C6_7  and  C7_9 
REMARK    6  A    between atoms: C7_9  and  C8_10 
REMARK    7  A    between atoms: C8_10  and  C9_11 
REMARK    8  A    between atoms: C9_11  and  O3_13 
REMARK    9  A    between atoms: O3_13  and  C10_14 
REMARK   10  A    between atoms: C10_14  and  C11_15 
REMARK   11  A    between atoms: C11_15  and  C12_17 
REMARK   12  A    between atoms: C12_17  and  O5_18 
REMARK   13  A    between atoms: C31_39  and  O9_41 
ROOT
HETATM    1  C12 UNL     1      -6.364  49.447 -22.391  1.00  0.00     0.128 C 
HETATM    2  C13 UNL     1      -6.970  49.470 -20.972  1.00  0.00     0.047 C 
HETATM    3  C14 UNL     1      -5.853  49.972 -20.033  1.00  0.00     0.009 C 
HETATM    4  C15 UNL     1      -4.704  50.350 -20.963  1.00  0.00     0.002 C 
HETATM    5  C16 UNL     1      -3.285  50.438 -20.383  1.00  0.00     0.003 C 
HETATM    6  C17 UNL     1      -3.232  51.430 -19.212  1.00  0.00     0.010 C 
HETATM    7  C18 UNL     1      -1.814  51.589 -18.677  1.00  0.00     0.035 C 
HETATM    8  C19 UNL     1      -0.847  51.975 -19.772  1.00  0.00    -0.067 C 
HETATM    9  C20 UNL     1      -0.066  53.059 -19.615  1.00  0.00     0.053 C 
HETATM   10  C21 UNL     1       0.950  53.432 -20.624  1.00  0.00     0.149 C 
HETATM   11  O6  UNL     1       1.506  54.523 -20.555  1.00  0.00    -0.293 OA
HETATM   12  C22 UNL     1       1.278  52.418 -21.683  1.00  0.00     0.084 C 
HETATM   13  C23 UNL     1      -0.005  51.754 -22.162  1.00  0.00     0.022 C 
HETATM   14  C24 UNL     1      -0.829  51.073 -21.024  1.00  0.00    -0.009 C 
HETATM   15  C25 UNL     1      -0.155  49.738 -20.636  1.00  0.00     0.021 C 
HETATM   16  C26 UNL     1      -2.310  50.884 -21.513  1.00  0.00     0.072 C 
HETATM   17  C27 UNL     1      -2.496  49.981 -22.750  1.00  0.00     0.133 C 
HETATM   18  O7  UNL     1      -1.562  49.454 -23.351  1.00  0.00    -0.297 OA
HETATM   19  C28 UNL     1      -3.921  49.822 -23.267  1.00  0.00     0.091 C 
HETATM   20  C29 UNL     1      -4.833  49.341 -22.133  1.00  0.00     0.005 C 
HETATM   21  C30 UNL     1      -4.430  47.897 -21.743  1.00  0.00     0.019 C 
ENDROOT
BRANCH   1  22
HETATM   22  C11 UNL     1      -6.939  48.419 -23.381  1.00  0.00     0.185 C 
HETATM   23  O4  UNL     1      -7.602  47.471 -22.936  1.00  0.00    -0.292 OA
BRANCH  22  24
HETATM   24  C10 UNL     1      -6.642  48.566 -24.871  1.00  0.00     0.260 C 
BRANCH  24  25
HETATM   25  O3  UNL     1      -5.314  48.141 -25.185  1.00  0.00    -0.314 OA
BRANCH  25  26
HETATM   26  C9  UNL     1      -5.029  48.135 -26.517  1.00  0.00     0.259 C 
HETATM   27  O2  UNL     1      -5.831  47.868 -27.400  1.00  0.00    -0.265 OA
BRANCH  26  28
HETATM   28  C8  UNL     1      -3.580  48.443 -26.748  1.00  0.00     0.120 C 
BRANCH  28  29
HETATM   29  C7  UNL     1      -3.465  49.648 -27.666  1.00  0.00     0.112 C 
BRANCH  29  30
HETATM   30  C6  UNL     1      -3.031  50.885 -26.912  1.00  0.00     0.218 C 
HETATM   31  N1  UNL     1      -1.776  51.313 -27.270  1.00  0.00    -0.346 N 
HETATM   32  H11 UNL     1      -1.367  50.951 -28.129  1.00  0.00     0.163 HD
HETATM   33  O1  UNL     1      -3.721  51.431 -26.058  1.00  0.00    -0.274 OA
BRANCH  31  34
HETATM   34  C5  UNL     1      -1.212  52.577 -26.791  1.00  0.00     0.186 C 
BRANCH  34  35
HETATM   35  C3  UNL     1       0.116  52.381 -26.018  1.00  0.00     0.014 C 
HETATM   36  C4  UNL     1       0.539  53.648 -25.260  1.00  0.00     0.012 C 
BRANCH  35  37
HETATM   37  C2  UNL     1       1.233  51.888 -26.963  1.00  0.00     0.002 C 
HETATM   38  C1  UNL     1       2.368  51.171 -26.243  1.00  0.00     0.005 C 
ENDBRANCH  35  37
ENDBRANCH  34  35
BRANCH  34  39
HETATM   39  C31 UNL     1      -1.008  53.540 -27.971  1.00  0.00     0.163 C 
HETATM   40  O8  UNL     1      -1.513  54.643 -28.105  1.00  0.00    -0.648 OA
BRANCH  39  41
HETATM   41  O9  UNL     1      -0.145  53.074 -28.906  1.00  0.00    -0.775 OA
HETATM   42  H43 UNL     1      -0.128  53.790 -29.578  1.00  0.00     0.167 HD
ENDBRANCH  39  41
ENDBRANCH  34  39
ENDBRANCH  31  34
ENDBRANCH  29  30
ENDBRANCH  28  29
ENDBRANCH  26  28
ENDBRANCH  25  26
ENDBRANCH  24  25
ENDBRANCH  22  24
ENDBRANCH   1  22
BRANCH   1  43
HETATM   43  O5  UNL     1      -6.652  50.733 -22.977  1.00  0.00    -0.381 OA
HETATM   44  H18 UNL     1      -6.610  50.618 -23.949  1.00  0.00     0.211 HD
ENDBRANCH   1  43
TORSDOF 13
ENDMDL
MODEL 2
REMARK minimizedAffinity -7.5274477
REMARK CNNscore 0.569342256
REMARK CNNaffinity 6.47091627
REMARK  13 active torsions:
REMARK  status: ('A' for Active; 'I' for Inactive)
REMARK    1  A    between atoms: C2_2  and  C3_3 
REMARK    2  A    between atoms: C3_3  and  C5_5 
REMARK    3  A    between atoms: C5_5  and  N1_6 
REMARK    4  A    between atoms: C5_5  and  C31_39 
REMARK       I    between atoms: N1_6  and  C6_7 
REMARK    5  A    between atoms: C6_7  and  C7_9 
REMARK    6  A    between atoms: C7_9  and  C8_10 
REMARK    7  A    between atoms: C8_10  and  C9_11 
REMARK    8  A    between atoms: C9_11  and  O3_13 
REMARK    9  A    between atoms: O3_13  and  C10_14 
REMARK   10  A    between atoms: C10_14  and  C11_15 
REMARK   11  A    between atoms: C11_15  and  C12_17 
REMARK   12  A    between atoms: C12_17  and  O5_18 
REMARK   13  A    between atoms: C31_39  and  O9_41 
ROOT
HETATM    1  C12 UNL     1       0.545  51.779 -13.972  1.00  0.00     0.128 C 
HETATM    2  C13 UNL     1      -0.981  51.834 -13.743  1.00  0.00     0.047 C 
HETATM    3  C14 UNL     1      -1.190  52.567 -12.402  1.00  0.00     0.009 C 
HETATM    4  C15 UNL     1       0.204  53.026 -11.987  1.00  0.00     0.002 C 
HETATM    5  C16 UNL     1       0.462  53.365 -10.512  1.00  0.00     0.003 C 
HETATM    6  C17 UNL     1      -0.510  54.448 -10.020  1.00  0.00     0.010 C 
HETATM    7  C18 UNL     1      -0.216  54.852  -8.581  1.00  0.00     0.035 C 
HETATM    8  C19 UNL     1       1.223  55.279  -8.406  1.00  0.00    -0.067 C 
HETATM    9  C20 UNL     1       1.497  56.473  -7.850  1.00  0.00     0.053 C 
HETATM   10  C21 UNL     1       2.888  56.902  -7.587  1.00  0.00     0.149 C 
HETATM   11  O6  UNL     1       3.118  58.064  -7.266  1.00  0.00    -0.293 OA
HETATM   12  C22 UNL     1       3.966  55.861  -7.697  1.00  0.00     0.084 C 
HETATM   13  C23 UNL     1       3.698  54.983  -8.911  1.00  0.00     0.022 C 
HETATM   14  C24 UNL     1       2.300  54.288  -8.895  1.00  0.00    -0.009 C 
HETATM   15  C25 UNL     1       2.332  53.100  -7.908  1.00  0.00     0.021 C 
HETATM   16  C26 UNL     1       1.933  53.849 -10.359  1.00  0.00     0.072 C 
HETATM   17  C27 UNL     1       2.890  52.829 -11.010  1.00  0.00     0.133 C 
HETATM   18  O7  UNL     1       3.896  52.392 -10.454  1.00  0.00    -0.297 OA
HETATM   19  C28 UNL     1       2.577  52.425 -12.446  1.00  0.00     0.091 C 
HETATM   20  C29 UNL     1       1.135  51.916 -12.538  1.00  0.00     0.005 C 
HETATM   21  C30 UNL     1       1.023  50.581 -11.759  1.00  0.00     0.019 C 
ENDROOT
BRANCH   1  22
HETATM   22  C11 UNL     1       1.087  50.601 -14.800  1.00  0.00     0.185 C 
HETATM   23  O4  UNL     1       2.207  50.146 -14.526  1.00  0.00    -0.292 OA
BRANCH  22  24
HETATM   24  C10 UNL     1       0.258  50.056 -15.959  1.00  0.00     0.260 C 
BRANCH  24  25
HETATM   25  O3  UNL     1      -0.437  51.101 -16.644  1.00  0.00    -0.314 OA
BRANCH  25  26
HETATM   26  C9  UNL     1       0.231  51.606 -17.718  1.00  0.00     0.259 C 
HETATM   27  O2  UNL     1       1.278  52.235 -17.655  1.00  0.00    -0.265 OA
BRANCH  26  28
HETATM   28  C8  UNL     1      -0.525  51.337 -18.984  1.00  0.00     0.120 C 
BRANCH  28  29
HETATM   29  C7  UNL     1       0.102  52.129 -20.119  1.00  0.00     0.112 C 
BRANCH  29  30
HETATM   30  C6  UNL     1      -0.114  51.456 -21.456  1.00  0.00     0.218 C 
HETATM   31  N1  UNL     1      -0.099  52.341 -22.506  1.00  0.00    -0.346 N 
HETATM   32  H11 UNL     1       0.282  53.272 -22.349  1.00  0.00     0.163 HD
HETATM   33  O1  UNL     1      -0.303  50.250 -21.581  1.00  0.00    -0.274 OA
BRANCH  31  34
HETATM   34  C5  UNL     1      -0.129  51.901 -23.903  1.00  0.00     0.186 C 
BRANCH  34  35
HETATM   35  C3  UNL     1      -1.561  51.880 -24.490  1.00  0.00     0.014 C 
HETATM   36  C4  UNL     1      -2.549  52.691 -23.638  1.00  0.00     0.012 C 
BRANCH  35  37
HETATM   37  C2  UNL     1      -2.049  50.430 -24.696  1.00  0.00     0.002 C 
HETATM   38  C1  UNL     1      -3.550  50.258 -24.498  1.00  0.00     0.005 C 
ENDBRANCH  35  37
ENDBRANCH  34  35
BRANCH  34  39
HETATM   39  C31 UNL     1       0.786  52.798 -24.753  1.00  0.00     0.163 C 
HETATM   40  O8  UNL     1       1.541  52.434 -25.640  1.00  0.00    -0.648 OA
BRANCH  39  41
HETATM   41  O9  UNL     1       0.672  54.116 -24.463  1.00  0.00    -0.775 OA
HETATM   42  H43 UNL     1       1.308  54.541 -25.077  1.00  0.00     0.167 HD
ENDBRANCH  39  41
ENDBRANCH  34  39
ENDBRANCH  31  34
ENDBRANCH  29  30
ENDBRANCH  28  29
ENDBRANCH  26  28
ENDBRANCH  25  26
ENDBRANCH  24  25
ENDBRANCH  22  24
ENDBRANCH   1  22
BRANCH   1  43
HETATM   43  O5  UNL     1       0.885  52.958 -14.732  1.00  0.00    -0.381 OA
HETATM   44  H18 UNL     1       1.733  52.769 -15.185  1.00  0.00     0.211 HD
ENDBRANCH   1  43
TORSDOF 13
ENDMDL
MODEL 3
REMARK minimizedAffinity -7.48692465
REMARK CNNscore 0.562454045
REMARK CNNaffinity 7.27201319
REMARK  13 active torsions:
REMARK  status: ('A' for Active; 'I' for Inactive)
REMARK    1  A    between atoms: C2_2  and  C3_3 
REMARK    2  A    between atoms: C3_3  and  C5_5 
REMARK    3  A    between atoms: C5_5  and  N1_6 
REMARK    4  A    between atoms: C5_5  and  C31_39 
REMARK       I    between atoms: N1_6  and  C6_7 
REMARK    5  A    between atoms: C6_7  and  C7_9 
REMARK    6  A    between atoms: C7_9  and  C8_10 
REMARK    7  A    between atoms: C8_10  and  C9_11 
REMARK    8  A    between atoms: C9_11  and  O3_13 
REMARK    9  A    between atoms: O3_13  and  C10_14 
REMARK   10  A    between atoms: C10_14  and  C11_15 
REMARK   11  A    between atoms: C11_15  and  C12_17 
REMARK   12  A    between atoms: C12_17  and  O5_18 
REMARK   13  A    between atoms: C31_39  and  O9_41 
ROOT
HETATM    1  C12 UNL     1      -3.158  50.494 -26.127  1.00  0.00     0.128 C 
HETATM    2  C13 UNL     1      -3.466  49.013 -25.814  1.00  0.00     0.047 C 
HETATM    3  C14 UNL     1      -2.804  48.714 -24.452  1.00  0.00     0.009 C 
HETATM    4  C15 UNL     1      -2.270  50.061 -23.974  1.00  0.00     0.002 C 
HETATM    5  C16 UNL     1      -1.161  50.080 -22.912  1.00  0.00     0.003 C 
HETATM    6  C17 UNL     1      -1.598  49.321 -21.650  1.00  0.00     0.010 C 
HETATM    7  C18 UNL     1      -0.540  49.398 -20.556  1.00  0.00     0.035 C 
HETATM    8  C19 UNL     1      -0.170  50.829 -20.241  1.00  0.00    -0.067 C 
HETATM    9  C20 UNL     1      -0.228  51.262 -18.969  1.00  0.00     0.053 C 
HETATM   10  C21 UNL     1       0.197  52.631 -18.599  1.00  0.00     0.149 C 
HETATM   11  O6  UNL     1      -0.049  53.064 -17.478  1.00  0.00    -0.293 OA
HETATM   12  C22 UNL     1       0.955  53.421 -19.628  1.00  0.00     0.084 C 
HETATM   13  C23 UNL     1       0.323  53.207 -20.996  1.00  0.00     0.022 C 
HETATM   14  C24 UNL     1       0.255  51.710 -21.434  1.00  0.00    -0.009 C 
HETATM   15  C25 UNL     1       1.657  51.247 -21.889  1.00  0.00     0.021 C 
HETATM   16  C26 UNL     1      -0.828  51.560 -22.563  1.00  0.00     0.072 C 
HETATM   17  C27 UNL     1      -0.558  52.354 -23.858  1.00  0.00     0.133 C 
HETATM   18  O7  UNL     1       0.419  53.086 -24.014  1.00  0.00    -0.297 OA
HETATM   19  C28 UNL     1      -1.619  52.259 -24.948  1.00  0.00     0.091 C 
HETATM   20  C29 UNL     1      -1.882  50.787 -25.287  1.00  0.00     0.005 C 
HETATM   21  C30 UNL     1      -0.619  50.195 -25.964  1.00  0.00     0.019 C 
ENDROOT
BRANCH   1  22
HETATM   22  C11 UNL     1      -3.079  50.893 -27.611  1.00  0.00     0.185 C 
HETATM   23  O4  UNL     1      -2.321  51.816 -27.939  1.00  0.00    -0.292 OA
BRANCH  22  24
HETATM   24  C10 UNL     1      -3.965  50.177 -28.627  1.00  0.00     0.260 C 
BRANCH  24  25
HETATM   25  O3  UNL     1      -3.896  48.758 -28.476  1.00  0.00    -0.314 OA
BRANCH  25  26
HETATM   26  C9  UNL     1      -5.057  48.108 -28.765  1.00  0.00     0.259 C 
HETATM   27  O2  UNL     1      -5.791  47.590 -27.936  1.00  0.00    -0.265 OA
BRANCH  26  28
HETATM   28  C8  UNL     1      -5.281  48.062 -30.248  1.00  0.00     0.120 C 
BRANCH  28  29
HETATM   29  C7  UNL     1      -6.775  48.058 -30.528  1.00  0.00     0.112 C 
BRANCH  29  30
HETATM   30  C6  UNL     1      -7.220  46.760 -31.161  1.00  0.00     0.218 C 
HETATM   31  N1  UNL     1      -8.185  46.939 -32.122  1.00  0.00    -0.346 N 
HETATM   32  H11 UNL     1      -8.333  47.877 -32.490  1.00  0.00     0.163 HD
HETATM   33  O1  UNL     1      -6.779  45.663 -30.833  1.00  0.00    -0.274 OA
BRANCH  31  34
HETATM   34  C5  UNL     1      -8.653  45.847 -32.979  1.00  0.00     0.186 C 
BRANCH  34  35
HETATM   35  C3  UNL     1     -10.100  45.408 -32.645  1.00  0.00     0.014 C 
HETATM   36  C4  UNL     1     -10.967  46.582 -32.165  1.00  0.00     0.012 C 
BRANCH  35  37
HETATM   37  C2  UNL     1     -10.101  44.249 -31.625  1.00  0.00     0.002 C 
HETATM   38  C1  UNL     1     -11.239  44.326 -30.616  1.00  0.00     0.005 C 
ENDBRANCH  35  37
ENDBRANCH  34  35
BRANCH  34  39
HETATM   39  C31 UNL     1      -8.545  46.258 -34.456  1.00  0.00     0.163 C 
HETATM   40  O8  UNL     1      -8.402  47.391 -34.887  1.00  0.00    -0.648 OA
BRANCH  39  41
HETATM   41  O9  UNL     1      -8.586  45.210 -35.313  1.00  0.00    -0.775 OA
HETATM   42  H43 UNL     1      -8.509  45.633 -36.195  1.00  0.00     0.167 HD
ENDBRANCH  39  41
ENDBRANCH  34  39
ENDBRANCH  31  34
ENDBRANCH  29  30
ENDBRANCH  28  29
ENDBRANCH  26  28
ENDBRANCH  25  26
ENDBRANCH  24  25
ENDBRANCH  22  24
ENDBRANCH   1  22
BRANCH   1  43
HETATM   43  O5  UNL     1      -4.257  51.259 -25.591  1.00  0.00    -0.381 OA
HETATM   44  H18 UNL     1      -4.272  52.111 -26.075  1.00  0.00     0.211 HD
ENDBRANCH   1  43
TORSDOF 13
ENDMDL
MODEL 4
REMARK minimizedAffinity -7.9708128
REMARK CNNscore 0.489053279
REMARK CNNaffinity 7.19633341
REMARK  13 active torsions:
REMARK  status: ('A' for Active; 'I' for Inactive)
REMARK    1  A    between atoms: C2_2  and  C3_3 
REMARK    2  A    between atoms: C3_3  and  C5_5 
REMARK    3  A    between atoms: C5_5  and  N1_6 
REMARK    4  A    between atoms: C5_5  and  C31_39 
REMARK       I    between atoms: N1_6  and  C6_7 
REMARK    5  A    between atoms: C6_7  and  C7_9 
REMARK    6  A    between atoms: C7_9  and  C8_10 
REMARK    7  A    between atoms: C8_10  and  C9_11 
REMARK    8  A    between atoms: C9_11  and  O3_13 
REMARK    9  A    between atoms: O3_13  and  C10_14 
REMARK   10  A    between atoms: C10_14  and  C11_15 
REMARK   11  A    between atoms: C11_15  and  C12_17 
REMARK   12  A    between atoms: C12_17  and  O5_18 
REMARK   13  A    between atoms: C31_39  and  O9_41 
ROOT
HETATM    1  C12 UNL     1      -3.133  50.687 -26.006  1.00  0.00     0.128 C 
HETATM    2  C13 UNL     1      -3.417  49.193 -25.737  1.00  0.00     0.047 C 
HETATM    3  C14 UNL     1      -2.732  48.859 -24.395  1.00  0.00     0.009 C 
HETATM    4  C15 UNL     1      -2.208  50.196 -23.881  1.00  0.00     0.002 C 
HETATM    5  C16 UNL     1      -1.084  50.196 -22.835  1.00  0.00     0.003 C 
HETATM    6  C17 UNL     1      -1.492  49.390 -21.593  1.00  0.00     0.010 C 
HETATM    7  C18 UNL     1      -0.419  49.445 -20.512  1.00  0.00     0.035 C 
HETATM    8  C19 UNL     1      -0.063  50.870 -20.156  1.00  0.00    -0.067 C 
HETATM    9  C20 UNL     1      -0.108  51.262 -18.869  1.00  0.00     0.053 C 
HETATM   10  C21 UNL     1       0.305  52.623 -18.461  1.00  0.00     0.149 C 
HETATM   11  O6  UNL     1       0.070  53.016 -17.323  1.00  0.00    -0.293 OA
HETATM   12  C22 UNL     1       1.037  53.456 -19.474  1.00  0.00     0.084 C 
HETATM   13  C23 UNL     1       0.389  53.278 -20.839  1.00  0.00     0.022 C 
HETATM   14  C24 UNL     1       0.333  51.795 -21.326  1.00  0.00    -0.009 C 
HETATM   15  C25 UNL     1       1.734  51.366 -21.815  1.00  0.00     0.021 C 
HETATM   16  C26 UNL     1      -0.765  51.668 -22.443  1.00  0.00     0.072 C 
HETATM   17  C27 UNL     1      -0.524  52.507 -23.715  1.00  0.00     0.133 C 
HETATM   18  O7  UNL     1       0.441  53.256 -23.860  1.00  0.00    -0.297 OA
HETATM   19  C28 UNL     1      -1.599  52.433 -24.792  1.00  0.00     0.091 C 
HETATM   20  C29 UNL     1      -1.848  50.970 -25.176  1.00  0.00     0.005 C 
HETATM   21  C30 UNL     1      -0.589  50.417 -25.889  1.00  0.00     0.019 C 
ENDROOT
BRANCH   1  22
HETATM   22  C11 UNL     1      -3.082  51.135 -27.477  1.00  0.00     0.185 C 
HETATM   23  O4  UNL     1      -2.482  52.182 -27.759  1.00  0.00    -0.292 OA
BRANCH  22  24
HETATM   24  C10 UNL     1      -3.804  50.309 -28.538  1.00  0.00     0.260 C 
BRANCH  24  25
HETATM   25  O3  UNL     1      -3.756  48.913 -28.238  1.00  0.00    -0.314 OA
BRANCH  25  26
HETATM   26  C9  UNL     1      -4.938  48.261 -28.419  1.00  0.00     0.259 C 
HETATM   27  O2  UNL     1      -5.524  47.627 -27.554  1.00  0.00    -0.265 OA
BRANCH  26  28
HETATM   28  C8  UNL     1      -5.392  48.379 -29.843  1.00  0.00     0.120 C 
BRANCH  28  29
HETATM   29  C7  UNL     1      -6.516  47.387 -30.093  1.00  0.00     0.112 C 
BRANCH  29  30
HETATM   30  C6  UNL     1      -7.862  47.960 -29.711  1.00  0.00     0.218 C 
HETATM   31  N1  UNL     1      -8.411  47.344 -28.613  1.00  0.00    -0.346 N 
HETATM   32  H11 UNL     1      -7.807  46.769 -28.028  1.00  0.00     0.163 HD
HETATM   33  O1  UNL     1      -8.411  48.865 -30.332  1.00  0.00    -0.274 OA
BRANCH  31  34
HETATM   34  C5  UNL     1      -9.630  47.833 -27.965  1.00  0.00     0.186 C 
BRANCH  34  35
HETATM   35  C3  UNL     1     -10.642  46.699 -27.669  1.00  0.00     0.014 C 
HETATM   36  C4  UNL     1      -9.959  45.328 -27.553  1.00  0.00     0.012 C 
BRANCH  35  37
HETATM   37  C2  UNL     1     -11.772  46.682 -28.721  1.00  0.00     0.002 C 
HETATM   38  C1  UNL     1     -11.896  47.983 -29.503  1.00  0.00     0.005 C 
ENDBRANCH  35  37
ENDBRANCH  34  35
BRANCH  34  39
HETATM   39  C31 UNL     1      -9.271  48.584 -26.673  1.00  0.00     0.163 C 
HETATM   40  O8  UNL     1     -10.027  49.254 -25.987  1.00  0.00    -0.648 OA
BRANCH  39  41
HETATM   41  O9  UNL     1      -7.982  48.418 -26.292  1.00  0.00    -0.775 OA
HETATM   42  H43 UNL     1      -7.916  48.951 -25.470  1.00  0.00     0.167 HD
ENDBRANCH  39  41
ENDBRANCH  34  39
ENDBRANCH  31  34
ENDBRANCH  29  30
ENDBRANCH  28  29
ENDBRANCH  26  28
ENDBRANCH  25  26
ENDBRANCH  24  25
ENDBRANCH  22  24
ENDBRANCH   1  22
BRANCH   1  43
HETATM   43  O5  UNL     1      -4.234  51.420 -25.429  1.00  0.00    -0.381 OA
HETATM   44  H18 UNL     1      -4.267  52.287 -25.885  1.00  0.00     0.211 HD
ENDBRANCH   1  43
TORSDOF 13
ENDMDL
MODEL 5
REMARK minimizedAffinity -8.33452797
REMARK CNNscore 0.469546825
REMARK CNNaffinity 6.55715418
REMARK  13 active torsions:
REMARK  status: ('A' for Active; 'I' for Inactive)
REMARK    1  A    between atoms: C2_2  and  C3_3 
REMARK    2  A    between atoms: C3_3  and  C5_5 
REMARK    3  A    between atoms: C5_5  and  N1_6 
REMARK    4  A    between atoms: C5_5  and  C31_39 
REMARK       I    between atoms: N1_6  and  C6_7 
REMARK    5  A    between atoms: C6_7  and  C7_9 
REMARK    6  A    between atoms: C7_9  and  C8_10 
REMARK    7  A    between atoms: C8_10  and  C9_11 
REMARK    8  A    between atoms: C9_11  and  O3_13 
REMARK    9  A    between atoms: O3_13  and  C10_14 
REMARK   10  A    between atoms: C10_14  and  C11_15 
REMARK   11  A    between atoms: C11_15  and  C12_17 
REMARK   12  A    between atoms: C12_17  and  O5_18 
REMARK   13  A    between atoms: C31_39  and  O9_41 
ROOT
HETATM    1  C12 UNL     1      -2.102  48.569 -19.674  1.00  0.00     0.128 C 
HETATM    2  C13 UNL     1      -3.305  47.731 -20.155  1.00  0.00     0.047 C 
HETATM    3  C14 UNL     1      -3.515  48.090 -21.641  1.00  0.00     0.009 C 
HETATM    4  C15 UNL     1      -2.345  49.006 -21.989  1.00  0.00     0.002 C 
HETATM    5  C16 UNL     1      -2.466  49.926 -23.212  1.00  0.00     0.003 C 
HETATM    6  C17 UNL     1      -2.767  49.115 -24.481  1.00  0.00     0.010 C 
HETATM    7  C18 UNL     1      -2.813  50.004 -25.717  1.00  0.00     0.035 C 
HETATM    8  C19 UNL     1      -1.545  50.814 -25.865  1.00  0.00    -0.067 C 
HETATM    9  C20 UNL     1      -0.864  50.771 -27.024  1.00  0.00     0.053 C 
HETATM   10  C21 UNL     1       0.339  51.604 -27.246  1.00  0.00     0.149 C 
HETATM   11  O6  UNL     1       1.050  51.402 -28.225  1.00  0.00    -0.293 OA
HETATM   12  C22 UNL     1       0.613  52.699 -26.254  1.00  0.00     0.084 C 
HETATM   13  C23 UNL     1       0.337  52.188 -24.847  1.00  0.00     0.022 C 
HETATM   14  C24 UNL     1      -1.114  51.650 -24.642  1.00  0.00    -0.009 C 
HETATM   15  C25 UNL     1      -2.087  52.842 -24.517  1.00  0.00     0.021 C 
HETATM   16  C26 UNL     1      -1.134  50.715 -23.379  1.00  0.00     0.072 C 
HETATM   17  C27 UNL     1      -0.755  51.388 -22.043  1.00  0.00     0.133 C 
HETATM   18  O7  UNL     1      -0.426  52.569 -21.949  1.00  0.00    -0.297 OA
HETATM   19  C28 UNL     1      -0.725  50.488 -20.813  1.00  0.00     0.091 C 
HETATM   20  C29 UNL     1      -2.070  49.767 -20.667  1.00  0.00     0.005 C 
HETATM   21  C30 UNL     1      -3.163  50.808 -20.322  1.00  0.00     0.019 C 
ENDROOT
BRANCH   1  22
HETATM   22  C11 UNL     1      -2.064  48.947 -18.183  1.00  0.00     0.185 C 
HETATM   23  O4  UNL     1      -2.057  48.038 -17.339  1.00  0.00    -0.292 OA
BRANCH  22  24
HETATM   24  C10 UNL     1      -2.082  50.419 -17.781  1.00  0.00     0.260 C 
BRANCH  24  25
HETATM   25  O3  UNL     1      -1.507  50.617 -16.488  1.00  0.00    -0.314 OA
BRANCH  25  26
HETATM   26  C9  UNL     1      -0.211  51.035 -16.511  1.00  0.00     0.259 C 
HETATM   27  O2  UNL     1       0.493  51.070 -17.509  1.00  0.00    -0.265 OA
BRANCH  26  28
HETATM   28  C8  UNL     1       0.252  51.391 -15.129  1.00  0.00     0.120 C 
BRANCH  28  29
HETATM   29  C7  UNL     1      -0.941  51.396 -14.188  1.00  0.00     0.112 C 
BRANCH  29  30
HETATM   30  C6  UNL     1      -0.640  52.144 -12.909  1.00  0.00     0.218 C 
HETATM   31  N1  UNL     1      -1.658  52.059 -11.990  1.00  0.00    -0.346 N 
HETATM   32  H11 UNL     1      -2.370  51.344 -12.123  1.00  0.00     0.163 HD
HETATM   33  O1  UNL     1       0.395  52.777 -12.725  1.00  0.00    -0.274 OA
BRANCH  31  34
HETATM   34  C5  UNL     1      -1.526  52.569 -10.624  1.00  0.00     0.186 C 
BRANCH  34  35
HETATM   35  C3  UNL     1      -2.566  53.670 -10.297  1.00  0.00     0.014 C 
HETATM   36  C4  UNL     1      -3.795  53.597 -11.215  1.00  0.00     0.012 C 
BRANCH  35  37
HETATM   37  C2  UNL     1      -1.914  55.069 -10.334  1.00  0.00     0.002 C 
HETATM   38  C1  UNL     1      -0.509  55.103  -9.747  1.00  0.00     0.005 C 
ENDBRANCH  35  37
ENDBRANCH  34  35
BRANCH  34  39
HETATM   39  C31 UNL     1      -1.638  51.411  -9.620  1.00  0.00     0.163 C 
HETATM   40  O8  UNL     1      -0.732  50.931  -8.959  1.00  0.00    -0.648 OA
BRANCH  39  41
HETATM   41  O9  UNL     1      -2.901  50.943  -9.474  1.00  0.00    -0.775 OA
HETATM   42  H43 UNL     1      -2.803  50.221  -8.816  1.00  0.00     0.167 HD
ENDBRANCH  39  41
ENDBRANCH  34  39
ENDBRANCH  31  34
ENDBRANCH  29  30
ENDBRANCH  28  29
ENDBRANCH  26  28
ENDBRANCH  25  26
ENDBRANCH  24  25
ENDBRANCH  22  24
ENDBRANCH   1  22
BRANCH   1  43
HETATM   43  O5  UNL     1      -0.929  47.755 -19.884  1.00  0.00    -0.381 OA
HETATM   44  H18 UNL     1      -0.237  48.093 -19.278  1.00  0.00     0.211 HD
ENDBRANCH   1  43
TORSDOF 13
ENDMDL
MODEL 6
REMARK minimizedAffinity -7.54345322
REMARK CNNscore 0.469266266
REMARK CNNaffinity 6.82110786
REMARK  13 active torsions:
REMARK  status: ('A' for Active; 'I' for Inactive)
REMARK    1  A    between atoms: C2_2  and  C3_3 
REMARK    2  A    between atoms: C3_3  and  C5_5 
REMARK    3  A    between atoms: C5_5  and  N1_6 
REMARK    4  A    between atoms: C5_5  and  C31_39 
REMARK       I    between atoms: N1_6  and  C6_7 
REMARK    5  A    between atoms: C6_7  and  C7_9 
REMARK    6  A    between atoms: C7_9  and  C8_10 
REMARK    7  A    between atoms: C8_10  and  C9_11 
REMARK    8  A    between atoms: C9_11  and  O3_13 
REMARK    9  A    between atoms: O3_13  and  C10_14 
REMARK   10  A    between atoms: C10_14  and  C11_15 
REMARK   11  A    between atoms: C11_15  and  C12_17 
REMARK   12  A    between atoms: C12_17  and  O5_18 
REMARK   13  A    between atoms: C31_39  and  O9_41 
ROOT
HETATM    1  C12 UNL     1      -2.833  51.741 -12.609  1.00  0.00     0.128 C 
HETATM    2  C13 UNL     1      -3.769  51.621 -11.386  1.00  0.00     0.047 C 
HETATM    3  C14 UNL     1      -2.984  52.188 -10.184  1.00  0.00     0.009 C 
HETATM    4  C15 UNL     1      -1.694  52.737 -10.786  1.00  0.00     0.002 C 
HETATM    5  C16 UNL     1      -0.481  52.944  -9.867  1.00  0.00     0.003 C 
HETATM    6  C17 UNL     1      -0.834  53.870  -8.694  1.00  0.00     0.010 C 
HETATM    7  C18 UNL     1       0.379  54.151  -7.816  1.00  0.00     0.035 C 
HETATM    8  C19 UNL     1       1.534  54.696  -8.624  1.00  0.00    -0.067 C 
HETATM    9  C20 UNL     1       2.120  55.847  -8.247  1.00  0.00     0.053 C 
HETATM   10  C21 UNL     1       3.302  56.382  -8.959  1.00  0.00     0.149 C 
HETATM   11  O6  UNL     1       3.692  57.521  -8.724  1.00  0.00    -0.293 OA
HETATM   12  C22 UNL     1       3.997  55.468  -9.929  1.00  0.00     0.084 C 
HETATM   13  C23 UNL     1       2.958  54.699 -10.731  1.00  0.00     0.022 C 
HETATM   14  C24 UNL     1       1.965  53.872  -9.855  1.00  0.00    -0.009 C 
HETATM   15  C25 UNL     1       2.675  52.597  -9.346  1.00  0.00     0.021 C 
HETATM   16  C26 UNL     1       0.683  53.553 -10.704  1.00  0.00     0.072 C 
HETATM   17  C27 UNL     1       0.914  52.705 -11.972  1.00  0.00     0.133 C 
HETATM   18  O7  UNL     1       2.023  52.314 -12.333  1.00  0.00    -0.297 OA
HETATM   19  C28 UNL     1      -0.311  52.423 -12.834  1.00  0.00     0.091 C 
HETATM   20  C29 UNL     1      -1.412  51.786 -11.978  1.00  0.00     0.005 C 
HETATM   21  C30 UNL     1      -0.951  50.373 -11.537  1.00  0.00     0.019 C 
ENDROOT
BRANCH   1  22
HETATM   22  C11 UNL     1      -3.023  50.714 -13.738  1.00  0.00     0.185 C 
HETATM   23  O4  UNL     1      -3.150  49.518 -13.439  1.00  0.00    -0.292 OA
BRANCH  22  24
HETATM   24  C10 UNL     1      -3.003  51.184 -15.190  1.00  0.00     0.260 C 
BRANCH  24  25
HETATM   25  O3  UNL     1      -2.145  50.371 -15.993  1.00  0.00    -0.314 OA
BRANCH  25  26
HETATM   26  C9  UNL     1      -1.977  50.823 -17.267  1.00  0.00     0.259 C 
HETATM   27  O2  UNL     1      -2.790  51.501 -17.878  1.00  0.00    -0.265 OA
BRANCH  26  28
HETATM   28  C8  UNL     1      -0.684  50.323 -17.838  1.00  0.00     0.120 C 
BRANCH  28  29
HETATM   29  C7  UNL     1      -0.281  51.203 -19.009  1.00  0.00     0.112 C 
BRANCH  29  30
HETATM   30  C6  UNL     1      -0.495  50.505 -20.332  1.00  0.00     0.218 C 
HETATM   31  N1  UNL     1      -0.800  51.375 -21.351  1.00  0.00    -0.346 N 
HETATM   32  H11 UNL     1      -0.620  52.367 -21.209  1.00  0.00     0.163 HD
HETATM   33  O1  UNL     1      -0.423  49.288 -20.472  1.00  0.00    -0.274 OA
BRANCH  31  34
HETATM   34  C5  UNL     1      -0.892  50.946 -22.748  1.00  0.00     0.186 C 
BRANCH  34  35
HETATM   35  C3  UNL     1      -2.357  50.801 -23.230  1.00  0.00     0.014 C 
HETATM   36  C4  UNL     1      -3.309  51.746 -22.483  1.00  0.00     0.012 C 
BRANCH  35  37
HETATM   37  C2  UNL     1      -2.824  49.333 -23.133  1.00  0.00     0.002 C 
HETATM   38  C1  UNL     1      -3.180  48.716 -24.479  1.00  0.00     0.005 C 
ENDBRANCH  35  37
ENDBRANCH  34  35
BRANCH  34  39
HETATM   39  C31 UNL     1      -0.126  51.928 -23.649  1.00  0.00     0.163 C 
HETATM   40  O8  UNL     1       0.069  51.815 -24.848  1.00  0.00    -0.648 OA
BRANCH  39  41
HETATM   41  O9  UNL     1       0.323  53.025 -22.993  1.00  0.00    -0.775 OA
HETATM   42  H43 UNL     1       0.781  53.538 -23.692  1.00  0.00     0.167 HD
ENDBRANCH  39  41
ENDBRANCH  34  39
ENDBRANCH  31  34
ENDBRANCH  29  30
ENDBRANCH  28  29
ENDBRANCH  26  28
ENDBRANCH  25  26
ENDBRANCH  24  25
ENDBRANCH  22  24
ENDBRANCH   1  22
BRANCH   1  43
HETATM   43  O5  UNL     1      -3.117  53.020 -13.214  1.00  0.00    -0.381 OA
HETATM   44  H18 UNL     1      -2.824  52.963 -14.147  1.00  0.00     0.211 HD
ENDBRANCH   1  43
TORSDOF 13
ENDMDL
MODEL 7
REMARK minimizedAffinity -8.18453121
REMARK CNNscore 0.463178158
REMARK CNNaffinity 6.59402418
REMARK  13 active torsions:
REMARK  status: ('A' for Active; 'I' for Inactive)
REMARK    1  A    between atoms: C2_2  and  C3_3 
REMARK    2  A    between atoms: C3_3  and  C5_5 
REMARK    3  A    between atoms: C5_5  and  N1_6 
REMARK    4  A    between atoms: C5_5  and  C31_39 
REMARK       I    between atoms: N1_6  and  C6_7 
REMARK    5  A    between atoms: C6_7  and  C7_9 
REMARK    6  A    between atoms: C7_9  and  C8_10 
REMARK    7  A    between atoms: C8_10  and  C9_11 
REMARK    8  A    between atoms: C9_11  and  O3_13 
REMARK    9  A    between atoms: O3_13  and  C10_14 
REMARK   10  A    between atoms: C10_14  and  C11_15 
REMARK   11  A    between atoms: C11_15  and  C12_17 
REMARK   12  A    between atoms: C12_17  and  O5_18 
REMARK   13  A    between atoms: C31_39  and  O9_41 
ROOT
HETATM    1  C12 UNL     1      -1.864  48.461 -19.552  1.00  0.00     0.128 C 
HETATM    2  C13 UNL     1      -3.060  47.578 -19.973  1.00  0.00     0.047 C 
HETATM    3  C14 UNL     1      -3.362  47.934 -21.444  1.00  0.00     0.009 C 
HETATM    4  C15 UNL     1      -2.247  48.894 -21.849  1.00  0.00     0.002 C 
HETATM    5  C16 UNL     1      -2.468  49.812 -23.060  1.00  0.00     0.003 C 
HETATM    6  C17 UNL     1      -2.806  48.994 -24.315  1.00  0.00     0.010 C 
HETATM    7  C18 UNL     1      -2.950  49.884 -25.542  1.00  0.00     0.035 C 
HETATM    8  C19 UNL     1      -1.724  50.742 -25.754  1.00  0.00    -0.067 C 
HETATM    9  C20 UNL     1      -1.104  50.728 -26.948  1.00  0.00     0.053 C 
HETATM   10  C21 UNL     1       0.053  51.607 -27.229  1.00  0.00     0.149 C 
HETATM   11  O6  UNL     1       0.717  51.435 -28.245  1.00  0.00    -0.293 OA
HETATM   12  C22 UNL     1       0.338  52.709 -26.248  1.00  0.00     0.084 C 
HETATM   13  C23 UNL     1       0.157  52.184 -24.831  1.00  0.00     0.022 C 
HETATM   14  C24 UNL     1      -1.260  51.590 -24.551  1.00  0.00    -0.009 C 
HETATM   15  C25 UNL     1      -2.270  52.745 -24.368  1.00  0.00     0.021 C 
HETATM   16  C26 UNL     1      -1.178  50.652 -23.293  1.00  0.00     0.072 C 
HETATM   17  C27 UNL     1      -0.753  51.335 -21.977  1.00  0.00     0.133 C 
HETATM   18  O7  UNL     1      -0.465  52.528 -21.894  1.00  0.00    -0.297 OA
HETATM   19  C28 UNL     1      -0.624  50.433 -20.754  1.00  0.00     0.091 C 
HETATM   20  C29 UNL     1      -1.931  49.661 -20.540  1.00  0.00     0.005 C 
HETATM   21  C30 UNL     1      -3.043  50.660 -20.132  1.00  0.00     0.019 C 
ENDROOT
BRANCH   1  22
HETATM   22  C11 UNL     1      -1.762  48.835 -18.064  1.00  0.00     0.185 C 
HETATM   23  O4  UNL     1      -0.660  49.177 -17.611  1.00  0.00    -0.292 OA
BRANCH  22  24
HETATM   24  C10 UNL     1      -3.000  48.732 -17.177  1.00  0.00     0.260 C 
BRANCH  24  25
HETATM   25  O3  UNL     1      -2.702  49.063 -15.819  1.00  0.00    -0.314 OA
BRANCH  25  26
HETATM   26  C9  UNL     1      -2.976  50.355 -15.486  1.00  0.00     0.259 C 
HETATM   27  O2  UNL     1      -3.112  51.268 -16.287  1.00  0.00    -0.265 OA
BRANCH  26  28
HETATM   28  C8  UNL     1      -3.030  50.514 -13.995  1.00  0.00     0.120 C 
BRANCH  28  29
HETATM   29  C7  UNL     1      -3.033  51.994 -13.651  1.00  0.00     0.112 C 
BRANCH  29  30
HETATM   30  C6  UNL     1      -2.156  52.292 -12.456  1.00  0.00     0.218 C 
HETATM   31  N1  UNL     1      -2.709  53.219 -11.607  1.00  0.00    -0.346 N 
HETATM   32  H11 UNL     1      -3.701  53.430 -11.700  1.00  0.00     0.163 HD
HETATM   33  O1  UNL     1      -1.058  51.773 -12.279  1.00  0.00    -0.274 OA
BRANCH  31  34
HETATM   34  C5  UNL     1      -2.117  53.545 -10.308  1.00  0.00     0.186 C 
BRANCH  34  35
HETATM   35  C3  UNL     1      -1.546  52.301  -9.585  1.00  0.00     0.014 C 
HETATM   36  C4  UNL     1      -2.645  51.303  -9.191  1.00  0.00     0.012 C 
BRANCH  35  37
HETATM   37  C2  UNL     1      -0.694  52.716  -8.366  1.00  0.00     0.002 C 
HETATM   38  C1  UNL     1      -1.500  52.869  -7.083  1.00  0.00     0.005 C 
ENDBRANCH  35  37
ENDBRANCH  34  35
BRANCH  34  39
HETATM   39  C31 UNL     1      -1.025  54.612 -10.483  1.00  0.00     0.163 C 
HETATM   40  O8  UNL     1       0.037  54.476 -11.070  1.00  0.00    -0.648 OA
BRANCH  39  41
HETATM   41  O9  UNL     1      -1.346  55.810  -9.939  1.00  0.00    -0.775 OA
HETATM   42  H43 UNL     1      -0.561  56.367 -10.130  1.00  0.00     0.167 HD
ENDBRANCH  39  41
ENDBRANCH  34  39
ENDBRANCH  31  34
ENDBRANCH  29  30
ENDBRANCH  28  29
ENDBRANCH  26  28
ENDBRANCH  25  26
ENDBRANCH  24  25
ENDBRANCH  22  24
ENDBRANCH   1  22
BRANCH   1  43
HETATM   43  O5  UNL     1      -0.675  47.693 -19.828  1.00  0.00    -0.381 OA
HETATM   44  H18 UNL     1       0.035  48.055 -19.258  1.00  0.00     0.211 HD
ENDBRANCH   1  43
TORSDOF 13
ENDMDL
MODEL 8
REMARK minimizedAffinity -8.0395813
REMARK CNNscore 0.420251966
REMARK CNNaffinity 6.59293127
REMARK  13 active torsions:
REMARK  status: ('A' for Active; 'I' for Inactive)
REMARK    1  A    between atoms: C2_2  and  C3_3 
REMARK    2  A    between atoms: C3_3  and  C5_5 
REMARK    3  A    between atoms: C5_5  and  N1_6 
REMARK    4  A    between atoms: C5_5  and  C31_39 
REMARK       I    between atoms: N1_6  and  C6_7 
REMARK    5  A    between atoms: C6_7  and  C7_9 
REMARK    6  A    between atoms: C7_9  and  C8_10 
REMARK    7  A    between atoms: C8_10  and  C9_11 
REMARK    8  A    between atoms: C9_11  and  O3_13 
REMARK    9  A    between atoms: O3_13  and  C10_14 
REMARK   10  A    between atoms: C10_14  and  C11_15 
REMARK   11  A    between atoms: C11_15  and  C12_17 
REMARK   12  A    between atoms: C12_17  and  O5_18 
REMARK   13  A    between atoms: C31_39  and  O9_41 
ROOT
HETATM    1  C12 UNL     1      -1.776  50.454 -17.643  1.00  0.00     0.128 C 
HETATM    2  C13 UNL     1      -3.126  49.759 -17.364  1.00  0.00     0.047 C 
HETATM    3  C14 UNL     1      -3.407  49.952 -15.859  1.00  0.00     0.009 C 
HETATM    4  C15 UNL     1      -2.288  50.865 -15.367  1.00  0.00     0.002 C 
HETATM    5  C16 UNL     1      -1.966  50.894 -13.867  1.00  0.00     0.003 C 
HETATM    6  C17 UNL     1      -3.210  51.262 -13.045  1.00  0.00     0.010 C 
HETATM    7  C18 UNL     1      -2.889  51.373 -11.560  1.00  0.00     0.035 C 
HETATM    8  C19 UNL     1      -1.754  52.339 -11.308  1.00  0.00    -0.067 C 
HETATM    9  C20 UNL     1      -1.921  53.343 -10.429  1.00  0.00     0.053 C 
HETATM   10  C21 UNL     1      -0.816  54.267 -10.091  1.00  0.00     0.149 C 
HETATM   11  O6  UNL     1      -1.047  55.284  -9.444  1.00  0.00    -0.293 OA
HETATM   12  C22 UNL     1       0.566  53.885 -10.539  1.00  0.00     0.084 C 
HETATM   13  C23 UNL     1       0.502  53.322 -11.951  1.00  0.00     0.022 C 
HETATM   14  C24 UNL     1      -0.453  52.096 -12.102  1.00  0.00    -0.009 C 
HETATM   15  C25 UNL     1       0.232  50.841 -11.517  1.00  0.00     0.021 C 
HETATM   16  C26 UNL     1      -0.829  51.929 -13.619  1.00  0.00     0.072 C 
HETATM   17  C27 UNL     1       0.350  51.649 -14.573  1.00  0.00     0.133 C 
HETATM   18  O7  UNL     1       1.521  51.584 -14.203  1.00  0.00    -0.297 OA
HETATM   19  C28 UNL     1       0.012  51.529 -16.055  1.00  0.00     0.091 C 
HETATM   20  C29 UNL     1      -1.078  50.470 -16.253  1.00  0.00     0.005 C 
HETATM   21  C30 UNL     1      -0.494  49.077 -15.905  1.00  0.00     0.019 C 
ENDROOT
BRANCH   1  22
HETATM   22  C11 UNL     1      -0.929  49.898 -18.801  1.00  0.00     0.185 C 
HETATM   23  O4  UNL     1      -0.764  48.672 -18.881  1.00  0.00    -0.292 OA
BRANCH  22  24
HETATM   24  C10 UNL     1      -0.281  50.865 -19.788  1.00  0.00     0.260 C 
BRANCH  24  25
HETATM   25  O3  UNL     1       0.483  51.868 -19.114  1.00  0.00    -0.314 OA
BRANCH  25  26
HETATM   26  C9  UNL     1       0.502  53.074 -19.746  1.00  0.00     0.259 C 
HETATM   27  O2  UNL     1      -0.222  54.018 -19.466  1.00  0.00    -0.265 OA
BRANCH  26  28
HETATM   28  C8  UNL     1       1.492  53.065 -20.872  1.00  0.00     0.120 C 
BRANCH  28  29
HETATM   29  C7  UNL     1       0.960  52.195 -21.998  1.00  0.00     0.112 C 
BRANCH  29  30
HETATM   30  C6  UNL     1       0.674  53.005 -23.242  1.00  0.00     0.218 C 
HETATM   31  N1  UNL     1      -0.042  52.304 -24.182  1.00  0.00    -0.346 N 
HETATM   32  H11 UNL     1      -0.513  51.449 -23.892  1.00  0.00     0.163 HD
HETATM   33  O1  UNL     1       1.061  54.159 -23.400  1.00  0.00    -0.274 OA
BRANCH  31  34
HETATM   34  C5  UNL     1      -0.571  52.932 -25.395  1.00  0.00     0.186 C 
BRANCH  34  35
HETATM   35  C3  UNL     1       0.425  52.868 -26.580  1.00  0.00     0.014 C 
HETATM   36  C4  UNL     1      -0.213  53.326 -27.899  1.00  0.00     0.012 C 
BRANCH  35  37
HETATM   37  C2  UNL     1       1.037  51.456 -26.707  1.00  0.00     0.002 C 
HETATM   38  C1  UNL     1       2.553  51.434 -26.568  1.00  0.00     0.005 C 
ENDBRANCH  35  37
ENDBRANCH  34  35
BRANCH  34  39
HETATM   39  C31 UNL     1      -1.907  52.279 -25.782  1.00  0.00     0.163 C 
HETATM   40  O8  UNL     1      -2.833  52.813 -26.372  1.00  0.00    -0.648 OA
BRANCH  39  41
HETATM   41  O9  UNL     1      -1.991  50.972 -25.437  1.00  0.00    -0.775 OA
HETATM   42  H43 UNL     1      -2.885  50.711 -25.745  1.00  0.00     0.167 HD
ENDBRANCH  39  41
ENDBRANCH  34  39
ENDBRANCH  31  34
ENDBRANCH  29  30
ENDBRANCH  28  29
ENDBRANCH  26  28
ENDBRANCH  25  26
ENDBRANCH  24  25
ENDBRANCH  22  24
ENDBRANCH   1  22
BRANCH   1  43
HETATM   43  O5  UNL     1      -2.088  51.810 -18.025  1.00  0.00    -0.381 OA
HETATM   44  H18 UNL     1      -1.323  52.143 -18.539  1.00  0.00     0.211 HD
ENDBRANCH   1  43
TORSDOF 13
ENDMDL
MODEL 9
REMARK minimizedAffinity -8.97505665
REMARK CNNscore 0.417876273
REMARK CNNaffinity 6.43054533
REMARK  13 active torsions:
REMARK  status: ('A' for Active; 'I' for Inactive)
REMARK    1  A    between atoms: C2_2  and  C3_3 
REMARK    2  A    between atoms: C3_3  and  C5_5 
REMARK    3  A    between atoms: C5_5  and  N1_6 
REMARK    4  A    between atoms: C5_5  and  C31_39 
REMARK       I    between atoms: N1_6  and  C6_7 
REMARK    5  A    between atoms: C6_7  and  C7_9 
REMARK    6  A    between atoms: C7_9  and  C8_10 
REMARK    7  A    between atoms: C8_10  and  C9_11 
REMARK    8  A    between atoms: C9_11  and  O3_13 
REMARK    9  A    between atoms: O3_13  and  C10_14 
REMARK   10  A    between atoms: C10_14  and  C11_15 
REMARK   11  A    between atoms: C11_15  and  C12_17 
REMARK   12  A    between atoms: C12_17  and  O5_18 
REMARK   13  A    between atoms: C31_39  and  O9_41 
ROOT
HETATM    1  C12 UNL     1      -6.444  49.715 -22.565  1.00  0.00     0.128 C 
HETATM    2  C13 UNL     1      -7.044  49.659 -21.144  1.00  0.00     0.047 C 
HETATM    3  C14 UNL     1      -5.911  50.073 -20.180  1.00  0.00     0.009 C 
HETATM    4  C15 UNL     1      -4.758  50.484 -21.090  1.00  0.00     0.002 C 
HETATM    5  C16 UNL     1      -3.334  50.502 -20.514  1.00  0.00     0.003 C 
HETATM    6  C17 UNL     1      -3.253  51.414 -19.281  1.00  0.00     0.010 C 
HETATM    7  C18 UNL     1      -1.830  51.505 -18.744  1.00  0.00     0.035 C 
HETATM    8  C19 UNL     1      -0.858  51.938 -19.818  1.00  0.00    -0.067 C 
HETATM    9  C20 UNL     1      -0.052  52.991 -19.595  1.00  0.00     0.053 C 
HETATM   10  C21 UNL     1       0.969  53.406 -20.583  1.00  0.00     0.149 C 
HETATM   11  O6  UNL     1       1.551  54.477 -20.447  1.00  0.00    -0.293 OA
HETATM   12  C22 UNL     1       1.269  52.455 -21.708  1.00  0.00     0.084 C 
HETATM   13  C23 UNL     1      -0.032  51.854 -22.221  1.00  0.00     0.022 C 
HETATM   14  C24 UNL     1      -0.867  51.119 -21.126  1.00  0.00    -0.009 C 
HETATM   15  C25 UNL     1      -0.223  49.747 -20.829  1.00  0.00     0.021 C 
HETATM   16  C26 UNL     1      -2.354  50.997 -21.618  1.00  0.00     0.072 C 
HETATM   17  C27 UNL     1      -2.566  50.182 -22.910  1.00  0.00     0.133 C 
HETATM   18  O7  UNL     1      -1.647  49.672 -23.549  1.00  0.00    -0.297 OA
HETATM   19  C28 UNL     1      -3.997  50.089 -23.428  1.00  0.00     0.091 C 
HETATM   20  C29 UNL     1      -4.915  49.557 -22.323  1.00  0.00     0.005 C 
HETATM   21  C30 UNL     1      -4.545  48.081 -22.029  1.00  0.00     0.019 C 
ENDROOT
BRANCH   1  22
HETATM   22  C11 UNL     1      -7.047  48.767 -23.616  1.00  0.00     0.185 C 
HETATM   23  O4  UNL     1      -6.328  47.881 -24.101  1.00  0.00    -0.292 OA
BRANCH  22  24
HETATM   24  C10 UNL     1      -8.491  48.970 -24.067  1.00  0.00     0.260 C 
BRANCH  24  25
HETATM   25  O3  UNL     1      -9.049  47.766 -24.597  1.00  0.00    -0.314 OA
BRANCH  25  26
HETATM   26  C9  UNL     1      -9.843  47.951 -25.688  1.00  0.00     0.259 C 
HETATM   27  O2  UNL     1     -11.058  47.816 -25.697  1.00  0.00    -0.265 OA
BRANCH  26  28
HETATM   28  C8  UNL     1      -9.014  48.283 -26.893  1.00  0.00     0.120 C 
BRANCH  28  29
HETATM   29  C7  UNL     1      -8.100  47.111 -27.211  1.00  0.00     0.112 C 
BRANCH  29  30
HETATM   30  C6  UNL     1      -7.932  46.921 -28.701  1.00  0.00     0.218 C 
HETATM   31  N1  UNL     1      -7.274  47.968 -29.300  1.00  0.00    -0.346 N 
HETATM   32  H11 UNL     1      -6.762  48.619 -28.709  1.00  0.00     0.163 HD
HETATM   33  O1  UNL     1      -8.359  45.945 -29.309  1.00  0.00    -0.274 OA
BRANCH  31  34
HETATM   34  C5  UNL     1      -6.858  47.933 -30.704  1.00  0.00     0.186 C 
BRANCH  34  35
HETATM   35  C3  UNL     1      -7.826  48.709 -31.631  1.00  0.00     0.014 C 
HETATM   36  C4  UNL     1      -8.717  49.687 -30.850  1.00  0.00     0.012 C 
BRANCH  35  37
HETATM   37  C2  UNL     1      -8.666  47.736 -32.486  1.00  0.00     0.002 C 
HETATM   38  C1  UNL     1      -7.910  47.164 -33.678  1.00  0.00     0.005 C 
ENDBRANCH  35  37
ENDBRANCH  34  35
BRANCH  34  39
HETATM   39  C31 UNL     1      -5.429  48.483 -30.840  1.00  0.00     0.163 C 
HETATM   40  O8  UNL     1      -4.724  48.438 -31.835  1.00  0.00    -0.648 OA
BRANCH  39  41
HETATM   41  O9  UNL     1      -4.977  49.095 -29.719  1.00  0.00    -0.775 OA
HETATM   42  H43 UNL     1      -4.071  49.381 -29.965  1.00  0.00     0.167 HD
ENDBRANCH  39  41
ENDBRANCH  34  39
ENDBRANCH  31  34
ENDBRANCH  29  30
ENDBRANCH  28  29
ENDBRANCH  26  28
ENDBRANCH  25  26
ENDBRANCH  24  25
ENDBRANCH  22  24
ENDBRANCH   1  22
BRANCH   1  43
HETATM   43  O5  UNL     1      -6.704  51.043 -23.064  1.00  0.00    -0.381 OA
HETATM   44  H18 UNL     1      -6.669  50.990 -24.043  1.00  0.00     0.211 HD
ENDBRANCH   1  43
TORSDOF 13
ENDMDL
