MODEL 1
REMARK minimizedAffinity -9.22029686
REMARK CNNscore 0.623129964
REMARK CNNaffinity 6.95722723
REMARK  8 active torsions:
REMARK  status: ('A' for Active; 'I' for Inactive)
REMARK    1  A    between atoms: C4_4  and  C5_5 
REMARK    2  A    between atoms: C5_5  and  C6_6 
REMARK    3  A    between atoms: C6_6  and  C7_7 
REMARK    4  A    between atoms: C7_7  and  C9_9 
REMARK    5  A    between atoms: C22_22  and  O1_23 
REMARK    6  A    between atoms: C24_25  and  O2_26 
REMARK    7  A    between atoms: C25_27  and  C27_29 
REMARK    8  A    between atoms: C27_29  and  O4_31 
ROOT
HETATM    1  C9  UNL     1      -0.544  50.483 -21.519  1.00  0.00    -0.002 C 
HETATM    2  C10 UNL     1      -0.516  50.098 -20.025  1.00  0.00     0.007 C 
HETATM    3  C11 UNL     1      -1.805  49.280 -19.754  1.00  0.00     0.015 C 
HETATM    4  C12 UNL     1      -2.327  48.872 -21.148  1.00  0.00    -0.005 C 
HETATM    5  C13 UNL     1      -1.512  47.615 -21.587  1.00  0.00     0.021 C 
HETATM    6  C14 UNL     1      -3.783  48.469 -21.372  1.00  0.00    -0.000 C 
HETATM    7  C15 UNL     1      -4.411  48.713 -22.554  1.00  0.00    -0.058 C 
HETATM    8  C16 UNL     1      -3.683  49.464 -23.687  1.00  0.00     0.036 C 
HETATM    9  C17 UNL     1      -2.240  49.941 -23.423  1.00  0.00     0.015 C 
HETATM   10  C18 UNL     1      -2.019  50.212 -21.934  1.00  0.00    -0.028 C 
HETATM   11  C19 UNL     1      -2.954  51.385 -21.504  1.00  0.00     0.016 C 
HETATM   12  C20 UNL     1      -5.908  48.347 -22.816  1.00  0.00     0.011 C 
HETATM   13  C21 UNL     1      -6.692  49.638 -22.487  1.00  0.00     0.023 C 
HETATM   14  C22 UNL     1      -6.136  47.890 -24.303  1.00  0.00     0.133 C 
HETATM   15  C23 UNL     1      -7.347  46.987 -24.573  1.00  0.00     0.065 C 
HETATM   16  C24 UNL     1      -8.379  46.974 -23.452  1.00  0.00     0.139 C 
HETATM   17  C25 UNL     1      -7.777  46.590 -22.072  1.00  0.00     0.072 C 
HETATM   18  C26 UNL     1      -7.737  45.043 -21.925  1.00  0.00     0.030 C 
HETATM   19  C28 UNL     1      -6.305  47.141 -21.902  1.00  0.00     0.029 C 
HETATM   20  C29 UNL     1      -5.946  47.399 -20.438  1.00  0.00     0.090 C 
HETATM   21  C30 UNL     1      -4.505  47.800 -20.246  1.00  0.00     0.157 C 
HETATM   22  O5  UNL     1      -3.967  47.619 -19.152  1.00  0.00    -0.293 OA
ENDROOT
BRANCH   1  23
HETATM   23  C7  UNL     1       0.221  51.767 -21.945  1.00  0.00    -0.014 C 
HETATM   24  C8  UNL     1       0.344  52.715 -20.738  1.00  0.00     0.010 C 
BRANCH  23  25
HETATM   25  C6  UNL     1      -0.160  52.555 -23.221  1.00  0.00     0.008 C 
BRANCH  25  26
HETATM   26  C5  UNL     1       0.868  52.821 -24.328  1.00  0.00     0.028 C 
BRANCH  26  27
HETATM   27  C4  UNL     1       0.404  52.478 -25.715  1.00  0.00    -0.025 C 
HETATM   28  C2  UNL     1       1.104  51.872 -26.697  1.00  0.00    -0.091 C 
HETATM   29  C1  UNL     1       0.467  51.593 -28.035  1.00  0.00     0.042 C 
HETATM   30  C3  UNL     1       2.537  51.420 -26.599  1.00  0.00     0.042 C 
ENDBRANCH  26  27
ENDBRANCH  25  26
ENDBRANCH  23  25
ENDBRANCH   1  23
BRANCH  14  31
HETATM   31  O1  UNL     1      -6.203  49.013 -25.195  1.00  0.00    -0.394 OA
HETATM   32  H35 UNL     1      -7.076  49.426 -25.117  1.00  0.00     0.210 HD
ENDBRANCH  14  31
BRANCH  17  33
HETATM   33  C27 UNL     1      -8.717  47.181 -21.015  1.00  0.00     0.151 C 
HETATM   34  O3  UNL     1      -8.657  48.312 -20.564  1.00  0.00    -0.649 OA
BRANCH  33  35
HETATM   35  O4  UNL     1      -9.620  46.313 -20.521  1.00  0.00    -0.776 OA
HETATM   36  H43 UNL     1     -10.121  46.814 -19.840  1.00  0.00     0.167 HD
ENDBRANCH  33  35
ENDBRANCH  17  33
BRANCH  16  37
HETATM   37  O2  UNL     1      -9.423  46.072 -23.840  1.00  0.00    -0.394 OA
HETATM   38  H39 UNL     1     -10.260  46.413 -23.484  1.00  0.00     0.210 HD
ENDBRANCH  16  37
TORSDOF 8
ENDMDL
MODEL 2
REMARK minimizedAffinity -7.04206371
REMARK CNNscore 0.500912488
REMARK CNNaffinity 6.6313138
REMARK  8 active torsions:
REMARK  status: ('A' for Active; 'I' for Inactive)
REMARK    1  A    between atoms: C4_4  and  C5_5 
REMARK    2  A    between atoms: C5_5  and  C6_6 
REMARK    3  A    between atoms: C6_6  and  C7_7 
REMARK    4  A    between atoms: C7_7  and  C9_9 
REMARK    5  A    between atoms: C22_22  and  O1_23 
REMARK    6  A    between atoms: C24_25  and  O2_26 
REMARK    7  A    between atoms: C25_27  and  C27_29 
REMARK    8  A    between atoms: C27_29  and  O4_31 
ROOT
HETATM    1  C9  UNL     1       6.050  55.771  -7.978  1.00  0.00    -0.002 C 
HETATM    2  C10 UNL     1       6.778  54.527  -8.530  1.00  0.00     0.007 C 
HETATM    3  C11 UNL     1       5.699  53.653  -9.220  1.00  0.00     0.015 C 
HETATM    4  C12 UNL     1       4.480  54.581  -9.403  1.00  0.00    -0.005 C 
HETATM    5  C13 UNL     1       4.745  55.428 -10.688  1.00  0.00     0.021 C 
HETATM    6  C14 UNL     1       3.072  54.025  -9.607  1.00  0.00    -0.000 C 
HETATM    7  C15 UNL     1       1.975  54.694  -9.159  1.00  0.00    -0.058 C 
HETATM    8  C16 UNL     1       2.129  56.012  -8.373  1.00  0.00     0.036 C 
HETATM    9  C17 UNL     1       3.558  56.524  -8.100  1.00  0.00     0.015 C 
HETATM   10  C18 UNL     1       4.549  55.362  -8.027  1.00  0.00    -0.028 C 
HETATM   11  C19 UNL     1       4.165  54.464  -6.811  1.00  0.00     0.016 C 
HETATM   12  C20 UNL     1       0.520  54.147  -9.318  1.00  0.00     0.011 C 
HETATM   13  C21 UNL     1       0.230  53.409  -7.991  1.00  0.00     0.023 C 
HETATM   14  C22 UNL     1      -0.507  55.311  -9.573  1.00  0.00     0.133 C 
HETATM   15  C23 UNL     1      -1.809  54.940 -10.294  1.00  0.00     0.065 C 
HETATM   16  C24 UNL     1      -2.109  53.447 -10.314  1.00  0.00     0.139 C 
HETATM   17  C25 UNL     1      -0.955  52.601 -10.920  1.00  0.00     0.072 C 
HETATM   18  C26 UNL     1      -1.091  52.553 -12.467  1.00  0.00     0.030 C 
HETATM   19  C28 UNL     1       0.463  53.206 -10.566  1.00  0.00     0.029 C 
HETATM   20  C29 UNL     1       1.556  52.138 -10.519  1.00  0.00     0.090 C 
HETATM   21  C30 UNL     1       2.934  52.713 -10.312  1.00  0.00     0.157 C 
HETATM   22  O5  UNL     1       3.920  52.070 -10.677  1.00  0.00    -0.293 OA
ENDROOT
BRANCH   1  23
HETATM   23  C7  UNL     1       6.681  56.486  -6.751  1.00  0.00    -0.014 C 
HETATM   24  C8  UNL     1       7.960  55.742  -6.324  1.00  0.00     0.010 C 
BRANCH  23  25
HETATM   25  C6  UNL     1       5.836  56.874  -5.513  1.00  0.00     0.008 C 
BRANCH  25  26
HETATM   26  C5  UNL     1       5.166  58.250  -5.408  1.00  0.00     0.028 C 
BRANCH  26  27
HETATM   27  C4  UNL     1       4.347  58.458  -4.166  1.00  0.00    -0.025 C 
HETATM   28  C2  UNL     1       3.018  58.277  -4.010  1.00  0.00    -0.091 C 
HETATM   29  C1  UNL     1       2.361  58.524  -2.676  1.00  0.00     0.042 C 
HETATM   30  C3  UNL     1       2.064  57.834  -5.087  1.00  0.00     0.042 C 
ENDBRANCH  26  27
ENDBRANCH  25  26
ENDBRANCH  23  25
ENDBRANCH   1  23
BRANCH  14  31
HETATM   31  O1  UNL     1      -0.842  55.994  -8.356  1.00  0.00    -0.394 OA
HETATM   32  H35 UNL     1      -1.474  55.455  -7.856  1.00  0.00     0.210 HD
ENDBRANCH  14  31
BRANCH  17  33
HETATM   33  C27 UNL     1      -1.114  51.187 -10.349  1.00  0.00     0.151 C 
HETATM   34  O3  UNL     1      -1.331  50.914  -9.180  1.00  0.00    -0.649 OA
BRANCH  33  35
HETATM   35  O4  UNL     1      -0.914  50.198 -11.239  1.00  0.00    -0.776 OA
HETATM   36  H43 UNL     1      -1.013  49.362 -10.731  1.00  0.00     0.167 HD
ENDBRANCH  33  35
ENDBRANCH  17  33
BRANCH  16  37
HETATM   37  O2  UNL     1      -3.331  53.264 -11.040  1.00  0.00    -0.394 OA
HETATM   38  H39 UNL     1      -3.802  52.510 -10.647  1.00  0.00     0.210 HD
ENDBRANCH  16  37
TORSDOF 8
ENDMDL
MODEL 3
REMARK minimizedAffinity -7.70211697
REMARK CNNscore 0.409898341
REMARK CNNaffinity 6.32875109
REMARK  8 active torsions:
REMARK  status: ('A' for Active; 'I' for Inactive)
REMARK    1  A    between atoms: C4_4  and  C5_5 
REMARK    2  A    between atoms: C5_5  and  C6_6 
REMARK    3  A    between atoms: C6_6  and  C7_7 
REMARK    4  A    between atoms: C7_7  and  C9_9 
REMARK    5  A    between atoms: C22_22  and  O1_23 
REMARK    6  A    between atoms: C24_25  and  O2_26 
REMARK    7  A    between atoms: C25_27  and  C27_29 
REMARK    8  A    between atoms: C27_29  and  O4_31 
ROOT
HETATM    1  C9  UNL     1       6.124  55.793  -8.187  1.00  0.00    -0.002 C 
HETATM    2  C10 UNL     1       6.814  54.536  -8.756  1.00  0.00     0.007 C 
HETATM    3  C11 UNL     1       5.699  53.666  -9.391  1.00  0.00     0.015 C 
HETATM    4  C12 UNL     1       4.483  54.606  -9.533  1.00  0.00    -0.005 C 
HETATM    5  C13 UNL     1       4.703  55.437 -10.837  1.00  0.00     0.021 C 
HETATM    6  C14 UNL     1       3.062  54.064  -9.673  1.00  0.00    -0.000 C 
HETATM    7  C15 UNL     1       1.992  54.749  -9.186  1.00  0.00    -0.058 C 
HETATM    8  C16 UNL     1       2.192  56.074  -8.421  1.00  0.00     0.036 C 
HETATM    9  C17 UNL     1       3.637  56.573  -8.213  1.00  0.00     0.015 C 
HETATM   10  C18 UNL     1       4.618  55.400  -8.170  1.00  0.00    -0.028 C 
HETATM   11  C19 UNL     1       4.276  54.519  -6.929  1.00  0.00     0.016 C 
HETATM   12  C20 UNL     1       0.525  54.217  -9.278  1.00  0.00     0.011 C 
HETATM   13  C21 UNL     1       0.283  53.496  -7.932  1.00  0.00     0.023 C 
HETATM   14  C22 UNL     1      -0.499  55.389  -9.502  1.00  0.00     0.133 C 
HETATM   15  C23 UNL     1      -1.834  55.026 -10.164  1.00  0.00     0.065 C 
HETATM   16  C24 UNL     1      -2.150  53.536 -10.156  1.00  0.00     0.139 C 
HETATM   17  C25 UNL     1      -1.031  52.671 -10.801  1.00  0.00     0.072 C 
HETATM   18  C26 UNL     1      -1.232  52.609 -12.341  1.00  0.00     0.030 C 
HETATM   19  C28 UNL     1       0.406  53.264 -10.513  1.00  0.00     0.029 C 
HETATM   20  C29 UNL     1       1.488  52.184 -10.500  1.00  0.00     0.090 C 
HETATM   21  C30 UNL     1       2.881  52.746 -10.356  1.00  0.00     0.157 C 
HETATM   22  O5  UNL     1       3.843  52.089 -10.756  1.00  0.00    -0.293 OA
ENDROOT
BRANCH   1  23
HETATM   23  C7  UNL     1       6.812  56.513  -6.995  1.00  0.00    -0.014 C 
HETATM   24  C8  UNL     1       7.544  55.477  -6.122  1.00  0.00     0.010 C 
BRANCH  23  25
HETATM   25  C6  UNL     1       6.053  57.532  -6.112  1.00  0.00     0.008 C 
BRANCH  25  26
HETATM   26  C5  UNL     1       6.677  58.091  -4.826  1.00  0.00     0.028 C 
BRANCH  26  27
HETATM   27  C4  UNL     1       7.559  59.291  -5.024  1.00  0.00    -0.025 C 
HETATM   28  C2  UNL     1       8.907  59.328  -5.083  1.00  0.00    -0.091 C 
HETATM   29  C1  UNL     1       9.631  60.632  -5.302  1.00  0.00     0.042 C 
HETATM   30  C3  UNL     1       9.821  58.140  -4.939  1.00  0.00     0.042 C 
ENDBRANCH  26  27
ENDBRANCH  25  26
ENDBRANCH  23  25
ENDBRANCH   1  23
BRANCH  14  31
HETATM   31  O1  UNL     1      -0.776  56.088  -8.279  1.00  0.00    -0.394 OA
HETATM   32  H35 UNL     1      -1.392  55.562  -7.748  1.00  0.00     0.210 HD
ENDBRANCH  14  31
BRANCH  17  33
HETATM   33  C27 UNL     1      -1.182  51.265 -10.209  1.00  0.00     0.151 C 
HETATM   34  O3  UNL     1      -1.335  51.005  -9.027  1.00  0.00    -0.649 OA
BRANCH  33  35
HETATM   35  O4  UNL     1      -1.050  50.265 -11.100  1.00  0.00    -0.776 OA
HETATM   36  H43 UNL     1      -1.134  49.435 -10.579  1.00  0.00     0.167 HD
ENDBRANCH  33  35
ENDBRANCH  17  33
BRANCH  16  37
HETATM   37  O2  UNL     1      -3.404  53.359 -10.829  1.00  0.00    -0.394 OA
HETATM   38  H39 UNL     1      -3.866  52.614 -10.408  1.00  0.00     0.210 HD
ENDBRANCH  16  37
TORSDOF 8
ENDMDL
MODEL 4
REMARK minimizedAffinity -8.69741344
REMARK CNNscore 0.406478465
REMARK CNNaffinity 6.7172761
REMARK  8 active torsions:
REMARK  status: ('A' for Active; 'I' for Inactive)
REMARK    1  A    between atoms: C4_4  and  C5_5 
REMARK    2  A    between atoms: C5_5  and  C6_6 
REMARK    3  A    between atoms: C6_6  and  C7_7 
REMARK    4  A    between atoms: C7_7  and  C9_9 
REMARK    5  A    between atoms: C22_22  and  O1_23 
REMARK    6  A    between atoms: C24_25  and  O2_26 
REMARK    7  A    between atoms: C25_27  and  C27_29 
REMARK    8  A    between atoms: C27_29  and  O4_31 
ROOT
HETATM    1  C9  UNL     1      -2.171  50.663 -22.752  1.00  0.00    -0.002 C 
HETATM    2  C10 UNL     1      -2.325  50.354 -21.248  1.00  0.00     0.007 C 
HETATM    3  C11 UNL     1      -3.525  49.382 -21.115  1.00  0.00     0.015 C 
HETATM    4  C12 UNL     1      -3.771  48.844 -22.541  1.00  0.00    -0.005 C 
HETATM    5  C13 UNL     1      -2.744  47.690 -22.772  1.00  0.00     0.021 C 
HETATM    6  C14 UNL     1      -5.111  48.237 -22.949  1.00  0.00    -0.000 C 
HETATM    7  C15 UNL     1      -5.576  48.339 -24.224  1.00  0.00    -0.058 C 
HETATM    8  C16 UNL     1      -4.784  49.130 -25.285  1.00  0.00     0.036 C 
HETATM    9  C17 UNL     1      -3.471  49.809 -24.844  1.00  0.00     0.015 C 
HETATM   10  C18 UNL     1      -3.518  50.176 -23.360  1.00  0.00    -0.028 C 
HETATM   11  C19 UNL     1      -4.649  51.229 -23.150  1.00  0.00     0.016 C 
HETATM   12  C20 UNL     1      -6.956  47.762 -24.677  1.00  0.00     0.011 C 
HETATM   13  C21 UNL     1      -7.939  48.948 -24.553  1.00  0.00     0.023 C 
HETATM   14  C22 UNL     1      -6.893  47.211 -26.149  1.00  0.00     0.133 C 
HETATM   15  C23 UNL     1      -7.923  46.140 -26.533  1.00  0.00     0.065 C 
HETATM   16  C24 UNL     1      -9.105  46.039 -25.577  1.00  0.00     0.139 C 
HETATM   17  C25 UNL     1      -8.678  45.804 -24.102  1.00  0.00     0.072 C 
HETATM   18  C26 UNL     1      -8.466  44.285 -23.849  1.00  0.00     0.030 C 
HETATM   19  C28 UNL     1      -7.332  46.557 -23.754  1.00  0.00     0.029 C 
HETATM   20  C29 UNL     1      -7.239  46.928 -22.274  1.00  0.00     0.090 C 
HETATM   21  C30 UNL     1      -5.907  47.529 -21.899  1.00  0.00     0.157 C 
HETATM   22  O5  UNL     1      -5.526  47.473 -20.729  1.00  0.00    -0.293 OA
ENDROOT
BRANCH   1  23
HETATM   23  C7  UNL     1      -1.519  52.017 -23.145  1.00  0.00    -0.014 C 
HETATM   24  C8  UNL     1      -2.430  52.755 -24.143  1.00  0.00     0.010 C 
BRANCH  23  25
HETATM   25  C6  UNL     1      -0.039  52.110 -23.585  1.00  0.00     0.008 C 
BRANCH  25  26
HETATM   26  C5  UNL     1       0.417  53.142 -24.626  1.00  0.00     0.028 C 
BRANCH  26  27
HETATM   27  C4  UNL     1       0.226  52.722 -26.056  1.00  0.00    -0.025 C 
HETATM   28  C2  UNL     1       1.066  52.000 -26.827  1.00  0.00    -0.091 C 
HETATM   29  C1  UNL     1       0.701  51.658 -28.249  1.00  0.00     0.042 C 
HETATM   30  C3  UNL     1       2.410  51.473 -26.399  1.00  0.00     0.042 C 
ENDBRANCH  26  27
ENDBRANCH  25  26
ENDBRANCH  23  25
ENDBRANCH   1  23
BRANCH  14  31
HETATM   31  O1  UNL     1      -6.963  48.272 -27.113  1.00  0.00    -0.394 OA
HETATM   32  H35 UNL     1      -7.883  48.566 -27.191  1.00  0.00     0.210 HD
ENDBRANCH  14  31
BRANCH  17  33
HETATM   33  C27 UNL     1      -9.838  46.309 -23.235  1.00  0.00     0.151 C 
HETATM   34  O3  UNL     1     -10.523  47.291 -23.468  1.00  0.00    -0.649 OA
BRANCH  33  35
HETATM   35  O4  UNL     1     -10.025  45.622 -22.093  1.00  0.00    -0.776 OA
HETATM   36  H43 UNL     1     -10.766  46.074 -21.632  1.00  0.00     0.167 HD
ENDBRANCH  33  35
ENDBRANCH  17  33
BRANCH  16  37
HETATM   37  O2  UNL     1      -9.953  44.987 -26.053  1.00  0.00    -0.394 OA
HETATM   38  H39 UNL     1     -10.872  45.227 -25.847  1.00  0.00     0.210 HD
ENDBRANCH  16  37
TORSDOF 8
ENDMDL
MODEL 5
REMARK minimizedAffinity -8.35118866
REMARK CNNscore 0.394843191
REMARK CNNaffinity 6.68436575
REMARK  8 active torsions:
REMARK  status: ('A' for Active; 'I' for Inactive)
REMARK    1  A    between atoms: C4_4  and  C5_5 
REMARK    2  A    between atoms: C5_5  and  C6_6 
REMARK    3  A    between atoms: C6_6  and  C7_7 
REMARK    4  A    between atoms: C7_7  and  C9_9 
REMARK    5  A    between atoms: C22_22  and  O1_23 
REMARK    6  A    between atoms: C24_25  and  O2_26 
REMARK    7  A    between atoms: C25_27  and  C27_29 
REMARK    8  A    between atoms: C27_29  and  O4_31 
ROOT
HETATM    1  C9  UNL     1      -0.864  50.326 -22.145  1.00  0.00    -0.002 C 
HETATM    2  C10 UNL     1      -0.252  50.551 -20.746  1.00  0.00     0.007 C 
HETATM    3  C11 UNL     1      -1.223  49.902 -19.727  1.00  0.00     0.015 C 
HETATM    4  C12 UNL     1      -2.139  48.986 -20.566  1.00  0.00    -0.005 C 
HETATM    5  C13 UNL     1      -1.355  47.657 -20.804  1.00  0.00     0.021 C 
HETATM    6  C14 UNL     1      -3.502  48.528 -20.053  1.00  0.00    -0.000 C 
HETATM    7  C15 UNL     1      -4.538  48.295 -20.904  1.00  0.00    -0.058 C 
HETATM    8  C16 UNL     1      -4.379  48.548 -22.417  1.00  0.00     0.036 C 
HETATM    9  C17 UNL     1      -3.024  49.090 -22.918  1.00  0.00     0.015 C 
HETATM   10  C18 UNL     1      -2.333  49.917 -21.833  1.00  0.00    -0.028 C 
HETATM   11  C19 UNL     1      -3.218  51.164 -21.527  1.00  0.00     0.016 C 
HETATM   12  C20 UNL     1      -5.957  47.857 -20.419  1.00  0.00     0.011 C 
HETATM   13  C21 UNL     1      -6.757  49.175 -20.300  1.00  0.00     0.023 C 
HETATM   14  C22 UNL     1      -6.628  46.859 -21.434  1.00  0.00     0.133 C 
HETATM   15  C23 UNL     1      -7.706  45.923 -20.874  1.00  0.00     0.065 C 
HETATM   16  C24 UNL     1      -8.260  46.346 -19.519  1.00  0.00     0.139 C 
HETATM   17  C25 UNL     1      -7.157  46.526 -18.439  1.00  0.00     0.072 C 
HETATM   18  C26 UNL     1      -6.838  45.158 -17.776  1.00  0.00     0.030 C 
HETATM   19  C28 UNL     1      -5.820  47.100 -19.058  1.00  0.00     0.029 C 
HETATM   20  C29 UNL     1      -5.008  47.905 -18.043  1.00  0.00     0.090 C 
HETATM   21  C30 UNL     1      -3.669  48.349 -18.577  1.00  0.00     0.157 C 
HETATM   22  O5  UNL     1      -2.758  48.606 -17.789  1.00  0.00    -0.293 OA
ENDROOT
BRANCH   1  23
HETATM   23  C7  UNL     1      -0.500  51.345 -23.260  1.00  0.00    -0.014 C 
HETATM   24  C8  UNL     1      -0.090  52.683 -22.620  1.00  0.00     0.010 C 
BRANCH  23  25
HETATM   25  C6  UNL     1      -1.427  51.584 -24.477  1.00  0.00     0.008 C 
BRANCH  25  26
HETATM   26  C5  UNL     1      -1.199  50.850 -25.805  1.00  0.00     0.028 C 
BRANCH  26  27
HETATM   27  C4  UNL     1       0.218  50.872 -26.303  1.00  0.00    -0.025 C 
HETATM   28  C2  UNL     1       0.841  51.856 -26.985  1.00  0.00    -0.091 C 
HETATM   29  C1  UNL     1       2.284  51.711 -27.396  1.00  0.00     0.042 C 
HETATM   30  C3  UNL     1       0.214  53.158 -27.410  1.00  0.00     0.042 C 
ENDBRANCH  26  27
ENDBRANCH  25  26
ENDBRANCH  23  25
ENDBRANCH   1  23
BRANCH  14  31
HETATM   31  O1  UNL     1      -7.173  47.549 -22.569  1.00  0.00    -0.394 OA
HETATM   32  H35 UNL     1      -8.013  47.960 -22.314  1.00  0.00     0.210 HD
ENDBRANCH  14  31
BRANCH  17  33
HETATM   33  C27 UNL     1      -7.738  47.481 -17.389  1.00  0.00     0.151 C 
HETATM   34  O3  UNL     1      -8.515  47.172 -16.501  1.00  0.00    -0.649 OA
BRANCH  33  35
HETATM   35  O4  UNL     1      -7.389  48.771 -17.551  1.00  0.00    -0.776 OA
HETATM   36  H43 UNL     1      -7.856  49.261 -16.839  1.00  0.00     0.167 HD
ENDBRANCH  33  35
ENDBRANCH  17  33
BRANCH  16  37
HETATM   37  O2  UNL     1      -9.226  45.364 -19.124  1.00  0.00    -0.394 OA
HETATM   38  H39 UNL     1      -9.924  45.817 -18.621  1.00  0.00     0.210 HD
ENDBRANCH  16  37
TORSDOF 8
ENDMDL
MODEL 6
REMARK minimizedAffinity -8.24262238
REMARK CNNscore 0.38960138
REMARK CNNaffinity 6.27292681
REMARK  8 active torsions:
REMARK  status: ('A' for Active; 'I' for Inactive)
REMARK    1  A    between atoms: C4_4  and  C5_5 
REMARK    2  A    between atoms: C5_5  and  C6_6 
REMARK    3  A    between atoms: C6_6  and  C7_7 
REMARK    4  A    between atoms: C7_7  and  C9_9 
REMARK    5  A    between atoms: C22_22  and  O1_23 
REMARK    6  A    between atoms: C24_25  and  O2_26 
REMARK    7  A    between atoms: C25_27  and  C27_29 
REMARK    8  A    between atoms: C27_29  and  O4_31 
ROOT
HETATM    1  C9  UNL     1      -3.667  49.454 -21.812  1.00  0.00    -0.002 C 
HETATM    2  C10 UNL     1      -4.380  49.451 -20.443  1.00  0.00     0.007 C 
HETATM    3  C11 UNL     1      -5.773  48.810 -20.670  1.00  0.00     0.015 C 
HETATM    4  C12 UNL     1      -5.677  48.104 -22.039  1.00  0.00    -0.005 C 
HETATM    5  C13 UNL     1      -4.983  46.727 -21.790  1.00  0.00     0.021 C 
HETATM    6  C14 UNL     1      -6.922  47.752 -22.849  1.00  0.00    -0.000 C 
HETATM    7  C15 UNL     1      -6.900  47.735 -24.210  1.00  0.00    -0.058 C 
HETATM    8  C16 UNL     1      -5.623  48.133 -24.978  1.00  0.00     0.036 C 
HETATM    9  C17 UNL     1      -4.394  48.567 -24.152  1.00  0.00     0.015 C 
HETATM   10  C18 UNL     1      -4.821  49.184 -22.820  1.00  0.00    -0.028 C 
HETATM   11  C19 UNL     1      -5.630  50.484 -23.118  1.00  0.00     0.016 C 
HETATM   12  C20 UNL     1      -8.159  47.412 -25.079  1.00  0.00     0.011 C 
HETATM   13  C21 UNL     1      -8.770  48.792 -25.414  1.00  0.00     0.023 C 
HETATM   14  C22 UNL     1      -7.771  46.616 -26.379  1.00  0.00     0.133 C 
HETATM   15  C23 UNL     1      -8.868  45.754 -27.016  1.00  0.00     0.065 C 
HETATM   16  C24 UNL     1     -10.278  46.086 -26.544  1.00  0.00     0.139 C 
HETATM   17  C25 UNL     1     -10.435  46.018 -25.000  1.00  0.00     0.072 C 
HETATM   18  C26 UNL     1     -10.735  44.558 -24.563  1.00  0.00     0.030 C 
HETATM   19  C28 UNL     1      -9.126  46.499 -24.255  1.00  0.00     0.029 C 
HETATM   20  C29 UNL     1      -9.423  47.088 -22.876  1.00  0.00     0.090 C 
HETATM   21  C30 UNL     1      -8.176  47.432 -22.100  1.00  0.00     0.157 C 
HETATM   22  O5  UNL     1      -8.227  47.493 -20.871  1.00  0.00    -0.293 OA
ENDROOT
BRANCH   1  23
HETATM   23  C7  UNL     1      -2.583  50.540 -22.055  1.00  0.00    -0.014 C 
HETATM   24  C8  UNL     1      -1.759  50.173 -23.302  1.00  0.00     0.010 C 
BRANCH  23  25
HETATM   25  C6  UNL     1      -1.660  51.036 -20.917  1.00  0.00     0.008 C 
BRANCH  25  26
HETATM   26  C5  UNL     1      -0.135  50.884 -21.007  1.00  0.00     0.028 C 
BRANCH  26  27
HETATM   27  C4  UNL     1       0.587  52.081 -21.557  1.00  0.00    -0.025 C 
HETATM   28  C2  UNL     1       0.822  53.260 -20.943  1.00  0.00    -0.091 C 
HETATM   29  C1  UNL     1       1.581  54.355 -21.649  1.00  0.00     0.042 C 
HETATM   30  C3  UNL     1       0.379  53.625 -19.551  1.00  0.00     0.042 C 
ENDBRANCH  26  27
ENDBRANCH  25  26
ENDBRANCH  23  25
ENDBRANCH   1  23
BRANCH  14  31
HETATM   31  O1  UNL     1      -7.234  47.485 -27.388  1.00  0.00    -0.394 OA
HETATM   32  H35 UNL     1      -7.963  47.960 -27.815  1.00  0.00     0.210 HD
ENDBRANCH  14  31
BRANCH  17  33
HETATM   33  C27 UNL     1     -11.632  46.912 -24.652  1.00  0.00     0.151 C 
HETATM   34  O3  UNL     1     -12.259  46.884 -23.606  1.00  0.00    -0.649 OA
BRANCH  33  35
HETATM   35  O4  UNL     1     -12.031  47.726 -25.647  1.00  0.00    -0.776 OA
HETATM   36  H43 UNL     1     -12.815  48.204 -25.297  1.00  0.00     0.167 HD
ENDBRANCH  33  35
ENDBRANCH  17  33
BRANCH  16  37
HETATM   37  O2  UNL     1     -11.175  45.185 -27.204  1.00  0.00    -0.394 OA
HETATM   38  H39 UNL     1     -12.010  45.657 -27.362  1.00  0.00     0.210 HD
ENDBRANCH  16  37
TORSDOF 8
ENDMDL
MODEL 7
REMARK minimizedAffinity -7.41394377
REMARK CNNscore 0.368338823
REMARK CNNaffinity 6.43674231
REMARK  8 active torsions:
REMARK  status: ('A' for Active; 'I' for Inactive)
REMARK    1  A    between atoms: C4_4  and  C5_5 
REMARK    2  A    between atoms: C5_5  and  C6_6 
REMARK    3  A    between atoms: C6_6  and  C7_7 
REMARK    4  A    between atoms: C7_7  and  C9_9 
REMARK    5  A    between atoms: C22_22  and  O1_23 
REMARK    6  A    between atoms: C24_25  and  O2_26 
REMARK    7  A    between atoms: C25_27  and  C27_29 
REMARK    8  A    between atoms: C27_29  and  O4_31 
ROOT
HETATM    1  C9  UNL     1       4.199  54.172 -10.004  1.00  0.00    -0.002 C 
HETATM    2  C10 UNL     1       4.847  52.801  -9.715  1.00  0.00     0.007 C 
HETATM    3  C11 UNL     1       3.698  51.761  -9.706  1.00  0.00     0.015 C 
HETATM    4  C12 UNL     1       2.503  52.470 -10.378  1.00  0.00    -0.005 C 
HETATM    5  C13 UNL     1       2.717  52.356 -11.920  1.00  0.00     0.021 C 
HETATM    6  C14 UNL     1       1.067  51.997 -10.165  1.00  0.00    -0.000 C 
HETATM    7  C15 UNL     1       0.024  52.871 -10.180  1.00  0.00    -0.058 C 
HETATM    8  C16 UNL     1       0.272  54.383 -10.353  1.00  0.00     0.036 C 
HETATM    9  C17 UNL     1       1.732  54.862 -10.485  1.00  0.00     0.015 C 
HETATM   10  C18 UNL     1       2.685  53.914  -9.754  1.00  0.00    -0.028 C 
HETATM   11  C19 UNL     1       2.346  53.955  -8.232  1.00  0.00     0.016 C 
HETATM   12  C20 UNL     1      -1.457  52.434  -9.935  1.00  0.00     0.011 C 
HETATM   13  C21 UNL     1      -1.689  52.663  -8.424  1.00  0.00     0.023 C 
HETATM   14  C22 UNL     1      -2.456  53.276 -10.811  1.00  0.00     0.133 C 
HETATM   15  C23 UNL     1      -3.813  52.633 -11.125  1.00  0.00     0.065 C 
HETATM   16  C24 UNL     1      -4.166  51.450 -10.232  1.00  0.00     0.139 C 
HETATM   17  C25 UNL     1      -3.082  50.337 -10.237  1.00  0.00     0.072 C 
HETATM   18  C26 UNL     1      -3.315  49.378 -11.438  1.00  0.00     0.030 C 
HETATM   19  C28 UNL     1      -1.625  50.938 -10.360  1.00  0.00     0.029 C 
HETATM   20  C29 UNL     1      -0.569  50.044  -9.710  1.00  0.00     0.090 C 
HETATM   21  C30 UNL     1       0.839  50.537  -9.931  1.00  0.00     0.157 C 
HETATM   22  O5  UNL     1       1.777  49.741  -9.862  1.00  0.00    -0.293 OA
ENDROOT
BRANCH   1  23
HETATM   23  C7  UNL     1       4.929  55.437  -9.476  1.00  0.00    -0.014 C 
HETATM   24  C8  UNL     1       6.452  55.217  -9.540  1.00  0.00     0.010 C 
BRANCH  23  25
HETATM   25  C6  UNL     1       4.531  56.107  -8.138  1.00  0.00     0.008 C 
BRANCH  25  26
HETATM   26  C5  UNL     1       3.547  57.284  -8.101  1.00  0.00     0.028 C 
BRANCH  26  27
HETATM   27  C4  UNL     1       2.876  57.501  -6.774  1.00  0.00    -0.025 C 
HETATM   28  C2  UNL     1       1.576  57.313  -6.463  1.00  0.00    -0.091 C 
HETATM   29  C1  UNL     1       1.075  57.571  -5.065  1.00  0.00     0.042 C 
HETATM   30  C3  UNL     1       0.507  56.851  -7.418  1.00  0.00     0.042 C 
ENDBRANCH  26  27
ENDBRANCH  25  26
ENDBRANCH  23  25
ENDBRANCH   1  23
BRANCH  14  31
HETATM   31  O1  UNL     1      -2.691  54.573 -10.243  1.00  0.00    -0.394 OA
HETATM   32  H35 UNL     1      -3.309  54.485  -9.502  1.00  0.00     0.210 HD
ENDBRANCH  14  31
BRANCH  17  33
HETATM   33  C27 UNL     1      -3.255  49.564  -8.924  1.00  0.00     0.151 C 
HETATM   34  O3  UNL     1      -4.092  48.703  -8.712  1.00  0.00    -0.649 OA
BRANCH  33  35
HETATM   35  O4  UNL     1      -2.438  49.959  -7.930  1.00  0.00    -0.776 OA
HETATM   36  H43 UNL     1      -2.683  49.408  -7.153  1.00  0.00     0.167 HD
ENDBRANCH  33  35
ENDBRANCH  17  33
BRANCH  16  37
HETATM   37  O2  UNL     1      -5.436  50.948 -10.665  1.00  0.00    -0.394 OA
HETATM   38  H39 UNL     1      -5.908  50.614  -9.883  1.00  0.00     0.210 HD
ENDBRANCH  16  37
TORSDOF 8
ENDMDL
MODEL 8
REMARK minimizedAffinity -7.95988274
REMARK CNNscore 0.328349292
REMARK CNNaffinity 6.08416224
REMARK  8 active torsions:
REMARK  status: ('A' for Active; 'I' for Inactive)
REMARK    1  A    between atoms: C4_4  and  C5_5 
REMARK    2  A    between atoms: C5_5  and  C6_6 
REMARK    3  A    between atoms: C6_6  and  C7_7 
REMARK    4  A    between atoms: C7_7  and  C9_9 
REMARK    5  A    between atoms: C22_22  and  O1_23 
REMARK    6  A    between atoms: C24_25  and  O2_26 
REMARK    7  A    between atoms: C25_27  and  C27_29 
REMARK    8  A    between atoms: C27_29  and  O4_31 
ROOT
HETATM    1  C9  UNL     1      -4.629  48.996 -23.616  1.00  0.00    -0.002 C 
HETATM    2  C10 UNL     1      -5.395  48.385 -24.808  1.00  0.00     0.007 C 
HETATM    3  C11 UNL     1      -6.756  47.892 -24.255  1.00  0.00     0.015 C 
HETATM    4  C12 UNL     1      -6.909  48.579 -22.881  1.00  0.00    -0.005 C 
HETATM    5  C13 UNL     1      -7.440  50.022 -23.154  1.00  0.00     0.021 C 
HETATM    6  C14 UNL     1      -7.852  48.031 -21.812  1.00  0.00    -0.000 C 
HETATM    7  C15 UNL     1      -7.577  48.174 -20.486  1.00  0.00    -0.058 C 
HETATM    8  C16 UNL     1      -6.267  48.844 -20.026  1.00  0.00     0.036 C 
HETATM    9  C17 UNL     1      -5.282  49.321 -21.113  1.00  0.00     0.015 C 
HETATM   10  C18 UNL     1      -5.412  48.470 -22.378  1.00  0.00    -0.028 C 
HETATM   11  C19 UNL     1      -5.004  47.006 -22.028  1.00  0.00     0.016 C 
HETATM   12  C20 UNL     1      -8.497  47.602 -19.359  1.00  0.00     0.011 C 
HETATM   13  C21 UNL     1      -7.889  46.221 -19.020  1.00  0.00     0.023 C 
HETATM   14  C22 UNL     1      -8.525  48.549 -18.104  1.00  0.00     0.133 C 
HETATM   15  C23 UNL     1      -9.755  48.454 -17.192  1.00  0.00     0.065 C 
HETATM   16  C24 UNL     1     -10.589  47.196 -17.396  1.00  0.00     0.139 C 
HETATM   17  C25 UNL     1     -11.052  47.003 -18.867  1.00  0.00     0.072 C 
HETATM   18  C26 UNL     1     -12.364  47.799 -19.116  1.00  0.00     0.030 C 
HETATM   19  C28 UNL     1      -9.963  47.509 -19.896  1.00  0.00     0.029 C 
HETATM   20  C29 UNL     1     -10.032  46.765 -21.229  1.00  0.00     0.090 C 
HETATM   21  C30 UNL     1      -9.088  47.323 -22.265  1.00  0.00     0.157 C 
HETATM   22  O5  UNL     1      -9.324  47.139 -23.460  1.00  0.00    -0.293 OA
ENDROOT
BRANCH   1  23
HETATM   23  C7  UNL     1      -3.077  48.997 -23.683  1.00  0.00    -0.014 C 
HETATM   24  C8  UNL     1      -2.511  49.793 -22.492  1.00  0.00     0.010 C 
BRANCH  23  25
HETATM   25  C6  UNL     1      -2.320  49.351 -24.985  1.00  0.00     0.008 C 
BRANCH  25  26
HETATM   26  C5  UNL     1      -1.399  50.577 -25.061  1.00  0.00     0.028 C 
BRANCH  26  27
HETATM   27  C4  UNL     1      -0.878  50.890 -26.435  1.00  0.00    -0.025 C 
HETATM   28  C2  UNL     1       0.336  51.375 -26.770  1.00  0.00    -0.091 C 
HETATM   29  C1  UNL     1       0.694  51.618 -28.214  1.00  0.00     0.042 C 
HETATM   30  C3  UNL     1       1.434  51.726 -25.803  1.00  0.00     0.042 C 
ENDBRANCH  26  27
ENDBRANCH  25  26
ENDBRANCH  23  25
ENDBRANCH   1  23
BRANCH  14  31
HETATM   31  O1  UNL     1      -7.349  48.389 -17.297  1.00  0.00    -0.394 OA
HETATM   32  H35 UNL     1      -7.436  47.580 -16.771  1.00  0.00     0.210 HD
ENDBRANCH  14  31
BRANCH  17  33
HETATM   33  C27 UNL     1     -11.323  45.504 -19.038  1.00  0.00     0.151 C 
HETATM   34  O3  UNL     1     -12.056  45.005 -19.876  1.00  0.00    -0.649 OA
BRANCH  33  35
HETATM   35  O4  UNL     1     -10.739  44.720 -18.112  1.00  0.00    -0.776 OA
HETATM   36  H43 UNL     1     -11.026  43.804 -18.324  1.00  0.00     0.167 HD
ENDBRANCH  33  35
ENDBRANCH  17  33
BRANCH  16  37
HETATM   37  O2  UNL     1     -11.704  47.269 -16.500  1.00  0.00    -0.394 OA
HETATM   38  H39 UNL     1     -11.919  46.365 -16.215  1.00  0.00     0.210 HD
ENDBRANCH  16  37
TORSDOF 8
ENDMDL
MODEL 9
REMARK minimizedAffinity -7.4599967
REMARK CNNscore 0.308181971
REMARK CNNaffinity 6.62000418
REMARK  8 active torsions:
REMARK  status: ('A' for Active; 'I' for Inactive)
REMARK    1  A    between atoms: C4_4  and  C5_5 
REMARK    2  A    between atoms: C5_5  and  C6_6 
REMARK    3  A    between atoms: C6_6  and  C7_7 
REMARK    4  A    between atoms: C7_7  and  C9_9 
REMARK    5  A    between atoms: C22_22  and  O1_23 
REMARK    6  A    between atoms: C24_25  and  O2_26 
REMARK    7  A    between atoms: C25_27  and  C27_29 
REMARK    8  A    between atoms: C27_29  and  O4_31 
ROOT
HETATM    1  C9  UNL     1       0.552  51.816 -16.693  1.00  0.00    -0.002 C 
HETATM    2  C10 UNL     1       1.827  52.085 -17.520  1.00  0.00     0.007 C 
HETATM    3  C11 UNL     1       1.412  52.011 -19.012  1.00  0.00     0.015 C 
HETATM    4  C12 UNL     1      -0.129  52.106 -19.010  1.00  0.00    -0.005 C 
HETATM    5  C13 UNL     1      -0.488  53.621 -18.890  1.00  0.00     0.021 C 
HETATM    6  C14 UNL     1      -0.964  51.617 -20.191  1.00  0.00    -0.000 C 
HETATM    7  C15 UNL     1      -2.213  51.108 -20.012  1.00  0.00    -0.058 C 
HETATM    8  C16 UNL     1      -2.800  50.954 -18.594  1.00  0.00     0.036 C 
HETATM    9  C17 UNL     1      -1.917  51.374 -17.401  1.00  0.00     0.015 C 
HETATM   10  C18 UNL     1      -0.434  51.215 -17.737  1.00  0.00    -0.028 C 
HETATM   11  C19 UNL     1      -0.146  49.702 -17.984  1.00  0.00     0.016 C 
HETATM   12  C20 UNL     1      -3.089  50.567 -21.188  1.00  0.00     0.011 C 
HETATM   13  C21 UNL     1      -2.810  49.047 -21.219  1.00  0.00     0.023 C 
HETATM   14  C22 UNL     1      -4.614  50.874 -20.956  1.00  0.00     0.133 C 
HETATM   15  C23 UNL     1      -5.505  50.937 -22.204  1.00  0.00     0.065 C 
HETATM   16  C24 UNL     1      -4.885  50.312 -23.447  1.00  0.00     0.139 C 
HETATM   17  C25 UNL     1      -3.497  50.913 -23.804  1.00  0.00     0.072 C 
HETATM   18  C26 UNL     1      -3.682  52.198 -24.657  1.00  0.00     0.030 C 
HETATM   19  C28 UNL     1      -2.672  51.292 -22.509  1.00  0.00     0.029 C 
HETATM   20  C29 UNL     1      -1.163  51.224 -22.740  1.00  0.00     0.090 C 
HETATM   21  C30 UNL     1      -0.362  51.707 -21.557  1.00  0.00     0.157 C 
HETATM   22  O5  UNL     1       0.787  52.117 -21.730  1.00  0.00    -0.293 OA
ENDROOT
BRANCH   1  23
HETATM   23  C7  UNL     1       0.731  51.216 -15.271  1.00  0.00    -0.014 C 
HETATM   24  C8  UNL     1      -0.097  52.032 -14.261  1.00  0.00     0.010 C 
BRANCH  23  25
HETATM   25  C6  UNL     1       2.130  50.892 -14.695  1.00  0.00     0.008 C 
BRANCH  25  26
HETATM   26  C5  UNL     1       2.370  50.822 -13.181  1.00  0.00     0.028 C 
BRANCH  26  27
HETATM   27  C4  UNL     1       2.872  52.095 -12.563  1.00  0.00    -0.025 C 
HETATM   28  C2  UNL     1       2.847  52.450 -11.260  1.00  0.00    -0.091 C 
HETATM   29  C1  UNL     1       3.412  53.774 -10.814  1.00  0.00     0.042 C 
HETATM   30  C3  UNL     1       2.279  51.621 -10.139  1.00  0.00     0.042 C 
ENDBRANCH  26  27
ENDBRANCH  25  26
ENDBRANCH  23  25
ENDBRANCH   1  23
BRANCH  14  31
HETATM   31  O1  UNL     1      -5.202  49.952 -20.027  1.00  0.00    -0.394 OA
HETATM   32  H35 UNL     1      -5.370  49.112 -20.480  1.00  0.00     0.210 HD
ENDBRANCH  14  31
BRANCH  17  33
HETATM   33  C27 UNL     1      -2.770  49.848 -24.634  1.00  0.00     0.151 C 
HETATM   34  O3  UNL     1      -2.820  48.644 -24.445  1.00  0.00    -0.649 OA
BRANCH  33  35
HETATM   35  O4  UNL     1      -1.962  50.340 -25.592  1.00  0.00    -0.776 OA
HETATM   36  H43 UNL     1      -1.543  49.555 -26.011  1.00  0.00     0.167 HD
ENDBRANCH  33  35
ENDBRANCH  17  33
BRANCH  16  37
HETATM   37  O2  UNL     1      -5.820  50.474 -24.521  1.00  0.00    -0.394 OA
HETATM   38  H39 UNL     1      -5.740  49.702 -25.106  1.00  0.00     0.210 HD
ENDBRANCH  16  37
TORSDOF 8
ENDMDL
