MODEL 1
REMARK minimizedAffinity -7.81737852
REMARK  7 active torsions:
REMARK  status: ('A' for Active; 'I' for Inactive)
REMARK    1  A    between atoms: O1_2  and  C2_3 
REMARK    2  A    between atoms: C2_3  and  C3_5 
REMARK    3  A    between atoms: C17_20  and  C18_21 
REMARK    4  A    between atoms: C18_21  and  O5_23 
REMARK    5  A    between atoms: O5_23  and  C19_24 
REMARK    6  A    between atoms: C19_24  and  C20_25 
REMARK    7  A    between atoms: C20_25  and  N1_26 
ROOT
HETATM    1  C3  UNL     1      -7.134   6.958  14.609  1.00  0.00     0.049 C 
HETATM    2  C4  UNL     1      -8.413   6.581  13.830  1.00  0.00     0.026 C 
HETATM    3  C5  UNL     1      -7.106   8.498  14.773  1.00  0.00     0.020 C 
HETATM    4  C6  UNL     1      -5.826   8.982  15.442  1.00  0.00     0.002 C 
HETATM    5  C7  UNL     1      -4.597   8.595  14.626  1.00  0.00     0.010 C 
HETATM    6  C8  UNL     1      -4.481   7.070  14.316  1.00  0.00    -0.034 C 
HETATM    7  C9  UNL     1      -4.016   6.357  15.608  1.00  0.00     0.016 C 
HETATM    8  C10 UNL     1      -5.858   6.538  13.783  1.00  0.00     0.019 C 
HETATM    9  C11 UNL     1      -5.817   5.048  13.396  1.00  0.00     0.085 C 
HETATM   10  C12 UNL     1      -4.428   4.560  13.058  1.00  0.00     0.132 C 
HETATM   11  O3  UNL     1      -4.125   3.383  13.266  1.00  0.00    -0.298 OA
HETATM   12  C13 UNL     1      -3.488   5.544  12.366  1.00  0.00     0.068 C 
HETATM   13  C14 UNL     1      -2.119   4.859  12.036  1.00  0.00     0.022 C 
HETATM   14  C15 UNL     1      -2.320   3.917  10.824  1.00  0.00     0.015 C 
HETATM   15  C16 UNL     1      -0.929   5.802  11.808  1.00  0.00    -0.070 C 
HETATM   16  C17 UNL     1       0.241   5.345  11.306  1.00  0.00     0.085 C 
HETATM   17  C23 UNL     1      -1.088   7.218  12.304  1.00  0.00     0.035 C 
HETATM   18  C24 UNL     1      -1.981   7.256  13.538  1.00  0.00     0.010 C 
HETATM   19  C25 UNL     1      -3.418   6.884  13.153  1.00  0.00     0.006 C 
ENDROOT
BRANCH  16  20
HETATM   20  C18 UNL     1       1.468   6.126  11.034  1.00  0.00     0.283 C 
HETATM   21  O4  UNL     1       1.952   6.895  11.854  1.00  0.00    -0.260 OA
BRANCH  20  22
HETATM   22  O5  UNL     1       1.994   5.788   9.831  1.00  0.00    -0.316 OA
BRANCH  22  23
HETATM   23  C19 UNL     1       3.149   6.546   9.431  1.00  0.00     0.209 C 
BRANCH  23  24
HETATM   24  C20 UNL     1       2.754   7.684   8.473  1.00  0.00     0.298 C 
BRANCH  24  25
HETATM   25  N1  UNL     1       1.419   7.527   7.861  1.00  0.00     0.082 N 
HETATM   26  C21 UNL     1       0.481   8.552   8.325  1.00  0.00     0.309 C 
HETATM   27  C22 UNL     1       1.530   7.591   6.400  1.00  0.00     0.309 C 
ENDBRANCH  24  25
ENDBRANCH  23  24
ENDBRANCH  22  23
ENDBRANCH  20  22
ENDBRANCH  16  20
BRANCH   1  28
HETATM   28  C2  UNL     1      -7.275   6.262  15.980  1.00  0.00     0.267 C 
HETATM   29  O2  UNL     1      -6.373   5.684  16.571  1.00  0.00    -0.264 OA
BRANCH  28  30
HETATM   30  O1  UNL     1      -8.559   6.315  16.437  1.00  0.00    -0.326 OA
HETATM   31  C1  UNL     1      -8.968   7.601  16.910  1.00  0.00     0.213 C 
ENDBRANCH  28  30
ENDBRANCH   1  28
TORSDOF 7
ENDMDL
MODEL 2
REMARK minimizedAffinity -7.74695492
REMARK  7 active torsions:
REMARK  status: ('A' for Active; 'I' for Inactive)
REMARK    1  A    between atoms: O1_2  and  C2_3 
REMARK    2  A    between atoms: C2_3  and  C3_5 
REMARK    3  A    between atoms: C17_20  and  C18_21 
REMARK    4  A    between atoms: C18_21  and  O5_23 
REMARK    5  A    between atoms: O5_23  and  C19_24 
REMARK    6  A    between atoms: C19_24  and  C20_25 
REMARK    7  A    between atoms: C20_25  and  N1_26 
ROOT
HETATM    1  C3  UNL     1      -7.826   7.704  14.847  1.00  0.00     0.049 C 
HETATM    2  C4  UNL     1      -9.151   8.025  14.121  1.00  0.00     0.026 C 
HETATM    3  C5  UNL     1      -6.977   8.999  14.898  1.00  0.00     0.020 C 
HETATM    4  C6  UNL     1      -5.601   8.762  15.506  1.00  0.00     0.002 C 
HETATM    5  C7  UNL     1      -4.811   7.738  14.699  1.00  0.00     0.010 C 
HETATM    6  C8  UNL     1      -5.537   6.371  14.499  1.00  0.00    -0.034 C 
HETATM    7  C9  UNL     1      -5.451   5.589  15.832  1.00  0.00     0.016 C 
HETATM    8  C10 UNL     1      -7.013   6.627  14.032  1.00  0.00     0.019 C 
HETATM    9  C11 UNL     1      -7.788   5.325  13.755  1.00  0.00     0.085 C 
HETATM   10  C12 UNL     1      -6.890   4.156  13.429  1.00  0.00     0.132 C 
HETATM   11  O3  UNL     1      -7.245   3.011  13.718  1.00  0.00    -0.298 OA
HETATM   12  C13 UNL     1      -5.610   4.451  12.650  1.00  0.00     0.068 C 
HETATM   13  C14 UNL     1      -4.833   3.125  12.347  1.00  0.00     0.022 C 
HETATM   14  C15 UNL     1      -5.566   2.373  11.212  1.00  0.00     0.015 C 
HETATM   15  C16 UNL     1      -3.338   3.277  12.029  1.00  0.00    -0.070 C 
HETATM   16  C17 UNL     1      -2.616   2.242  11.541  1.00  0.00     0.085 C 
HETATM   17  C23 UNL     1      -2.695   4.584  12.422  1.00  0.00     0.035 C 
HETATM   18  C24 UNL     1      -3.363   5.157  13.666  1.00  0.00     0.010 C 
HETATM   19  C25 UNL     1      -4.798   5.587  13.334  1.00  0.00     0.006 C 
ENDROOT
BRANCH  16  20
HETATM   20  C18 UNL     1      -1.179   2.234  11.191  1.00  0.00     0.283 C 
HETATM   21  O4  UNL     1      -0.519   1.204  11.149  1.00  0.00    -0.260 OA
BRANCH  20  22
HETATM   22  O5  UNL     1      -0.764   3.477  10.842  1.00  0.00    -0.316 OA
BRANCH  22  23
HETATM   23  C19 UNL     1       0.388   3.962  11.554  1.00  0.00     0.209 C 
BRANCH  23  24
HETATM   24  C20 UNL     1       0.742   5.394  11.114  1.00  0.00     0.298 C 
BRANCH  24  25
HETATM   25  N1  UNL     1       2.003   5.911  11.684  1.00  0.00     0.082 N 
HETATM   26  C21 UNL     1       2.956   6.295  10.640  1.00  0.00     0.309 C 
HETATM   27  C22 UNL     1       1.724   7.067  12.541  1.00  0.00     0.309 C 
ENDBRANCH  24  25
ENDBRANCH  23  24
ENDBRANCH  22  23
ENDBRANCH  20  22
ENDBRANCH  16  20
BRANCH   1  28
HETATM   28  C2  UNL     1      -8.239   7.264  16.268  1.00  0.00     0.267 C 
HETATM   29  O2  UNL     1      -7.470   6.859  17.130  1.00  0.00    -0.264 OA
BRANCH  28  30
HETATM   30  O1  UNL     1      -9.591   7.321  16.435  1.00  0.00    -0.326 OA
HETATM   31  C1  UNL     1     -10.056   8.488  17.118  1.00  0.00     0.213 C 
ENDBRANCH  28  30
ENDBRANCH   1  28
TORSDOF 7
ENDMDL
MODEL 3
REMARK minimizedAffinity -7.66223145
REMARK  7 active torsions:
REMARK  status: ('A' for Active; 'I' for Inactive)
REMARK    1  A    between atoms: O1_2  and  C2_3 
REMARK    2  A    between atoms: C2_3  and  C3_5 
REMARK    3  A    between atoms: C17_20  and  C18_21 
REMARK    4  A    between atoms: C18_21  and  O5_23 
REMARK    5  A    between atoms: O5_23  and  C19_24 
REMARK    6  A    between atoms: C19_24  and  C20_25 
REMARK    7  A    between atoms: C20_25  and  N1_26 
ROOT
HETATM    1  C3  UNL     1      -7.580   6.284  15.447  1.00  0.00     0.049 C 
HETATM    2  C4  UNL     1      -7.719   7.011  16.803  1.00  0.00     0.026 C 
HETATM    3  C5  UNL     1      -7.873   4.779  15.674  1.00  0.00     0.020 C 
HETATM    4  C6  UNL     1      -7.660   3.955  14.411  1.00  0.00     0.002 C 
HETATM    5  C7  UNL     1      -6.222   4.064  13.917  1.00  0.00     0.010 C 
HETATM    6  C8  UNL     1      -5.729   5.526  13.677  1.00  0.00    -0.034 C 
HETATM    7  C9  UNL     1      -6.364   6.029  12.359  1.00  0.00     0.016 C 
HETATM    8  C10 UNL     1      -6.102   6.413  14.917  1.00  0.00     0.019 C 
HETATM    9  C11 UNL     1      -5.600   7.863  14.789  1.00  0.00     0.085 C 
HETATM   10  C12 UNL     1      -4.422   8.005  13.853  1.00  0.00     0.132 C 
HETATM   11  O3  UNL     1      -4.259   9.055  13.228  1.00  0.00    -0.298 OA
HETATM   12  C13 UNL     1      -3.420   6.853  13.809  1.00  0.00     0.068 C 
HETATM   13  C14 UNL     1      -2.238   7.190  12.838  1.00  0.00     0.022 C 
HETATM   14  C15 UNL     1      -1.308   8.214  13.531  1.00  0.00     0.015 C 
HETATM   15  C16 UNL     1      -1.437   5.992  12.308  1.00  0.00    -0.070 C 
HETATM   16  C17 UNL     1      -0.271   6.166  11.645  1.00  0.00     0.085 C 
HETATM   17  C23 UNL     1      -2.087   4.636  12.439  1.00  0.00     0.035 C 
HETATM   18  C24 UNL     1      -3.603   4.758  12.341  1.00  0.00     0.010 C 
HETATM   19  C25 UNL     1      -4.146   5.499  13.570  1.00  0.00     0.006 C 
ENDROOT
BRANCH  16  20
HETATM   20  C18 UNL     1       0.606   5.118  11.078  1.00  0.00     0.283 C 
HETATM   21  O4  UNL     1       0.433   3.926  11.300  1.00  0.00    -0.260 OA
BRANCH  20  22
HETATM   22  O5  UNL     1       1.519   5.661  10.236  1.00  0.00    -0.316 OA
BRANCH  22  23
HETATM   23  C19 UNL     1       1.632   7.095  10.295  1.00  0.00     0.209 C 
BRANCH  23  24
HETATM   24  C20 UNL     1       2.489   7.626   9.132  1.00  0.00     0.298 C 
BRANCH  24  25
HETATM   25  N1  UNL     1       1.710   8.152   7.993  1.00  0.00     0.082 N 
HETATM   26  C21 UNL     1       1.780   7.267   6.828  1.00  0.00     0.309 C 
HETATM   27  C22 UNL     1       0.309   8.329   8.388  1.00  0.00     0.309 C 
ENDBRANCH  24  25
ENDBRANCH  23  24
ENDBRANCH  22  23
ENDBRANCH  20  22
ENDBRANCH  16  20
BRANCH   1  28
HETATM   28  C2  UNL     1      -8.653   6.919  14.535  1.00  0.00     0.267 C 
HETATM   29  O2  UNL     1      -9.162   6.375  13.564  1.00  0.00    -0.264 OA
BRANCH  28  30
HETATM   30  O1  UNL     1      -8.928   8.202  14.908  1.00  0.00    -0.326 OA
HETATM   31  C1  UNL     1     -10.285   8.602  14.700  1.00  0.00     0.213 C 
ENDBRANCH  28  30
ENDBRANCH   1  28
TORSDOF 7
ENDMDL
MODEL 4
REMARK minimizedAffinity -7.62861156
REMARK  7 active torsions:
REMARK  status: ('A' for Active; 'I' for Inactive)
REMARK    1  A    between atoms: O1_2  and  C2_3 
REMARK    2  A    between atoms: C2_3  and  C3_5 
REMARK    3  A    between atoms: C17_20  and  C18_21 
REMARK    4  A    between atoms: C18_21  and  O5_23 
REMARK    5  A    between atoms: O5_23  and  C19_24 
REMARK    6  A    between atoms: C19_24  and  C20_25 
REMARK    7  A    between atoms: C20_25  and  N1_26 
ROOT
HETATM    1  C3  UNL     1       3.699   7.718  10.322  1.00  0.00     0.049 C 
HETATM    2  C4  UNL     1       4.754   8.832  10.505  1.00  0.00     0.026 C 
HETATM    3  C5  UNL     1       3.059   7.886   8.921  1.00  0.00     0.020 C 
HETATM    4  C6  UNL     1       1.928   6.893   8.683  1.00  0.00     0.002 C 
HETATM    5  C7  UNL     1       0.815   7.069   9.710  1.00  0.00     0.010 C 
HETATM    6  C8  UNL     1       1.285   6.980  11.195  1.00  0.00    -0.034 C 
HETATM    7  C9  UNL     1       1.538   5.489  11.523  1.00  0.00     0.016 C 
HETATM    8  C10 UNL     1       2.557   7.877  11.396  1.00  0.00     0.019 C 
HETATM    9  C11 UNL     1       3.055   7.893  12.853  1.00  0.00     0.085 C 
HETATM   10  C12 UNL     1       1.976   7.557  13.855  1.00  0.00     0.132 C 
HETATM   11  O3  UNL     1       2.275   7.003  14.915  1.00  0.00    -0.298 OA
HETATM   12  C13 UNL     1       0.557   8.023  13.539  1.00  0.00     0.068 C 
HETATM   13  C14 UNL     1      -0.419   7.645  14.705  1.00  0.00     0.022 C 
HETATM   14  C15 UNL     1      -0.169   8.611  15.888  1.00  0.00     0.015 C 
HETATM   15  C16 UNL     1      -1.910   7.590  14.346  1.00  0.00    -0.070 C 
HETATM   16  C17 UNL     1      -2.859   7.492  15.305  1.00  0.00     0.085 C 
HETATM   17  C23 UNL     1      -2.247   7.506  12.877  1.00  0.00     0.035 C 
HETATM   18  C24 UNL     1      -1.161   6.751  12.121  1.00  0.00     0.010 C 
HETATM   19  C25 UNL     1       0.134   7.574  12.111  1.00  0.00     0.006 C 
ENDROOT
BRANCH  16  20
HETATM   20  C18 UNL     1      -4.325   7.427  15.116  1.00  0.00     0.283 C 
HETATM   21  O4  UNL     1      -5.023   8.431  15.051  1.00  0.00    -0.260 OA
BRANCH  20  22
HETATM   22  O5  UNL     1      -4.728   6.146  14.934  1.00  0.00    -0.316 OA
BRANCH  22  23
HETATM   23  C19 UNL     1      -5.845   5.974  14.043  1.00  0.00     0.209 C 
BRANCH  23  24
HETATM   24  C20 UNL     1      -5.694   4.684  13.217  1.00  0.00     0.298 C 
BRANCH  24  25
HETATM   25  N1  UNL     1      -6.945   4.217  12.585  1.00  0.00     0.082 N 
HETATM   26  C21 UNL     1      -7.480   3.025  13.247  1.00  0.00     0.309 C 
HETATM   27  C22 UNL     1      -7.948   5.286  12.617  1.00  0.00     0.309 C 
ENDBRANCH  24  25
ENDBRANCH  23  24
ENDBRANCH  22  23
ENDBRANCH  20  22
ENDBRANCH  16  20
BRANCH   1  28
HETATM   28  C2  UNL     1       4.489   6.394  10.409  1.00  0.00     0.267 C 
HETATM   29  O2  UNL     1       4.268   5.398   9.733  1.00  0.00    -0.264 OA
BRANCH  28  30
HETATM   30  O1  UNL     1       5.439   6.442  11.386  1.00  0.00    -0.326 OA
HETATM   31  C1  UNL     1       6.675   5.811  11.044  1.00  0.00     0.213 C 
ENDBRANCH  28  30
ENDBRANCH   1  28
TORSDOF 7
ENDMDL
MODEL 5
REMARK minimizedAffinity -7.54221296
REMARK  7 active torsions:
REMARK  status: ('A' for Active; 'I' for Inactive)
REMARK    1  A    between atoms: O1_2  and  C2_3 
REMARK    2  A    between atoms: C2_3  and  C3_5 
REMARK    3  A    between atoms: C17_20  and  C18_21 
REMARK    4  A    between atoms: C18_21  and  O5_23 
REMARK    5  A    between atoms: O5_23  and  C19_24 
REMARK    6  A    between atoms: C19_24  and  C20_25 
REMARK    7  A    between atoms: C20_25  and  N1_26 
ROOT
HETATM    1  C3  UNL     1       1.234   7.179  11.532  1.00  0.00     0.049 C 
HETATM    2  C4  UNL     1       1.550   8.438  10.694  1.00  0.00     0.026 C 
HETATM    3  C5  UNL     1       1.493   5.934  10.647  1.00  0.00     0.020 C 
HETATM    4  C6  UNL     1       1.110   4.639  11.352  1.00  0.00     0.002 C 
HETATM    5  C7  UNL     1      -0.370   4.628  11.720  1.00  0.00     0.010 C 
HETATM    6  C8  UNL     1      -0.831   5.846  12.579  1.00  0.00    -0.034 C 
HETATM    7  C9  UNL     1      -0.329   5.624  14.026  1.00  0.00     0.016 C 
HETATM    8  C10 UNL     1      -0.289   7.173  11.939  1.00  0.00     0.019 C 
HETATM    9  C11 UNL     1      -0.748   8.434  12.694  1.00  0.00     0.085 C 
HETATM   10  C12 UNL     1      -2.016   8.225  13.487  1.00  0.00     0.132 C 
HETATM   11  O3  UNL     1      -2.209   8.874  14.517  1.00  0.00    -0.298 OA
HETATM   12  C13 UNL     1      -3.060   7.275  12.902  1.00  0.00     0.068 C 
HETATM   13  C14 UNL     1      -4.329   7.222  13.818  1.00  0.00     0.022 C 
HETATM   14  C15 UNL     1      -5.137   8.526  13.616  1.00  0.00     0.015 C 
HETATM   15  C16 UNL     1      -5.228   5.988  13.654  1.00  0.00    -0.070 C 
HETATM   16  C17 UNL     1      -6.454   5.933  14.224  1.00  0.00     0.085 C 
HETATM   17  C23 UNL     1      -4.619   4.799  12.953  1.00  0.00     0.035 C 
HETATM   18  C24 UNL     1      -3.120   4.731  13.219  1.00  0.00     0.010 C 
HETATM   19  C25 UNL     1      -2.416   5.908  12.533  1.00  0.00     0.006 C 
ENDROOT
BRANCH  16  20
HETATM   20  C18 UNL     1      -7.427   4.820  14.157  1.00  0.00     0.283 C 
HETATM   21  O4  UNL     1      -7.632   4.070  15.102  1.00  0.00    -0.260 OA
BRANCH  20  22
HETATM   22  O5  UNL     1      -8.091   4.835  12.975  1.00  0.00    -0.316 OA
BRANCH  22  23
HETATM   23  C19 UNL     1      -9.190   5.761  12.900  1.00  0.00     0.209 C 
BRANCH  23  24
HETATM   24  C20 UNL     1      -9.207   6.693  14.125  1.00  0.00     0.298 C 
BRANCH  24  25
HETATM   25  N1  UNL     1     -10.464   7.451  14.295  1.00  0.00     0.082 N 
HETATM   26  C21 UNL     1     -10.218   8.822  14.746  1.00  0.00     0.309 C 
HETATM   27  C22 UNL     1     -11.204   7.477  13.030  1.00  0.00     0.309 C 
ENDBRANCH  24  25
ENDBRANCH  23  24
ENDBRANCH  22  23
ENDBRANCH  20  22
ENDBRANCH  16  20
BRANCH   1  28
HETATM   28  C2  UNL     1       2.221   7.224  12.719  1.00  0.00     0.267 C 
HETATM   29  O2  UNL     1       2.013   6.742  13.824  1.00  0.00    -0.264 OA
BRANCH  28  30
HETATM   30  O1  UNL     1       3.346   7.928  12.406  1.00  0.00    -0.326 OA
HETATM   31  C1  UNL     1       4.479   7.121  12.077  1.00  0.00     0.213 C 
ENDBRANCH  28  30
ENDBRANCH   1  28
TORSDOF 7
ENDMDL
MODEL 6
REMARK minimizedAffinity -7.52030182
REMARK  7 active torsions:
REMARK  status: ('A' for Active; 'I' for Inactive)
REMARK    1  A    between atoms: O1_2  and  C2_3 
REMARK    2  A    between atoms: C2_3  and  C3_5 
REMARK    3  A    between atoms: C17_20  and  C18_21 
REMARK    4  A    between atoms: C18_21  and  O5_23 
REMARK    5  A    between atoms: O5_23  and  C19_24 
REMARK    6  A    between atoms: C19_24  and  C20_25 
REMARK    7  A    between atoms: C20_25  and  N1_26 
ROOT
HETATM    1  C3  UNL     1       1.436   6.927  10.997  1.00  0.00     0.049 C 
HETATM    2  C4  UNL     1       1.680   8.044   9.959  1.00  0.00     0.026 C 
HETATM    3  C5  UNL     1       1.551   5.562  10.273  1.00  0.00     0.020 C 
HETATM    4  C6  UNL     1       1.223   4.394  11.194  1.00  0.00     0.002 C 
HETATM    5  C7  UNL     1      -0.200   4.498  11.731  1.00  0.00     0.010 C 
HETATM    6  C8  UNL     1      -0.521   5.842  12.458  1.00  0.00    -0.034 C 
HETATM    7  C9  UNL     1       0.149   5.798  13.852  1.00  0.00     0.016 C 
HETATM    8  C10 UNL     1      -0.026   7.043  11.577  1.00  0.00     0.019 C 
HETATM    9  C11 UNL     1      -0.354   8.415  12.194  1.00  0.00     0.085 C 
HETATM   10  C12 UNL     1      -1.522   8.372  13.152  1.00  0.00     0.132 C 
HETATM   11  O3  UNL     1      -1.569   9.164  14.096  1.00  0.00    -0.298 OA
HETATM   12  C13 UNL     1      -2.654   7.398  12.834  1.00  0.00     0.068 C 
HETATM   13  C14 UNL     1      -3.803   7.526  13.891  1.00  0.00     0.022 C 
HETATM   14  C15 UNL     1      -4.594   8.824  13.603  1.00  0.00     0.015 C 
HETATM   15  C16 UNL     1      -4.748   6.321  14.010  1.00  0.00    -0.070 C 
HETATM   16  C17 UNL     1      -5.896   6.399  14.722  1.00  0.00     0.085 C 
HETATM   17  C23 UNL     1      -4.261   5.022  13.418  1.00  0.00     0.035 C 
HETATM   18  C24 UNL     1      -2.743   4.926  13.513  1.00  0.00     0.010 C 
HETATM   19  C25 UNL     1      -2.097   5.966  12.590  1.00  0.00     0.006 C 
ENDROOT
BRANCH  16  20
HETATM   20  C18 UNL     1      -6.899   5.331  14.928  1.00  0.00     0.283 C 
HETATM   21  O4  UNL     1      -7.407   5.110  16.020  1.00  0.00    -0.260 OA
BRANCH  20  22
HETATM   22  O5  UNL     1      -7.220   4.741  13.751  1.00  0.00    -0.316 OA
BRANCH  22  23
HETATM   23  C19 UNL     1      -7.496   3.331  13.825  1.00  0.00     0.209 C 
BRANCH  23  24
HETATM   24  C20 UNL     1      -7.455   2.689  12.426  1.00  0.00     0.298 C 
BRANCH  24  25
HETATM   25  N1  UNL     1      -6.095   2.394  11.933  1.00  0.00     0.082 N 
HETATM   26  C21 UNL     1      -6.002   1.048  11.361  1.00  0.00     0.309 C 
HETATM   27  C22 UNL     1      -5.706   3.383  10.923  1.00  0.00     0.309 C 
ENDBRANCH  24  25
ENDBRANCH  23  24
ENDBRANCH  22  23
ENDBRANCH  20  22
ENDBRANCH  16  20
BRANCH   1  28
HETATM   28  C2  UNL     1       2.561   7.091  12.042  1.00  0.00     0.267 C 
HETATM   29  O2  UNL     1       2.450   7.681  13.108  1.00  0.00    -0.264 OA
BRANCH  28  30
HETATM   30  O1  UNL     1       3.732   6.545  11.604  1.00  0.00    -0.326 OA
HETATM   31  C1  UNL     1       4.795   7.484  11.429  1.00  0.00     0.213 C 
ENDBRANCH  28  30
ENDBRANCH   1  28
TORSDOF 7
ENDMDL
MODEL 7
REMARK minimizedAffinity -7.50868988
REMARK  7 active torsions:
REMARK  status: ('A' for Active; 'I' for Inactive)
REMARK    1  A    between atoms: O1_2  and  C2_3 
REMARK    2  A    between atoms: C2_3  and  C3_5 
REMARK    3  A    between atoms: C17_20  and  C18_21 
REMARK    4  A    between atoms: C18_21  and  O5_23 
REMARK    5  A    between atoms: O5_23  and  C19_24 
REMARK    6  A    between atoms: C19_24  and  C20_25 
REMARK    7  A    between atoms: C20_25  and  N1_26 
ROOT
HETATM    1  C3  UNL     1       0.437   8.071  15.088  1.00  0.00     0.049 C 
HETATM    2  C4  UNL     1       1.658   7.270  15.592  1.00  0.00     0.026 C 
HETATM    3  C5  UNL     1      -0.125   8.892  16.276  1.00  0.00     0.020 C 
HETATM    4  C6  UNL     1      -1.399   9.641  15.904  1.00  0.00     0.002 C 
HETATM    5  C7  UNL     1      -2.496   8.678  15.465  1.00  0.00     0.010 C 
HETATM    6  C8  UNL     1      -2.091   7.725  14.296  1.00  0.00    -0.034 C 
HETATM    7  C9  UNL     1      -2.100   8.550  12.987  1.00  0.00     0.016 C 
HETATM    8  C10 UNL     1      -0.693   7.083  14.607  1.00  0.00     0.019 C 
HETATM    9  C11 UNL     1      -0.241   6.081  13.529  1.00  0.00     0.085 C 
HETATM   10  C12 UNL     1      -1.390   5.494  12.742  1.00  0.00     0.132 C 
HETATM   11  O3  UNL     1      -1.218   5.150  11.571  1.00  0.00    -0.298 OA
HETATM   12  C13 UNL     1      -2.701   5.258  13.489  1.00  0.00     0.068 C 
HETATM   13  C14 UNL     1      -3.759   4.594  12.544  1.00  0.00     0.022 C 
HETATM   14  C15 UNL     1      -3.386   3.104  12.357  1.00  0.00     0.015 C 
HETATM   15  C16 UNL     1      -5.228   4.743  12.965  1.00  0.00    -0.070 C 
HETATM   16  C17 UNL     1      -6.207   4.035  12.357  1.00  0.00     0.085 C 
HETATM   17  C23 UNL     1      -5.532   5.817  13.981  1.00  0.00     0.035 C 
HETATM   18  C24 UNL     1      -4.566   6.985  13.830  1.00  0.00     0.010 C 
HETATM   19  C25 UNL     1      -3.152   6.548  14.232  1.00  0.00     0.006 C 
ENDROOT
BRANCH  16  20
HETATM   20  C18 UNL     1      -7.657   4.072  12.648  1.00  0.00     0.283 C 
HETATM   21  O4  UNL     1      -8.215   3.211  13.317  1.00  0.00    -0.260 OA
BRANCH  20  22
HETATM   22  O5  UNL     1      -8.214   5.210  12.165  1.00  0.00    -0.316 OA
BRANCH  22  23
HETATM   23  C19 UNL     1      -9.260   5.774  12.976  1.00  0.00     0.209 C 
BRANCH  23  24
HETATM   24  C20 UNL     1      -8.672   6.619  14.121  1.00  0.00     0.298 C 
BRANCH  24  25
HETATM   25  N1  UNL     1      -9.625   6.915  15.209  1.00  0.00     0.082 N 
HETATM   26  C21 UNL     1      -8.964   7.534  16.361  1.00  0.00     0.309 C 
HETATM   27  C22 UNL     1     -10.682   7.803  14.717  1.00  0.00     0.309 C 
ENDBRANCH  24  25
ENDBRANCH  23  24
ENDBRANCH  22  23
ENDBRANCH  20  22
ENDBRANCH  16  20
BRANCH   1  28
HETATM   28  C2  UNL     1       0.991   9.004  13.989  1.00  0.00     0.267 C 
HETATM   29  O2  UNL     1       1.102  10.219  14.089  1.00  0.00    -0.264 OA
BRANCH  28  30
HETATM   30  O1  UNL     1       1.291   8.313  12.852  1.00  0.00    -0.326 OA
HETATM   31  C1  UNL     1       2.351   8.878  12.077  1.00  0.00     0.213 C 
ENDBRANCH  28  30
ENDBRANCH   1  28
TORSDOF 7
ENDMDL
MODEL 8
REMARK minimizedAffinity -7.48764753
REMARK  7 active torsions:
REMARK  status: ('A' for Active; 'I' for Inactive)
REMARK    1  A    between atoms: O1_2  and  C2_3 
REMARK    2  A    between atoms: C2_3  and  C3_5 
REMARK    3  A    between atoms: C17_20  and  C18_21 
REMARK    4  A    between atoms: C18_21  and  O5_23 
REMARK    5  A    between atoms: O5_23  and  C19_24 
REMARK    6  A    between atoms: C19_24  and  C20_25 
REMARK    7  A    between atoms: C20_25  and  N1_26 
ROOT
HETATM    1  C3  UNL     1      -7.395   6.717  14.208  1.00  0.00     0.049 C 
HETATM    2  C4  UNL     1      -8.645   6.486  13.331  1.00  0.00     0.026 C 
HETATM    3  C5  UNL     1      -7.252   8.240  14.455  1.00  0.00     0.020 C 
HETATM    4  C6  UNL     1      -5.984   8.581  15.227  1.00  0.00     0.002 C 
HETATM    5  C7  UNL     1      -4.740   8.130  14.471  1.00  0.00     0.010 C 
HETATM    6  C8  UNL     1      -4.727   6.617  14.089  1.00  0.00    -0.034 C 
HETATM    7  C9  UNL     1      -4.410   5.808  15.368  1.00  0.00     0.016 C 
HETATM    8  C10 UNL     1      -6.105   6.230  13.443  1.00  0.00     0.019 C 
HETATM    9  C11 UNL     1      -6.159   4.762  12.982  1.00  0.00     0.085 C 
HETATM   10  C12 UNL     1      -4.795   4.174  12.706  1.00  0.00     0.132 C 
HETATM   11  O3  UNL     1      -4.603   2.967  12.871  1.00  0.00    -0.298 OA
HETATM   12  C13 UNL     1      -3.734   5.107  12.127  1.00  0.00     0.068 C 
HETATM   13  C14 UNL     1      -2.406   4.324  11.849  1.00  0.00     0.022 C 
HETATM   14  C15 UNL     1      -2.601   3.462  10.579  1.00  0.00     0.015 C 
HETATM   15  C16 UNL     1      -1.131   5.173  11.746  1.00  0.00    -0.070 C 
HETATM   16  C17 UNL     1       0.030   4.644  11.295  1.00  0.00     0.085 C 
HETATM   17  C23 UNL     1      -1.206   6.573  12.305  1.00  0.00     0.035 C 
HETATM   18  C24 UNL     1      -2.174   6.628  13.481  1.00  0.00     0.010 C 
HETATM   19  C25 UNL     1      -3.607   6.398  12.987  1.00  0.00     0.006 C 
ENDROOT
BRANCH  16  20
HETATM   20  C18 UNL     1       1.332   5.329  11.143  1.00  0.00     0.283 C 
HETATM   21  O4  UNL     1       1.975   5.736  12.101  1.00  0.00    -0.260 OA
BRANCH  20  22
HETATM   22  O5  UNL     1       1.718   5.339   9.843  1.00  0.00    -0.316 OA
BRANCH  22  23
HETATM   23  C19 UNL     1       3.139   5.417   9.626  1.00  0.00     0.209 C 
BRANCH  23  24
HETATM   24  C20 UNL     1       3.555   6.846   9.232  1.00  0.00     0.298 C 
BRANCH  24  25
HETATM   25  N1  UNL     1       4.580   7.444  10.111  1.00  0.00     0.082 N 
HETATM   26  C21 UNL     1       4.024   8.506  10.955  1.00  0.00     0.309 C 
HETATM   27  C22 UNL     1       5.176   6.407  10.959  1.00  0.00     0.309 C 
ENDBRANCH  24  25
ENDBRANCH  23  24
ENDBRANCH  22  23
ENDBRANCH  20  22
ENDBRANCH  16  20
BRANCH   1  28
HETATM   28  C2  UNL     1      -7.683   5.972  15.530  1.00  0.00     0.267 C 
HETATM   29  O2  UNL     1      -7.665   4.756  15.670  1.00  0.00    -0.264 OA
BRANCH  28  30
HETATM   30  O1  UNL     1      -8.026   6.837  16.526  1.00  0.00    -0.326 OA
HETATM   31  C1  UNL     1      -9.406   7.213  16.537  1.00  0.00     0.213 C 
ENDBRANCH  28  30
ENDBRANCH   1  28
TORSDOF 7
ENDMDL
MODEL 9
REMARK minimizedAffinity -7.16026688
REMARK  7 active torsions:
REMARK  status: ('A' for Active; 'I' for Inactive)
REMARK    1  A    between atoms: O1_2  and  C2_3 
REMARK    2  A    between atoms: C2_3  and  C3_5 
REMARK    3  A    between atoms: C17_20  and  C18_21 
REMARK    4  A    between atoms: C18_21  and  O5_23 
REMARK    5  A    between atoms: O5_23  and  C19_24 
REMARK    6  A    between atoms: C19_24  and  C20_25 
REMARK    7  A    between atoms: C20_25  and  N1_26 
ROOT
HETATM    1  C3  UNL     1       0.414   7.217  11.835  1.00  0.00     0.049 C 
HETATM    2  C4  UNL     1       0.985   8.516  11.224  1.00  0.00     0.026 C 
HETATM    3  C5  UNL     1       0.206   6.195  10.689  1.00  0.00     0.020 C 
HETATM    4  C6  UNL     1      -0.453   4.911  11.177  1.00  0.00     0.002 C 
HETATM    5  C7  UNL     1      -1.824   5.192  11.784  1.00  0.00     0.010 C 
HETATM    6  C8  UNL     1      -1.818   6.246  12.935  1.00  0.00    -0.034 C 
HETATM    7  C9  UNL     1      -1.246   5.564  14.200  1.00  0.00     0.016 C 
HETATM    8  C10 UNL     1      -0.992   7.503  12.488  1.00  0.00     0.019 C 
HETATM    9  C11 UNL     1      -0.983   8.622  13.546  1.00  0.00     0.085 C 
HETATM   10  C12 UNL     1      -2.163   8.560  14.487  1.00  0.00     0.132 C 
HETATM   11  O3  UNL     1      -2.047   8.972  15.644  1.00  0.00    -0.298 OA
HETATM   12  C13 UNL     1      -3.493   8.077  13.913  1.00  0.00     0.068 C 
HETATM   13  C14 UNL     1      -4.616   8.132  15.003  1.00  0.00     0.022 C 
HETATM   14  C15 UNL     1      -5.032   9.609  15.207  1.00  0.00     0.015 C 
HETATM   15  C16 UNL     1      -5.844   7.245  14.754  1.00  0.00    -0.070 C 
HETATM   16  C17 UNL     1      -6.963   7.370  15.503  1.00  0.00     0.085 C 
HETATM   17  C23 UNL     1      -5.682   6.142  13.737  1.00  0.00     0.035 C 
HETATM   18  C24 UNL     1      -4.246   5.633  13.723  1.00  0.00     0.010 C 
HETATM   19  C25 UNL     1      -3.313   6.719  13.174  1.00  0.00     0.006 C 
ENDROOT
BRANCH  16  20
HETATM   20  C18 UNL     1      -8.216   6.592  15.384  1.00  0.00     0.283 C 
HETATM   21  O4  UNL     1      -8.503   5.689  16.159  1.00  0.00    -0.260 OA
BRANCH  20  22
HETATM   22  O5  UNL     1      -8.996   7.089  14.393  1.00  0.00    -0.316 OA
BRANCH  22  23
HETATM   23  C19 UNL     1      -9.941   8.095  14.800  1.00  0.00     0.209 C 
BRANCH  23  24
HETATM   24  C20 UNL     1     -11.386   7.592  14.627  1.00  0.00     0.298 C 
BRANCH  24  25
HETATM   25  N1  UNL     1     -11.837   7.508  13.223  1.00  0.00     0.082 N 
HETATM   26  C21 UNL     1     -13.189   6.955  13.116  1.00  0.00     0.309 C 
HETATM   27  C22 UNL     1     -11.803   8.839  12.610  1.00  0.00     0.309 C 
ENDBRANCH  24  25
ENDBRANCH  23  24
ENDBRANCH  22  23
ENDBRANCH  20  22
ENDBRANCH  16  20
BRANCH   1  28
HETATM   28  C2  UNL     1       1.496   6.724  12.820  1.00  0.00     0.267 C 
HETATM   29  O2  UNL     1       1.334   5.853  13.665  1.00  0.00    -0.264 OA
BRANCH  28  30
HETATM   30  O1  UNL     1       2.658   7.424  12.678  1.00  0.00    -0.326 OA
HETATM   31  C1  UNL     1       3.643   6.782  11.866  1.00  0.00     0.213 C 
ENDBRANCH  28  30
ENDBRANCH   1  28
TORSDOF 7
ENDMDL
