MODEL 1
REMARK minimizedAffinity -10.3053188
REMARK CNNscore 0.767498314
REMARK CNNaffinity 7.81500864
REMARK  13 active torsions:
REMARK  status: ('A' for Active; 'I' for Inactive)
REMARK    1  A    between atoms: O1_2  and  C2_3 
REMARK    2  A    between atoms: C2_3  and  C3_4 
REMARK    3  A    between atoms: C3_4  and  C4_5 
REMARK    4  A    between atoms: C4_5  and  N1_6 
REMARK    5  A    between atoms: N1_6  and  C5_7 
REMARK    6  A    between atoms: C5_7  and  C6_8 
REMARK    7  A    between atoms: C10_12  and  O2_13 
REMARK    8  A    between atoms: C23_28  and  O5_29 
REMARK    9  A    between atoms: C27_33  and  C28_34 
REMARK   10  A    between atoms: C28_34  and  C30_36 
REMARK   11  A    between atoms: C38_44  and  O6_45 
REMARK   12  A    between atoms: C41_48  and  C42_49 
REMARK   13  A    between atoms: C43_51  and  O8_52 
ROOT
HETATM    1  C6  UNL     1       1.408   6.047  12.013  1.00  0.00    -0.016 C 
HETATM    2  C7  UNL     1       1.680   6.277  13.324  1.00  0.00    -0.013 C 
HETATM    3  C8  UNL     1       0.603   6.554  14.352  1.00  0.00     0.021 C 
HETATM    4  C9  UNL     1       0.893   7.638  15.387  1.00  0.00     0.051 C 
HETATM    5  C10 UNL     1       0.543   8.977  14.713  1.00  0.00     0.098 C 
HETATM    6  C11 UNL     1      -0.496   8.617  13.565  1.00  0.00     0.002 C 
HETATM    7  C12 UNL     1       0.056   9.073  12.173  1.00  0.00     0.013 C 
HETATM    8  C13 UNL     1      -0.712   8.599  10.947  1.00  0.00     0.004 C 
HETATM    9  C14 UNL     1      -0.234   7.251  10.403  1.00  0.00     0.048 C 
HETATM   10  C15 UNL     1      -0.011   6.129  11.445  1.00  0.00     0.120 C 
HETATM   11  O3  UNL     1      -0.360   4.893  10.800  1.00  0.00    -0.297 OA
HETATM   12  C16 UNL     1      -1.582   4.488  11.246  1.00  0.00     0.284 C 
HETATM   13  O4  UNL     1      -2.237   3.569  10.792  1.00  0.00    -0.260 OA
HETATM   14  C17 UNL     1      -1.968   5.297  12.402  1.00  0.00     0.089 C 
HETATM   15  C18 UNL     1      -1.011   6.211  12.542  1.00  0.00    -0.029 C 
HETATM   16  C19 UNL     1      -0.703   7.062  13.727  1.00  0.00     0.037 C 
HETATM   17  C20 UNL     1      -1.860   9.318  13.787  1.00  0.00     0.014 C 
HETATM   18  C21 UNL     1      -2.340   9.333  15.237  1.00  0.00     0.010 C 
HETATM   19  C22 UNL     1      -1.347   9.965  16.241  1.00  0.00     0.041 C 
HETATM   20  C23 UNL     1       0.076  10.120  15.686  1.00  0.00     0.095 C 
HETATM   21  C24 UNL     1       0.997  10.238  16.898  1.00  0.00     0.049 C 
HETATM   22  C25 UNL     1       0.649  11.367  17.901  1.00  0.00     0.025 C 
HETATM   23  C26 UNL     1       0.966  10.858  19.331  1.00  0.00     0.012 C 
HETATM   24  C27 UNL     1       1.264  11.929  20.420  1.00  0.00    -0.010 C 
HETATM   25  C35 UNL     1       1.073  13.387  19.958  1.00  0.00     0.005 C 
HETATM   26  C36 UNL     1      -0.380  13.772  19.677  1.00  0.00     0.010 C 
HETATM   27  C37 UNL     1      -1.269  12.670  19.067  1.00  0.00     0.050 C 
HETATM   28  C38 UNL     1      -2.734  13.146  19.064  1.00  0.00     0.125 C 
HETATM   29  C39 UNL     1      -3.697  12.039  18.639  1.00  0.00     0.033 C 
HETATM   30  C40 UNL     1      -3.027  10.886  17.886  1.00  0.00     0.023 C 
HETATM   31  C41 UNL     1      -1.876  11.289  16.923  1.00  0.00     0.051 C 
HETATM   32  C43 UNL     1      -0.745  12.097  17.702  1.00  0.00     0.082 C 
ENDROOT
BRANCH   1  33
HETATM   33  C5  UNL     1       2.508   5.638  11.064  1.00  0.00     0.306 C 
BRANCH  33  34
HETATM   34  N1  UNL     1       3.742   6.309  11.438  1.00  0.00     0.087 N 
HETATM   35  H10 UNL     1       4.405   5.635  11.827  1.00  0.00     0.316 HD
BRANCH  34  36
HETATM   36  C4  UNL     1       4.358   7.017  10.322  1.00  0.00     0.272 C 
BRANCH  36  37
HETATM   37  C3  UNL     1       3.432   7.113   9.102  1.00  0.00     0.056 C 
BRANCH  37  38
HETATM   38  C2  UNL     1       3.242   8.531   8.571  1.00  0.00     0.168 C 
BRANCH  38  39
HETATM   39  O1  UNL     1       2.724   8.463   7.244  1.00  0.00    -0.396 OA
HETATM   40  C1  UNL     1       1.890   7.330   7.055  1.00  0.00     0.201 C 
ENDBRANCH  38  39
ENDBRANCH  37  38
ENDBRANCH  36  37
ENDBRANCH  34  36
ENDBRANCH  33  34
ENDBRANCH   1  33
BRANCH   5  41
HETATM   41  O2  UNL     1       1.757   9.502  14.116  1.00  0.00    -0.386 OA
HETATM   42  H17 UNL     1       2.525   9.233  14.648  1.00  0.00     0.210 HD
ENDBRANCH   5  41
BRANCH  20  43
HETATM   43  O5  UNL     1       0.190  11.360  14.961  1.00  0.00    -0.386 OA
HETATM   44  H31 UNL     1       0.889  11.192  14.291  1.00  0.00     0.210 HD
ENDBRANCH  20  43
BRANCH  31  45
HETATM   45  C42 UNL     1      -2.474  12.183  15.810  1.00  0.00     0.244 C 
HETATM   46  O7  UNL     1      -2.558  11.878  14.621  1.00  0.00    -0.306 OA
ENDBRANCH  31  45
BRANCH  32  47
HETATM   47  O8  UNL     1      -0.394  13.230  16.873  1.00  0.00    -0.388 OA
HETATM   48  H63 UNL     1       0.024  12.884  16.055  1.00  0.00     0.210 HD
ENDBRANCH  32  47
BRANCH  24  49
HETATM   49  C28 UNL     1       2.644  11.740  21.148  1.00  0.00    -0.011 C 
HETATM   50  C29 UNL     1       2.900  12.887  22.140  1.00  0.00     0.011 C 
BRANCH  49  51
HETATM   51  C30 UNL     1       2.892  10.325  21.735  1.00  0.00    -0.010 C 
HETATM   52  C31 UNL     1       3.250  10.327  23.237  1.00  0.00     0.005 C 
HETATM   53  C32 UNL     1       2.679   9.035  23.821  1.00  0.00     0.000 C 
HETATM   54  C33 UNL     1       2.160   8.236  22.638  1.00  0.00     0.000 C 
HETATM   55  C34 UNL     1       1.755   9.307  21.636  1.00  0.00     0.005 C 
ENDBRANCH  49  51
ENDBRANCH  24  49
BRANCH  28  56
HETATM   56  O6  UNL     1      -2.927  14.328  18.301  1.00  0.00    -0.395 OA
HETATM   57  H57 UNL     1      -2.898  14.090  17.349  1.00  0.00     0.210 HD
ENDBRANCH  28  56
TORSDOF 13
ENDMDL
MODEL 2
REMARK minimizedAffinity -9.34982014
REMARK CNNscore 0.698517978
REMARK CNNaffinity 7.47122955
REMARK  13 active torsions:
REMARK  status: ('A' for Active; 'I' for Inactive)
REMARK    1  A    between atoms: O1_2  and  C2_3 
REMARK    2  A    between atoms: C2_3  and  C3_4 
REMARK    3  A    between atoms: C3_4  and  C4_5 
REMARK    4  A    between atoms: C4_5  and  N1_6 
REMARK    5  A    between atoms: N1_6  and  C5_7 
REMARK    6  A    between atoms: C5_7  and  C6_8 
REMARK    7  A    between atoms: C10_12  and  O2_13 
REMARK    8  A    between atoms: C23_28  and  O5_29 
REMARK    9  A    between atoms: C27_33  and  C28_34 
REMARK   10  A    between atoms: C28_34  and  C30_36 
REMARK   11  A    between atoms: C38_44  and  O6_45 
REMARK   12  A    between atoms: C41_48  and  C42_49 
REMARK   13  A    between atoms: C43_51  and  O8_52 
ROOT
HETATM    1  C6  UNL     1       1.075   5.709  12.019  1.00  0.00    -0.016 C 
HETATM    2  C7  UNL     1       1.262   5.922  13.348  1.00  0.00    -0.013 C 
HETATM    3  C8  UNL     1       0.138   6.306  14.287  1.00  0.00     0.021 C 
HETATM    4  C9  UNL     1       0.444   7.366  15.341  1.00  0.00     0.051 C 
HETATM    5  C10 UNL     1       0.277   8.727  14.642  1.00  0.00     0.098 C 
HETATM    6  C11 UNL     1      -0.697   8.457  13.414  1.00  0.00     0.002 C 
HETATM    7  C12 UNL     1       0.005   8.848  12.070  1.00  0.00     0.013 C 
HETATM    8  C13 UNL     1      -0.705   8.440  10.787  1.00  0.00     0.004 C 
HETATM    9  C14 UNL     1      -0.314   7.049  10.283  1.00  0.00     0.048 C 
HETATM   10  C15 UNL     1      -0.280   5.919  11.340  1.00  0.00     0.120 C 
HETATM   11  O3  UNL     1      -0.692   4.716  10.669  1.00  0.00    -0.297 OA
HETATM   12  C16 UNL     1      -1.977   4.430  11.016  1.00  0.00     0.284 C 
HETATM   13  O4  UNL     1      -2.678   3.573  10.511  1.00  0.00    -0.260 OA
HETATM   14  C17 UNL     1      -2.376   5.281  12.137  1.00  0.00     0.089 C 
HETATM   15  C18 UNL     1      -1.352   6.102  12.353  1.00  0.00    -0.029 C 
HETATM   16  C19 UNL     1      -1.061   6.929  13.559  1.00  0.00     0.037 C 
HETATM   17  C20 UNL     1      -2.002   9.284  13.527  1.00  0.00     0.014 C 
HETATM   18  C21 UNL     1      -2.593   9.355  14.933  1.00  0.00     0.010 C 
HETATM   19  C22 UNL     1      -1.628   9.899  16.013  1.00  0.00     0.041 C 
HETATM   20  C23 UNL     1      -0.157   9.916  15.574  1.00  0.00     0.095 C 
HETATM   21  C24 UNL     1       0.672   9.957  16.856  1.00  0.00     0.049 C 
HETATM   22  C25 UNL     1       0.353  11.120  17.827  1.00  0.00     0.025 C 
HETATM   23  C26 UNL     1       0.505  10.595  19.278  1.00  0.00     0.012 C 
HETATM   24  C27 UNL     1       0.814  11.641  20.388  1.00  0.00    -0.010 C 
HETATM   25  C35 UNL     1       0.799  13.107  19.911  1.00  0.00     0.005 C 
HETATM   26  C36 UNL     1      -0.584  13.625  19.516  1.00  0.00     0.010 C 
HETATM   27  C37 UNL     1      -1.522  12.606  18.837  1.00  0.00     0.050 C 
HETATM   28  C38 UNL     1      -2.931  13.217  18.716  1.00  0.00     0.125 C 
HETATM   29  C39 UNL     1      -3.956  12.202  18.216  1.00  0.00     0.033 C 
HETATM   30  C40 UNL     1      -3.339  10.985  17.518  1.00  0.00     0.023 C 
HETATM   31  C41 UNL     1      -2.083  11.272  16.650  1.00  0.00     0.051 C 
HETATM   32  C43 UNL     1      -0.947  11.976  17.517  1.00  0.00     0.082 C 
ENDROOT
BRANCH   1  33
HETATM   33  C5  UNL     1       2.204   5.191  11.161  1.00  0.00     0.306 C 
BRANCH  33  34
HETATM   34  N1  UNL     1       3.312   6.132  11.203  1.00  0.00     0.087 N 
HETATM   35  H10 UNL     1       4.047   5.781  11.820  1.00  0.00     0.316 HD
BRANCH  34  36
HETATM   36  C4  UNL     1       3.867   6.408   9.883  1.00  0.00     0.272 C 
BRANCH  36  37
HETATM   37  C3  UNL     1       3.793   7.895   9.513  1.00  0.00     0.056 C 
BRANCH  37  38
HETATM   38  C2  UNL     1       2.489   8.307   8.836  1.00  0.00     0.168 C 
BRANCH  38  39
HETATM   39  O1  UNL     1       2.689   8.341   7.424  1.00  0.00    -0.396 OA
HETATM   40  C1  UNL     1       1.939   7.338   6.756  1.00  0.00     0.201 C 
ENDBRANCH  38  39
ENDBRANCH  37  38
ENDBRANCH  36  37
ENDBRANCH  34  36
ENDBRANCH  33  34
ENDBRANCH   1  33
BRANCH   5  41
HETATM   41  O2  UNL     1       1.578   9.131  14.143  1.00  0.00    -0.386 OA
HETATM   42  H17 UNL     1       2.273   8.795  14.735  1.00  0.00     0.210 HD
ENDBRANCH   5  41
BRANCH  20  43
HETATM   43  O5  UNL     1       0.130  11.134  14.860  1.00  0.00    -0.386 OA
HETATM   44  H31 UNL     1       0.861  10.896  14.248  1.00  0.00     0.210 HD
ENDBRANCH  20  43
BRANCH  31  45
HETATM   45  C42 UNL     1      -2.504  12.209  15.493  1.00  0.00     0.244 C 
HETATM   46  O7  UNL     1      -1.810  12.491  14.518  1.00  0.00    -0.306 OA
ENDBRANCH  31  45
BRANCH  32  47
HETATM   47  O8  UNL     1      -0.426  13.065  16.719  1.00  0.00    -0.388 OA
HETATM   48  H63 UNL     1       0.021  12.675  15.938  1.00  0.00     0.210 HD
ENDBRANCH  32  47
BRANCH  24  49
HETATM   49  C28 UNL     1       2.108  11.330  21.224  1.00  0.00    -0.011 C 
HETATM   50  C29 UNL     1       2.726   9.989  20.793  1.00  0.00     0.011 C 
BRANCH  49  51
HETATM   51  C30 UNL     1       3.126  12.496  21.324  1.00  0.00    -0.010 C 
HETATM   52  C31 UNL     1       3.575  12.810  22.768  1.00  0.00     0.005 C 
HETATM   53  C32 UNL     1       5.022  13.295  22.678  1.00  0.00     0.000 C 
HETATM   54  C33 UNL     1       5.328  13.417  21.195  1.00  0.00     0.000 C 
HETATM   55  C34 UNL     1       4.443  12.356  20.559  1.00  0.00     0.005 C 
ENDBRANCH  49  51
ENDBRANCH  24  49
BRANCH  28  56
HETATM   56  O6  UNL     1      -2.951  14.406  17.940  1.00  0.00    -0.395 OA
HETATM   57  H57 UNL     1      -2.868  14.159  16.994  1.00  0.00     0.210 HD
ENDBRANCH  28  56
TORSDOF 13
ENDMDL
MODEL 3
REMARK minimizedAffinity -10.1110973
REMARK CNNscore 0.669719577
REMARK CNNaffinity 7.60364199
REMARK  13 active torsions:
REMARK  status: ('A' for Active; 'I' for Inactive)
REMARK    1  A    between atoms: O1_2  and  C2_3 
REMARK    2  A    between atoms: C2_3  and  C3_4 
REMARK    3  A    between atoms: C3_4  and  C4_5 
REMARK    4  A    between atoms: C4_5  and  N1_6 
REMARK    5  A    between atoms: N1_6  and  C5_7 
REMARK    6  A    between atoms: C5_7  and  C6_8 
REMARK    7  A    between atoms: C10_12  and  O2_13 
REMARK    8  A    between atoms: C23_28  and  O5_29 
REMARK    9  A    between atoms: C27_33  and  C28_34 
REMARK   10  A    between atoms: C28_34  and  C30_36 
REMARK   11  A    between atoms: C38_44  and  O6_45 
REMARK   12  A    between atoms: C41_48  and  C42_49 
REMARK   13  A    between atoms: C43_51  and  O8_52 
ROOT
HETATM    1  C6  UNL     1       1.855   6.218  11.776  1.00  0.00    -0.016 C 
HETATM    2  C7  UNL     1       2.129   6.485  13.079  1.00  0.00    -0.013 C 
HETATM    3  C8  UNL     1       1.053   6.615  14.137  1.00  0.00     0.021 C 
HETATM    4  C9  UNL     1       1.221   7.731  15.165  1.00  0.00     0.051 C 
HETATM    5  C10 UNL     1       0.675   9.009  14.504  1.00  0.00     0.098 C 
HETATM    6  C11 UNL     1      -0.336   8.509  13.384  1.00  0.00     0.002 C 
HETATM    7  C12 UNL     1       0.111   9.033  11.978  1.00  0.00     0.013 C 
HETATM    8  C13 UNL     1      -0.620   8.457  10.772  1.00  0.00     0.004 C 
HETATM    9  C14 UNL     1       0.021   7.186  10.213  1.00  0.00     0.048 C 
HETATM   10  C15 UNL     1       0.423   6.106  11.247  1.00  0.00     0.120 C 
HETATM   11  O3  UNL     1       0.227   4.833  10.610  1.00  0.00    -0.297 OA
HETATM   12  C16 UNL     1      -0.915   4.267  11.088  1.00  0.00     0.284 C 
HETATM   13  O4  UNL     1      -1.452   3.266  10.651  1.00  0.00    -0.260 OA
HETATM   14  C17 UNL     1      -1.376   5.018  12.255  1.00  0.00     0.089 C 
HETATM   15  C18 UNL     1      -0.548   6.054  12.371  1.00  0.00    -0.029 C 
HETATM   16  C19 UNL     1      -0.326   6.941  13.549  1.00  0.00     0.037 C 
HETATM   17  C20 UNL     1      -1.776   9.020  13.645  1.00  0.00     0.014 C 
HETATM   18  C21 UNL     1      -2.214   8.972  15.107  1.00  0.00     0.010 C 
HETATM   19  C22 UNL     1      -1.289   9.735  16.085  1.00  0.00     0.041 C 
HETATM   20  C23 UNL     1       0.085  10.080  15.491  1.00  0.00     0.095 C 
HETATM   21  C24 UNL     1       1.014  10.325  16.678  1.00  0.00     0.049 C 
HETATM   22  C25 UNL     1       0.544  11.397  17.691  1.00  0.00     0.025 C 
HETATM   23  C26 UNL     1       0.965  10.939  19.112  1.00  0.00     0.012 C 
HETATM   24  C27 UNL     1       1.145  12.042  20.194  1.00  0.00    -0.010 C 
HETATM   25  C35 UNL     1       0.746  13.460  19.740  1.00  0.00     0.005 C 
HETATM   26  C36 UNL     1      -0.753  13.644  19.500  1.00  0.00     0.010 C 
HETATM   27  C37 UNL     1      -1.501  12.430  18.913  1.00  0.00     0.050 C 
HETATM   28  C38 UNL     1      -3.017  12.704  18.950  1.00  0.00     0.125 C 
HETATM   29  C39 UNL     1      -3.832  11.476  18.550  1.00  0.00     0.033 C 
HETATM   30  C40 UNL     1      -3.032  10.422  17.776  1.00  0.00     0.023 C 
HETATM   31  C41 UNL     1      -1.974  10.976  16.783  1.00  0.00     0.051 C 
HETATM   32  C43 UNL     1      -0.942  11.931  17.532  1.00  0.00     0.082 C 
ENDROOT
BRANCH   1  33
HETATM   33  C5  UNL     1       2.974   5.960  10.796  1.00  0.00     0.306 C 
BRANCH  33  34
HETATM   34  N1  UNL     1       4.248   6.258  11.430  1.00  0.00     0.087 N 
HETATM   35  H10 UNL     1       4.794   5.401  11.541  1.00  0.00     0.316 HD
BRANCH  34  36
HETATM   36  C4  UNL     1       5.028   7.244  10.691  1.00  0.00     0.272 C 
BRANCH  36  37
HETATM   37  C3  UNL     1       6.522   7.192  11.036  1.00  0.00     0.056 C 
BRANCH  37  38
HETATM   38  C2  UNL     1       6.865   7.750  12.415  1.00  0.00     0.168 C 
BRANCH  38  39
HETATM   39  O1  UNL     1       8.267   7.607  12.637  1.00  0.00    -0.396 OA
HETATM   40  C1  UNL     1       8.619   7.860  13.989  1.00  0.00     0.201 C 
ENDBRANCH  38  39
ENDBRANCH  37  38
ENDBRANCH  36  37
ENDBRANCH  34  36
ENDBRANCH  33  34
ENDBRANCH   1  33
BRANCH   5  41
HETATM   41  O2  UNL     1       1.790   9.692  13.874  1.00  0.00    -0.386 OA
HETATM   42  H17 UNL     1       2.602   9.531  14.385  1.00  0.00     0.210 HD
ENDBRANCH   5  41
BRANCH  20  43
HETATM   43  O5  UNL     1       0.009  11.322  14.765  1.00  0.00    -0.386 OA
HETATM   44  H31 UNL     1       0.706  11.249  14.076  1.00  0.00     0.210 HD
ENDBRANCH  20  43
BRANCH  31  45
HETATM   45  C42 UNL     1      -2.717  11.778  15.689  1.00  0.00     0.244 C 
HETATM   46  O7  UNL     1      -2.230  12.687  15.017  1.00  0.00    -0.306 OA
ENDBRANCH  31  45
BRANCH  32  47
HETATM   47  O8  UNL     1      -0.770  13.100  16.696  1.00  0.00    -0.388 OA
HETATM   48  H63 UNL     1      -0.332  12.812  15.867  1.00  0.00     0.210 HD
ENDBRANCH  32  47
BRANCH  24  49
HETATM   49  C28 UNL     1       2.557  12.043  20.884  1.00  0.00    -0.011 C 
HETATM   50  C29 UNL     1       2.713  13.263  21.807  1.00  0.00     0.011 C 
BRANCH  49  51
HETATM   51  C30 UNL     1       2.976  10.697  21.532  1.00  0.00    -0.010 C 
HETATM   52  C31 UNL     1       3.512  10.839  22.974  1.00  0.00     0.005 C 
HETATM   53  C32 UNL     1       3.111   9.563  23.713  1.00  0.00     0.000 C 
HETATM   54  C33 UNL     1       2.512   8.644  22.663  1.00  0.00     0.000 C 
HETATM   55  C34 UNL     1       1.913   9.605  21.648  1.00  0.00     0.005 C 
ENDBRANCH  49  51
ENDBRANCH  24  49
BRANCH  28  56
HETATM   56  O6  UNL     1      -3.389  13.847  18.195  1.00  0.00    -0.395 OA
HETATM   57  H57 UNL     1      -3.353  13.613  17.242  1.00  0.00     0.210 HD
ENDBRANCH  28  56
TORSDOF 13
ENDMDL
MODEL 4
REMARK minimizedAffinity -9.09447002
REMARK CNNscore 0.65294838
REMARK CNNaffinity 7.22501707
REMARK  13 active torsions:
REMARK  status: ('A' for Active; 'I' for Inactive)
REMARK    1  A    between atoms: O1_2  and  C2_3 
REMARK    2  A    between atoms: C2_3  and  C3_4 
REMARK    3  A    between atoms: C3_4  and  C4_5 
REMARK    4  A    between atoms: C4_5  and  N1_6 
REMARK    5  A    between atoms: N1_6  and  C5_7 
REMARK    6  A    between atoms: C5_7  and  C6_8 
REMARK    7  A    between atoms: C10_12  and  O2_13 
REMARK    8  A    between atoms: C23_28  and  O5_29 
REMARK    9  A    between atoms: C27_33  and  C28_34 
REMARK   10  A    between atoms: C28_34  and  C30_36 
REMARK   11  A    between atoms: C38_44  and  O6_45 
REMARK   12  A    between atoms: C41_48  and  C42_49 
REMARK   13  A    between atoms: C43_51  and  O8_52 
ROOT
HETATM    1  C6  UNL     1       6.454   8.288  13.405  1.00  0.00    -0.016 C 
HETATM    2  C7  UNL     1       5.680   8.814  14.390  1.00  0.00    -0.013 C 
HETATM    3  C8  UNL     1       5.740  10.273  14.793  1.00  0.00     0.021 C 
HETATM    4  C9  UNL     1       5.674  10.584  16.286  1.00  0.00     0.051 C 
HETATM    5  C10 UNL     1       7.107  10.414  16.823  1.00  0.00     0.098 C 
HETATM    6  C11 UNL     1       8.058  10.613  15.565  1.00  0.00     0.002 C 
HETATM    7  C12 UNL     1       8.936   9.336  15.342  1.00  0.00     0.013 C 
HETATM    8  C13 UNL     1       9.735   9.275  14.048  1.00  0.00     0.004 C 
HETATM    9  C14 UNL     1       8.974   8.636  12.884  1.00  0.00     0.048 C 
HETATM   10  C15 UNL     1       7.516   9.111  12.671  1.00  0.00     0.120 C 
HETATM   11  O3  UNL     1       7.276   9.081  11.255  1.00  0.00    -0.297 OA
HETATM   12  C16 UNL     1       7.318  10.353  10.769  1.00  0.00     0.284 C 
HETATM   13  O4  UNL     1       7.309  10.668   9.594  1.00  0.00    -0.260 OA
HETATM   14  C17 UNL     1       7.318  11.297  11.887  1.00  0.00     0.089 C 
HETATM   15  C18 UNL     1       7.373  10.556  12.990  1.00  0.00    -0.029 C 
HETATM   16  C19 UNL     1       7.057  10.950  14.393  1.00  0.00     0.037 C 
HETATM   17  C20 UNL     1       9.013  11.818  15.754  1.00  0.00     0.014 C 
HETATM   18  C21 UNL     1       8.369  13.048  16.392  1.00  0.00     0.010 C 
HETATM   19  C22 UNL     1       7.701  12.790  17.764  1.00  0.00     0.041 C 
HETATM   20  C23 UNL     1       7.471  11.302  18.067  1.00  0.00     0.095 C 
HETATM   21  C24 UNL     1       6.381  11.249  19.135  1.00  0.00     0.049 C 
HETATM   22  C25 UNL     1       6.661  12.057  20.426  1.00  0.00     0.025 C 
HETATM   23  C26 UNL     1       5.319  12.652  20.926  1.00  0.00     0.012 C 
HETATM   24  C27 UNL     1       5.208  12.988  22.441  1.00  0.00    -0.010 C 
HETATM   25  C35 UNL     1       6.514  12.806  23.238  1.00  0.00     0.005 C 
HETATM   26  C36 UNL     1       7.613  13.808  22.882  1.00  0.00     0.010 C 
HETATM   27  C37 UNL     1       7.691  14.232  21.401  1.00  0.00     0.050 C 
HETATM   28  C38 UNL     1       8.685  15.400  21.261  1.00  0.00     0.125 C 
HETATM   29  C39 UNL     1       8.682  15.992  19.853  1.00  0.00     0.033 C 
HETATM   30  C40 UNL     1       8.083  15.065  18.790  1.00  0.00     0.023 C 
HETATM   31  C41 UNL     1       8.387  13.552  18.967  1.00  0.00     0.051 C 
HETATM   32  C43 UNL     1       7.904  13.043  20.397  1.00  0.00     0.082 C 
ENDROOT
BRANCH   1  33
HETATM   33  C5  UNL     1       6.251   6.863  12.952  1.00  0.00     0.306 C 
BRANCH  33  34
HETATM   34  N1  UNL     1       4.884   6.695  12.487  1.00  0.00     0.087 N 
HETATM   35  H10 UNL     1       4.322   7.507  12.749  1.00  0.00     0.316 HD
BRANCH  34  36
HETATM   36  C4  UNL     1       4.801   6.485  11.046  1.00  0.00     0.272 C 
BRANCH  36  37
HETATM   37  C3  UNL     1       3.361   6.256  10.567  1.00  0.00     0.056 C 
BRANCH  37  38
HETATM   38  C2  UNL     1       3.195   5.062   9.632  1.00  0.00     0.168 C 
BRANCH  38  39
HETATM   39  O1  UNL     1       3.411   5.491   8.288  1.00  0.00    -0.396 OA
HETATM   40  C1  UNL     1       2.432   6.428   7.866  1.00  0.00     0.201 C 
ENDBRANCH  38  39
ENDBRANCH  37  38
ENDBRANCH  36  37
ENDBRANCH  34  36
ENDBRANCH  33  34
ENDBRANCH   1  33
BRANCH   5  41
HETATM   41  O2  UNL     1       7.237   9.055  17.314  1.00  0.00    -0.386 OA
HETATM   42  H17 UNL     1       6.381   8.751  17.662  1.00  0.00     0.210 HD
ENDBRANCH   5  41
BRANCH  20  43
HETATM   43  O5  UNL     1       8.654  10.731  18.658  1.00  0.00    -0.386 OA
HETATM   44  H31 UNL     1       8.624   9.782  18.404  1.00  0.00     0.210 HD
ENDBRANCH  20  43
BRANCH  31  45
HETATM   45  C42 UNL     1       9.916  13.352  18.838  1.00  0.00     0.244 C 
HETATM   46  O7  UNL     1      10.706  13.280  19.778  1.00  0.00    -0.306 OA
ENDBRANCH  31  45
BRANCH  32  47
HETATM   47  O8  UNL     1       8.971  12.222  20.932  1.00  0.00    -0.388 OA
HETATM   48  H63 UNL     1       9.048  11.426  20.364  1.00  0.00     0.210 HD
ENDBRANCH  32  47
BRANCH  24  49
HETATM   49  C28 UNL     1       3.998  12.295  23.167  1.00  0.00    -0.011 C 
HETATM   50  C29 UNL     1       2.771  13.222  23.189  1.00  0.00     0.011 C 
BRANCH  49  51
HETATM   51  C30 UNL     1       3.693  10.846  22.705  1.00  0.00    -0.010 C 
HETATM   52  C31 UNL     1       3.454   9.857  23.867  1.00  0.00     0.005 C 
HETATM   53  C32 UNL     1       2.439   8.832  23.363  1.00  0.00     0.000 C 
HETATM   54  C33 UNL     1       2.240   9.134  21.887  1.00  0.00     0.000 C 
HETATM   55  C34 UNL     1       2.484  10.632  21.794  1.00  0.00     0.005 C 
ENDBRANCH  49  51
ENDBRANCH  24  49
BRANCH  28  56
HETATM   56  O6  UNL     1       9.998  15.059  21.682  1.00  0.00    -0.395 OA
HETATM   57  H57 UNL     1      10.407  14.496  20.991  1.00  0.00     0.210 HD
ENDBRANCH  28  56
TORSDOF 13
ENDMDL
MODEL 5
REMARK minimizedAffinity -7.21871662
REMARK CNNscore 0.560786903
REMARK CNNaffinity 6.99284935
REMARK  13 active torsions:
REMARK  status: ('A' for Active; 'I' for Inactive)
REMARK    1  A    between atoms: O1_2  and  C2_3 
REMARK    2  A    between atoms: C2_3  and  C3_4 
REMARK    3  A    between atoms: C3_4  and  C4_5 
REMARK    4  A    between atoms: C4_5  and  N1_6 
REMARK    5  A    between atoms: N1_6  and  C5_7 
REMARK    6  A    between atoms: C5_7  and  C6_8 
REMARK    7  A    between atoms: C10_12  and  O2_13 
REMARK    8  A    between atoms: C23_28  and  O5_29 
REMARK    9  A    between atoms: C27_33  and  C28_34 
REMARK   10  A    between atoms: C28_34  and  C30_36 
REMARK   11  A    between atoms: C38_44  and  O6_45 
REMARK   12  A    between atoms: C41_48  and  C42_49 
REMARK   13  A    between atoms: C43_51  and  O8_52 
ROOT
HETATM    1  C6  UNL     1       6.532   8.488  13.989  1.00  0.00    -0.016 C 
HETATM    2  C7  UNL     1       5.770   9.242  14.824  1.00  0.00    -0.013 C 
HETATM    3  C8  UNL     1       6.005  10.721  15.043  1.00  0.00     0.021 C 
HETATM    4  C9  UNL     1       5.874  11.242  16.472  1.00  0.00     0.051 C 
HETATM    5  C10 UNL     1       7.225  10.963  17.155  1.00  0.00     0.098 C 
HETATM    6  C11 UNL     1       8.285  10.859  15.975  1.00  0.00     0.002 C 
HETATM    7  C12 UNL     1       8.987   9.460  15.998  1.00  0.00     0.013 C 
HETATM    8  C13 UNL     1       9.863   9.117  14.801  1.00  0.00     0.004 C 
HETATM    9  C14 UNL     1       9.107   8.428  13.663  1.00  0.00     0.048 C 
HETATM   10  C15 UNL     1       7.751   9.055  13.258  1.00  0.00     0.120 C 
HETATM   11  O3  UNL     1       7.615   8.862  11.841  1.00  0.00    -0.297 OA
HETATM   12  C16 UNL     1       7.872  10.037  11.204  1.00  0.00     0.284 C 
HETATM   13  O4  UNL     1       7.995  10.185  10.002  1.00  0.00    -0.260 OA
HETATM   14  C17 UNL     1       7.924  11.119  12.187  1.00  0.00     0.089 C 
HETATM   15  C18 UNL     1       7.791  10.536  13.376  1.00  0.00    -0.029 C 
HETATM   16  C19 UNL     1       7.432  11.159  14.683  1.00  0.00     0.037 C 
HETATM   17  C20 UNL     1       9.385  11.944  16.097  1.00  0.00     0.014 C 
HETATM   18  C21 UNL     1       8.877  13.323  16.512  1.00  0.00     0.010 C 
HETATM   19  C22 UNL     1       8.080  13.347  17.838  1.00  0.00     0.041 C 
HETATM   20  C23 UNL     1       7.618  11.959  18.305  1.00  0.00     0.095 C 
HETATM   21  C24 UNL     1       6.456  12.197  19.266  1.00  0.00     0.049 C 
HETATM   22  C25 UNL     1       6.752  13.133  20.464  1.00  0.00     0.025 C 
HETATM   23  C26 UNL     1       5.475  13.961  20.759  1.00  0.00     0.012 C 
HETATM   24  C27 UNL     1       5.301  14.515  22.202  1.00  0.00    -0.010 C 
HETATM   25  C35 UNL     1       6.506  14.276  23.132  1.00  0.00     0.005 C 
HETATM   26  C36 UNL     1       7.758  15.067  22.755  1.00  0.00     0.010 C 
HETATM   27  C37 UNL     1       8.005  15.268  21.245  1.00  0.00     0.050 C 
HETATM   28  C38 UNL     1       9.163  16.265  21.050  1.00  0.00     0.125 C 
HETATM   29  C39 UNL     1       9.348  16.651  19.585  1.00  0.00     0.033 C 
HETATM   30  C40 UNL     1       8.704  15.673  18.597  1.00  0.00     0.023 C 
HETATM   31  C41 UNL     1       8.776  14.172  18.992  1.00  0.00     0.051 C 
HETATM   32  C43 UNL     1       8.121  13.933  20.425  1.00  0.00     0.082 C 
ENDROOT
BRANCH   1  33
HETATM   33  C5  UNL     1       6.163   7.052  13.703  1.00  0.00     0.306 C 
BRANCH  33  34
HETATM   34  N1  UNL     1       5.632   6.951  12.353  1.00  0.00     0.087 N 
HETATM   35  H10 UNL     1       5.567   5.970  12.075  1.00  0.00     0.316 HD
BRANCH  34  36
HETATM   36  C4  UNL     1       4.330   7.590  12.211  1.00  0.00     0.272 C 
BRANCH  36  37
HETATM   37  C3  UNL     1       4.264   8.529  10.998  1.00  0.00     0.056 C 
BRANCH  37  38
HETATM   38  C2  UNL     1       3.505   7.956   9.805  1.00  0.00     0.168 C 
BRANCH  38  39
HETATM   39  O1  UNL     1       3.925   6.609   9.591  1.00  0.00    -0.396 OA
HETATM   40  C1  UNL     1       3.030   5.901   8.747  1.00  0.00     0.201 C 
ENDBRANCH  38  39
ENDBRANCH  37  38
ENDBRANCH  36  37
ENDBRANCH  34  36
ENDBRANCH  33  34
ENDBRANCH   1  33
BRANCH   5  41
HETATM   41  O2  UNL     1       7.125   9.679  17.824  1.00  0.00    -0.386 OA
HETATM   42  H17 UNL     1       6.211   9.540  18.128  1.00  0.00     0.210 HD
ENDBRANCH   5  41
BRANCH  20  43
HETATM   43  O5  UNL     1       8.662  11.325  19.070  1.00  0.00    -0.386 OA
HETATM   44  H31 UNL     1       8.516  10.363  18.937  1.00  0.00     0.210 HD
ENDBRANCH  20  43
BRANCH  31  45
HETATM   45  C42 UNL     1      10.266  13.758  19.031  1.00  0.00     0.244 C 
HETATM   46  O7  UNL     1      10.889  13.437  20.042  1.00  0.00    -0.306 OA
ENDBRANCH  31  45
BRANCH  32  47
HETATM   47  O8  UNL     1       9.018  13.063  21.155  1.00  0.00    -0.388 OA
HETATM   48  H63 UNL     1       9.023  12.192  20.703  1.00  0.00     0.210 HD
ENDBRANCH  32  47
BRANCH  24  49
HETATM   49  C28 UNL     1       3.955  14.094  22.896  1.00  0.00    -0.011 C 
HETATM   50  C29 UNL     1       3.911  12.573  23.124  1.00  0.00     0.011 C 
BRANCH  49  51
HETATM   51  C30 UNL     1       3.561  14.935  24.138  1.00  0.00    -0.010 C 
HETATM   52  C31 UNL     1       3.791  16.452  23.963  1.00  0.00     0.005 C 
HETATM   53  C32 UNL     1       2.703  17.153  24.777  1.00  0.00     0.000 C 
HETATM   54  C33 UNL     1       1.978  16.055  25.536  1.00  0.00     0.000 C 
HETATM   55  C34 UNL     1       2.115  14.843  24.627  1.00  0.00     0.005 C 
ENDBRANCH  49  51
ENDBRANCH  24  49
BRANCH  28  56
HETATM   56  O6  UNL     1      10.379  15.817  21.631  1.00  0.00    -0.395 OA
HETATM   57  H57 UNL     1      10.755  15.115  21.057  1.00  0.00     0.210 HD
ENDBRANCH  28  56
TORSDOF 13
ENDMDL
MODEL 6
REMARK minimizedAffinity -7.87491131
REMARK CNNscore 0.547396839
REMARK CNNaffinity 7.02849913
REMARK  13 active torsions:
REMARK  status: ('A' for Active; 'I' for Inactive)
REMARK    1  A    between atoms: O1_2  and  C2_3 
REMARK    2  A    between atoms: C2_3  and  C3_4 
REMARK    3  A    between atoms: C3_4  and  C4_5 
REMARK    4  A    between atoms: C4_5  and  N1_6 
REMARK    5  A    between atoms: N1_6  and  C5_7 
REMARK    6  A    between atoms: C5_7  and  C6_8 
REMARK    7  A    between atoms: C10_12  and  O2_13 
REMARK    8  A    between atoms: C23_28  and  O5_29 
REMARK    9  A    between atoms: C27_33  and  C28_34 
REMARK   10  A    between atoms: C28_34  and  C30_36 
REMARK   11  A    between atoms: C38_44  and  O6_45 
REMARK   12  A    between atoms: C41_48  and  C42_49 
REMARK   13  A    between atoms: C43_51  and  O8_52 
ROOT
HETATM    1  C6  UNL     1       0.569   6.751  13.442  1.00  0.00    -0.016 C 
HETATM    2  C7  UNL     1       0.955   7.219  14.658  1.00  0.00    -0.013 C 
HETATM    3  C8  UNL     1      -0.029   7.617  15.737  1.00  0.00     0.021 C 
HETATM    4  C9  UNL     1       0.288   8.878  16.537  1.00  0.00     0.051 C 
HETATM    5  C10 UNL     1      -0.217  10.060  15.691  1.00  0.00     0.098 C 
HETATM    6  C11 UNL     1      -1.339   9.454  14.741  1.00  0.00     0.002 C 
HETATM    7  C12 UNL     1      -0.962   9.688  13.240  1.00  0.00     0.013 C 
HETATM    8  C13 UNL     1      -1.816   8.971  12.203  1.00  0.00     0.004 C 
HETATM    9  C14 UNL     1      -1.304   7.574  11.844  1.00  0.00     0.048 C 
HETATM   10  C15 UNL     1      -0.902   6.663  13.029  1.00  0.00     0.120 C 
HETATM   11  O3  UNL     1      -1.230   5.318  12.643  1.00  0.00    -0.297 OA
HETATM   12  C16 UNL     1      -2.370   4.936  13.282  1.00  0.00     0.284 C 
HETATM   13  O4  UNL     1      -3.004   3.920  13.065  1.00  0.00    -0.260 OA
HETATM   14  C17 UNL     1      -2.692   5.914  14.322  1.00  0.00     0.089 C 
HETATM   15  C18 UNL     1      -1.790   6.885  14.200  1.00  0.00    -0.029 C 
HETATM   16  C19 UNL     1      -1.423   7.943  15.184  1.00  0.00     0.037 C 
HETATM   17  C20 UNL     1      -2.718  10.115  14.992  1.00  0.00     0.014 C 
HETATM   18  C21 UNL     1      -3.050  10.359  16.463  1.00  0.00     0.010 C 
HETATM   19  C22 UNL     1      -2.007  11.204  17.231  1.00  0.00     0.041 C 
HETATM   20  C23 UNL     1      -0.660  11.330  16.503  1.00  0.00     0.095 C 
HETATM   21  C24 UNL     1       0.368  11.703  17.569  1.00  0.00     0.049 C 
HETATM   22  C25 UNL     1       0.047  12.970  18.400  1.00  0.00     0.025 C 
HETATM   23  C26 UNL     1       0.539  12.735  19.852  1.00  0.00     0.012 C 
HETATM   24  C27 UNL     1       0.871  13.992  20.706  1.00  0.00    -0.010 C 
HETATM   25  C35 UNL     1       0.537  15.336  20.029  1.00  0.00     0.005 C 
HETATM   26  C36 UNL     1      -0.959  15.594  19.851  1.00  0.00     0.010 C 
HETATM   27  C37 UNL     1      -1.829  14.360  19.537  1.00  0.00     0.050 C 
HETATM   28  C38 UNL     1      -3.316  14.755  19.615  1.00  0.00     0.125 C 
HETATM   29  C39 UNL     1      -4.239  13.545  19.492  1.00  0.00     0.033 C 
HETATM   30  C40 UNL     1      -3.571  12.313  18.873  1.00  0.00     0.023 C 
HETATM   31  C41 UNL     1      -2.553  12.599  17.734  1.00  0.00     0.051 C 
HETATM   32  C43 UNL     1      -1.407  13.585  18.237  1.00  0.00     0.082 C 
ENDROOT
BRANCH   1  33
HETATM   33  C5  UNL     1       1.593   6.238  12.459  1.00  0.00     0.306 C 
BRANCH  33  34
HETATM   34  N1  UNL     1       0.914   5.575  11.357  1.00  0.00     0.087 N 
HETATM   35  H10 UNL     1       0.110   6.129  11.056  1.00  0.00     0.316 HD
BRANCH  34  36
HETATM   36  C4  UNL     1       1.794   5.327  10.221  1.00  0.00     0.272 C 
BRANCH  36  37
HETATM   37  C3  UNL     1       2.310   6.625   9.582  1.00  0.00     0.056 C 
BRANCH  37  38
HETATM   38  C2  UNL     1       1.235   7.686   9.367  1.00  0.00     0.168 C 
BRANCH  38  39
HETATM   39  O1  UNL     1       0.975   7.806   7.970  1.00  0.00    -0.396 OA
HETATM   40  C1  UNL     1       2.172   7.886   7.211  1.00  0.00     0.201 C 
ENDBRANCH  38  39
ENDBRANCH  37  38
ENDBRANCH  36  37
ENDBRANCH  34  36
ENDBRANCH  33  34
ENDBRANCH   1  33
BRANCH   5  41
HETATM   41  O2  UNL     1       0.892  10.532  14.883  1.00  0.00    -0.386 OA
HETATM   42  H17 UNL     1       1.727  10.398  15.365  1.00  0.00     0.210 HD
ENDBRANCH   5  41
BRANCH  20  43
HETATM   43  O5  UNL     1      -0.704  12.429  15.572  1.00  0.00    -0.386 OA
HETATM   44  H31 UNL     1      -0.066  12.181  14.867  1.00  0.00     0.210 HD
ENDBRANCH  20  43
BRANCH  31  45
HETATM   45  C42 UNL     1      -3.319  13.254  16.561  1.00  0.00     0.244 C 
HETATM   46  O7  UNL     1      -4.537  13.216  16.397  1.00  0.00    -0.306 OA
ENDBRANCH  31  45
BRANCH  32  47
HETATM   47  O8  UNL     1      -1.218  14.572  17.196  1.00  0.00    -0.388 OA
HETATM   48  H63 UNL     1      -0.862  14.110  16.407  1.00  0.00     0.210 HD
ENDBRANCH  32  47
BRANCH  24  49
HETATM   49  C28 UNL     1       2.327  14.001  21.299  1.00  0.00    -0.011 C 
HETATM   50  C29 UNL     1       2.448  15.031  22.435  1.00  0.00     0.011 C 
BRANCH  49  51
HETATM   51  C30 UNL     1       2.909  12.604  21.641  1.00  0.00    -0.010 C 
HETATM   52  C31 UNL     1       4.297  12.337  21.019  1.00  0.00     0.005 C 
HETATM   53  C32 UNL     1       5.047  11.438  22.002  1.00  0.00     0.000 C 
HETATM   54  C33 UNL     1       4.041  11.063  23.076  1.00  0.00     0.000 C 
HETATM   55  C34 UNL     1       3.103  12.260  23.118  1.00  0.00     0.005 C 
ENDBRANCH  49  51
ENDBRANCH  24  49
BRANCH  28  56
HETATM   56  O6  UNL     1      -3.664  15.775  18.691  1.00  0.00    -0.395 OA
HETATM   57  H57 UNL     1      -3.714  15.377  17.795  1.00  0.00     0.210 HD
ENDBRANCH  28  56
TORSDOF 13
ENDMDL
MODEL 7
REMARK minimizedAffinity -7.89831495
REMARK CNNscore 0.505841136
REMARK CNNaffinity 7.4978652
REMARK  13 active torsions:
REMARK  status: ('A' for Active; 'I' for Inactive)
REMARK    1  A    between atoms: O1_2  and  C2_3 
REMARK    2  A    between atoms: C2_3  and  C3_4 
REMARK    3  A    between atoms: C3_4  and  C4_5 
REMARK    4  A    between atoms: C4_5  and  N1_6 
REMARK    5  A    between atoms: N1_6  and  C5_7 
REMARK    6  A    between atoms: C5_7  and  C6_8 
REMARK    7  A    between atoms: C10_12  and  O2_13 
REMARK    8  A    between atoms: C23_28  and  O5_29 
REMARK    9  A    between atoms: C27_33  and  C28_34 
REMARK   10  A    between atoms: C28_34  and  C30_36 
REMARK   11  A    between atoms: C38_44  and  O6_45 
REMARK   12  A    between atoms: C41_48  and  C42_49 
REMARK   13  A    between atoms: C43_51  and  O8_52 
ROOT
HETATM    1  C6  UNL     1      -5.034   7.964  14.127  1.00  0.00    -0.016 C 
HETATM    2  C7  UNL     1      -4.192   8.892  13.602  1.00  0.00    -0.013 C 
HETATM    3  C8  UNL     1      -2.866   8.534  12.965  1.00  0.00     0.021 C 
HETATM    4  C9  UNL     1      -1.680   9.445  13.270  1.00  0.00     0.051 C 
HETATM    5  C10 UNL     1      -1.116   8.977  14.623  1.00  0.00     0.098 C 
HETATM    6  C11 UNL     1      -1.575   7.462  14.773  1.00  0.00     0.002 C 
HETATM    7  C12 UNL     1      -2.433   7.282  16.070  1.00  0.00     0.013 C 
HETATM    8  C13 UNL     1      -3.137   5.944  16.241  1.00  0.00     0.004 C 
HETATM    9  C14 UNL     1      -4.537   5.901  15.623  1.00  0.00     0.048 C 
HETATM   10  C15 UNL     1      -4.675   6.478  14.193  1.00  0.00     0.120 C 
HETATM   11  O3  UNL     1      -5.680   5.694  13.529  1.00  0.00    -0.297 OA
HETATM   12  C16 UNL     1      -5.075   4.829  12.670  1.00  0.00     0.284 C 
HETATM   13  O4  UNL     1      -5.620   3.922  12.068  1.00  0.00    -0.260 OA
HETATM   14  C17 UNL     1      -3.664   5.192  12.532  1.00  0.00     0.089 C 
HETATM   15  C18 UNL     1      -3.462   6.195  13.383  1.00  0.00    -0.029 C 
HETATM   16  C19 UNL     1      -2.334   7.169  13.422  1.00  0.00     0.037 C 
HETATM   17  C20 UNL     1      -0.361   6.504  14.870  1.00  0.00     0.014 C 
HETATM   18  C21 UNL     1       0.790   6.834  13.922  1.00  0.00     0.010 C 
HETATM   19  C22 UNL     1       1.347   8.271  14.057  1.00  0.00     0.041 C 
HETATM   20  C23 UNL     1       0.422   9.220  14.833  1.00  0.00     0.095 C 
HETATM   21  C24 UNL     1       0.828  10.636  14.430  1.00  0.00     0.049 C 
HETATM   22  C25 UNL     1       2.320  10.995  14.639  1.00  0.00     0.025 C 
HETATM   23  C26 UNL     1       2.762  11.926  13.480  1.00  0.00     0.012 C 
HETATM   24  C27 UNL     1       3.970  12.871  13.744  1.00  0.00    -0.010 C 
HETATM   25  C35 UNL     1       4.666  12.660  15.103  1.00  0.00     0.005 C 
HETATM   26  C36 UNL     1       5.409  11.330  15.229  1.00  0.00     0.010 C 
HETATM   27  C37 UNL     1       4.763  10.121  14.522  1.00  0.00     0.050 C 
HETATM   28  C38 UNL     1       5.743   8.933  14.554  1.00  0.00     0.125 C 
HETATM   29  C39 UNL     1       5.245   7.756  13.718  1.00  0.00     0.033 C 
HETATM   30  C40 UNL     1       3.743   7.796  13.419  1.00  0.00     0.023 C 
HETATM   31  C41 UNL     1       2.842   8.337  14.564  1.00  0.00     0.051 C 
HETATM   32  C43 UNL     1       3.300   9.800  14.998  1.00  0.00     0.082 C 
ENDROOT
BRANCH   1  33
HETATM   33  C5  UNL     1      -6.403   8.365  14.621  1.00  0.00     0.306 C 
BRANCH  33  34
HETATM   34  N1  UNL     1      -6.657   7.734  15.906  1.00  0.00     0.087 N 
HETATM   35  H10 UNL     1      -6.236   8.285  16.657  1.00  0.00     0.316 HD
BRANCH  34  36
HETATM   36  C4  UNL     1      -8.078   7.546  16.171  1.00  0.00     0.272 C 
BRANCH  36  37
HETATM   37  C3  UNL     1      -8.863   7.145  14.914  1.00  0.00     0.056 C 
BRANCH  37  38
HETATM   38  C2  UNL     1     -10.152   7.934  14.703  1.00  0.00     0.168 C 
BRANCH  38  39
HETATM   39  O1  UNL     1     -11.151   7.059  14.184  1.00  0.00    -0.396 OA
HETATM   40  C1  UNL     1     -11.626   7.487  12.916  1.00  0.00     0.201 C 
ENDBRANCH  38  39
ENDBRANCH  37  38
ENDBRANCH  36  37
ENDBRANCH  34  36
ENDBRANCH  33  34
ENDBRANCH   1  33
BRANCH   5  41
HETATM   41  O2  UNL     1      -1.741   9.773  15.662  1.00  0.00    -0.386 OA
HETATM   42  H17 UNL     1      -1.931  10.664  15.320  1.00  0.00     0.210 HD
ENDBRANCH   5  41
BRANCH  20  43
HETATM   43  O5  UNL     1       0.675   9.107  16.247  1.00  0.00    -0.386 OA
HETATM   44  H31 UNL     1      -0.180   9.340  16.671  1.00  0.00     0.210 HD
ENDBRANCH  20  43
BRANCH  31  45
HETATM   45  C42 UNL     1       2.972   7.377  15.770  1.00  0.00     0.244 C 
HETATM   46  O7  UNL     1       2.337   7.464  16.820  1.00  0.00    -0.306 OA
ENDBRANCH  31  45
BRANCH  32  47
HETATM   47  O8  UNL     1       3.310   9.823  16.446  1.00  0.00    -0.388 OA
HETATM   48  H63 UNL     1       2.384   9.718  16.752  1.00  0.00     0.210 HD
ENDBRANCH  32  47
BRANCH  24  49
HETATM   49  C28 UNL     1       3.664  14.392  13.493  1.00  0.00    -0.011 C 
HETATM   50  C29 UNL     1       4.432  15.276  14.490  1.00  0.00     0.011 C 
BRANCH  49  51
HETATM   51  C30 UNL     1       3.779  14.853  12.015  1.00  0.00    -0.010 C 
HETATM   52  C31 UNL     1       2.417  15.039  11.312  1.00  0.00     0.005 C 
HETATM   53  C32 UNL     1       2.599  16.177  10.308  1.00  0.00     0.000 C 
HETATM   54  C33 UNL     1       4.081  16.510  10.320  1.00  0.00     0.000 C 
HETATM   55  C34 UNL     1       4.512  16.166  11.737  1.00  0.00     0.005 C 
ENDBRANCH  49  51
ENDBRANCH  24  49
BRANCH  28  56
HETATM   56  O6  UNL     1       6.080   8.533  15.873  1.00  0.00    -0.395 OA
HETATM   57  H57 UNL     1       5.318   8.043  16.252  1.00  0.00     0.210 HD
ENDBRANCH  28  56
TORSDOF 13
ENDMDL
MODEL 8
REMARK minimizedAffinity -8.44788551
REMARK CNNscore 0.49419266
REMARK CNNaffinity 7.19990158
REMARK  13 active torsions:
REMARK  status: ('A' for Active; 'I' for Inactive)
REMARK    1  A    between atoms: O1_2  and  C2_3 
REMARK    2  A    between atoms: C2_3  and  C3_4 
REMARK    3  A    between atoms: C3_4  and  C4_5 
REMARK    4  A    between atoms: C4_5  and  N1_6 
REMARK    5  A    between atoms: N1_6  and  C5_7 
REMARK    6  A    between atoms: C5_7  and  C6_8 
REMARK    7  A    between atoms: C10_12  and  O2_13 
REMARK    8  A    between atoms: C23_28  and  O5_29 
REMARK    9  A    between atoms: C27_33  and  C28_34 
REMARK   10  A    between atoms: C28_34  and  C30_36 
REMARK   11  A    between atoms: C38_44  and  O6_45 
REMARK   12  A    between atoms: C41_48  and  C42_49 
REMARK   13  A    between atoms: C43_51  and  O8_52 
ROOT
HETATM    1  C6  UNL     1      -2.496  14.208  17.451  1.00  0.00    -0.016 C 
HETATM    2  C7  UNL     1      -2.005  13.719  16.283  1.00  0.00    -0.013 C 
HETATM    3  C8  UNL     1      -2.830  12.877  15.332  1.00  0.00     0.021 C 
HETATM    4  C9  UNL     1      -2.137  11.683  14.682  1.00  0.00     0.051 C 
HETATM    5  C10 UNL     1      -2.210  10.535  15.705  1.00  0.00     0.098 C 
HETATM    6  C11 UNL     1      -3.447  10.880  16.642  1.00  0.00     0.002 C 
HETATM    7  C12 UNL     1      -2.981  10.998  18.132  1.00  0.00     0.013 C 
HETATM    8  C13 UNL     1      -3.999  11.545  19.123  1.00  0.00     0.004 C 
HETATM    9  C14 UNL     1      -3.962  13.069  19.265  1.00  0.00     0.048 C 
HETATM   10  C15 UNL     1      -3.906  13.880  17.948  1.00  0.00     0.120 C 
HETATM   11  O3  UNL     1      -4.645  15.091  18.179  1.00  0.00    -0.297 OA
HETATM   12  C16 UNL     1      -5.861  14.992  17.575  1.00  0.00     0.284 C 
HETATM   13  O4  UNL     1      -6.786  15.772  17.702  1.00  0.00    -0.260 OA
HETATM   14  C17 UNL     1      -5.870  13.824  16.694  1.00  0.00     0.089 C 
HETATM   15  C18 UNL     1      -4.699  13.220  16.878  1.00  0.00    -0.029 C 
HETATM   16  C19 UNL     1      -4.029  12.205  16.015  1.00  0.00     0.037 C 
HETATM   17  C20 UNL     1      -4.541   9.784  16.572  1.00  0.00     0.014 C 
HETATM   18  C21 UNL     1      -4.808   9.239  15.171  1.00  0.00     0.010 C 
HETATM   19  C22 UNL     1      -3.564   8.670  14.450  1.00  0.00     0.041 C 
HETATM   20  C23 UNL     1      -2.233   9.087  15.094  1.00  0.00     0.095 C 
HETATM   21  C24 UNL     1      -1.164   8.913  14.018  1.00  0.00     0.049 C 
HETATM   22  C25 UNL     1      -1.073   7.504  13.380  1.00  0.00     0.025 C 
HETATM   23  C26 UNL     1      -0.717   7.674  11.880  1.00  0.00     0.012 C 
HETATM   24  C27 UNL     1      -0.012   6.480  11.174  1.00  0.00    -0.010 C 
HETATM   25  C35 UNL     1       0.124   5.211  12.039  1.00  0.00     0.005 C 
HETATM   26  C36 UNL     1      -1.202   4.517  12.351  1.00  0.00     0.010 C 
HETATM   27  C37 UNL     1      -2.419   5.440  12.562  1.00  0.00     0.050 C 
HETATM   28  C38 UNL     1      -3.697   4.584  12.635  1.00  0.00     0.125 C 
HETATM   29  C39 UNL     1      -4.961   5.440  12.664  1.00  0.00     0.033 C 
HETATM   30  C40 UNL     1      -4.718   6.897  13.073  1.00  0.00     0.023 C 
HETATM   31  C41 UNL     1      -3.637   7.117  14.167  1.00  0.00     0.051 C 
HETATM   32  C43 UNL     1      -2.243   6.488  13.719  1.00  0.00     0.082 C 
ENDROOT
BRANCH   1  33
HETATM   33  C5  UNL     1      -1.673  15.157  18.289  1.00  0.00     0.306 C 
BRANCH  33  34
HETATM   34  N1  UNL     1      -2.168  15.148  19.656  1.00  0.00     0.087 N 
HETATM   35  H10 UNL     1      -1.499  14.678  20.269  1.00  0.00     0.316 HD
BRANCH  34  36
HETATM   36  C4  UNL     1      -2.445  16.487  20.163  1.00  0.00     0.272 C 
BRANCH  36  37
HETATM   37  C3  UNL     1      -1.906  16.701  21.584  1.00  0.00     0.056 C 
BRANCH  37  38
HETATM   38  C2  UNL     1      -2.987  16.936  22.634  1.00  0.00     0.168 C 
BRANCH  38  39
HETATM   39  O1  UNL     1      -3.048  15.804  23.500  1.00  0.00    -0.396 OA
HETATM   40  C1  UNL     1      -3.381  16.170  24.831  1.00  0.00     0.201 C 
ENDBRANCH  38  39
ENDBRANCH  37  38
ENDBRANCH  36  37
ENDBRANCH  34  36
ENDBRANCH  33  34
ENDBRANCH   1  33
BRANCH   5  41
HETATM   41  O2  UNL     1      -0.990  10.563  16.489  1.00  0.00    -0.386 OA
HETATM   42  H17 UNL     1      -0.256  10.886  15.939  1.00  0.00     0.210 HD
ENDBRANCH   5  41
BRANCH  20  43
HETATM   43  O5  UNL     1      -1.897   8.177  16.160  1.00  0.00    -0.386 OA
HETATM   44  H31 UNL     1      -1.358   8.714  16.782  1.00  0.00     0.210 HD
ENDBRANCH  20  43
BRANCH  31  45
HETATM   45  C42 UNL     1      -4.121   6.427  15.465  1.00  0.00     0.244 C 
HETATM   46  O7  UNL     1      -3.391   5.937  16.325  1.00  0.00    -0.306 OA
ENDBRANCH  31  45
BRANCH  32  47
HETATM   47  O8  UNL     1      -1.720   5.773  14.864  1.00  0.00    -0.388 OA
HETATM   48  H63 UNL     1      -1.516   6.432  15.560  1.00  0.00     0.210 HD
ENDBRANCH  32  47
BRANCH  24  49
HETATM   49  C28 UNL     1       1.353   6.851  10.491  1.00  0.00    -0.011 C 
HETATM   50  C29 UNL     1       2.534   6.232  11.258  1.00  0.00     0.011 C 
BRANCH  49  51
HETATM   51  C30 UNL     1       1.405   6.629   8.956  1.00  0.00    -0.010 C 
HETATM   52  C31 UNL     1       1.281   7.929   8.133  1.00  0.00     0.005 C 
HETATM   53  C32 UNL     1       2.116   7.724   6.869  1.00  0.00     0.000 C 
HETATM   54  C33 UNL     1       2.562   6.273   6.895  1.00  0.00     0.000 C 
HETATM   55  C34 UNL     1       2.650   5.954   8.380  1.00  0.00     0.005 C 
ENDBRANCH  49  51
ENDBRANCH  24  49
BRANCH  28  56
HETATM   56  O6  UNL     1      -3.673   3.650  13.705  1.00  0.00    -0.395 OA
HETATM   57  H57 UNL     1      -3.830   4.136  14.543  1.00  0.00     0.210 HD
ENDBRANCH  28  56
TORSDOF 13
ENDMDL
MODEL 9
REMARK minimizedAffinity -6.68908119
REMARK CNNscore 0.47894457
REMARK CNNaffinity 6.43893242
REMARK  13 active torsions:
REMARK  status: ('A' for Active; 'I' for Inactive)
REMARK    1  A    between atoms: O1_2  and  C2_3 
REMARK    2  A    between atoms: C2_3  and  C3_4 
REMARK    3  A    between atoms: C3_4  and  C4_5 
REMARK    4  A    between atoms: C4_5  and  N1_6 
REMARK    5  A    between atoms: N1_6  and  C5_7 
REMARK    6  A    between atoms: C5_7  and  C6_8 
REMARK    7  A    between atoms: C10_12  and  O2_13 
REMARK    8  A    between atoms: C23_28  and  O5_29 
REMARK    9  A    between atoms: C27_33  and  C28_34 
REMARK   10  A    between atoms: C28_34  and  C30_36 
REMARK   11  A    between atoms: C38_44  and  O6_45 
REMARK   12  A    between atoms: C41_48  and  C42_49 
REMARK   13  A    between atoms: C43_51  and  O8_52 
ROOT
HETATM    1  C6  UNL     1       0.688  10.801  18.111  1.00  0.00    -0.016 C 
HETATM    2  C7  UNL     1      -0.447  10.713  18.853  1.00  0.00    -0.013 C 
HETATM    3  C8  UNL     1      -1.826  10.604  18.237  1.00  0.00     0.021 C 
HETATM    4  C9  UNL     1      -2.945  11.411  18.892  1.00  0.00     0.051 C 
HETATM    5  C10 UNL     1      -2.840  12.835  18.316  1.00  0.00     0.098 C 
HETATM    6  C11 UNL     1      -2.089  12.676  16.924  1.00  0.00     0.002 C 
HETATM    7  C12 UNL     1      -0.775  13.528  16.917  1.00  0.00     0.013 C 
HETATM    8  C13 UNL     1       0.173  13.309  15.747  1.00  0.00     0.004 C 
HETATM    9  C14 UNL     1       1.202  12.202  15.988  1.00  0.00     0.048 C 
HETATM   10  C15 UNL     1       0.664  10.879  16.583  1.00  0.00     0.120 C 
HETATM   11  O3  UNL     1       1.455   9.821  16.019  1.00  0.00    -0.297 OA
HETATM   12  C16 UNL     1       0.732   9.191  15.051  1.00  0.00     0.284 C 
HETATM   13  O4  UNL     1       1.156   8.357  14.274  1.00  0.00    -0.260 OA
HETATM   14  C17 UNL     1      -0.661   9.633  15.124  1.00  0.00     0.089 C 
HETATM   15  C18 UNL     1      -0.696  10.574  16.064  1.00  0.00    -0.029 C 
HETATM   16  C19 UNL     1      -1.877  11.119  16.792  1.00  0.00     0.037 C 
HETATM   17  C20 UNL     1      -2.969  13.153  15.742  1.00  0.00     0.014 C 
HETATM   18  C21 UNL     1      -4.438  12.745  15.836  1.00  0.00     0.010 C 
HETATM   19  C22 UNL     1      -5.153  13.197  17.132  1.00  0.00     0.041 C 
HETATM   20  C23 UNL     1      -4.190  13.635  18.246  1.00  0.00     0.095 C 
HETATM   21  C24 UNL     1      -4.974  13.533  19.552  1.00  0.00     0.049 C 
HETATM   22  C25 UNL     1      -6.305  14.324  19.603  1.00  0.00     0.025 C 
HETATM   23  C26 UNL     1      -7.327  13.500  20.430  1.00  0.00     0.012 C 
HETATM   24  C27 UNL     1      -8.487  14.281  21.113  1.00  0.00    -0.010 C 
HETATM   25  C35 UNL     1      -8.546  15.780  20.763  1.00  0.00     0.005 C 
HETATM   26  C36 UNL     1      -8.923  16.073  19.311  1.00  0.00     0.010 C 
HETATM   27  C37 UNL     1      -8.393  15.079  18.258  1.00  0.00     0.050 C 
HETATM   28  C38 UNL     1      -9.046  15.387  16.897  1.00  0.00     0.125 C 
HETATM   29  C39 UNL     1      -8.707  14.333  15.846  1.00  0.00     0.033 C 
HETATM   30  C40 UNL     1      -7.476  13.487  16.187  1.00  0.00     0.023 C 
HETATM   31  C41 UNL     1      -6.316  14.240  16.895  1.00  0.00     0.051 C 
HETATM   32  C43 UNL     1      -6.829  14.933  18.235  1.00  0.00     0.082 C 
ENDROOT
BRANCH   1  33
HETATM   33  C5  UNL     1       2.042  10.765  18.778  1.00  0.00     0.306 C 
BRANCH  33  34
HETATM   34  N1  UNL     1       1.953   9.994  20.008  1.00  0.00     0.087 N 
HETATM   35  H10 UNL     1       2.369   9.070  19.875  1.00  0.00     0.316 HD
BRANCH  34  36
HETATM   36  C4  UNL     1       2.590  10.661  21.138  1.00  0.00     0.272 C 
BRANCH  36  37
HETATM   37  C3  UNL     1       3.854   9.933  21.616  1.00  0.00     0.056 C 
BRANCH  37  38
HETATM   38  C2  UNL     1       4.315  10.335  23.013  1.00  0.00     0.168 C 
BRANCH  38  39
HETATM   39  O1  UNL     1       4.644  11.723  23.012  1.00  0.00    -0.396 OA
HETATM   40  C1  UNL     1       6.048  11.937  23.009  1.00  0.00     0.201 C 
ENDBRANCH  38  39
ENDBRANCH  37  38
ENDBRANCH  36  37
ENDBRANCH  34  36
ENDBRANCH  33  34
ENDBRANCH   1  33
BRANCH   5  41
HETATM   41  O2  UNL     1      -2.017  13.617  19.220  1.00  0.00    -0.386 OA
HETATM   42  H17 UNL     1      -2.142  13.301  20.131  1.00  0.00     0.210 HD
ENDBRANCH   5  41
BRANCH  20  43
HETATM   43  O5  UNL     1      -3.846  15.024  18.081  1.00  0.00    -0.386 OA
HETATM   44  H31 UNL     1      -2.952  15.107  18.480  1.00  0.00     0.210 HD
ENDBRANCH  20  43
BRANCH  31  45
HETATM   45  C42 UNL     1      -5.785  15.323  15.926  1.00  0.00     0.244 C 
HETATM   46  O7  UNL     1      -5.666  16.518  16.191  1.00  0.00    -0.306 OA
ENDBRANCH  31  45
BRANCH  32  47
HETATM   47  O8  UNL     1      -6.277  16.271  18.253  1.00  0.00    -0.388 OA
HETATM   48  H63 UNL     1      -5.303  16.191  18.336  1.00  0.00     0.210 HD
ENDBRANCH  32  47
BRANCH  24  49
HETATM   49  C28 UNL     1      -8.589  14.054  22.665  1.00  0.00    -0.011 C 
HETATM   50  C29 UNL     1      -8.933  12.589  22.981  1.00  0.00     0.011 C 
BRANCH  49  51
HETATM   51  C30 UNL     1      -7.408  14.624  23.494  1.00  0.00    -0.010 C 
HETATM   52  C31 UNL     1      -6.026  14.086  23.063  1.00  0.00     0.005 C 
HETATM   53  C32 UNL     1      -5.025  15.215  23.308  1.00  0.00     0.000 C 
HETATM   54  C33 UNL     1      -5.798  16.308  24.027  1.00  0.00     0.000 C 
HETATM   55  C34 UNL     1      -7.218  16.141  23.507  1.00  0.00     0.005 C 
ENDBRANCH  49  51
ENDBRANCH  24  49
BRANCH  28  56
HETATM   56  O6  UNL     1      -8.762  16.699  16.434  1.00  0.00    -0.395 OA
HETATM   57  H57 UNL     1      -7.837  16.717  16.107  1.00  0.00     0.210 HD
ENDBRANCH  28  56
TORSDOF 13
ENDMDL
