MODEL 1
REMARK minimizedAffinity -6.53478289
REMARK CNNscore 0.437785506
REMARK CNNaffinity 6.19178391
REMARK  13 active torsions:
REMARK  status: ('A' for Active; 'I' for Inactive)
REMARK    1  A    between atoms: C4_4  and  C5_5 
REMARK    2  A    between atoms: C5_5  and  C6_6 
REMARK    3  A    between atoms: C6_6  and  C7_7 
REMARK    4  A    between atoms: C9_9  and  C10_10 
REMARK    5  A    between atoms: C11_11  and  C12_12 
REMARK    6  A    between atoms: C14_14  and  C15_15 
REMARK    7  A    between atoms: C18_18  and  O1_19 
REMARK    8  A    between atoms: C19_21  and  C20_22 
REMARK    9  A    between atoms: C20_22  and  C21_23 
REMARK   10  A    between atoms: C21_23  and  C22_24 
REMARK   11  A    between atoms: C22_24  and  O3_25 
REMARK   12  A    between atoms: C24_27  and  C26_29 
REMARK   13  A    between atoms: C29_33  and  O5_35 
ROOT
HETATM    1  C15 UNL     1      -6.748   7.954  14.306  1.00  0.00     0.149 C 
HETATM    2  C16 UNL     1      -5.784   7.072  13.518  1.00  0.00     0.054 C 
HETATM    3  C17 UNL     1      -4.499   7.001  14.372  1.00  0.00     0.050 C 
HETATM    4  C18 UNL     1      -5.109   7.205  15.776  1.00  0.00     0.270 C 
HETATM    5  O2  UNL     1      -6.221   8.084  15.633  1.00  0.00    -0.351 OA
HETATM    6  C19 UNL     1      -3.839   5.579  14.207  1.00  0.00     0.032 C 
HETATM    7  C23 UNL     1      -3.256   5.413  12.792  1.00  0.00    -0.066 C 
HETATM    8  C24 UNL     1      -3.597   4.457  11.888  1.00  0.00    -0.021 C 
HETATM    9  C25 UNL     1      -2.932   4.284  10.544  1.00  0.00     0.052 C 
HETATM   10  C27 UNL     1      -2.236   6.493  12.466  1.00  0.00     0.038 C 
HETATM   11  C28 UNL     1      -2.827   7.893  12.628  1.00  0.00     0.042 C 
HETATM   12  C29 UNL     1      -3.471   8.138  14.010  1.00  0.00     0.067 C 
HETATM   13  C30 UNL     1      -4.022   9.573  14.031  1.00  0.00     0.047 C 
ENDROOT
BRANCH   4  14
HETATM   14  O1  UNL     1      -5.629   5.993  16.315  1.00  0.00    -0.370 OA
HETATM   15  H26 UNL     1      -5.998   6.271  17.174  1.00  0.00     0.212 HD
ENDBRANCH   4  14
BRANCH   6  16
HETATM   16  C20 UNL     1      -2.785   5.224  15.295  1.00  0.00     0.012 C 
BRANCH  16  17
HETATM   17  C21 UNL     1      -1.380   5.784  15.024  1.00  0.00     0.027 C 
BRANCH  17  18
HETATM   18  C22 UNL     1      -0.390   4.796  14.411  1.00  0.00     0.164 C 
BRANCH  18  19
HETATM   19  O3  UNL     1       0.816   5.436  14.023  1.00  0.00    -0.401 OA
HETATM   20  H34 UNL     1       1.315   5.637  14.841  1.00  0.00     0.209 HD
ENDBRANCH  18  19
ENDBRANCH  17  18
ENDBRANCH  16  17
ENDBRANCH   6  16
BRANCH  12  21
HETATM   21  O5  UNL     1      -2.419   8.114  14.990  1.00  0.00    -0.389 OA
HETATM   22  H46 UNL     1      -1.768   8.802  14.767  1.00  0.00     0.210 HD
ENDBRANCH  12  21
BRANCH   1  23
HETATM   23  C14 UNL     1      -8.133   7.380  14.402  1.00  0.00     0.011 C 
HETATM   24  C12 UNL     1      -9.258   8.008  14.802  1.00  0.00    -0.063 C 
HETATM   25  C13 UNL     1      -9.305   9.465  15.186  1.00  0.00     0.048 C 
BRANCH  24  26
HETATM   26  C11 UNL     1     -10.505   7.243  14.857  1.00  0.00     0.006 C 
HETATM   27  C10 UNL     1     -11.500   7.271  13.955  1.00  0.00     0.001 C 
BRANCH  27  28
HETATM   28  C9  UNL     1     -12.710   6.488  14.105  1.00  0.00     0.002 C 
HETATM   29  C7  UNL     1     -13.956   6.847  13.731  1.00  0.00    -0.084 C 
HETATM   30  C8  UNL     1     -14.306   8.122  13.008  1.00  0.00     0.043 C 
BRANCH  29  31
HETATM   31  C6  UNL     1     -15.120   5.901  13.987  1.00  0.00     0.037 C 
BRANCH  31  32
HETATM   32  C5  UNL     1     -14.742   4.601  14.711  1.00  0.00     0.031 C 
BRANCH  32  33
HETATM   33  C4  UNL     1     -15.921   3.781  15.158  1.00  0.00    -0.024 C 
HETATM   34  C2  UNL     1     -16.000   2.438  15.241  1.00  0.00    -0.091 C 
HETATM   35  C1  UNL     1     -14.902   1.487  14.855  1.00  0.00     0.042 C 
HETATM   36  C3  UNL     1     -17.257   1.770  15.735  1.00  0.00     0.042 C 
ENDBRANCH  32  33
ENDBRANCH  31  32
ENDBRANCH  29  31
ENDBRANCH  27  28
ENDBRANCH  24  26
ENDBRANCH   1  23
BRANCH   8  37
HETATM   37  C26 UNL     1      -4.683   3.453  12.133  1.00  0.00     0.265 C 
HETATM   38  O4  UNL     1      -4.880   2.492  11.398  1.00  0.00    -0.302 OA
ENDBRANCH   8  37
TORSDOF 13
ENDMDL
MODEL 2
REMARK minimizedAffinity -6.1869278
REMARK CNNscore 0.425077528
REMARK CNNaffinity 5.44386721
REMARK  13 active torsions:
REMARK  status: ('A' for Active; 'I' for Inactive)
REMARK    1  A    between atoms: C4_4  and  C5_5 
REMARK    2  A    between atoms: C5_5  and  C6_6 
REMARK    3  A    between atoms: C6_6  and  C7_7 
REMARK    4  A    between atoms: C9_9  and  C10_10 
REMARK    5  A    between atoms: C11_11  and  C12_12 
REMARK    6  A    between atoms: C14_14  and  C15_15 
REMARK    7  A    between atoms: C18_18  and  O1_19 
REMARK    8  A    between atoms: C19_21  and  C20_22 
REMARK    9  A    between atoms: C20_22  and  C21_23 
REMARK   10  A    between atoms: C21_23  and  C22_24 
REMARK   11  A    between atoms: C22_24  and  O3_25 
REMARK   12  A    between atoms: C24_27  and  C26_29 
REMARK   13  A    between atoms: C29_33  and  O5_35 
ROOT
HETATM    1  C15 UNL     1      -6.341  -9.533   8.378  1.00  0.00     0.149 C 
HETATM    2  C16 UNL     1      -7.150 -10.419   9.321  1.00  0.00     0.054 C 
HETATM    3  C17 UNL     1      -7.570  -9.501  10.489  1.00  0.00     0.050 C 
HETATM    4  C18 UNL     1      -7.597  -8.142   9.755  1.00  0.00     0.270 C 
HETATM    5  O2  UNL     1      -6.570  -8.172   8.768  1.00  0.00    -0.351 OA
HETATM    6  C19 UNL     1      -8.997  -9.930  11.006  1.00  0.00     0.032 C 
HETATM    7  C23 UNL     1      -8.927 -11.293  11.719  1.00  0.00    -0.066 C 
HETATM    8  C24 UNL     1      -9.612 -12.415  11.377  1.00  0.00    -0.021 C 
HETATM    9  C25 UNL     1      -9.576 -13.704  12.163  1.00  0.00     0.052 C 
HETATM   10  C27 UNL     1      -7.944 -11.278  12.880  1.00  0.00     0.038 C 
HETATM   11  C28 UNL     1      -6.548 -10.851  12.429  1.00  0.00     0.042 C 
HETATM   12  C29 UNL     1      -6.525  -9.508  11.669  1.00  0.00     0.067 C 
HETATM   13  C30 UNL     1      -5.070  -9.207  11.277  1.00  0.00     0.047 C 
ENDROOT
BRANCH   4  14
HETATM   14  O1  UNL     1      -8.818  -7.938   9.052  1.00  0.00    -0.370 OA
HETATM   15  H26 UNL     1      -8.686  -7.072   8.623  1.00  0.00     0.212 HD
ENDBRANCH   4  14
BRANCH   6  16
HETATM   16  C20 UNL     1      -9.712  -8.868  11.889  1.00  0.00     0.012 C 
BRANCH  16  17
HETATM   17  C21 UNL     1     -11.233  -9.057  12.001  1.00  0.00     0.027 C 
BRANCH  17  18
HETATM   18  C22 UNL     1     -11.941  -8.099  12.957  1.00  0.00     0.164 C 
BRANCH  18  19
HETATM   19  O3  UNL     1     -11.024  -7.229  13.602  1.00  0.00    -0.401 OA
HETATM   20  H34 UNL     1     -10.733  -6.569  12.940  1.00  0.00     0.209 HD
ENDBRANCH  18  19
ENDBRANCH  17  18
ENDBRANCH  16  17
ENDBRANCH   6  16
BRANCH  12  21
HETATM   21  O5  UNL     1      -6.897  -8.476  12.598  1.00  0.00    -0.389 OA
HETATM   22  H46 UNL     1      -6.268  -8.482  13.340  1.00  0.00     0.210 HD
ENDBRANCH  12  21
BRANCH   1  23
HETATM   23  C14 UNL     1      -6.737  -9.685   6.937  1.00  0.00     0.011 C 
HETATM   24  C12 UNL     1      -6.074 -10.347   5.966  1.00  0.00    -0.063 C 
HETATM   25  C13 UNL     1      -4.797 -11.113   6.206  1.00  0.00     0.048 C 
BRANCH  24  26
HETATM   26  C11 UNL     1      -6.625 -10.337   4.610  1.00  0.00     0.006 C 
HETATM   27  C10 UNL     1      -5.975  -9.993   3.486  1.00  0.00     0.001 C 
BRANCH  27  28
HETATM   28  C9  UNL     1      -6.613  -9.997   2.185  1.00  0.00     0.002 C 
HETATM   29  C7  UNL     1      -6.045 -10.335   1.009  1.00  0.00    -0.084 C 
HETATM   30  C8  UNL     1      -4.640 -10.852   0.846  1.00  0.00     0.043 C 
BRANCH  29  31
HETATM   31  C6  UNL     1      -6.865 -10.260  -0.271  1.00  0.00     0.037 C 
BRANCH  31  32
HETATM   32  C5  UNL     1      -7.819  -9.059  -0.350  1.00  0.00     0.031 C 
BRANCH  32  33
HETATM   33  C4  UNL     1      -7.847  -8.383  -1.695  1.00  0.00    -0.024 C 
HETATM   34  C2  UNL     1      -8.561  -7.297  -2.051  1.00  0.00    -0.091 C 
HETATM   35  C1  UNL     1      -9.517  -6.565  -1.151  1.00  0.00     0.042 C 
HETATM   36  C3  UNL     1      -8.455  -6.728  -3.441  1.00  0.00     0.042 C 
ENDBRANCH  32  33
ENDBRANCH  31  32
ENDBRANCH  29  31
ENDBRANCH  27  28
ENDBRANCH  24  26
ENDBRANCH   1  23
BRANCH   8  37
HETATM   37  C26 UNL     1     -10.495 -12.496  10.168  1.00  0.00     0.265 C 
HETATM   38  O4  UNL     1     -10.718 -13.546   9.575  1.00  0.00    -0.302 OA
ENDBRANCH   8  37
TORSDOF 13
ENDMDL
MODEL 3
REMARK minimizedAffinity -5.85730076
REMARK CNNscore 0.413851857
REMARK CNNaffinity 5.55865145
REMARK  13 active torsions:
REMARK  status: ('A' for Active; 'I' for Inactive)
REMARK    1  A    between atoms: C4_4  and  C5_5 
REMARK    2  A    between atoms: C5_5  and  C6_6 
REMARK    3  A    between atoms: C6_6  and  C7_7 
REMARK    4  A    between atoms: C9_9  and  C10_10 
REMARK    5  A    between atoms: C11_11  and  C12_12 
REMARK    6  A    between atoms: C14_14  and  C15_15 
REMARK    7  A    between atoms: C18_18  and  O1_19 
REMARK    8  A    between atoms: C19_21  and  C20_22 
REMARK    9  A    between atoms: C20_22  and  C21_23 
REMARK   10  A    between atoms: C21_23  and  C22_24 
REMARK   11  A    between atoms: C22_24  and  O3_25 
REMARK   12  A    between atoms: C24_27  and  C26_29 
REMARK   13  A    between atoms: C29_33  and  O5_35 
ROOT
HETATM    1  C15 UNL     1     -11.367  -9.345  14.301  1.00  0.00     0.149 C 
HETATM    2  C16 UNL     1     -11.390 -10.386  13.186  1.00  0.00     0.054 C 
HETATM    3  C17 UNL     1     -10.546  -9.783  12.041  1.00  0.00     0.050 C 
HETATM    4  C18 UNL     1      -9.597  -8.885  12.865  1.00  0.00     0.270 C 
HETATM    5  O2  UNL     1     -10.332  -8.404  13.986  1.00  0.00    -0.351 OA
HETATM    6  C19 UNL     1      -9.778 -10.937  11.292  1.00  0.00     0.032 C 
HETATM    7  C23 UNL     1     -10.762 -11.814  10.495  1.00  0.00    -0.066 C 
HETATM    8  C24 UNL     1     -10.953 -13.150  10.647  1.00  0.00    -0.021 C 
HETATM    9  C25 UNL     1     -11.869 -13.981   9.780  1.00  0.00     0.052 C 
HETATM   10  C27 UNL     1     -11.569 -11.000   9.495  1.00  0.00     0.038 C 
HETATM   11  C28 UNL     1     -12.319  -9.856  10.176  1.00  0.00     0.042 C 
HETATM   12  C29 UNL     1     -11.415  -8.942  11.030  1.00  0.00     0.067 C 
HETATM   13  C30 UNL     1     -12.296  -7.847  11.652  1.00  0.00     0.047 C 
ENDROOT
BRANCH   4  14
HETATM   14  O1  UNL     1      -8.496  -9.616  13.396  1.00  0.00    -0.370 OA
HETATM   15  H26 UNL     1      -8.005  -8.943  13.903  1.00  0.00     0.212 HD
ENDBRANCH   4  14
BRANCH   6  16
HETATM   16  C20 UNL     1      -8.601 -10.457  10.396  1.00  0.00     0.012 C 
BRANCH  16  17
HETATM   17  C21 UNL     1      -7.258 -11.142  10.692  1.00  0.00     0.027 C 
BRANCH  17  18
HETATM   18  C22 UNL     1      -6.032 -10.232  10.627  1.00  0.00     0.164 C 
BRANCH  18  19
HETATM   19  O3  UNL     1      -5.200 -10.392  11.766  1.00  0.00    -0.401 OA
HETATM   20  H34 UNL     1      -4.737 -11.250  11.670  1.00  0.00     0.209 HD
ENDBRANCH  18  19
ENDBRANCH  17  18
ENDBRANCH  16  17
ENDBRANCH   6  16
BRANCH  12  21
HETATM   21  O5  UNL     1     -10.520  -8.258  10.138  1.00  0.00    -0.389 OA
HETATM   22  H46 UNL     1     -11.046  -7.749   9.497  1.00  0.00     0.210 HD
ENDBRANCH  12  21
BRANCH   1  23
HETATM   23  C14 UNL     1     -11.076  -9.932  15.653  1.00  0.00     0.011 C 
HETATM   24  C12 UNL     1     -10.996  -9.281  16.833  1.00  0.00    -0.063 C 
HETATM   25  C13 UNL     1     -11.246  -7.802  16.984  1.00  0.00     0.048 C 
BRANCH  24  26
HETATM   26  C11 UNL     1     -10.662 -10.048  18.034  1.00  0.00     0.006 C 
HETATM   27  C10 UNL     1     -11.530 -10.580  18.910  1.00  0.00     0.001 C 
BRANCH  27  28
HETATM   28  C9  UNL     1     -11.101 -11.311  20.085  1.00  0.00     0.002 C 
HETATM   29  C7  UNL     1     -10.067 -11.004  20.895  1.00  0.00    -0.084 C 
HETATM   30  C8  UNL     1      -9.201  -9.778  20.761  1.00  0.00     0.043 C 
BRANCH  29  31
HETATM   31  C6  UNL     1      -9.747 -11.903  22.080  1.00  0.00     0.037 C 
BRANCH  31  32
HETATM   32  C5  UNL     1      -8.733 -11.316  23.073  1.00  0.00     0.031 C 
BRANCH  32  33
HETATM   33  C4  UNL     1      -8.886 -11.825  24.481  1.00  0.00    -0.024 C 
HETATM   34  C2  UNL     1      -8.391 -12.966  24.998  1.00  0.00    -0.091 C 
HETATM   35  C1  UNL     1      -7.603 -13.988  24.226  1.00  0.00     0.042 C 
HETATM   36  C3  UNL     1      -8.617 -13.318  26.445  1.00  0.00     0.042 C 
ENDBRANCH  32  33
ENDBRANCH  31  32
ENDBRANCH  29  31
ENDBRANCH  27  28
ENDBRANCH  24  26
ENDBRANCH   1  23
BRANCH   8  37
HETATM   37  C26 UNL     1     -10.262 -13.958  11.705  1.00  0.00     0.265 C 
HETATM   38  O4  UNL     1      -9.061 -13.866  11.935  1.00  0.00    -0.302 OA
ENDBRANCH   8  37
TORSDOF 13
ENDMDL
MODEL 4
REMARK minimizedAffinity -6.57456779
REMARK CNNscore 0.404759794
REMARK CNNaffinity 5.41765261
REMARK  13 active torsions:
REMARK  status: ('A' for Active; 'I' for Inactive)
REMARK    1  A    between atoms: C4_4  and  C5_5 
REMARK    2  A    between atoms: C5_5  and  C6_6 
REMARK    3  A    between atoms: C6_6  and  C7_7 
REMARK    4  A    between atoms: C9_9  and  C10_10 
REMARK    5  A    between atoms: C11_11  and  C12_12 
REMARK    6  A    between atoms: C14_14  and  C15_15 
REMARK    7  A    between atoms: C18_18  and  O1_19 
REMARK    8  A    between atoms: C19_21  and  C20_22 
REMARK    9  A    between atoms: C20_22  and  C21_23 
REMARK   10  A    between atoms: C21_23  and  C22_24 
REMARK   11  A    between atoms: C22_24  and  O3_25 
REMARK   12  A    between atoms: C24_27  and  C26_29 
REMARK   13  A    between atoms: C29_33  and  O5_35 
ROOT
HETATM    1  C15 UNL     1      10.417  12.098  10.644  1.00  0.00     0.149 C 
HETATM    2  C16 UNL     1      10.483  12.962   9.387  1.00  0.00     0.054 C 
HETATM    3  C17 UNL     1      11.877  12.695   8.777  1.00  0.00     0.050 C 
HETATM    4  C18 UNL     1      12.117  11.260   9.296  1.00  0.00     0.270 C 
HETATM    5  O2  UNL     1      11.502  11.163  10.577  1.00  0.00    -0.351 OA
HETATM    6  C19 UNL     1      11.781  12.754   7.205  1.00  0.00     0.032 C 
HETATM    7  C23 UNL     1      11.528  14.198   6.732  1.00  0.00    -0.066 C 
HETATM    8  C24 UNL     1      10.470  14.630   5.998  1.00  0.00    -0.021 C 
HETATM    9  C25 UNL     1      10.313  16.042   5.484  1.00  0.00     0.052 C 
HETATM   10  C27 UNL     1      12.609  15.153   7.216  1.00  0.00     0.038 C 
HETATM   11  C28 UNL     1      12.750  15.117   8.737  1.00  0.00     0.042 C 
HETATM   12  C29 UNL     1      12.970  13.699   9.307  1.00  0.00     0.067 C 
HETATM   13  C30 UNL     1      13.091  13.813  10.835  1.00  0.00     0.047 C 
ENDROOT
BRANCH   4  14
HETATM   14  O1  UNL     1      11.485  10.282   8.477  1.00  0.00    -0.370 OA
HETATM   15  H26 UNL     1      11.694   9.443   8.929  1.00  0.00     0.212 HD
ENDBRANCH   4  14
BRANCH   6  16
HETATM   16  C20 UNL     1      12.988  12.120   6.457  1.00  0.00     0.012 C 
BRANCH  16  17
HETATM   17  C21 UNL     1      13.251  12.709   5.062  1.00  0.00     0.027 C 
BRANCH  17  18
HETATM   18  C22 UNL     1      14.462  12.135   4.329  1.00  0.00     0.164 C 
BRANCH  18  19
HETATM   19  O3  UNL     1      14.178  10.864   3.765  1.00  0.00    -0.401 OA
HETATM   20  H34 UNL     1      13.605  11.012   2.985  1.00  0.00     0.209 HD
ENDBRANCH  18  19
ENDBRANCH  17  18
ENDBRANCH  16  17
ENDBRANCH   6  16
BRANCH  12  21
HETATM   21  O5  UNL     1      14.253  13.241   8.851  1.00  0.00    -0.389 OA
HETATM   22  H46 UNL     1      14.935  13.864   9.157  1.00  0.00     0.210 HD
ENDBRANCH  12  21
BRANCH   1  23
HETATM   23  C14 UNL     1       9.135  11.326  10.766  1.00  0.00     0.011 C 
HETATM   24  C12 UNL     1       8.311  11.261  11.832  1.00  0.00    -0.063 C 
HETATM   25  C13 UNL     1       8.541  12.031  13.108  1.00  0.00     0.048 C 
BRANCH  24  26
HETATM   26  C11 UNL     1       7.122  10.411  11.748  1.00  0.00     0.006 C 
HETATM   27  C10 UNL     1       6.819   9.556  10.758  1.00  0.00     0.001 C 
BRANCH  27  28
HETATM   28  C9  UNL     1       5.604   8.766  10.754  1.00  0.00     0.002 C 
HETATM   29  C7  UNL     1       5.512   7.427  10.883  1.00  0.00    -0.084 C 
HETATM   30  C8  UNL     1       6.674   6.502  11.135  1.00  0.00     0.043 C 
BRANCH  29  31
HETATM   31  C6  UNL     1       4.145   6.759  10.834  1.00  0.00     0.037 C 
BRANCH  31  32
HETATM   32  C5  UNL     1       3.481   6.761   9.449  1.00  0.00     0.031 C 
BRANCH  32  33
HETATM   33  C4  UNL     1       2.141   7.446   9.411  1.00  0.00    -0.024 C 
HETATM   34  C2  UNL     1       1.383   7.701   8.327  1.00  0.00    -0.091 C 
HETATM   35  C1  UNL     1       1.767   7.371   6.912  1.00  0.00     0.042 C 
HETATM   36  C3  UNL     1       0.044   8.377   8.467  1.00  0.00     0.042 C 
ENDBRANCH  32  33
ENDBRANCH  31  32
ENDBRANCH  29  31
ENDBRANCH  27  28
ENDBRANCH  24  26
ENDBRANCH   1  23
BRANCH   8  37
HETATM   37  C26 UNL     1       9.329  13.739   5.608  1.00  0.00     0.265 C 
HETATM   38  O4  UNL     1       9.489  12.641   5.085  1.00  0.00    -0.302 OA
ENDBRANCH   8  37
TORSDOF 13
ENDMDL
MODEL 5
REMARK minimizedAffinity -7.40983295
REMARK CNNscore 0.393298417
REMARK CNNaffinity 6.38111734
REMARK  13 active torsions:
REMARK  status: ('A' for Active; 'I' for Inactive)
REMARK    1  A    between atoms: C4_4  and  C5_5 
REMARK    2  A    between atoms: C5_5  and  C6_6 
REMARK    3  A    between atoms: C6_6  and  C7_7 
REMARK    4  A    between atoms: C9_9  and  C10_10 
REMARK    5  A    between atoms: C11_11  and  C12_12 
REMARK    6  A    between atoms: C14_14  and  C15_15 
REMARK    7  A    between atoms: C18_18  and  O1_19 
REMARK    8  A    between atoms: C19_21  and  C20_22 
REMARK    9  A    between atoms: C20_22  and  C21_23 
REMARK   10  A    between atoms: C21_23  and  C22_24 
REMARK   11  A    between atoms: C22_24  and  O3_25 
REMARK   12  A    between atoms: C24_27  and  C26_29 
REMARK   13  A    between atoms: C29_33  and  O5_35 
ROOT
HETATM    1  C15 UNL     1      -4.723   8.551  13.905  1.00  0.00     0.149 C 
HETATM    2  C16 UNL     1      -3.988   7.413  13.205  1.00  0.00     0.054 C 
HETATM    3  C17 UNL     1      -2.591   7.359  13.862  1.00  0.00     0.050 C 
HETATM    4  C18 UNL     1      -2.938   7.922  15.257  1.00  0.00     0.270 C 
HETATM    5  O2  UNL     1      -3.973   8.885  15.081  1.00  0.00    -0.351 OA
HETATM    6  C19 UNL     1      -2.099   5.863  13.926  1.00  0.00     0.032 C 
HETATM    7  C23 UNL     1      -1.777   5.338  12.514  1.00  0.00    -0.066 C 
HETATM    8  C24 UNL     1      -2.349   4.267  11.904  1.00  0.00    -0.021 C 
HETATM    9  C25 UNL     1      -1.934   3.739  10.552  1.00  0.00     0.052 C 
HETATM   10  C27 UNL     1      -0.731   6.192  11.814  1.00  0.00     0.038 C 
HETATM   11  C28 UNL     1      -1.157   7.657  11.743  1.00  0.00     0.042 C 
HETATM   12  C29 UNL     1      -1.537   8.260  13.113  1.00  0.00     0.067 C 
HETATM   13  C30 UNL     1      -1.945   9.726  12.891  1.00  0.00     0.047 C 
ENDROOT
BRANCH   4  14
HETATM   14  O1  UNL     1      -3.469   6.922  16.121  1.00  0.00    -0.370 OA
HETATM   15  H26 UNL     1      -3.663   7.415  16.940  1.00  0.00     0.212 HD
ENDBRANCH   4  14
BRANCH   6  16
HETATM   16  C20 UNL     1      -0.916   5.611  14.904  1.00  0.00     0.012 C 
BRANCH  16  17
HETATM   17  C21 UNL     1       0.231   6.626  14.787  1.00  0.00     0.027 C 
BRANCH  17  18
HETATM   18  C22 UNL     1       0.641   7.302  16.094  1.00  0.00     0.164 C 
BRANCH  18  19
HETATM   19  O3  UNL     1       1.982   6.995  16.444  1.00  0.00    -0.401 OA
HETATM   20  H34 UNL     1       2.564   7.503  15.842  1.00  0.00     0.209 HD
ENDBRANCH  18  19
ENDBRANCH  17  18
ENDBRANCH  16  17
ENDBRANCH   6  16
BRANCH  12  21
HETATM   21  O5  UNL     1      -0.344   8.308  13.913  1.00  0.00    -0.389 OA
HETATM   22  H46 UNL     1       0.321   8.848  13.452  1.00  0.00     0.210 HD
ENDBRANCH  12  21
BRANCH   1  23
HETATM   23  C14 UNL     1      -6.119   8.187  14.324  1.00  0.00     0.011 C 
HETATM   24  C12 UNL     1      -6.688   6.963  14.313  1.00  0.00    -0.063 C 
HETATM   25  C13 UNL     1      -5.957   5.710  13.903  1.00  0.00     0.048 C 
BRANCH  24  26
HETATM   26  C11 UNL     1      -8.085   6.837  14.731  1.00  0.00     0.006 C 
HETATM   27  C10 UNL     1      -9.162   6.827  13.929  1.00  0.00     0.001 C 
BRANCH  27  28
HETATM   28  C9  UNL     1     -10.514   6.715  14.440  1.00  0.00     0.002 C 
HETATM   29  C7  UNL     1     -11.613   7.330  13.956  1.00  0.00    -0.084 C 
HETATM   30  C8  UNL     1     -11.644   8.202  12.727  1.00  0.00     0.043 C 
BRANCH  29  31
HETATM   31  C6  UNL     1     -12.957   7.113  14.636  1.00  0.00     0.037 C 
BRANCH  31  32
HETATM   32  C5  UNL     1     -13.658   5.799  14.263  1.00  0.00     0.031 C 
BRANCH  32  33
HETATM   33  C4  UNL     1     -15.160   5.889  14.243  1.00  0.00    -0.024 C 
HETATM   34  C2  UNL     1     -15.934   6.459  13.298  1.00  0.00    -0.091 C 
HETATM   35  C1  UNL     1     -15.418   7.164  12.075  1.00  0.00     0.042 C 
HETATM   36  C3  UNL     1     -17.435   6.440  13.419  1.00  0.00     0.042 C 
ENDBRANCH  32  33
ENDBRANCH  31  32
ENDBRANCH  29  31
ENDBRANCH  27  28
ENDBRANCH  24  26
ENDBRANCH   1  23
BRANCH   8  37
HETATM   37  C26 UNL     1      -3.466   3.478  12.519  1.00  0.00     0.265 C 
HETATM   38  O4  UNL     1      -3.657   2.291  12.276  1.00  0.00    -0.302 OA
ENDBRANCH   8  37
TORSDOF 13
ENDMDL
MODEL 6
REMARK minimizedAffinity -5.9525156
REMARK CNNscore 0.381912261
REMARK CNNaffinity 5.47832918
REMARK  13 active torsions:
REMARK  status: ('A' for Active; 'I' for Inactive)
REMARK    1  A    between atoms: C4_4  and  C5_5 
REMARK    2  A    between atoms: C5_5  and  C6_6 
REMARK    3  A    between atoms: C6_6  and  C7_7 
REMARK    4  A    between atoms: C9_9  and  C10_10 
REMARK    5  A    between atoms: C11_11  and  C12_12 
REMARK    6  A    between atoms: C14_14  and  C15_15 
REMARK    7  A    between atoms: C18_18  and  O1_19 
REMARK    8  A    between atoms: C19_21  and  C20_22 
REMARK    9  A    between atoms: C20_22  and  C21_23 
REMARK   10  A    between atoms: C21_23  and  C22_24 
REMARK   11  A    between atoms: C22_24  and  O3_25 
REMARK   12  A    between atoms: C24_27  and  C26_29 
REMARK   13  A    between atoms: C29_33  and  O5_35 
ROOT
HETATM    1  C15 UNL     1     -15.663   5.960  25.091  1.00  0.00     0.149 C 
HETATM    2  C16 UNL     1     -15.366   5.098  26.315  1.00  0.00     0.054 C 
HETATM    3  C17 UNL     1     -15.180   3.664  25.773  1.00  0.00     0.050 C 
HETATM    4  C18 UNL     1     -14.680   3.987  24.348  1.00  0.00     0.270 C 
HETATM    5  O2  UNL     1     -15.329   5.185  23.931  1.00  0.00    -0.351 OA
HETATM    6  C19 UNL     1     -14.091   2.916  26.634  1.00  0.00     0.032 C 
HETATM    7  C23 UNL     1     -14.626   2.625  28.048  1.00  0.00    -0.066 C 
HETATM    8  C24 UNL     1     -14.080   3.050  29.218  1.00  0.00    -0.021 C 
HETATM    9  C25 UNL     1     -14.593   2.664  30.584  1.00  0.00     0.052 C 
HETATM   10  C27 UNL     1     -15.906   1.805  28.016  1.00  0.00     0.038 C 
HETATM   11  C28 UNL     1     -16.987   2.484  27.177  1.00  0.00     0.042 C 
HETATM   12  C29 UNL     1     -16.528   2.848  25.749  1.00  0.00     0.067 C 
HETATM   13  C30 UNL     1     -17.706   3.522  25.026  1.00  0.00     0.047 C 
ENDROOT
BRANCH   4  14
HETATM   14  O1  UNL     1     -13.283   4.263  24.321  1.00  0.00    -0.370 OA
HETATM   15  H26 UNL     1     -13.115   4.472  23.383  1.00  0.00     0.212 HD
ENDBRANCH   4  14
BRANCH   6  16
HETATM   16  C20 UNL     1     -13.515   1.630  25.974  1.00  0.00     0.012 C 
BRANCH  16  17
HETATM   17  C21 UNL     1     -11.988   1.491  26.084  1.00  0.00     0.027 C 
BRANCH  17  18
HETATM   18  C22 UNL     1     -11.249   1.341  24.756  1.00  0.00     0.164 C 
BRANCH  18  19
HETATM   19  O3  UNL     1     -12.053   1.751  23.660  1.00  0.00    -0.401 OA
HETATM   20  H34 UNL     1     -12.097   2.729  23.681  1.00  0.00     0.209 HD
ENDBRANCH  18  19
ENDBRANCH  17  18
ENDBRANCH  16  17
ENDBRANCH   6  16
BRANCH  12  21
HETATM   21  O5  UNL     1     -16.292   1.620  25.041  1.00  0.00    -0.389 OA
HETATM   22  H46 UNL     1     -17.114   1.099  25.035  1.00  0.00     0.210 HD
ENDBRANCH  12  21
BRANCH   1  23
HETATM   23  C14 UNL     1     -14.864   7.232  25.054  1.00  0.00     0.011 C 
HETATM   24  C12 UNL     1     -15.259   8.463  25.441  1.00  0.00    -0.063 C 
HETATM   25  C13 UNL     1     -16.611   8.751  26.042  1.00  0.00     0.048 C 
BRANCH  24  26
HETATM   26  C11 UNL     1     -14.325   9.579  25.283  1.00  0.00     0.006 C 
HETATM   27  C10 UNL     1     -13.024   9.493  24.959  1.00  0.00     0.001 C 
BRANCH  27  28
HETATM   28  C9  UNL     1     -12.171  10.659  24.843  1.00  0.00     0.002 C 
HETATM   29  C7  UNL     1     -11.177  10.846  23.951  1.00  0.00    -0.084 C 
HETATM   30  C8  UNL     1     -10.818   9.888  22.845  1.00  0.00     0.043 C 
BRANCH  29  31
HETATM   31  C6  UNL     1     -10.364  12.133  23.990  1.00  0.00     0.037 C 
BRANCH  31  32
HETATM   32  C5  UNL     1      -9.530  12.401  22.729  1.00  0.00     0.031 C 
BRANCH  32  33
HETATM   33  C4  UNL     1      -8.103  12.790  23.007  1.00  0.00    -0.024 C 
HETATM   34  C2  UNL     1      -7.200  13.273  22.131  1.00  0.00    -0.091 C 
HETATM   35  C1  UNL     1      -7.453  13.482  20.664  1.00  0.00     0.042 C 
HETATM   36  C3  UNL     1      -5.811  13.639  22.581  1.00  0.00     0.042 C 
ENDBRANCH  32  33
ENDBRANCH  31  32
ENDBRANCH  29  31
ENDBRANCH  27  28
ENDBRANCH  24  26
ENDBRANCH   1  23
BRANCH   8  37
HETATM   37  C26 UNL     1     -12.889   3.959  29.279  1.00  0.00     0.265 C 
HETATM   38  O4  UNL     1     -11.734   3.550  29.220  1.00  0.00    -0.302 OA
ENDBRANCH   8  37
TORSDOF 13
ENDMDL
MODEL 7
REMARK minimizedAffinity -5.86623144
REMARK CNNscore 0.362879723
REMARK CNNaffinity 5.96388626
REMARK  13 active torsions:
REMARK  status: ('A' for Active; 'I' for Inactive)
REMARK    1  A    between atoms: C4_4  and  C5_5 
REMARK    2  A    between atoms: C5_5  and  C6_6 
REMARK    3  A    between atoms: C6_6  and  C7_7 
REMARK    4  A    between atoms: C9_9  and  C10_10 
REMARK    5  A    between atoms: C11_11  and  C12_12 
REMARK    6  A    between atoms: C14_14  and  C15_15 
REMARK    7  A    between atoms: C18_18  and  O1_19 
REMARK    8  A    between atoms: C19_21  and  C20_22 
REMARK    9  A    between atoms: C20_22  and  C21_23 
REMARK   10  A    between atoms: C21_23  and  C22_24 
REMARK   11  A    between atoms: C22_24  and  O3_25 
REMARK   12  A    between atoms: C24_27  and  C26_29 
REMARK   13  A    between atoms: C29_33  and  O5_35 
ROOT
HETATM    1  C15 UNL     1     -14.128   9.481  17.999  1.00  0.00     0.149 C 
HETATM    2  C16 UNL     1     -14.451   8.844  16.650  1.00  0.00     0.054 C 
HETATM    3  C17 UNL     1     -13.467   9.484  15.647  1.00  0.00     0.050 C 
HETATM    4  C18 UNL     1     -12.299   9.813  16.602  1.00  0.00     0.270 C 
HETATM    5  O2  UNL     1     -12.864  10.145  17.867  1.00  0.00    -0.351 OA
HETATM    6  C19 UNL     1     -13.066   8.420  14.555  1.00  0.00     0.032 C 
HETATM    7  C23 UNL     1     -14.260   8.113  13.634  1.00  0.00    -0.066 C 
HETATM    8  C24 UNL     1     -14.831   6.895  13.436  1.00  0.00    -0.021 C 
HETATM    9  C25 UNL     1     -15.947   6.631  12.454  1.00  0.00     0.052 C 
HETATM   10  C27 UNL     1     -14.795   9.366  12.957  1.00  0.00     0.038 C 
HETATM   11  C28 UNL     1     -15.182  10.434  13.978  1.00  0.00     0.042 C 
HETATM   12  C29 UNL     1     -14.053  10.782  14.971  1.00  0.00     0.067 C 
HETATM   13  C30 UNL     1     -14.579  11.859  15.933  1.00  0.00     0.047 C 
ENDROOT
BRANCH   4  14
HETATM   14  O1  UNL     1     -11.458   8.686  16.827  1.00  0.00    -0.370 OA
HETATM   15  H26 UNL     1     -10.793   9.025  17.456  1.00  0.00     0.212 HD
ENDBRANCH   4  14
BRANCH   6  16
HETATM   16  C20 UNL     1     -11.798   8.784  13.730  1.00  0.00     0.012 C 
BRANCH  16  17
HETATM   17  C21 UNL     1     -11.021   7.573  13.193  1.00  0.00     0.027 C 
BRANCH  17  18
HETATM   18  C22 UNL     1      -9.855   7.107  14.064  1.00  0.00     0.164 C 
BRANCH  18  19
HETATM   19  O3  UNL     1     -10.308   6.484  15.256  1.00  0.00    -0.401 OA
HETATM   20  H34 UNL     1     -10.654   5.602  15.011  1.00  0.00     0.209 HD
ENDBRANCH  18  19
ENDBRANCH  17  18
ENDBRANCH  16  17
ENDBRANCH   6  16
BRANCH  12  21
HETATM   21  O5  UNL     1     -12.997  11.411  14.227  1.00  0.00    -0.389 OA
HETATM   22  H46 UNL     1     -13.351  12.205  13.791  1.00  0.00     0.210 HD
ENDBRANCH  12  21
BRANCH   1  23
HETATM   23  C14 UNL     1     -14.022   8.482  19.116  1.00  0.00     0.011 C 
HETATM   24  C12 UNL     1     -15.020   7.775  19.685  1.00  0.00    -0.063 C 
HETATM   25  C13 UNL     1     -16.456   7.851  19.232  1.00  0.00     0.048 C 
BRANCH  24  26
HETATM   26  C11 UNL     1     -14.696   6.876  20.794  1.00  0.00     0.006 C 
HETATM   27  C10 UNL     1     -15.173   5.635  20.983  1.00  0.00     0.001 C 
BRANCH  27  28
HETATM   28  C9  UNL     1     -14.807   4.823  22.126  1.00  0.00     0.002 C 
HETATM   29  C7  UNL     1     -15.611   4.456  23.145  1.00  0.00    -0.084 C 
HETATM   30  C8  UNL     1     -17.082   4.767  23.240  1.00  0.00     0.043 C 
BRANCH  29  31
HETATM   31  C6  UNL     1     -15.047   3.614  24.281  1.00  0.00     0.037 C 
BRANCH  31  32
HETATM   32  C5  UNL     1     -13.579   3.902  24.624  1.00  0.00     0.031 C 
BRANCH  32  33
HETATM   33  C4  UNL     1     -12.644   2.758  24.335  1.00  0.00    -0.024 C 
HETATM   34  C2  UNL     1     -12.130   1.878  25.217  1.00  0.00    -0.091 C 
HETATM   35  C1  UNL     1     -12.376   1.905  26.700  1.00  0.00     0.042 C 
HETATM   36  C3  UNL     1     -11.223   0.768  24.756  1.00  0.00     0.042 C 
ENDBRANCH  32  33
ENDBRANCH  31  32
ENDBRANCH  29  31
ENDBRANCH  27  28
ENDBRANCH  24  26
ENDBRANCH   1  23
BRANCH   8  37
HETATM   37  C26 UNL     1     -14.406   5.664  14.179  1.00  0.00     0.265 C 
HETATM   38  O4  UNL     1     -15.196   4.800  14.543  1.00  0.00    -0.302 OA
ENDBRANCH   8  37
TORSDOF 13
ENDMDL
MODEL 8
REMARK minimizedAffinity -6.05131149
REMARK CNNscore 0.357067257
REMARK CNNaffinity 5.99551344
REMARK  13 active torsions:
REMARK  status: ('A' for Active; 'I' for Inactive)
REMARK    1  A    between atoms: C4_4  and  C5_5 
REMARK    2  A    between atoms: C5_5  and  C6_6 
REMARK    3  A    between atoms: C6_6  and  C7_7 
REMARK    4  A    between atoms: C9_9  and  C10_10 
REMARK    5  A    between atoms: C11_11  and  C12_12 
REMARK    6  A    between atoms: C14_14  and  C15_15 
REMARK    7  A    between atoms: C18_18  and  O1_19 
REMARK    8  A    between atoms: C19_21  and  C20_22 
REMARK    9  A    between atoms: C20_22  and  C21_23 
REMARK   10  A    between atoms: C21_23  and  C22_24 
REMARK   11  A    between atoms: C22_24  and  O3_25 
REMARK   12  A    between atoms: C24_27  and  C26_29 
REMARK   13  A    between atoms: C29_33  and  O5_35 
ROOT
HETATM    1  C15 UNL     1      -4.798  -9.559   7.507  1.00  0.00     0.149 C 
HETATM    2  C16 UNL     1      -5.362  -9.706   6.097  1.00  0.00     0.054 C 
HETATM    3  C17 UNL     1      -4.420 -10.697   5.378  1.00  0.00     0.050 C 
HETATM    4  C18 UNL     1      -3.921 -11.509   6.593  1.00  0.00     0.270 C 
HETATM    5  O2  UNL     1      -3.850 -10.617   7.702  1.00  0.00    -0.351 OA
HETATM    6  C19 UNL     1      -5.254 -11.577   4.372  1.00  0.00     0.032 C 
HETATM    7  C23 UNL     1      -5.742 -10.726   3.184  1.00  0.00    -0.066 C 
HETATM    8  C24 UNL     1      -7.034 -10.531   2.811  1.00  0.00    -0.021 C 
HETATM    9  C25 UNL     1      -7.456  -9.758   1.585  1.00  0.00     0.052 C 
HETATM   10  C27 UNL     1      -4.589 -10.060   2.449  1.00  0.00     0.038 C 
HETATM   11  C28 UNL     1      -3.739  -9.207   3.391  1.00  0.00     0.042 C 
HETATM   12  C29 UNL     1      -3.235  -9.971   4.635  1.00  0.00     0.067 C 
HETATM   13  C30 UNL     1      -2.405  -8.997   5.487  1.00  0.00     0.047 C 
ENDROOT
BRANCH   4  14
HETATM   14  O1  UNL     1      -4.840 -12.532   6.966  1.00  0.00    -0.370 OA
HETATM   15  H26 UNL     1      -4.417 -12.938   7.746  1.00  0.00     0.212 HD
ENDBRANCH   4  14
BRANCH   6  16
HETATM   16  C20 UNL     1      -4.531 -12.864   3.882  1.00  0.00     0.012 C 
BRANCH  16  17
HETATM   17  C21 UNL     1      -5.470 -13.951   3.336  1.00  0.00     0.027 C 
BRANCH  17  18
HETATM   18  C22 UNL     1      -5.699 -15.141   4.265  1.00  0.00     0.164 C 
BRANCH  18  19
HETATM   19  O3  UNL     1      -5.807 -14.735   5.621  1.00  0.00    -0.401 OA
HETATM   20  H34 UNL     1      -6.682 -14.309   5.729  1.00  0.00     0.209 HD
ENDBRANCH  18  19
ENDBRANCH  17  18
ENDBRANCH  16  17
ENDBRANCH   6  16
BRANCH  12  21
HETATM   21  O5  UNL     1      -2.312 -10.975   4.184  1.00  0.00    -0.389 OA
HETATM   22  H46 UNL     1      -1.584 -10.539   3.707  1.00  0.00     0.210 HD
ENDBRANCH  12  21
BRANCH   1  23
HETATM   23  C14 UNL     1      -5.845  -9.662   8.579  1.00  0.00     0.011 C 
HETATM   24  C12 UNL     1      -5.655  -9.723   9.914  1.00  0.00    -0.063 C 
HETATM   25  C13 UNL     1      -4.296  -9.645  10.563  1.00  0.00     0.048 C 
BRANCH  24  26
HETATM   26  C11 UNL     1      -6.825  -9.859  10.782  1.00  0.00     0.006 C 
HETATM   27  C10 UNL     1      -6.854  -9.697  12.116  1.00  0.00     0.001 C 
BRANCH  27  28
HETATM   28  C9  UNL     1      -8.062  -9.872  12.896  1.00  0.00     0.002 C 
HETATM   29  C7  UNL     1      -8.518 -11.023  13.432  1.00  0.00    -0.084 C 
HETATM   30  C8  UNL     1      -7.798 -12.345  13.377  1.00  0.00     0.043 C 
BRANCH  29  31
HETATM   31  C6  UNL     1      -9.827 -11.024  14.209  1.00  0.00     0.037 C 
BRANCH  31  32
HETATM   32  C5  UNL     1      -9.761 -10.325  15.575  1.00  0.00     0.031 C 
BRANCH  32  33
HETATM   33  C4  UNL     1     -10.840  -9.299  15.792  1.00  0.00    -0.024 C 
HETATM   34  C2  UNL     1     -10.985  -8.475  16.849  1.00  0.00    -0.091 C 
HETATM   35  C1  UNL     1     -10.088  -8.458  18.055  1.00  0.00     0.042 C 
HETATM   36  C3  UNL     1     -12.115  -7.481  16.899  1.00  0.00     0.042 C 
ENDBRANCH  32  33
ENDBRANCH  31  32
ENDBRANCH  29  31
ENDBRANCH  27  28
ENDBRANCH  24  26
ENDBRANCH   1  23
BRANCH   8  37
HETATM   37  C26 UNL     1      -8.197 -11.074   3.585  1.00  0.00     0.265 C 
HETATM   38  O4  UNL     1      -8.664 -10.511   4.570  1.00  0.00    -0.302 OA
ENDBRANCH   8  37
TORSDOF 13
ENDMDL
MODEL 9
REMARK minimizedAffinity -6.79874277
REMARK CNNscore 0.317544907
REMARK CNNaffinity 6.02261019
REMARK  13 active torsions:
REMARK  status: ('A' for Active; 'I' for Inactive)
REMARK    1  A    between atoms: C4_4  and  C5_5 
REMARK    2  A    between atoms: C5_5  and  C6_6 
REMARK    3  A    between atoms: C6_6  and  C7_7 
REMARK    4  A    between atoms: C9_9  and  C10_10 
REMARK    5  A    between atoms: C11_11  and  C12_12 
REMARK    6  A    between atoms: C14_14  and  C15_15 
REMARK    7  A    between atoms: C18_18  and  O1_19 
REMARK    8  A    between atoms: C19_21  and  C20_22 
REMARK    9  A    between atoms: C20_22  and  C21_23 
REMARK   10  A    between atoms: C21_23  and  C22_24 
REMARK   11  A    between atoms: C22_24  and  O3_25 
REMARK   12  A    between atoms: C24_27  and  C26_29 
REMARK   13  A    between atoms: C29_33  and  O5_35 
ROOT
HETATM    1  C15 UNL     1     -12.219  10.173  17.989  1.00  0.00     0.149 C 
HETATM    2  C16 UNL     1     -12.790   9.456  16.769  1.00  0.00     0.054 C 
HETATM    3  C17 UNL     1     -11.684   9.526  15.694  1.00  0.00     0.050 C 
HETATM    4  C18 UNL     1     -10.440   9.597  16.606  1.00  0.00     0.270 C 
HETATM    5  O2  UNL     1     -10.809  10.325  17.774  1.00  0.00    -0.351 OA
HETATM    6  C19 UNL     1     -11.714   8.212  14.824  1.00  0.00     0.032 C 
HETATM    7  C23 UNL     1     -12.975   8.176  13.941  1.00  0.00    -0.066 C 
HETATM    8  C24 UNL     1     -13.937   7.216  13.951  1.00  0.00    -0.021 C 
HETATM    9  C25 UNL     1     -15.111   7.181  13.002  1.00  0.00     0.052 C 
HETATM   10  C27 UNL     1     -13.070   9.394  13.034  1.00  0.00     0.038 C 
HETATM   11  C28 UNL     1     -13.027  10.695  13.834  1.00  0.00     0.042 C 
HETATM   12  C29 UNL     1     -11.812  10.803  14.779  1.00  0.00     0.067 C 
HETATM   13  C30 UNL     1     -11.899  12.149  15.515  1.00  0.00     0.047 C 
ENDROOT
BRANCH   4  14
HETATM   14  O1  UNL     1     -10.031   8.308  17.054  1.00  0.00    -0.370 OA
HETATM   15  H26 UNL     1      -9.268   8.504  17.630  1.00  0.00     0.212 HD
ENDBRANCH   4  14
BRANCH   6  16
HETATM   16  C20 UNL     1     -10.430   7.962  13.982  1.00  0.00     0.012 C 
BRANCH  16  17
HETATM   17  C21 UNL     1      -9.738   6.619  14.264  1.00  0.00     0.027 C 
BRANCH  17  18
HETATM   18  C22 UNL     1      -9.020   5.992  13.071  1.00  0.00     0.164 C 
BRANCH  18  19
HETATM   19  O3  UNL     1      -8.852   4.592  13.238  1.00  0.00    -0.401 OA
HETATM   20  H34 UNL     1      -9.728   4.175  13.104  1.00  0.00     0.209 HD
ENDBRANCH  18  19
ENDBRANCH  17  18
ENDBRANCH  16  17
ENDBRANCH   6  16
BRANCH  12  21
HETATM   21  O5  UNL     1     -10.632  10.885  13.963  1.00  0.00    -0.389 OA
HETATM   22  H46 UNL     1     -10.707  11.660  13.380  1.00  0.00     0.210 HD
ENDBRANCH  12  21
BRANCH   1  23
HETATM   23  C14 UNL     1     -12.421   9.416  19.270  1.00  0.00     0.011 C 
HETATM   24  C12 UNL     1     -12.134   9.827  20.523  1.00  0.00    -0.063 C 
HETATM   25  C13 UNL     1     -11.583  11.193  20.843  1.00  0.00     0.048 C 
BRANCH  24  26
HETATM   26  C11 UNL     1     -12.380   8.907  21.635  1.00  0.00     0.006 C 
HETATM   27  C10 UNL     1     -13.214   7.855  21.633  1.00  0.00     0.001 C 
BRANCH  27  28
HETATM   28  C9  UNL     1     -13.405   7.009  22.793  1.00  0.00     0.002 C 
HETATM   29  C7  UNL     1     -13.796   5.718  22.795  1.00  0.00    -0.084 C 
HETATM   30  C8  UNL     1     -14.037   4.887  21.562  1.00  0.00     0.043 C 
BRANCH  29  31
HETATM   31  C6  UNL     1     -13.967   4.986  24.119  1.00  0.00     0.037 C 
BRANCH  31  32
HETATM   32  C5  UNL     1     -13.646   3.485  24.066  1.00  0.00     0.031 C 
BRANCH  32  33
HETATM   33  C4  UNL     1     -13.313   2.881  25.404  1.00  0.00    -0.024 C 
HETATM   34  C2  UNL     1     -12.321   2.013  25.686  1.00  0.00    -0.091 C 
HETATM   35  C1  UNL     1     -11.362   1.446  24.677  1.00  0.00     0.042 C 
HETATM   36  C3  UNL     1     -12.108   1.521  27.094  1.00  0.00     0.042 C 
ENDBRANCH  32  33
ENDBRANCH  31  32
ENDBRANCH  29  31
ENDBRANCH  27  28
ENDBRANCH  24  26
ENDBRANCH   1  23
BRANCH   8  37
HETATM   37  C26 UNL     1     -13.935   6.068  14.915  1.00  0.00     0.265 C 
HETATM   38  O4  UNL     1     -14.073   4.902  14.563  1.00  0.00    -0.302 OA
ENDBRANCH   8  37
TORSDOF 13
ENDMDL
