MODEL 1
REMARK minimizedAffinity -8.07347393
REMARK CNNscore 0.49248296
REMARK CNNaffinity 6.39088011
REMARK  7 active torsions:
REMARK  status: ('A' for Active; 'I' for Inactive)
REMARK    1  A    between atoms: C2_2  and  C4_4 
REMARK    2  A    between atoms: C7_7  and  O1_9 
REMARK    3  A    between atoms: C9_10  and  C10_11 
REMARK    4  A    between atoms: C11_12  and  C12_13 
REMARK    5  A    between atoms: C14_15  and  C15_16 
REMARK    6  A    between atoms: C24_26  and  C26_28 
REMARK    7  A    between atoms: C29_32  and  O4_34 
ROOT
HETATM    1  C15 UNL     1       7.390   7.594  13.264  1.00  0.00     0.149 C 
HETATM    2  C16 UNL     1       7.238   8.149  14.686  1.00  0.00     0.054 C 
HETATM    3  C17 UNL     1       8.015   9.500  14.706  1.00  0.00     0.050 C 
HETATM    4  C18 UNL     1       9.053   9.148  13.622  1.00  0.00     0.272 C 
HETATM    5  O2  UNL     1       9.853  10.185  13.106  1.00  0.00    -0.360 OA
HETATM    6  C19 UNL     1       9.191  11.091  12.248  1.00  0.00     0.171 C 
HETATM    7  C20 UNL     1       8.734  12.304  13.025  1.00  0.00     0.027 C 
HETATM    8  C21 UNL     1       7.598  12.090  14.020  1.00  0.00     0.012 C 
HETATM    9  C22 UNL     1       7.039  10.663  14.267  1.00  0.00     0.032 C 
HETATM   10  C23 UNL     1       5.896  10.821  15.304  1.00  0.00    -0.066 C 
HETATM   11  C24 UNL     1       4.578  10.823  14.963  1.00  0.00    -0.021 C 
HETATM   12  C25 UNL     1       4.038  10.684  13.561  1.00  0.00     0.052 C 
HETATM   13  C27 UNL     1       6.427  11.017  16.719  1.00  0.00     0.038 C 
HETATM   14  C28 UNL     1       7.474   9.988  17.142  1.00  0.00     0.042 C 
HETATM   15  C29 UNL     1       8.618   9.806  16.119  1.00  0.00     0.067 C 
HETATM   16  C30 UNL     1       9.591   8.746  16.670  1.00  0.00     0.047 C 
HETATM   17  O5  UNL     1       8.331   8.446  12.592  1.00  0.00    -0.351 OA
ENDROOT
BRANCH   1  18
HETATM   18  C14 UNL     1       6.109   7.604  12.486  1.00  0.00     0.011 C 
HETATM   19  C12 UNL     1       5.705   6.762  11.508  1.00  0.00    -0.064 C 
HETATM   20  C13 UNL     1       6.527   5.612  10.985  1.00  0.00     0.048 C 
BRANCH  19  21
HETATM   21  C11 UNL     1       4.369   6.964  10.947  1.00  0.00     0.003 C 
HETATM   22  C10 UNL     1       3.462   6.013  10.670  1.00  0.00    -0.018 C 
BRANCH  22  23
HETATM   23  C9  UNL     1       2.061   6.247  10.136  1.00  0.00     0.050 C 
HETATM   24  C4  UNL     1       1.759   7.639   9.510  1.00  0.00     0.024 C 
HETATM   25  C5  UNL     1       0.230   7.736   9.593  1.00  0.00     0.013 C 
HETATM   26  C6  UNL     1      -0.053   7.214  10.997  1.00  0.00     0.039 C 
HETATM   27  C7  UNL     1       0.895   6.007  11.157  1.00  0.00     0.062 C 
HETATM   28  C8  UNL     1       1.291   5.823  12.623  1.00  0.00     0.046 C 
BRANCH  24  29
HETATM   29  C2  UNL     1       2.330   7.850   8.117  1.00  0.00    -0.088 C 
HETATM   30  C1  UNL     1       3.162   8.878   7.857  1.00  0.00     0.014 C 
HETATM   31  C3  UNL     1       1.941   6.887   7.024  1.00  0.00     0.043 C 
ENDBRANCH  24  29
BRANCH  27  32
HETATM   32  O1  UNL     1       0.170   4.835  10.751  1.00  0.00    -0.390 OA
HETATM   33  H14 UNL     1       0.760   4.069  10.865  1.00  0.00     0.210 HD
ENDBRANCH  27  32
ENDBRANCH  22  23
ENDBRANCH  19  21
ENDBRANCH   1  18
BRANCH  15  34
HETATM   34  O4  UNL     1       9.369  11.025  16.070  1.00  0.00    -0.389 OA
HETATM   35  H44 UNL     1       9.760  11.186  16.947  1.00  0.00     0.210 HD
ENDBRANCH  15  34
BRANCH  11  36
HETATM   36  C26 UNL     1       3.469  10.954  15.966  1.00  0.00     0.265 C 
HETATM   37  O3  UNL     1       3.112  10.026  16.685  1.00  0.00    -0.302 OA
ENDBRANCH  11  36
TORSDOF 7
ENDMDL
MODEL 2
REMARK minimizedAffinity -6.64767551
REMARK CNNscore 0.42376703
REMARK CNNaffinity 6.36659384
REMARK  7 active torsions:
REMARK  status: ('A' for Active; 'I' for Inactive)
REMARK    1  A    between atoms: C2_2  and  C4_4 
REMARK    2  A    between atoms: C7_7  and  O1_9 
REMARK    3  A    between atoms: C9_10  and  C10_11 
REMARK    4  A    between atoms: C11_12  and  C12_13 
REMARK    5  A    between atoms: C14_15  and  C15_16 
REMARK    6  A    between atoms: C24_26  and  C26_28 
REMARK    7  A    between atoms: C29_32  and  O4_34 
ROOT
HETATM    1  C15 UNL     1     -14.831   8.548  25.892  1.00  0.00     0.149 C 
HETATM    2  C16 UNL     1     -15.416   8.985  24.543  1.00  0.00     0.054 C 
HETATM    3  C17 UNL     1     -14.254   9.691  23.780  1.00  0.00     0.050 C 
HETATM    4  C18 UNL     1     -13.484  10.198  25.016  1.00  0.00     0.272 C 
HETATM    5  O2  UNL     1     -12.187  10.709  24.827  1.00  0.00    -0.360 OA
HETATM    6  C19 UNL     1     -11.192   9.747  24.542  1.00  0.00     0.171 C 
HETATM    7  C20 UNL     1     -10.988   9.636  23.048  1.00  0.00     0.027 C 
HETATM    8  C21 UNL     1     -12.124   9.009  22.248  1.00  0.00     0.012 C 
HETATM    9  C22 UNL     1     -13.448   8.611  22.955  1.00  0.00     0.032 C 
HETATM   10  C23 UNL     1     -14.353   7.990  21.860  1.00  0.00    -0.066 C 
HETATM   11  C24 UNL     1     -14.522   6.648  21.707  1.00  0.00    -0.021 C 
HETATM   12  C25 UNL     1     -13.868   5.583  22.552  1.00  0.00     0.052 C 
HETATM   13  C27 UNL     1     -14.980   9.051  20.962  1.00  0.00     0.038 C 
HETATM   14  C28 UNL     1     -15.661  10.189  21.721  1.00  0.00     0.042 C 
HETATM   15  C29 UNL     1     -14.780  10.816  22.826  1.00  0.00     0.067 C 
HETATM   16  C30 UNL     1     -15.589  11.939  23.505  1.00  0.00     0.047 C 
HETATM   17  O5  UNL     1     -13.519   9.125  25.975  1.00  0.00    -0.351 OA
ENDROOT
BRANCH   1  18
HETATM   18  C14 UNL     1     -14.700   7.060  26.024  1.00  0.00     0.011 C 
HETATM   19  C12 UNL     1     -15.610   6.101  25.744  1.00  0.00    -0.064 C 
HETATM   20  C13 UNL     1     -17.004   6.375  25.239  1.00  0.00     0.048 C 
BRANCH  19  21
HETATM   21  C11 UNL     1     -15.201   4.706  25.911  1.00  0.00     0.003 C 
HETATM   22  C10 UNL     1     -13.958   4.259  26.157  1.00  0.00    -0.018 C 
BRANCH  22  23
HETATM   23  C9  UNL     1     -13.561   2.811  26.378  1.00  0.00     0.050 C 
HETATM   24  C4  UNL     1     -12.614   2.505  27.573  1.00  0.00     0.024 C 
HETATM   25  C5  UNL     1     -11.999   1.151  27.195  1.00  0.00     0.013 C 
HETATM   26  C6  UNL     1     -11.677   1.342  25.717  1.00  0.00     0.039 C 
HETATM   27  C7  UNL     1     -12.901   2.092  25.151  1.00  0.00     0.062 C 
HETATM   28  C8  UNL     1     -12.493   2.978  23.972  1.00  0.00     0.046 C 
BRANCH  24  29
HETATM   29  C2  UNL     1     -13.279   2.535  28.940  1.00  0.00    -0.088 C 
HETATM   30  C1  UNL     1     -14.557   2.139  29.096  1.00  0.00     0.014 C 
HETATM   31  C3  UNL     1     -12.481   3.027  30.121  1.00  0.00     0.043 C 
ENDBRANCH  24  29
BRANCH  27  32
HETATM   32  O1  UNL     1     -13.819   1.103  24.656  1.00  0.00    -0.390 OA
HETATM   33  H14 UNL     1     -14.587   1.573  24.283  1.00  0.00     0.210 HD
ENDBRANCH  27  32
ENDBRANCH  22  23
ENDBRANCH  19  21
ENDBRANCH   1  18
BRANCH  15  34
HETATM   34  O4  UNL     1     -13.674  11.472  22.194  1.00  0.00    -0.389 OA
HETATM   35  H44 UNL     1     -14.016  12.185  21.628  1.00  0.00     0.210 HD
ENDBRANCH  15  34
BRANCH  11  36
HETATM   36  C26 UNL     1     -15.414   6.045  20.662  1.00  0.00     0.265 C 
HETATM   37  O3  UNL     1     -16.422   5.401  20.941  1.00  0.00    -0.302 OA
ENDBRANCH  11  36
TORSDOF 7
ENDMDL
MODEL 3
REMARK minimizedAffinity -8.37826824
REMARK CNNscore 0.418310344
REMARK CNNaffinity 6.66956568
REMARK  7 active torsions:
REMARK  status: ('A' for Active; 'I' for Inactive)
REMARK    1  A    between atoms: C2_2  and  C4_4 
REMARK    2  A    between atoms: C7_7  and  O1_9 
REMARK    3  A    between atoms: C9_10  and  C10_11 
REMARK    4  A    between atoms: C11_12  and  C12_13 
REMARK    5  A    between atoms: C14_15  and  C15_16 
REMARK    6  A    between atoms: C24_26  and  C26_28 
REMARK    7  A    between atoms: C29_32  and  O4_34 
ROOT
HETATM    1  C15 UNL     1       0.882   4.803  11.810  1.00  0.00     0.149 C 
HETATM    2  C16 UNL     1       1.637   5.956  12.481  1.00  0.00     0.054 C 
HETATM    3  C17 UNL     1       2.162   6.859  11.323  1.00  0.00     0.050 C 
HETATM    4  C18 UNL     1       2.289   5.755  10.254  1.00  0.00     0.272 C 
HETATM    5  O2  UNL     1       2.509   6.144   8.920  1.00  0.00    -0.360 OA
HETATM    6  C19 UNL     1       1.396   6.718   8.265  1.00  0.00     0.171 C 
HETATM    7  C20 UNL     1       1.464   8.226   8.348  1.00  0.00     0.027 C 
HETATM    8  C21 UNL     1       1.241   8.845   9.724  1.00  0.00     0.012 C 
HETATM    9  C22 UNL     1       1.059   7.934  10.967  1.00  0.00     0.032 C 
HETATM   10  C23 UNL     1       0.833   8.885  12.171  1.00  0.00    -0.066 C 
HETATM   11  C24 UNL     1      -0.397   9.138  12.698  1.00  0.00    -0.021 C 
HETATM   12  C25 UNL     1      -1.697   8.553  12.204  1.00  0.00     0.052 C 
HETATM   13  C27 UNL     1       2.130   9.528  12.648  1.00  0.00     0.038 C 
HETATM   14  C28 UNL     1       3.269   8.535  12.881  1.00  0.00     0.042 C 
HETATM   15  C29 UNL     1       3.506   7.569  11.698  1.00  0.00     0.067 C 
HETATM   16  C30 UNL     1       4.672   6.632  12.070  1.00  0.00     0.047 C 
HETATM   17  O5  UNL     1       1.122   4.923  10.400  1.00  0.00    -0.351 OA
ENDROOT
BRANCH   1  18
HETATM   18  C14 UNL     1      -0.598   4.852  12.040  1.00  0.00     0.011 C 
HETATM   19  C12 UNL     1      -1.520   3.883  11.839  1.00  0.00    -0.064 C 
HETATM   20  C13 UNL     1      -1.206   2.512  11.297  1.00  0.00     0.048 C 
BRANCH  19  21
HETATM   21  C11 UNL     1      -2.906   4.179  12.202  1.00  0.00     0.003 C 
HETATM   22  C10 UNL     1      -3.375   4.440  13.433  1.00  0.00    -0.018 C 
BRANCH  22  23
HETATM   23  C9  UNL     1      -4.809   4.795  13.783  1.00  0.00     0.050 C 
HETATM   24  C4  UNL     1      -5.869   4.680  12.650  1.00  0.00     0.024 C 
HETATM   25  C5  UNL     1      -7.004   5.589  13.140  1.00  0.00     0.013 C 
HETATM   26  C6  UNL     1      -6.245   6.810  13.649  1.00  0.00     0.039 C 
HETATM   27  C7  UNL     1      -5.026   6.224  14.390  1.00  0.00     0.062 C 
HETATM   28  C8  UNL     1      -3.839   7.188  14.324  1.00  0.00     0.046 C 
BRANCH  24  29
HETATM   29  C2  UNL     1      -6.298   3.259  12.319  1.00  0.00    -0.088 C 
HETATM   30  C1  UNL     1      -5.716   2.578  11.312  1.00  0.00     0.014 C 
HETATM   31  C3  UNL     1      -7.395   2.627  13.137  1.00  0.00     0.043 C 
ENDBRANCH  24  29
BRANCH  27  32
HETATM   32  O1  UNL     1      -5.393   6.079  15.773  1.00  0.00    -0.390 OA
HETATM   33  H14 UNL     1      -4.620   5.724  16.247  1.00  0.00     0.210 HD
ENDBRANCH  27  32
ENDBRANCH  22  23
ENDBRANCH  19  21
ENDBRANCH   1  18
BRANCH  15  34
HETATM   34  O4  UNL     1       3.975   8.337  10.583  1.00  0.00    -0.389 OA
HETATM   35  H44 UNL     1       4.824   8.749  10.823  1.00  0.00     0.210 HD
ENDBRANCH  15  34
BRANCH  11  36
HETATM   36  C26 UNL     1      -0.617  10.042  13.876  1.00  0.00     0.265 C 
HETATM   37  O3  UNL     1      -1.728  10.248  14.355  1.00  0.00    -0.302 OA
ENDBRANCH  11  36
TORSDOF 7
ENDMDL
MODEL 4
REMARK minimizedAffinity -6.89405155
REMARK CNNscore 0.414340824
REMARK CNNaffinity 6.41953993
REMARK  7 active torsions:
REMARK  status: ('A' for Active; 'I' for Inactive)
REMARK    1  A    between atoms: C2_2  and  C4_4 
REMARK    2  A    between atoms: C7_7  and  O1_9 
REMARK    3  A    between atoms: C9_10  and  C10_11 
REMARK    4  A    between atoms: C11_12  and  C12_13 
REMARK    5  A    between atoms: C14_15  and  C15_16 
REMARK    6  A    between atoms: C24_26  and  C26_28 
REMARK    7  A    between atoms: C29_32  and  O4_34 
ROOT
HETATM    1  C15 UNL     1     -14.740   2.375  26.025  1.00  0.00     0.149 C 
HETATM    2  C16 UNL     1     -15.787   2.849  27.041  1.00  0.00     0.054 C 
HETATM    3  C17 UNL     1     -15.048   2.937  28.411  1.00  0.00     0.050 C 
HETATM    4  C18 UNL     1     -13.997   1.842  28.140  1.00  0.00     0.272 C 
HETATM    5  O2  UNL     1     -12.916   1.722  29.033  1.00  0.00    -0.360 OA
HETATM    6  C19 UNL     1     -11.945   2.744  28.950  1.00  0.00     0.171 C 
HETATM    7  C20 UNL     1     -12.224   3.813  29.981  1.00  0.00     0.027 C 
HETATM    8  C21 UNL     1     -13.460   4.678  29.751  1.00  0.00     0.012 C 
HETATM    9  C22 UNL     1     -14.411   4.375  28.563  1.00  0.00     0.032 C 
HETATM   10  C23 UNL     1     -15.528   5.450  28.619  1.00  0.00    -0.066 C 
HETATM   11  C24 UNL     1     -15.548   6.545  27.809  1.00  0.00    -0.021 C 
HETATM   12  C25 UNL     1     -14.511   6.878  26.765  1.00  0.00     0.052 C 
HETATM   13  C27 UNL     1     -16.554   5.157  29.707  1.00  0.00     0.038 C 
HETATM   14  C28 UNL     1     -17.103   3.731  29.680  1.00  0.00     0.042 C 
HETATM   15  C29 UNL     1     -16.008   2.643  29.613  1.00  0.00     0.067 C 
HETATM   16  C30 UNL     1     -16.701   1.266  29.588  1.00  0.00     0.047 C 
HETATM   17  O5  UNL     1     -13.567   2.031  26.778  1.00  0.00    -0.351 OA
ENDROOT
BRANCH   1  18
HETATM   18  C14 UNL     1     -14.365   3.429  25.027  1.00  0.00     0.011 C 
HETATM   19  C12 UNL     1     -13.293   3.475  24.205  1.00  0.00    -0.064 C 
HETATM   20  C13 UNL     1     -12.213   2.424  24.159  1.00  0.00     0.048 C 
BRANCH  19  21
HETATM   21  C11 UNL     1     -13.195   4.603  23.279  1.00  0.00     0.003 C 
HETATM   22  C10 UNL     1     -13.374   5.901  23.573  1.00  0.00    -0.018 C 
BRANCH  22  23
HETATM   23  C9  UNL     1     -13.218   7.062  22.608  1.00  0.00     0.050 C 
HETATM   24  C4  UNL     1     -13.197   8.495  23.214  1.00  0.00     0.024 C 
HETATM   25  C5  UNL     1     -13.580   9.384  22.023  1.00  0.00     0.013 C 
HETATM   26  C6  UNL     1     -14.730   8.605  21.394  1.00  0.00     0.039 C 
HETATM   27  C7  UNL     1     -14.275   7.132  21.453  1.00  0.00     0.062 C 
HETATM   28  C8  UNL     1     -15.483   6.199  21.567  1.00  0.00     0.046 C 
BRANCH  24  29
HETATM   29  C2  UNL     1     -11.894   8.882  23.895  1.00  0.00    -0.088 C 
HETATM   30  C1  UNL     1     -11.749   8.763  25.229  1.00  0.00     0.014 C 
HETATM   31  C3  UNL     1     -10.764   9.410  23.047  1.00  0.00     0.043 C 
ENDBRANCH  24  29
BRANCH  27  32
HETATM   32  O1  UNL     1     -13.612   6.837  20.212  1.00  0.00    -0.390 OA
HETATM   33  H14 UNL     1     -13.337   5.903  20.239  1.00  0.00     0.210 HD
ENDBRANCH  27  32
ENDBRANCH  22  23
ENDBRANCH  19  21
ENDBRANCH   1  18
BRANCH  15  34
HETATM   34  O4  UNL     1     -15.271   2.677  30.841  1.00  0.00    -0.389 OA
HETATM   35  H44 UNL     1     -15.876   2.465  31.574  1.00  0.00     0.210 HD
ENDBRANCH  15  34
BRANCH  11  36
HETATM   36  C26 UNL     1     -16.638   7.576  27.846  1.00  0.00     0.265 C 
HETATM   37  O3  UNL     1     -16.472   8.699  28.312  1.00  0.00    -0.302 OA
ENDBRANCH  11  36
TORSDOF 7
ENDMDL
MODEL 5
REMARK minimizedAffinity -8.02591705
REMARK CNNscore 0.413822502
REMARK CNNaffinity 6.7044239
REMARK  7 active torsions:
REMARK  status: ('A' for Active; 'I' for Inactive)
REMARK    1  A    between atoms: C2_2  and  C4_4 
REMARK    2  A    between atoms: C7_7  and  O1_9 
REMARK    3  A    between atoms: C9_10  and  C10_11 
REMARK    4  A    between atoms: C11_12  and  C12_13 
REMARK    5  A    between atoms: C14_15  and  C15_16 
REMARK    6  A    between atoms: C24_26  and  C26_28 
REMARK    7  A    between atoms: C29_32  and  O4_34 
ROOT
HETATM    1  C15 UNL     1      -1.510   8.927  12.019  1.00  0.00     0.149 C 
HETATM    2  C16 UNL     1      -0.689   7.957  11.160  1.00  0.00     0.054 C 
HETATM    3  C17 UNL     1       0.651   7.734  11.925  1.00  0.00     0.050 C 
HETATM    4  C18 UNL     1       0.703   9.100  12.638  1.00  0.00     0.272 C 
HETATM    5  O2  UNL     1       1.647   9.279  13.665  1.00  0.00    -0.360 OA
HETATM    6  C19 UNL     1       1.363   8.605  14.874  1.00  0.00     0.171 C 
HETATM    7  C20 UNL     1       2.089   7.279  14.914  1.00  0.00     0.027 C 
HETATM    8  C21 UNL     1       1.599   6.203  13.952  1.00  0.00     0.012 C 
HETATM    9  C22 UNL     1       0.478   6.525  12.928  1.00  0.00     0.032 C 
HETATM   10  C23 UNL     1       0.219   5.213  12.143  1.00  0.00    -0.066 C 
HETATM   11  C24 UNL     1      -0.832   4.387  12.400  1.00  0.00    -0.021 C 
HETATM   12  C25 UNL     1      -1.877   4.608  13.465  1.00  0.00     0.052 C 
HETATM   13  C27 UNL     1       1.298   4.945  11.099  1.00  0.00     0.038 C 
HETATM   14  C28 UNL     1       1.593   6.135  10.187  1.00  0.00     0.042 C 
HETATM   15  C29 UNL     1       1.843   7.457  10.948  1.00  0.00     0.067 C 
HETATM   16  C30 UNL     1       2.122   8.562   9.910  1.00  0.00     0.047 C 
HETATM   17  O5  UNL     1      -0.643   9.373  13.073  1.00  0.00    -0.351 OA
ENDROOT
BRANCH   1  18
HETATM   18  C14 UNL     1      -2.716   8.290  12.641  1.00  0.00     0.011 C 
HETATM   19  C12 UNL     1      -3.428   8.695  13.717  1.00  0.00    -0.064 C 
HETATM   20  C13 UNL     1      -3.104   9.916  14.539  1.00  0.00     0.048 C 
BRANCH  19  21
HETATM   21  C11 UNL     1      -4.608   7.911  14.084  1.00  0.00     0.003 C 
HETATM   22  C10 UNL     1      -5.555   7.448  13.252  1.00  0.00    -0.018 C 
BRANCH  22  23
HETATM   23  C9  UNL     1      -6.745   6.593  13.645  1.00  0.00     0.050 C 
HETATM   24  C4  UNL     1      -7.155   6.588  15.146  1.00  0.00     0.024 C 
HETATM   25  C5  UNL     1      -7.956   5.286  15.285  1.00  0.00     0.013 C 
HETATM   26  C6  UNL     1      -7.103   4.295  14.501  1.00  0.00     0.039 C 
HETATM   27  C7  UNL     1      -6.654   5.079  13.250  1.00  0.00     0.062 C 
HETATM   28  C8  UNL     1      -5.295   4.576  12.757  1.00  0.00     0.046 C 
BRANCH  24  29
HETATM   29  C2  UNL     1      -7.891   7.834  15.612  1.00  0.00    -0.088 C 
HETATM   30  C1  UNL     1      -7.489   9.060  15.225  1.00  0.00     0.014 C 
HETATM   31  C3  UNL     1      -9.081   7.671  16.524  1.00  0.00     0.043 C 
ENDBRANCH  24  29
BRANCH  27  32
HETATM   32  O1  UNL     1      -7.617   4.821  12.214  1.00  0.00    -0.390 OA
HETATM   33  H14 UNL     1      -7.328   5.301  11.418  1.00  0.00     0.210 HD
ENDBRANCH  27  32
ENDBRANCH  22  23
ENDBRANCH  19  21
ENDBRANCH   1  18
BRANCH  15  34
HETATM   34  O4  UNL     1       3.058   7.318  11.693  1.00  0.00    -0.389 OA
HETATM   35  H44 UNL     1       3.792   7.175  11.070  1.00  0.00     0.210 HD
ENDBRANCH  15  34
BRANCH  11  36
HETATM   36  C26 UNL     1      -1.097   3.127  11.628  1.00  0.00     0.265 C 
HETATM   37  O3  UNL     1      -0.343   2.158  11.661  1.00  0.00    -0.302 OA
ENDBRANCH  11  36
TORSDOF 7
ENDMDL
MODEL 6
REMARK minimizedAffinity -9.22950745
REMARK CNNscore 0.381414205
REMARK CNNaffinity 6.68513155
REMARK  7 active torsions:
REMARK  status: ('A' for Active; 'I' for Inactive)
REMARK    1  A    between atoms: C2_2  and  C4_4 
REMARK    2  A    between atoms: C7_7  and  O1_9 
REMARK    3  A    between atoms: C9_10  and  C10_11 
REMARK    4  A    between atoms: C11_12  and  C12_13 
REMARK    5  A    between atoms: C14_15  and  C15_16 
REMARK    6  A    between atoms: C24_26  and  C26_28 
REMARK    7  A    between atoms: C29_32  and  O4_34 
ROOT
HETATM    1  C15 UNL     1      -0.195   5.102  13.709  1.00  0.00     0.149 C 
HETATM    2  C16 UNL     1       0.140   6.461  14.336  1.00  0.00     0.054 C 
HETATM    3  C17 UNL     1       0.782   7.313  13.199  1.00  0.00     0.050 C 
HETATM    4  C18 UNL     1       1.380   6.145  12.389  1.00  0.00     0.272 C 
HETATM    5  O2  UNL     1       1.870   6.414  11.098  1.00  0.00    -0.360 OA
HETATM    6  C19 UNL     1       0.885   6.657  10.114  1.00  0.00     0.171 C 
HETATM    7  C20 UNL     1       0.660   8.143   9.958  1.00  0.00     0.027 C 
HETATM    8  C21 UNL     1      -0.023   8.856  11.120  1.00  0.00     0.012 C 
HETATM    9  C22 UNL     1      -0.361   8.078  12.420  1.00  0.00     0.032 C 
HETATM   10  C23 UNL     1      -1.061   9.093  13.361  1.00  0.00    -0.066 C 
HETATM   11  C24 UNL     1      -2.410   9.137  13.536  1.00  0.00    -0.021 C 
HETATM   12  C25 UNL     1      -3.409   8.234  12.855  1.00  0.00     0.052 C 
HETATM   13  C27 UNL     1      -0.070  10.049  14.015  1.00  0.00     0.038 C 
HETATM   14  C28 UNL     1       1.125   9.358  14.671  1.00  0.00     0.042 C 
HETATM   15  C29 UNL     1       1.832   8.334  13.755  1.00  0.00     0.067 C 
HETATM   16  C30 UNL     1       3.006   7.717  14.541  1.00  0.00     0.047 C 
HETATM   17  O5  UNL     1       0.383   5.106  12.394  1.00  0.00    -0.351 OA
ENDROOT
BRANCH   1  18
HETATM   18  C14 UNL     1      -1.668   4.860  13.574  1.00  0.00     0.011 C 
HETATM   19  C12 UNL     1      -2.376   4.536  12.468  1.00  0.00    -0.064 C 
HETATM   20  C13 UNL     1      -1.776   4.370  11.095  1.00  0.00     0.048 C 
BRANCH  19  21
HETATM   21  C11 UNL     1      -3.810   4.298  12.626  1.00  0.00     0.003 C 
HETATM   22  C10 UNL     1      -4.623   4.868  13.531  1.00  0.00    -0.018 C 
BRANCH  22  23
HETATM   23  C9  UNL     1      -6.120   4.647  13.646  1.00  0.00     0.050 C 
HETATM   24  C4  UNL     1      -6.871   4.163  12.372  1.00  0.00     0.024 C 
HETATM   25  C5  UNL     1      -8.325   4.565  12.649  1.00  0.00     0.013 C 
HETATM   26  C6  UNL     1      -8.171   5.971  13.217  1.00  0.00     0.039 C 
HETATM   27  C7  UNL     1      -6.951   5.875  14.157  1.00  0.00     0.062 C 
HETATM   28  C8  UNL     1      -6.220   7.217  14.232  1.00  0.00     0.046 C 
BRANCH  24  29
HETATM   29  C2  UNL     1      -6.676   2.693  12.036  1.00  0.00    -0.088 C 
HETATM   30  C1  UNL     1      -7.301   1.733  12.744  1.00  0.00     0.014 C 
HETATM   31  C3  UNL     1      -5.760   2.328  10.894  1.00  0.00     0.043 C 
ENDBRANCH  24  29
BRANCH  27  32
HETATM   32  O1  UNL     1      -7.445   5.574  15.473  1.00  0.00    -0.390 OA
HETATM   33  H14 UNL     1      -6.679   5.527  16.072  1.00  0.00     0.210 HD
ENDBRANCH  27  32
ENDBRANCH  22  23
ENDBRANCH  19  21
ENDBRANCH   1  18
BRANCH  15  34
HETATM   34  O4  UNL     1       2.434   9.049  12.669  1.00  0.00    -0.389 OA
HETATM   35  H44 UNL     1       3.103   9.657  13.029  1.00  0.00     0.210 HD
ENDBRANCH  15  34
BRANCH  11  36
HETATM   36  C26 UNL     1      -3.090  10.104  14.462  1.00  0.00     0.265 C 
HETATM   37  O3  UNL     1      -4.252   9.964  14.831  1.00  0.00    -0.302 OA
ENDBRANCH  11  36
TORSDOF 7
ENDMDL
MODEL 7
REMARK minimizedAffinity -8.74416828
REMARK CNNscore 0.378742218
REMARK CNNaffinity 6.70275831
REMARK  7 active torsions:
REMARK  status: ('A' for Active; 'I' for Inactive)
REMARK    1  A    between atoms: C2_2  and  C4_4 
REMARK    2  A    between atoms: C7_7  and  O1_9 
REMARK    3  A    between atoms: C9_10  and  C10_11 
REMARK    4  A    between atoms: C11_12  and  C12_13 
REMARK    5  A    between atoms: C14_15  and  C15_16 
REMARK    6  A    between atoms: C24_26  and  C26_28 
REMARK    7  A    between atoms: C29_32  and  O4_34 
ROOT
HETATM    1  C15 UNL     1      -1.977   9.141  12.466  1.00  0.00     0.149 C 
HETATM    2  C16 UNL     1      -0.959   8.229  11.771  1.00  0.00     0.054 C 
HETATM    3  C17 UNL     1       0.136   7.916  12.835  1.00  0.00     0.050 C 
HETATM    4  C18 UNL     1      -0.002   9.217  13.650  1.00  0.00     0.272 C 
HETATM    5  O2  UNL     1       0.641   9.291  14.900  1.00  0.00    -0.360 OA
HETATM    6  C19 UNL     1       0.052   8.525  15.931  1.00  0.00     0.171 C 
HETATM    7  C20 UNL     1       0.745   7.187  16.046  1.00  0.00     0.027 C 
HETATM    8  C21 UNL     1       0.525   6.203  14.901  1.00  0.00     0.012 C 
HETATM    9  C22 UNL     1      -0.291   6.632  13.652  1.00  0.00     0.032 C 
HETATM   10  C23 UNL     1      -0.334   5.395  12.718  1.00  0.00    -0.066 C 
HETATM   11  C24 UNL     1      -1.415   4.572  12.622  1.00  0.00    -0.021 C 
HETATM   12  C25 UNL     1      -2.702   4.727  13.394  1.00  0.00     0.052 C 
HETATM   13  C27 UNL     1       0.980   5.192  11.972  1.00  0.00     0.038 C 
HETATM   14  C28 UNL     1       1.501   6.447  11.272  1.00  0.00     0.042 C 
HETATM   15  C29 UNL     1       1.542   7.696  12.181  1.00  0.00     0.067 C 
HETATM   16  C30 UNL     1       2.080   8.877  11.350  1.00  0.00     0.047 C 
HETATM   17  O5  UNL     1      -1.415   9.482  13.743  1.00  0.00    -0.351 OA
ENDROOT
BRANCH   1  18
HETATM   18  C14 UNL     1      -3.302   8.480  12.697  1.00  0.00     0.011 C 
HETATM   19  C12 UNL     1      -4.176   8.665  13.712  1.00  0.00    -0.064 C 
HETATM   20  C13 UNL     1      -3.949   9.608  14.866  1.00  0.00     0.048 C 
BRANCH  19  21
HETATM   21  C11 UNL     1      -5.437   7.925  13.665  1.00  0.00     0.003 C 
HETATM   22  C10 UNL     1      -6.030   7.284  14.686  1.00  0.00    -0.018 C 
BRANCH  22  23
HETATM   23  C9  UNL     1      -7.365   6.564  14.631  1.00  0.00     0.050 C 
HETATM   24  C4  UNL     1      -7.747   5.872  13.291  1.00  0.00     0.024 C 
HETATM   25  C5  UNL     1      -9.273   5.749  13.383  1.00  0.00     0.013 C 
HETATM   26  C6  UNL     1      -9.676   7.115  13.927  1.00  0.00     0.039 C 
HETATM   27  C7  UNL     1      -8.619   7.427  15.006  1.00  0.00     0.062 C 
HETATM   28  C8  UNL     1      -8.403   8.937  15.130  1.00  0.00     0.046 C 
BRANCH  24  29
HETATM   29  C2  UNL     1      -7.024   4.562  13.020  1.00  0.00    -0.088 C 
HETATM   30  C1  UNL     1      -5.911   4.529  12.261  1.00  0.00     0.014 C 
HETATM   31  C3  UNL     1      -7.582   3.293  13.614  1.00  0.00     0.043 C 
ENDBRANCH  24  29
BRANCH  27  32
HETATM   32  O1  UNL     1      -9.135   6.956  16.262  1.00  0.00    -0.390 OA
HETATM   33  H14 UNL     1      -8.477   7.165  16.949  1.00  0.00     0.210 HD
ENDBRANCH  27  32
ENDBRANCH  22  23
ENDBRANCH  19  21
ENDBRANCH   1  18
BRANCH  15  34
HETATM   34  O4  UNL     1       2.521   7.471  13.203  1.00  0.00    -0.389 OA
HETATM   35  H44 UNL     1       3.392   7.364  12.782  1.00  0.00     0.210 HD
ENDBRANCH  15  34
BRANCH  11  36
HETATM   36  C26 UNL     1      -1.467   3.386  11.704  1.00  0.00     0.265 C 
HETATM   37  O3  UNL     1      -1.613   3.494  10.490  1.00  0.00    -0.302 OA
ENDBRANCH  11  36
TORSDOF 7
ENDMDL
MODEL 8
REMARK minimizedAffinity -6.9783392
REMARK CNNscore 0.361838818
REMARK CNNaffinity 6.49760389
REMARK  7 active torsions:
REMARK  status: ('A' for Active; 'I' for Inactive)
REMARK    1  A    between atoms: C2_2  and  C4_4 
REMARK    2  A    between atoms: C7_7  and  O1_9 
REMARK    3  A    between atoms: C9_10  and  C10_11 
REMARK    4  A    between atoms: C11_12  and  C12_13 
REMARK    5  A    between atoms: C14_15  and  C15_16 
REMARK    6  A    between atoms: C24_26  and  C26_28 
REMARK    7  A    between atoms: C29_32  and  O4_34 
ROOT
HETATM    1  C15 UNL     1     -12.862 -11.658  23.116  1.00  0.00     0.149 C 
HETATM    2  C16 UNL     1     -12.259 -13.054  23.311  1.00  0.00     0.054 C 
HETATM    3  C17 UNL     1     -10.731 -12.905  23.041  1.00  0.00     0.050 C 
HETATM    4  C18 UNL     1     -10.818 -11.723  22.054  1.00  0.00     0.272 C 
HETATM    5  O2  UNL     1      -9.628 -11.057  21.708  1.00  0.00    -0.360 OA
HETATM    6  C19 UNL     1      -9.077 -10.237  22.717  1.00  0.00     0.171 C 
HETATM    7  C20 UNL     1      -8.017 -10.995  23.483  1.00  0.00     0.027 C 
HETATM    8  C21 UNL     1      -8.502 -12.132  24.377  1.00  0.00     0.012 C 
HETATM    9  C22 UNL     1     -10.004 -12.524  24.392  1.00  0.00     0.032 C 
HETATM   10  C23 UNL     1     -10.138 -13.682  25.415  1.00  0.00    -0.066 C 
HETATM   11  C24 UNL     1     -10.604 -13.504  26.682  1.00  0.00    -0.021 C 
HETATM   12  C25 UNL     1     -11.045 -12.189  27.274  1.00  0.00     0.052 C 
HETATM   13  C27 UNL     1      -9.645 -15.009  24.850  1.00  0.00     0.038 C 
HETATM   14  C28 UNL     1     -10.224 -15.358  23.479  1.00  0.00     0.042 C 
HETATM   15  C29 UNL     1     -10.111 -14.214  22.446  1.00  0.00     0.067 C 
HETATM   16  C30 UNL     1     -10.733 -14.701  21.122  1.00  0.00     0.047 C 
HETATM   17  O5  UNL     1     -11.813 -10.830  22.590  1.00  0.00    -0.351 OA
ENDROOT
BRANCH   1  18
HETATM   18  C14 UNL     1     -13.350 -11.042  24.393  1.00  0.00     0.011 C 
HETATM   19  C12 UNL     1     -14.013  -9.877  24.573  1.00  0.00    -0.064 C 
HETATM   20  C13 UNL     1     -14.379  -8.929  23.460  1.00  0.00     0.048 C 
BRANCH  19  21
HETATM   21  C11 UNL     1     -14.427  -9.534  25.933  1.00  0.00     0.003 C 
HETATM   22  C10 UNL     1     -13.622  -9.237  26.967  1.00  0.00    -0.018 C 
BRANCH  22  23
HETATM   23  C9  UNL     1     -14.072  -8.834  28.359  1.00  0.00     0.050 C 
HETATM   24  C4  UNL     1     -13.188  -7.810  29.126  1.00  0.00     0.024 C 
HETATM   25  C5  UNL     1     -13.574  -8.045  30.593  1.00  0.00     0.013 C 
HETATM   26  C6  UNL     1     -13.606  -9.566  30.680  1.00  0.00     0.039 C 
HETATM   27  C7  UNL     1     -14.288 -10.012  29.370  1.00  0.00     0.062 C 
HETATM   28  C8  UNL     1     -13.781 -11.391  28.940  1.00  0.00     0.046 C 
BRANCH  24  29
HETATM   29  C2  UNL     1     -13.329  -6.369  28.660  1.00  0.00    -0.088 C 
HETATM   30  C1  UNL     1     -14.070  -6.062  27.578  1.00  0.00     0.014 C 
HETATM   31  C3  UNL     1     -12.615  -5.288  29.431  1.00  0.00     0.043 C 
ENDBRANCH  24  29
BRANCH  27  32
HETATM   32  O1  UNL     1     -15.696 -10.130  29.637  1.00  0.00    -0.390 OA
HETATM   33  H14 UNL     1     -16.127 -10.427  28.816  1.00  0.00     0.210 HD
ENDBRANCH  27  32
ENDBRANCH  22  23
ENDBRANCH  19  21
ENDBRANCH   1  18
BRANCH  15  34
HETATM   34  O4  UNL     1      -8.722 -14.007  22.161  1.00  0.00    -0.389 OA
HETATM   35  H44 UNL     1      -8.360 -14.819  21.767  1.00  0.00     0.210 HD
ENDBRANCH  15  34
BRANCH  11  36
HETATM   36  C26 UNL     1     -10.755 -14.626  27.668  1.00  0.00     0.265 C 
HETATM   37  O3  UNL     1     -11.385 -14.508  28.715  1.00  0.00    -0.302 OA
ENDBRANCH  11  36
TORSDOF 7
ENDMDL
MODEL 9
REMARK minimizedAffinity -6.44727182
REMARK CNNscore 0.331699848
REMARK CNNaffinity 5.92282486
REMARK  7 active torsions:
REMARK  status: ('A' for Active; 'I' for Inactive)
REMARK    1  A    between atoms: C2_2  and  C4_4 
REMARK    2  A    between atoms: C7_7  and  O1_9 
REMARK    3  A    between atoms: C9_10  and  C10_11 
REMARK    4  A    between atoms: C11_12  and  C12_13 
REMARK    5  A    between atoms: C14_15  and  C15_16 
REMARK    6  A    between atoms: C24_26  and  C26_28 
REMARK    7  A    between atoms: C29_32  and  O4_34 
ROOT
HETATM    1  C15 UNL     1      -3.535 -11.263   6.747  1.00  0.00     0.149 C 
HETATM    2  C16 UNL     1      -3.794 -10.451   5.472  1.00  0.00     0.054 C 
HETATM    3  C17 UNL     1      -3.944 -11.492   4.322  1.00  0.00     0.050 C 
HETATM    4  C18 UNL     1      -3.044 -12.588   4.928  1.00  0.00     0.272 C 
HETATM    5  O2  UNL     1      -3.063 -13.865   4.338  1.00  0.00    -0.360 OA
HETATM    6  C19 UNL     1      -4.230 -14.625   4.575  1.00  0.00     0.171 C 
HETATM    7  C20 UNL     1      -5.199 -14.464   3.426  1.00  0.00     0.027 C 
HETATM    8  C21 UNL     1      -5.862 -13.098   3.277  1.00  0.00     0.012 C 
HETATM    9  C22 UNL     1      -5.458 -11.931   4.217  1.00  0.00     0.032 C 
HETATM   10  C23 UNL     1      -6.337 -10.721   3.805  1.00  0.00    -0.066 C 
HETATM   11  C24 UNL     1      -7.446 -10.338   4.496  1.00  0.00    -0.021 C 
HETATM   12  C25 UNL     1      -7.983 -11.015   5.732  1.00  0.00     0.052 C 
HETATM   13  C27 UNL     1      -5.839 -10.058   2.525  1.00  0.00     0.038 C 
HETATM   14  C28 UNL     1      -4.346  -9.734   2.530  1.00  0.00     0.042 C 
HETATM   15  C29 UNL     1      -3.451 -10.922   2.949  1.00  0.00     0.067 C 
HETATM   16  C30 UNL     1      -1.983 -10.453   2.912  1.00  0.00     0.047 C 
HETATM   17  O5  UNL     1      -3.354 -12.626   6.334  1.00  0.00    -0.351 OA
ENDROOT
BRANCH   1  18
HETATM   18  C14 UNL     1      -4.675 -11.214   7.720  1.00  0.00     0.011 C 
HETATM   19  C12 UNL     1      -4.760 -10.548   8.893  1.00  0.00    -0.064 C 
HETATM   20  C13 UNL     1      -3.653  -9.705   9.473  1.00  0.00     0.048 C 
BRANCH  19  21
HETATM   21  C11 UNL     1      -6.022 -10.627   9.629  1.00  0.00     0.003 C 
HETATM   22  C10 UNL     1      -6.209 -10.365  10.933  1.00  0.00    -0.018 C 
BRANCH  22  23
HETATM   23  C9  UNL     1      -7.537 -10.404  11.667  1.00  0.00     0.050 C 
HETATM   24  C4  UNL     1      -8.371 -11.713  11.566  1.00  0.00     0.024 C 
HETATM   25  C5  UNL     1      -9.793 -11.250  11.907  1.00  0.00     0.013 C 
HETATM   26  C6  UNL     1      -9.910  -9.953  11.114  1.00  0.00     0.039 C 
HETATM   27  C7  UNL     1      -8.546  -9.259  11.307  1.00  0.00     0.062 C 
HETATM   28  C8  UNL     1      -8.202  -8.396  10.090  1.00  0.00     0.046 C 
BRANCH  24  29
HETATM   29  C2  UNL     1      -7.860 -12.863  12.421  1.00  0.00    -0.088 C 
HETATM   30  C1  UNL     1      -8.695 -13.828  12.852  1.00  0.00     0.014 C 
HETATM   31  C3  UNL     1      -6.397 -12.897  12.786  1.00  0.00     0.043 C 
ENDBRANCH  24  29
BRANCH  27  32
HETATM   32  O1  UNL     1      -8.666  -8.385  12.441  1.00  0.00    -0.390 OA
HETATM   33  H14 UNL     1      -7.810  -7.933  12.557  1.00  0.00     0.210 HD
ENDBRANCH  27  32
ENDBRANCH  22  23
ENDBRANCH  19  21
ENDBRANCH   1  18
BRANCH  15  34
HETATM   34  O4  UNL     1      -3.554 -11.934   1.940  1.00  0.00    -0.389 OA
HETATM   35  H44 UNL     1      -3.218 -11.573   1.100  1.00  0.00     0.210 HD
ENDBRANCH  15  34
BRANCH  11  36
HETATM   36  C26 UNL     1      -8.286  -9.155   4.112  1.00  0.00     0.265 C 
HETATM   37  O3  UNL     1      -9.460  -9.259   3.768  1.00  0.00    -0.302 OA
ENDBRANCH  11  36
TORSDOF 7
ENDMDL
