MODEL 1
REMARK minimizedAffinity -9.06393814
REMARK CNNscore 0.789697349
REMARK CNNaffinity 7.43624878
REMARK  7 active torsions:
REMARK  status: ('A' for Active; 'I' for Inactive)
REMARK    1  A    between atoms: C3_3  and  C4_4 
REMARK    2  A    between atoms: C5_6  and  C6_7 
REMARK    3  A    between atoms: C6_7  and  C7_9 
REMARK    4  A    between atoms: C7_9  and  O3_10 
REMARK    5  A    between atoms: O3_10  and  C8_11 
REMARK    6  A    between atoms: C8_11  and  C9_13 
REMARK    7  A    between atoms: C28_36  and  O7_37 
ROOT
HETATM    1  C4  UNL     1      -1.705   8.890  12.189  1.00  0.00     0.286 C 
HETATM    2  O1  UNL     1      -1.356  10.023  12.970  1.00  0.00    -0.338 OA
HETATM    3  C5  UNL     1      -1.289   9.826  14.380  1.00  0.00     0.137 C 
HETATM    4  C14 UNL     1      -0.149   8.820  14.702  1.00  0.00     0.050 C 
HETATM    5  C15 UNL     1      -0.829   7.436  14.695  1.00  0.00     0.043 C 
HETATM    6  C16 UNL     1      -2.277   7.741  14.283  1.00  0.00     0.079 C 
HETATM    7  O5  UNL     1      -2.334   7.808  12.850  1.00  0.00    -0.346 OA
HETATM    8  C17 UNL     1      -3.358   6.712  14.681  1.00  0.00     0.029 C 
HETATM    9  C18 UNL     1      -3.051   5.271  14.210  1.00  0.00     0.012 C 
HETATM   10  C19 UNL     1      -3.998   4.744  13.137  1.00  0.00     0.036 C 
HETATM   11  C20 UNL     1      -5.464   4.920  13.472  1.00  0.00    -0.068 C 
HETATM   12  C21 UNL     1      -6.371   4.095  12.920  1.00  0.00     0.053 C 
HETATM   13  C22 UNL     1      -7.827   4.299  13.106  1.00  0.00     0.149 C 
HETATM   14  O6  UNL     1      -8.609   3.447  12.690  1.00  0.00    -0.293 OA
HETATM   15  C23 UNL     1      -8.306   5.541  13.819  1.00  0.00     0.084 C 
HETATM   16  C24 UNL     1      -7.237   6.631  13.867  1.00  0.00     0.022 C 
HETATM   17  C25 UNL     1      -5.857   6.113  14.354  1.00  0.00    -0.014 C 
HETATM   18  C26 UNL     1      -5.989   5.629  15.818  1.00  0.00     0.020 C 
HETATM   19  C27 UNL     1      -4.754   7.213  14.162  1.00  0.00     0.034 C 
HETATM   20  C28 UNL     1      -5.083   8.641  14.672  1.00  0.00     0.124 C 
HETATM   21  C29 UNL     1      -3.929   9.644  14.429  1.00  0.00     0.048 C 
HETATM   22  C30 UNL     1      -2.558   9.122  14.920  1.00  0.00     0.029 C 
HETATM   23  C31 UNL     1      -2.546   9.119  16.480  1.00  0.00     0.022 C 
ENDROOT
BRANCH   3  24
HETATM   24  C6  UNL     1      -1.024  11.200  15.025  1.00  0.00     0.186 C 
HETATM   25  O2  UNL     1      -0.210  11.349  15.943  1.00  0.00    -0.292 OA
BRANCH  24  26
HETATM   26  C7  UNL     1      -1.832  12.384  14.488  1.00  0.00     0.260 C 
BRANCH  26  27
HETATM   27  O3  UNL     1      -1.091  13.606  14.508  1.00  0.00    -0.310 OA
BRANCH  27  28
HETATM   28  C8  UNL     1      -1.427  14.475  13.523  1.00  0.00     0.295 C 
HETATM   29  O4  UNL     1      -2.538  14.593  13.030  1.00  0.00    -0.259 OA
BRANCH  28  30
HETATM   30  C9  UNL     1      -0.258  15.271  13.095  1.00  0.00     0.054 A 
HETATM   31  C10 UNL     1      -0.374  16.128  11.997  1.00  0.00     0.020 A 
HETATM   32  C11 UNL     1       0.727  16.878  11.590  1.00  0.00     0.018 A 
HETATM   33  C12 UNL     1       1.912  16.744  12.296  1.00  0.00     0.087 A 
HETATM   34  N1  UNL     1       2.060  15.926  13.362  1.00  0.00    -0.374 N 
HETATM   35  C13 UNL     1       0.970  15.212  13.741  1.00  0.00     0.105 A 
ATOM     36  H1  UNL     1       2.949  15.850  13.857  1.00  0.00     0.164 HD
ENDBRANCH  28  30
ENDBRANCH  27  28
ENDBRANCH  26  27
ENDBRANCH  24  26
ENDBRANCH   3  24
BRANCH   1  37
HETATM   37  C3  UNL     1      -0.522   8.394  11.409  1.00  0.00     0.029 C 
HETATM   38  C2  UNL     1      -0.341   8.579  10.091  1.00  0.00    -0.030 C 
HETATM   39  C1  UNL     1       0.835   8.061   9.329  1.00  0.00     0.036 C 
ENDBRANCH   1  37
BRANCH  20  40
HETATM   40  O7  UNL     1      -5.430   8.614  16.047  1.00  0.00    -0.395 OA
HETATM   41  H32 UNL     1      -5.622   9.529  16.325  1.00  0.00     0.210 HD
ENDBRANCH  20  40
TORSDOF 7
ENDMDL
MODEL 2
REMARK minimizedAffinity -9.61324024
REMARK CNNscore 0.713190317
REMARK CNNaffinity 7.21123934
REMARK  7 active torsions:
REMARK  status: ('A' for Active; 'I' for Inactive)
REMARK    1  A    between atoms: C3_3  and  C4_4 
REMARK    2  A    between atoms: C5_6  and  C6_7 
REMARK    3  A    between atoms: C6_7  and  C7_9 
REMARK    4  A    between atoms: C7_9  and  O3_10 
REMARK    5  A    between atoms: O3_10  and  C8_11 
REMARK    6  A    between atoms: C8_11  and  C9_13 
REMARK    7  A    between atoms: C28_36  and  O7_37 
ROOT
HETATM    1  C4  UNL     1      -1.743   8.789  12.135  1.00  0.00     0.286 C 
HETATM    2  O1  UNL     1      -1.452   9.955  12.889  1.00  0.00    -0.338 OA
HETATM    3  C5  UNL     1      -1.433   9.807  14.307  1.00  0.00     0.137 C 
HETATM    4  C14 UNL     1      -0.280   8.843  14.704  1.00  0.00     0.050 C 
HETATM    5  C15 UNL     1      -0.925   7.442  14.719  1.00  0.00     0.043 C 
HETATM    6  C16 UNL     1      -2.364   7.695  14.245  1.00  0.00     0.079 C 
HETATM    7  O5  UNL     1      -2.369   7.713  12.810  1.00  0.00    -0.346 OA
HETATM    8  C17 UNL     1      -3.433   6.651  14.638  1.00  0.00     0.029 C 
HETATM    9  C18 UNL     1      -3.073   5.204  14.228  1.00  0.00     0.012 C 
HETATM   10  C19 UNL     1      -3.966   4.617  13.139  1.00  0.00     0.036 C 
HETATM   11  C20 UNL     1      -5.447   4.766  13.414  1.00  0.00    -0.068 C 
HETATM   12  C21 UNL     1      -6.313   3.900  12.858  1.00  0.00     0.053 C 
HETATM   13  C22 UNL     1      -7.779   4.072  12.984  1.00  0.00     0.149 C 
HETATM   14  O6  UNL     1      -8.524   3.186  12.569  1.00  0.00    -0.293 OA
HETATM   15  C23 UNL     1      -8.315   5.324  13.637  1.00  0.00     0.084 C 
HETATM   16  C24 UNL     1      -7.276   6.442  13.687  1.00  0.00     0.022 C 
HETATM   17  C25 UNL     1      -5.903   5.977  14.241  1.00  0.00    -0.014 C 
HETATM   18  C26 UNL     1      -6.077   5.538  15.714  1.00  0.00     0.020 C 
HETATM   19  C27 UNL     1      -4.821   7.099  14.052  1.00  0.00     0.034 C 
HETATM   20  C28 UNL     1      -5.204   8.533  14.500  1.00  0.00     0.124 C 
HETATM   21  C29 UNL     1      -4.067   9.558  14.266  1.00  0.00     0.048 C 
HETATM   22  C30 UNL     1      -2.703   9.088  14.824  1.00  0.00     0.029 C 
HETATM   23  C31 UNL     1      -2.748   9.137  16.382  1.00  0.00     0.022 C 
ENDROOT
BRANCH   3  24
HETATM   24  C6  UNL     1      -1.226  11.208  14.913  1.00  0.00     0.186 C 
HETATM   25  O2  UNL     1      -1.697  12.225  14.393  1.00  0.00    -0.292 OA
BRANCH  24  26
HETATM   26  C7  UNL     1      -0.391  11.292  16.192  1.00  0.00     0.260 C 
BRANCH  26  27
HETATM   27  O3  UNL     1      -0.703  12.447  16.976  1.00  0.00    -0.310 OA
BRANCH  27  28
HETATM   28  C8  UNL     1      -1.193  12.165  18.208  1.00  0.00     0.295 C 
HETATM   29  O4  UNL     1      -2.351  11.871  18.462  1.00  0.00    -0.259 OA
BRANCH  28  30
HETATM   30  C9  UNL     1      -0.138  12.277  19.237  1.00  0.00     0.054 A 
HETATM   31  C10 UNL     1       0.494  11.120  19.703  1.00  0.00     0.020 A 
HETATM   32  C11 UNL     1       1.488  11.222  20.673  1.00  0.00     0.018 A 
HETATM   33  C12 UNL     1       1.816  12.481  21.149  1.00  0.00     0.087 A 
HETATM   34  N1  UNL     1       1.226  13.620  20.723  1.00  0.00    -0.374 N 
HETATM   35  C13 UNL     1       0.266  13.493  19.772  1.00  0.00     0.105 A 
ATOM     36  H1  UNL     1       1.490  14.532  21.098  1.00  0.00     0.164 HD
ENDBRANCH  28  30
ENDBRANCH  27  28
ENDBRANCH  26  27
ENDBRANCH  24  26
ENDBRANCH   3  24
BRANCH   1  37
HETATM   37  C3  UNL     1      -0.520   8.298  11.416  1.00  0.00     0.029 C 
HETATM   38  C2  UNL     1      -0.295   8.444  10.099  1.00  0.00    -0.030 C 
HETATM   39  C1  UNL     1       0.921   7.931   9.399  1.00  0.00     0.036 C 
ENDBRANCH   1  37
BRANCH  20  40
HETATM   40  O7  UNL     1      -5.601   8.543  15.862  1.00  0.00    -0.395 OA
HETATM   41  H32 UNL     1      -5.826   9.461  16.102  1.00  0.00     0.210 HD
ENDBRANCH  20  40
TORSDOF 7
ENDMDL
MODEL 3
REMARK minimizedAffinity -8.20902824
REMARK CNNscore 0.709801495
REMARK CNNaffinity 7.08118773
REMARK  7 active torsions:
REMARK  status: ('A' for Active; 'I' for Inactive)
REMARK    1  A    between atoms: C3_3  and  C4_4 
REMARK    2  A    between atoms: C5_6  and  C6_7 
REMARK    3  A    between atoms: C6_7  and  C7_9 
REMARK    4  A    between atoms: C7_9  and  O3_10 
REMARK    5  A    between atoms: O3_10  and  C8_11 
REMARK    6  A    between atoms: C8_11  and  C9_13 
REMARK    7  A    between atoms: C28_36  and  O7_37 
ROOT
HETATM    1  C4  UNL     1      -1.704   8.840  12.094  1.00  0.00     0.286 C 
HETATM    2  O1  UNL     1      -1.380  10.005  12.836  1.00  0.00    -0.338 OA
HETATM    3  C5  UNL     1      -1.330   9.863  14.254  1.00  0.00     0.137 C 
HETATM    4  C14 UNL     1      -0.180   8.886  14.627  1.00  0.00     0.050 C 
HETATM    5  C15 UNL     1      -0.842   7.493  14.664  1.00  0.00     0.043 C 
HETATM    6  C16 UNL     1      -2.288   7.762  14.223  1.00  0.00     0.079 C 
HETATM    7  O5  UNL     1      -2.327   7.775  12.788  1.00  0.00    -0.346 OA
HETATM    8  C17 UNL     1      -3.360   6.733  14.645  1.00  0.00     0.029 C 
HETATM    9  C18 UNL     1      -3.028   5.280  14.233  1.00  0.00     0.012 C 
HETATM   10  C19 UNL     1      -3.954   4.700  13.168  1.00  0.00     0.036 C 
HETATM   11  C20 UNL     1      -5.427   4.868  13.477  1.00  0.00    -0.068 C 
HETATM   12  C21 UNL     1      -6.315   4.011  12.945  1.00  0.00     0.053 C 
HETATM   13  C22 UNL     1      -7.776   4.202  13.105  1.00  0.00     0.149 C 
HETATM   14  O6  UNL     1      -8.541   3.324  12.711  1.00  0.00    -0.293 OA
HETATM   15  C23 UNL     1      -8.281   5.463  13.765  1.00  0.00     0.084 C 
HETATM   16  C24 UNL     1      -7.227   6.568  13.786  1.00  0.00     0.022 C 
HETATM   17  C25 UNL     1      -5.847   6.088  14.309  1.00  0.00    -0.014 C 
HETATM   18  C26 UNL     1      -5.992   5.657  15.788  1.00  0.00     0.020 C 
HETATM   19  C27 UNL     1      -4.756   7.196  14.090  1.00  0.00     0.034 C 
HETATM   20  C28 UNL     1      -5.111   8.637  14.541  1.00  0.00     0.124 C 
HETATM   21  C29 UNL     1      -3.967   9.646  14.276  1.00  0.00     0.048 C 
HETATM   22  C30 UNL     1      -2.596   9.162  14.804  1.00  0.00     0.029 C 
HETATM   23  C31 UNL     1      -2.604   9.217  16.362  1.00  0.00     0.022 C 
ENDROOT
BRANCH   3  24
HETATM   24  C6  UNL     1      -1.092  11.263  14.849  1.00  0.00     0.186 C 
HETATM   25  O2  UNL     1      -1.863  12.206  14.638  1.00  0.00    -0.292 OA
BRANCH  24  26
HETATM   26  C7  UNL     1       0.161  11.446  15.708  1.00  0.00     0.260 C 
BRANCH  26  27
HETATM   27  O3  UNL     1       1.273  11.937  14.956  1.00  0.00    -0.310 OA
BRANCH  27  28
HETATM   28  C8  UNL     1       1.654  13.196  15.284  1.00  0.00     0.295 C 
HETATM   29  O4  UNL     1       0.916  14.168  15.341  1.00  0.00    -0.259 OA
BRANCH  28  30
HETATM   30  C9  UNL     1       3.105  13.259  15.555  1.00  0.00     0.054 A 
HETATM   31  C10 UNL     1       3.997  13.430  14.492  1.00  0.00     0.020 A 
HETATM   32  C11 UNL     1       5.365  13.488  14.745  1.00  0.00     0.018 A 
HETATM   33  C12 UNL     1       5.798  13.371  16.056  1.00  0.00     0.087 A 
HETATM   34  N1  UNL     1       4.966  13.204  17.107  1.00  0.00    -0.374 N 
HETATM   35  C13 UNL     1       3.637  13.157  16.834  1.00  0.00     0.105 A 
ATOM     36  H1  UNL     1       5.319  13.117  18.061  1.00  0.00     0.164 HD
ENDBRANCH  28  30
ENDBRANCH  27  28
ENDBRANCH  26  27
ENDBRANCH  24  26
ENDBRANCH   3  24
BRANCH   1  37
HETATM   37  C3  UNL     1      -0.504   8.331  11.348  1.00  0.00     0.029 C 
HETATM   38  C2  UNL     1      -0.275   8.529  10.039  1.00  0.00    -0.030 C 
HETATM   39  C1  UNL     1       0.917   7.998   9.311  1.00  0.00     0.036 C 
ENDBRANCH   1  37
BRANCH  20  40
HETATM   40  O7  UNL     1      -5.476   8.657  15.912  1.00  0.00    -0.395 OA
HETATM   41  H32 UNL     1      -5.684   9.578  16.153  1.00  0.00     0.210 HD
ENDBRANCH  20  40
TORSDOF 7
ENDMDL
MODEL 4
REMARK minimizedAffinity -8.38138103
REMARK CNNscore 0.626945376
REMARK CNNaffinity 7.11938477
REMARK  7 active torsions:
REMARK  status: ('A' for Active; 'I' for Inactive)
REMARK    1  A    between atoms: C3_3  and  C4_4 
REMARK    2  A    between atoms: C5_6  and  C6_7 
REMARK    3  A    between atoms: C6_7  and  C7_9 
REMARK    4  A    between atoms: C7_9  and  O3_10 
REMARK    5  A    between atoms: O3_10  and  C8_11 
REMARK    6  A    between atoms: C8_11  and  C9_13 
REMARK    7  A    between atoms: C28_36  and  O7_37 
ROOT
HETATM    1  C4  UNL     1      -2.153   8.873  13.138  1.00  0.00     0.286 C 
HETATM    2  O1  UNL     1      -2.030   7.683  12.374  1.00  0.00    -0.338 OA
HETATM    3  C5  UNL     1      -1.123   6.700  12.868  1.00  0.00     0.137 C 
HETATM    4  C14 UNL     1      -1.634   6.178  14.240  1.00  0.00     0.050 C 
HETATM    5  C15 UNL     1      -0.969   7.098  15.285  1.00  0.00     0.043 C 
HETATM    6  C16 UNL     1      -0.206   8.125  14.437  1.00  0.00     0.079 C 
HETATM    7  O5  UNL     1      -1.119   9.167  14.060  1.00  0.00    -0.346 OA
HETATM    8  C17 UNL     1       0.980   8.854  15.105  1.00  0.00     0.029 C 
HETATM    9  C18 UNL     1       0.615   9.553  16.436  1.00  0.00     0.012 C 
HETATM   10  C19 UNL     1       0.670  11.076  16.383  1.00  0.00     0.036 C 
HETATM   11  C20 UNL     1       1.955  11.625  15.801  1.00  0.00    -0.068 C 
HETATM   12  C21 UNL     1       2.361  12.860  16.144  1.00  0.00     0.053 C 
HETATM   13  C22 UNL     1       3.537  13.500  15.509  1.00  0.00     0.149 C 
HETATM   14  O6  UNL     1       3.943  14.574  15.946  1.00  0.00    -0.293 OA
HETATM   15  C23 UNL     1       4.215  12.801  14.354  1.00  0.00     0.084 C 
HETATM   16  C24 UNL     1       3.324  11.735  13.718  1.00  0.00     0.022 C 
HETATM   17  C25 UNL     1       2.687  10.772  14.754  1.00  0.00    -0.014 C 
HETATM   18  C26 UNL     1       3.811   9.975  15.458  1.00  0.00     0.020 C 
HETATM   19  C27 UNL     1       1.611   9.856  14.071  1.00  0.00     0.034 C 
HETATM   20  C28 UNL     1       2.020   9.147  12.753  1.00  0.00     0.124 C 
HETATM   21  C29 UNL     1       0.885   8.274  12.165  1.00  0.00     0.048 C 
HETATM   22  C30 UNL     1       0.258   7.314  13.204  1.00  0.00     0.029 C 
HETATM   23  C31 UNL     1       1.281   6.184  13.533  1.00  0.00     0.022 C 
ENDROOT
BRANCH   3  24
HETATM   24  C6  UNL     1      -1.058   5.568  11.826  1.00  0.00     0.186 C 
HETATM   25  O2  UNL     1      -0.374   5.658  10.800  1.00  0.00    -0.292 OA
BRANCH  24  26
HETATM   26  C7  UNL     1      -1.897   4.320  12.107  1.00  0.00     0.260 C 
BRANCH  26  27
HETATM   27  O3  UNL     1      -3.301   4.570  12.004  1.00  0.00    -0.310 OA
BRANCH  27  28
HETATM   28  C8  UNL     1      -3.939   3.789  11.098  1.00  0.00     0.295 C 
HETATM   29  O4  UNL     1      -3.561   3.571   9.958  1.00  0.00    -0.259 OA
BRANCH  28  30
HETATM   30  C9  UNL     1      -5.187   3.232  11.662  1.00  0.00     0.054 A 
HETATM   31  C10 UNL     1      -5.933   3.994  12.565  1.00  0.00     0.020 A 
HETATM   32  C11 UNL     1      -7.109   3.471  13.099  1.00  0.00     0.018 A 
HETATM   33  C12 UNL     1      -7.498   2.199  12.713  1.00  0.00     0.087 A 
HETATM   34  N1  UNL     1      -6.801   1.434  11.844  1.00  0.00    -0.374 N 
HETATM   35  C13 UNL     1      -5.663   1.970  11.333  1.00  0.00     0.105 A 
ATOM     36  H1  UNL     1      -7.115   0.499  11.584  1.00  0.00     0.164 HD
ENDBRANCH  28  30
ENDBRANCH  27  28
ENDBRANCH  26  27
ENDBRANCH  24  26
ENDBRANCH   3  24
BRANCH   1  37
HETATM   37  C3  UNL     1      -3.485   8.930  13.828  1.00  0.00     0.029 C 
HETATM   38  C2  UNL     1      -4.558   8.200  13.483  1.00  0.00    -0.030 C 
HETATM   39  C1  UNL     1      -5.882   8.286  14.172  1.00  0.00     0.036 C 
ENDBRANCH   1  37
BRANCH  20  40
HETATM   40  O7  UNL     1       3.190   8.368  12.946  1.00  0.00    -0.395 OA
HETATM   41  H32 UNL     1       3.407   7.939  12.098  1.00  0.00     0.210 HD
ENDBRANCH  20  40
TORSDOF 7
ENDMDL
MODEL 5
REMARK minimizedAffinity -9.18271732
REMARK CNNscore 0.622950673
REMARK CNNaffinity 6.91719866
REMARK  7 active torsions:
REMARK  status: ('A' for Active; 'I' for Inactive)
REMARK    1  A    between atoms: C3_3  and  C4_4 
REMARK    2  A    between atoms: C5_6  and  C6_7 
REMARK    3  A    between atoms: C6_7  and  C7_9 
REMARK    4  A    between atoms: C7_9  and  O3_10 
REMARK    5  A    between atoms: O3_10  and  C8_11 
REMARK    6  A    between atoms: C8_11  and  C9_13 
REMARK    7  A    between atoms: C28_36  and  O7_37 
ROOT
HETATM    1  C4  UNL     1      -2.280   9.323  17.108  1.00  0.00     0.286 C 
HETATM    2  O1  UNL     1      -0.908   9.596  17.343  1.00  0.00    -0.338 OA
HETATM    3  C5  UNL     1      -0.090   9.781  16.191  1.00  0.00     0.137 C 
HETATM    4  C14 UNL     1      -0.566  11.047  15.425  1.00  0.00     0.050 C 
HETATM    5  C15 UNL     1      -1.609  10.527  14.414  1.00  0.00     0.043 C 
HETATM    6  C16 UNL     1      -1.717   9.030  14.735  1.00  0.00     0.079 C 
HETATM    7  O5  UNL     1      -2.645   8.866  15.818  1.00  0.00    -0.346 OA
HETATM    8  C17 UNL     1      -2.238   8.101  13.616  1.00  0.00     0.029 C 
HETATM    9  C18 UNL     1      -3.602   8.534  13.030  1.00  0.00     0.012 C 
HETATM   10  C19 UNL     1      -4.752   7.581  13.339  1.00  0.00     0.036 C 
HETATM   11  C20 UNL     1      -4.447   6.131  13.027  1.00  0.00    -0.068 C 
HETATM   12  C21 UNL     1      -5.459   5.286  12.760  1.00  0.00     0.053 C 
HETATM   13  C22 UNL     1      -5.235   3.833  12.577  1.00  0.00     0.149 C 
HETATM   14  O6  UNL     1      -6.169   3.125  12.208  1.00  0.00    -0.293 OA
HETATM   15  C23 UNL     1      -3.857   3.268  12.830  1.00  0.00     0.084 C 
HETATM   16  C24 UNL     1      -2.989   4.209  13.663  1.00  0.00     0.022 C 
HETATM   17  C25 UNL     1      -2.987   5.668  13.135  1.00  0.00    -0.014 C 
HETATM   18  C26 UNL     1      -2.351   5.693  11.725  1.00  0.00     0.020 C 
HETATM   19  C27 UNL     1      -2.274   6.625  14.155  1.00  0.00     0.034 C 
HETATM   20  C28 UNL     1      -0.894   6.174  14.701  1.00  0.00     0.124 C 
HETATM   21  C29 UNL     1      -0.283   7.188  15.698  1.00  0.00     0.048 C 
HETATM   22  C30 UNL     1      -0.282   8.640  15.163  1.00  0.00     0.029 C 
HETATM   23  C31 UNL     1       0.777   8.760  14.025  1.00  0.00     0.022 C 
ENDROOT
BRANCH   3  24
HETATM   24  C6  UNL     1       1.364   9.934  16.678  1.00  0.00     0.186 C 
HETATM   25  O2  UNL     1       2.298   9.309  16.164  1.00  0.00    -0.292 OA
BRANCH  24  26
HETATM   26  C7  UNL     1       1.605  10.889  17.849  1.00  0.00     0.260 C 
BRANCH  26  27
HETATM   27  O3  UNL     1       1.925  10.200  19.060  1.00  0.00    -0.310 OA
BRANCH  27  28
HETATM   28  C8  UNL     1       1.316  10.703  20.162  1.00  0.00     0.295 C 
HETATM   29  O4  UNL     1       0.265  11.326  20.171  1.00  0.00    -0.259 OA
BRANCH  28  30
HETATM   30  C9  UNL     1       2.102  10.416  21.381  1.00  0.00     0.054 A 
HETATM   31  C10 UNL     1       2.211   9.099  21.834  1.00  0.00     0.020 A 
HETATM   32  C11 UNL     1       2.950   8.826  22.983  1.00  0.00     0.018 A 
HETATM   33  C12 UNL     1       3.554   9.883  23.643  1.00  0.00     0.087 A 
HETATM   34  N1  UNL     1       3.470  11.168  23.234  1.00  0.00    -0.374 N 
HETATM   35  C13 UNL     1       2.749  11.405  22.108  1.00  0.00     0.105 A 
ATOM     36  H1  UNL     1       3.925  11.924  23.747  1.00  0.00     0.164 HD
ENDBRANCH  28  30
ENDBRANCH  27  28
ENDBRANCH  26  27
ENDBRANCH  24  26
ENDBRANCH   3  24
BRANCH   1  37
HETATM   37  C3  UNL     1      -3.133  10.498  17.493  1.00  0.00     0.029 C 
HETATM   38  C2  UNL     1      -3.173  11.045  18.719  1.00  0.00    -0.030 C 
HETATM   39  C1  UNL     1      -4.043  12.203  19.088  1.00  0.00     0.036 C 
ENDBRANCH   1  37
BRANCH  20  40
HETATM   40  O7  UNL     1       0.010   5.928  13.635  1.00  0.00    -0.395 OA
HETATM   41  H32 UNL     1       0.862   5.654  14.023  1.00  0.00     0.210 HD
ENDBRANCH  20  40
TORSDOF 7
ENDMDL
MODEL 6
REMARK minimizedAffinity -9.18185425
REMARK CNNscore 0.591601491
REMARK CNNaffinity 6.8987546
REMARK  7 active torsions:
REMARK  status: ('A' for Active; 'I' for Inactive)
REMARK    1  A    between atoms: C3_3  and  C4_4 
REMARK    2  A    between atoms: C5_6  and  C6_7 
REMARK    3  A    between atoms: C6_7  and  C7_9 
REMARK    4  A    between atoms: C7_9  and  O3_10 
REMARK    5  A    between atoms: O3_10  and  C8_11 
REMARK    6  A    between atoms: C8_11  and  C9_13 
REMARK    7  A    between atoms: C28_36  and  O7_37 
ROOT
HETATM    1  C4  UNL     1      -1.758   8.814  12.156  1.00  0.00     0.286 C 
HETATM    2  O1  UNL     1      -1.456   9.974  12.916  1.00  0.00    -0.338 OA
HETATM    3  C5  UNL     1      -1.424   9.815  14.333  1.00  0.00     0.137 C 
HETATM    4  C14 UNL     1      -0.270   8.845  14.711  1.00  0.00     0.050 C 
HETATM    5  C15 UNL     1      -0.918   7.445  14.722  1.00  0.00     0.043 C 
HETATM    6  C16 UNL     1      -2.360   7.706  14.264  1.00  0.00     0.079 C 
HETATM    7  O5  UNL     1      -2.380   7.735  12.829  1.00  0.00    -0.346 OA
HETATM    8  C17 UNL     1      -3.428   6.662  14.659  1.00  0.00     0.029 C 
HETATM    9  C18 UNL     1      -3.076   5.217  14.235  1.00  0.00     0.012 C 
HETATM   10  C19 UNL     1      -3.981   4.641  13.151  1.00  0.00     0.036 C 
HETATM   11  C20 UNL     1      -5.460   4.791  13.442  1.00  0.00    -0.068 C 
HETATM   12  C21 UNL     1      -6.332   3.931  12.888  1.00  0.00     0.053 C 
HETATM   13  C22 UNL     1      -7.797   4.106  13.029  1.00  0.00     0.149 C 
HETATM   14  O6  UNL     1      -8.548   3.225  12.615  1.00  0.00    -0.293 OA
HETATM   15  C23 UNL     1      -8.323   5.354  13.697  1.00  0.00     0.084 C 
HETATM   16  C24 UNL     1      -7.281   6.469  13.745  1.00  0.00     0.022 C 
HETATM   17  C25 UNL     1      -5.904   5.997  14.282  1.00  0.00    -0.014 C 
HETATM   18  C26 UNL     1      -6.064   5.547  15.754  1.00  0.00     0.020 C 
HETATM   19  C27 UNL     1      -4.821   7.117  14.090  1.00  0.00     0.034 C 
HETATM   20  C28 UNL     1      -5.196   8.550  14.554  1.00  0.00     0.124 C 
HETATM   21  C29 UNL     1      -4.059   9.573  14.316  1.00  0.00     0.048 C 
HETATM   22  C30 UNL     1      -2.690   9.096  14.857  1.00  0.00     0.029 C 
HETATM   23  C31 UNL     1      -2.720   9.133  16.416  1.00  0.00     0.022 C 
ENDROOT
BRANCH   3  24
HETATM   24  C6  UNL     1      -1.208  11.211  14.948  1.00  0.00     0.186 C 
HETATM   25  O2  UNL     1      -1.938  12.170  14.674  1.00  0.00    -0.292 OA
BRANCH  24  26
HETATM   26  C7  UNL     1      -0.028  11.369  15.909  1.00  0.00     0.260 C 
BRANCH  26  27
HETATM   27  O3  UNL     1      -0.288  12.320  16.944  1.00  0.00    -0.310 OA
BRANCH  27  28
HETATM   28  C8  UNL     1      -0.724  11.772  18.105  1.00  0.00     0.295 C 
HETATM   29  O4  UNL     1      -0.250  10.784  18.645  1.00  0.00    -0.259 OA
BRANCH  28  30
HETATM   30  C9  UNL     1      -1.880  12.519  18.644  1.00  0.00     0.054 A 
HETATM   31  C10 UNL     1      -3.137  11.910  18.677  1.00  0.00     0.020 A 
HETATM   32  C11 UNL     1      -4.228  12.612  19.184  1.00  0.00     0.018 A 
HETATM   33  C12 UNL     1      -4.025  13.905  19.640  1.00  0.00     0.087 A 
HETATM   34  N1  UNL     1      -2.824  14.525  19.623  1.00  0.00    -0.374 N 
HETATM   35  C13 UNL     1      -1.777  13.815  19.130  1.00  0.00     0.105 A 
ATOM     36  H1  UNL     1      -2.710  15.479  19.964  1.00  0.00     0.164 HD
ENDBRANCH  28  30
ENDBRANCH  27  28
ENDBRANCH  26  27
ENDBRANCH  24  26
ENDBRANCH   3  24
BRANCH   1  37
HETATM   37  C3  UNL     1      -0.543   8.325  11.421  1.00  0.00     0.029 C 
HETATM   38  C2  UNL     1      -0.268   7.035  11.169  1.00  0.00    -0.030 C 
HETATM   39  C1  UNL     1       0.956   6.567  10.451  1.00  0.00     0.036 C 
ENDBRANCH   1  37
BRANCH  20  40
HETATM   40  O7  UNL     1      -5.580   8.550  15.919  1.00  0.00    -0.395 OA
HETATM   41  H32 UNL     1      -5.800   9.466  16.168  1.00  0.00     0.210 HD
ENDBRANCH  20  40
TORSDOF 7
ENDMDL
MODEL 7
REMARK minimizedAffinity -8.89642048
REMARK CNNscore 0.558925748
REMARK CNNaffinity 6.90130854
REMARK  7 active torsions:
REMARK  status: ('A' for Active; 'I' for Inactive)
REMARK    1  A    between atoms: C3_3  and  C4_4 
REMARK    2  A    between atoms: C5_6  and  C6_7 
REMARK    3  A    between atoms: C6_7  and  C7_9 
REMARK    4  A    between atoms: C7_9  and  O3_10 
REMARK    5  A    between atoms: O3_10  and  C8_11 
REMARK    6  A    between atoms: C8_11  and  C9_13 
REMARK    7  A    between atoms: C28_36  and  O7_37 
ROOT
HETATM    1  C4  UNL     1      -1.753   8.852  12.146  1.00  0.00     0.286 C 
HETATM    2  O1  UNL     1      -1.439  10.010  12.904  1.00  0.00    -0.338 OA
HETATM    3  C5  UNL     1      -1.387   9.849  14.319  1.00  0.00     0.137 C 
HETATM    4  C14 UNL     1      -0.230   8.877  14.680  1.00  0.00     0.050 C 
HETATM    5  C15 UNL     1      -0.880   7.478  14.698  1.00  0.00     0.043 C 
HETATM    6  C16 UNL     1      -2.328   7.741  14.261  1.00  0.00     0.079 C 
HETATM    7  O5  UNL     1      -2.368   7.772  12.826  1.00  0.00    -0.346 OA
HETATM    8  C17 UNL     1      -3.392   6.699  14.669  1.00  0.00     0.029 C 
HETATM    9  C18 UNL     1      -3.048   5.254  14.238  1.00  0.00     0.012 C 
HETATM   10  C19 UNL     1      -3.969   4.680  13.166  1.00  0.00     0.036 C 
HETATM   11  C20 UNL     1      -5.443   4.832  13.477  1.00  0.00    -0.068 C 
HETATM   12  C21 UNL     1      -6.325   3.974  12.934  1.00  0.00     0.053 C 
HETATM   13  C22 UNL     1      -7.787   4.151  13.096  1.00  0.00     0.149 C 
HETATM   14  O6  UNL     1      -8.545   3.273  12.691  1.00  0.00    -0.293 OA
HETATM   15  C23 UNL     1      -8.302   5.399  13.772  1.00  0.00     0.084 C 
HETATM   16  C24 UNL     1      -7.257   6.513  13.808  1.00  0.00     0.022 C 
HETATM   17  C25 UNL     1      -5.874   6.038  14.325  1.00  0.00    -0.014 C 
HETATM   18  C26 UNL     1      -6.015   5.586  15.798  1.00  0.00     0.020 C 
HETATM   19  C27 UNL     1      -4.792   7.157  14.120  1.00  0.00     0.034 C 
HETATM   20  C28 UNL     1      -5.158   8.589  14.590  1.00  0.00     0.124 C 
HETATM   21  C29 UNL     1      -4.023   9.611  14.338  1.00  0.00     0.048 C 
HETATM   22  C30 UNL     1      -2.648   9.131  14.860  1.00  0.00     0.029 C 
HETATM   23  C31 UNL     1      -2.656   9.166  16.419  1.00  0.00     0.022 C 
ENDROOT
BRANCH   3  24
HETATM   24  C6  UNL     1      -1.161  11.244  14.933  1.00  0.00     0.186 C 
HETATM   25  O2  UNL     1      -0.153  11.514  15.596  1.00  0.00    -0.292 OA
BRANCH  24  26
HETATM   26  C7  UNL     1      -2.255  12.288  14.701  1.00  0.00     0.260 C 
BRANCH  26  27
HETATM   27  O3  UNL     1      -1.784  13.625  14.888  1.00  0.00    -0.310 OA
BRANCH  27  28
HETATM   28  C8  UNL     1      -2.096  14.470  13.875  1.00  0.00     0.295 C 
HETATM   29  O4  UNL     1      -1.507  14.548  12.808  1.00  0.00    -0.259 OA
BRANCH  28  30
HETATM   30  C9  UNL     1      -3.252  15.321  14.230  1.00  0.00     0.054 A 
HETATM   31  C10 UNL     1      -3.065  16.693  14.414  1.00  0.00     0.020 A 
HETATM   32  C11 UNL     1      -4.152  17.497  14.749  1.00  0.00     0.018 A 
HETATM   33  C12 UNL     1      -5.393  16.898  14.893  1.00  0.00     0.087 A 
HETATM   34  N1  UNL     1      -5.611  15.575  14.723  1.00  0.00    -0.374 N 
HETATM   35  C13 UNL     1      -4.535  14.816  14.390  1.00  0.00     0.105 A 
ATOM     36  H1  UNL     1      -6.538  15.166  14.840  1.00  0.00     0.164 HD
ENDBRANCH  28  30
ENDBRANCH  27  28
ENDBRANCH  26  27
ENDBRANCH  24  26
ENDBRANCH   3  24
BRANCH   1  37
HETATM   37  C3  UNL     1      -0.549   8.362  11.394  1.00  0.00     0.029 C 
HETATM   38  C2  UNL     1      -0.283   7.072  11.131  1.00  0.00    -0.030 C 
HETATM   39  C1  UNL     1       0.931   6.603  10.396  1.00  0.00     0.036 C 
ENDBRANCH   1  37
BRANCH  20  40
HETATM   40  O7  UNL     1      -5.523   8.588  15.961  1.00  0.00    -0.395 OA
HETATM   41  H32 UNL     1      -5.739   9.504  16.214  1.00  0.00     0.210 HD
ENDBRANCH  20  40
TORSDOF 7
ENDMDL
MODEL 8
REMARK minimizedAffinity -10.0438023
REMARK CNNscore 0.512542784
REMARK CNNaffinity 7.13153887
REMARK  7 active torsions:
REMARK  status: ('A' for Active; 'I' for Inactive)
REMARK    1  A    between atoms: C3_3  and  C4_4 
REMARK    2  A    between atoms: C5_6  and  C6_7 
REMARK    3  A    between atoms: C6_7  and  C7_9 
REMARK    4  A    between atoms: C7_9  and  O3_10 
REMARK    5  A    between atoms: O3_10  and  C8_11 
REMARK    6  A    between atoms: C8_11  and  C9_13 
REMARK    7  A    between atoms: C28_36  and  O7_37 
ROOT
HETATM    1  C4  UNL     1       0.666   7.852  10.031  1.00  0.00     0.286 C 
HETATM    2  O1  UNL     1       1.683   8.629  10.644  1.00  0.00    -0.338 OA
HETATM    3  C5  UNL     1       2.229   8.119  11.858  1.00  0.00     0.137 C 
HETATM    4  C14 UNL     1       2.951   6.774  11.567  1.00  0.00     0.050 C 
HETATM    5  C15 UNL     1       1.871   5.692  11.776  1.00  0.00     0.043 C 
HETATM    6  C16 UNL     1       0.599   6.498  12.080  1.00  0.00     0.079 C 
HETATM    7  O5  UNL     1       0.005   6.891  10.833  1.00  0.00    -0.346 OA
HETATM    8  C17 UNL     1      -0.528   5.778  12.853  1.00  0.00     0.029 C 
HETATM    9  C18 UNL     1      -0.982   4.451  12.202  1.00  0.00     0.012 C 
HETATM   10  C19 UNL     1      -2.398   4.478  11.637  1.00  0.00     0.036 C 
HETATM   11  C20 UNL     1      -3.435   5.007  12.605  1.00  0.00    -0.068 C 
HETATM   12  C21 UNL     1      -4.719   4.632  12.467  1.00  0.00     0.053 C 
HETATM   13  C22 UNL     1      -5.797   5.216  13.300  1.00  0.00     0.149 C 
HETATM   14  O6  UNL     1      -6.931   4.749  13.226  1.00  0.00    -0.293 OA
HETATM   15  C23 UNL     1      -5.464   6.357  14.232  1.00  0.00     0.084 C 
HETATM   16  C24 UNL     1      -4.147   7.039  13.865  1.00  0.00     0.022 C 
HETATM   17  C25 UNL     1      -2.981   6.040  13.646  1.00  0.00    -0.014 C 
HETATM   18  C26 UNL     1      -2.685   5.310  14.978  1.00  0.00     0.020 C 
HETATM   19  C27 UNL     1      -1.727   6.774  13.050  1.00  0.00     0.034 C 
HETATM   20  C28 UNL     1      -1.281   8.088  13.745  1.00  0.00     0.124 C 
HETATM   21  C29 UNL     1      -0.041   8.728  13.075  1.00  0.00     0.048 C 
HETATM   22  C30 UNL     1       1.119   7.726  12.863  1.00  0.00     0.029 C 
HETATM   23  C31 UNL     1       1.749   7.379  14.247  1.00  0.00     0.022 C 
ENDROOT
BRANCH   3  24
HETATM   24  C6  UNL     1       3.209   9.176  12.402  1.00  0.00     0.186 C 
HETATM   25  O2  UNL     1       2.825  10.151  13.057  1.00  0.00    -0.292 OA
BRANCH  24  26
HETATM   26  C7  UNL     1       4.691   8.976  12.081  1.00  0.00     0.260 C 
BRANCH  26  27
HETATM   27  O3  UNL     1       5.321   8.042  12.961  1.00  0.00    -0.310 OA
BRANCH  27  28
HETATM   28  C8  UNL     1       6.638   7.843  12.710  1.00  0.00     0.295 C 
HETATM   29  O4  UNL     1       7.123   7.594  11.617  1.00  0.00    -0.259 OA
BRANCH  28  30
HETATM   30  C9  UNL     1       7.437   7.950  13.949  1.00  0.00     0.054 A 
HETATM   31  C10 UNL     1       8.833   7.938  13.871  1.00  0.00     0.020 A 
HETATM   32  C11 UNL     1       9.588   8.038  15.037  1.00  0.00     0.018 A 
HETATM   33  C12 UNL     1       8.920   8.144  16.247  1.00  0.00     0.087 A 
HETATM   34  N1  UNL     1       7.573   8.158  16.360  1.00  0.00    -0.374 N 
HETATM   35  C13 UNL     1       6.862   8.067  15.208  1.00  0.00     0.105 A 
ATOM     36  H1  UNL     1       7.114   8.234  17.268  1.00  0.00     0.164 HD
ENDBRANCH  28  30
ENDBRANCH  27  28
ENDBRANCH  26  27
ENDBRANCH  24  26
ENDBRANCH   3  24
BRANCH   1  37
HETATM   37  C3  UNL     1       1.170   7.208   8.772  1.00  0.00     0.029 C 
HETATM   38  C2  UNL     1       1.449   7.864   7.634  1.00  0.00    -0.030 C 
HETATM   39  C1  UNL     1       1.933   7.201   6.386  1.00  0.00     0.036 C 
ENDBRANCH   1  37
BRANCH  20  40
HETATM   40  O7  UNL     1      -1.036   7.866  15.125  1.00  0.00    -0.395 OA
HETATM   41  H32 UNL     1      -0.754   8.713  15.518  1.00  0.00     0.210 HD
ENDBRANCH  20  40
TORSDOF 7
ENDMDL
MODEL 9
REMARK minimizedAffinity -7.959517
REMARK CNNscore 0.498012096
REMARK CNNaffinity 7.18953848
REMARK  7 active torsions:
REMARK  status: ('A' for Active; 'I' for Inactive)
REMARK    1  A    between atoms: C3_3  and  C4_4 
REMARK    2  A    between atoms: C5_6  and  C6_7 
REMARK    3  A    between atoms: C6_7  and  C7_9 
REMARK    4  A    between atoms: C7_9  and  O3_10 
REMARK    5  A    between atoms: O3_10  and  C8_11 
REMARK    6  A    between atoms: C8_11  and  C9_13 
REMARK    7  A    between atoms: C28_36  and  O7_37 
ROOT
HETATM    1  C4  UNL     1      -3.290   5.843  12.280  1.00  0.00     0.286 C 
HETATM    2  O1  UNL     1      -2.107   6.589  12.523  1.00  0.00    -0.338 OA
HETATM    3  C5  UNL     1      -1.804   6.874  13.886  1.00  0.00     0.137 C 
HETATM    4  C14 UNL     1      -1.532   5.541  14.638  1.00  0.00     0.050 C 
HETATM    5  C15 UNL     1      -2.906   5.112  15.192  1.00  0.00     0.043 C 
HETATM    6  C16 UNL     1      -3.870   6.174  14.644  1.00  0.00     0.079 C 
HETATM    7  O5  UNL     1      -4.255   5.791  13.314  1.00  0.00    -0.346 OA
HETATM    8  C17 UNL     1      -5.200   6.382  15.402  1.00  0.00     0.029 C 
HETATM    9  C18 UNL     1      -6.021   5.085  15.592  1.00  0.00     0.012 C 
HETATM   10  C19 UNL     1      -7.329   5.048  14.810  1.00  0.00     0.036 C 
HETATM   11  C20 UNL     1      -8.188   6.281  14.992  1.00  0.00    -0.068 C 
HETATM   12  C21 UNL     1      -9.518   6.193  14.809  1.00  0.00     0.053 C 
HETATM   13  C22 UNL     1     -10.391   7.390  14.844  1.00  0.00     0.149 C 
HETATM   14  O6  UNL     1     -11.611   7.243  14.801  1.00  0.00    -0.293 OA
HETATM   15  C23 UNL     1      -9.756   8.756  14.953  1.00  0.00     0.084 C 
HETATM   16  C24 UNL     1      -8.277   8.740  14.573  1.00  0.00     0.022 C 
HETATM   17  C25 UNL     1      -7.477   7.612  15.277  1.00  0.00    -0.014 C 
HETATM   18  C26 UNL     1      -7.486   7.865  16.803  1.00  0.00     0.020 C 
HETATM   19  C27 UNL     1      -6.031   7.501  14.676  1.00  0.00     0.034 C 
HETATM   20  C28 UNL     1      -5.224   8.817  14.526  1.00  0.00     0.124 C 
HETATM   21  C29 UNL     1      -3.817   8.592  13.922  1.00  0.00     0.048 C 
HETATM   22  C30 UNL     1      -3.024   7.469  14.631  1.00  0.00     0.029 C 
HETATM   23  C31 UNL     1      -2.598   7.965  16.047  1.00  0.00     0.022 C 
ENDROOT
BRANCH   3  24
HETATM   24  C6  UNL     1      -0.566   7.790  13.901  1.00  0.00     0.186 C 
HETATM   25  O2  UNL     1       0.322   7.680  14.753  1.00  0.00    -0.292 OA
BRANCH  24  26
HETATM   26  C7  UNL     1      -0.488   8.866  12.816  1.00  0.00     0.260 C 
BRANCH  26  27
HETATM   27  O3  UNL     1       0.699   8.761  12.026  1.00  0.00    -0.310 OA
BRANCH  27  28
HETATM   28  C8  UNL     1       0.479   8.410  10.735  1.00  0.00     0.295 C 
HETATM   29  O4  UNL     1      -0.398   8.864  10.016  1.00  0.00    -0.259 OA
BRANCH  28  30
HETATM   30  C9  UNL     1       1.437   7.375  10.295  1.00  0.00     0.054 A 
HETATM   31  C10 UNL     1       1.787   7.292   8.944  1.00  0.00     0.020 A 
HETATM   32  C11 UNL     1       2.690   6.317   8.526  1.00  0.00     0.018 A 
HETATM   33  C12 UNL     1       3.211   5.453   9.475  1.00  0.00     0.087 A 
HETATM   34  N1  UNL     1       2.895   5.503  10.788  1.00  0.00    -0.374 N 
HETATM   35  C13 UNL     1       2.019   6.467  11.169  1.00  0.00     0.105 A 
ATOM     36  H1  UNL     1       3.295   4.848  11.460  1.00  0.00     0.164 HD
ENDBRANCH  28  30
ENDBRANCH  27  28
ENDBRANCH  26  27
ENDBRANCH  24  26
ENDBRANCH   3  24
BRANCH   1  37
HETATM   37  C3  UNL     1      -2.960   4.452  11.820  1.00  0.00     0.029 C 
HETATM   38  C2  UNL     1      -3.632   3.346  12.180  1.00  0.00    -0.030 C 
HETATM   39  C1  UNL     1      -3.276   1.968  11.725  1.00  0.00     0.036 C 
ENDBRANCH   1  37
BRANCH  20  40
HETATM   40  O7  UNL     1      -5.122   9.486  15.773  1.00  0.00    -0.395 OA
HETATM   41  H32 UNL     1      -4.605  10.301  15.634  1.00  0.00     0.210 HD
ENDBRANCH  20  40
TORSDOF 7
ENDMDL
