MODEL 1
REMARK minimizedAffinity -8.36377907
REMARK  11 active torsions:
REMARK  status: ('A' for Active; 'I' for Inactive)
REMARK    1  A    between atoms: C5_5  and  C6_6 
REMARK    2  A    between atoms: C6_6  and  C8_8 
REMARK    3  A    between atoms: C8_8  and  O1_9 
REMARK    4  A    between atoms: O1_9  and  C9_10 
REMARK    5  A    between atoms: C9_10  and  C10_12 
REMARK    6  A    between atoms: C10_12  and  C11_13 
REMARK    7  A    between atoms: C17_20  and  O4_22 
REMARK    8  A    between atoms: C22_26  and  O5_28 
REMARK    9  A    between atoms: O5_28  and  C24_29 
REMARK   10  A    between atoms: C24_29  and  C25_31 
REMARK   11  A    between atoms: C25_31  and  C26_32 
ROOT
HETATM    1  C1  UNL     1      -3.432  48.447 -25.913  1.00  0.00     0.015 C 
HETATM    2  C2  UNL     1      -3.715  49.214 -24.847  1.00  0.00    -0.077 C 
HETATM    3  C3  UNL     1      -4.173  50.643 -25.009  1.00  0.00     0.034 C 
HETATM    4  C4  UNL     1      -3.748  51.543 -23.842  1.00  0.00     0.010 C 
HETATM    5  C5  UNL     1      -2.409  51.127 -23.200  1.00  0.00    -0.001 C 
HETATM    6  C13 UNL     1      -2.583  49.707 -22.573  1.00  0.00     0.037 C 
HETATM    7  C14 UNL     1      -3.531  48.727 -23.425  1.00  0.00     0.090 C 
HETATM    8  C15 UNL     1      -4.957  48.394 -22.821  1.00  0.00     0.138 C 
HETATM    9  O3  UNL     1      -5.876  49.219 -22.835  1.00  0.00    -0.297 OA
HETATM   10  C16 UNL     1      -5.173  47.009 -22.150  1.00  0.00     0.119 C 
HETATM   11  C17 UNL     1      -5.166  46.983 -20.569  1.00  0.00     0.087 C 
HETATM   12  C18 UNL     1      -4.518  45.677 -20.094  1.00  0.00     0.049 C 
HETATM   13  C19 UNL     1      -4.444  48.230 -20.035  1.00  0.00     0.156 C 
HETATM   14  C20 UNL     1      -3.880  48.420 -18.633  1.00  0.00     0.038 C 
HETATM   15  C21 UNL     1      -2.535  49.221 -18.671  1.00  0.00     0.043 C 
HETATM   16  C22 UNL     1      -2.321  50.245 -19.868  1.00  0.00     0.093 C 
HETATM   17  C23 UNL     1      -2.834  51.642 -19.479  1.00  0.00     0.049 C 
HETATM   18  C28 UNL     1      -3.101  49.747 -21.121  1.00  0.00     0.162 C 
HETATM   19  O7  UNL     1      -3.316  48.360 -20.882  1.00  0.00    -0.374 OA
ENDROOT
BRANCH   5  20
HETATM   20  C6  UNL     1      -1.191  51.215 -24.182  1.00  0.00     0.010 C 
HETATM   21  C7  UNL     1      -1.446  50.468 -25.503  1.00  0.00     0.012 C 
BRANCH  20  22
HETATM   22  C8  UNL     1      -0.832  52.678 -24.527  1.00  0.00     0.183 C 
BRANCH  22  23
HETATM   23  O1  UNL     1      -1.098  52.906 -25.924  1.00  0.00    -0.321 OA
BRANCH  23  24
HETATM   24  C9  UNL     1      -0.237  53.755 -26.549  1.00  0.00     0.258 C 
HETATM   25  O2  UNL     1       0.292  54.730 -26.033  1.00  0.00    -0.265 OA
BRANCH  24  26
HETATM   26  C10 UNL     1      -0.014  53.290 -27.968  1.00  0.00     0.111 C 
BRANCH  26  27
HETATM   27  C11 UNL     1       0.582  51.884 -28.017  1.00  0.00     0.005 C 
HETATM   28  C12 UNL     1       1.915  51.820 -27.291  1.00  0.00     0.005 C 
ENDBRANCH  26  27
ENDBRANCH  24  26
ENDBRANCH  23  24
ENDBRANCH  22  23
ENDBRANCH  20  22
ENDBRANCH   5  20
BRANCH  16  29
HETATM   29  O5  UNL     1      -0.916  50.317 -20.237  1.00  0.00    -0.308 OA
BRANCH  29  30
HETATM   30  C24 UNL     1      -0.134  51.336 -19.774  1.00  0.00     0.259 C 
HETATM   31  O6  UNL     1       0.185  51.515 -18.607  1.00  0.00    -0.265 OA
BRANCH  30  32
HETATM   32  C25 UNL     1       0.240  52.239 -20.924  1.00  0.00     0.111 C 
BRANCH  32  33
HETATM   33  C26 UNL     1       0.700  53.625 -20.482  1.00  0.00     0.005 C 
HETATM   34  C27 UNL     1       1.587  54.303 -21.517  1.00  0.00     0.005 C 
ENDBRANCH  32  33
ENDBRANCH  30  32
ENDBRANCH  29  30
ENDBRANCH  16  29
BRANCH  11  35
HETATM   35  O4  UNL     1      -6.507  46.990 -20.068  1.00  0.00    -0.387 OA
HETATM   36  H28 UNL     1      -6.995  46.255 -20.482  1.00  0.00     0.210 HD
ENDBRANCH  11  35
TORSDOF 11
ENDMDL
MODEL 2
REMARK minimizedAffinity -8.29917145
REMARK  11 active torsions:
REMARK  status: ('A' for Active; 'I' for Inactive)
REMARK    1  A    between atoms: C5_5  and  C6_6 
REMARK    2  A    between atoms: C6_6  and  C8_8 
REMARK    3  A    between atoms: C8_8  and  O1_9 
REMARK    4  A    between atoms: O1_9  and  C9_10 
REMARK    5  A    between atoms: C9_10  and  C10_12 
REMARK    6  A    between atoms: C10_12  and  C11_13 
REMARK    7  A    between atoms: C17_20  and  O4_22 
REMARK    8  A    between atoms: C22_26  and  O5_28 
REMARK    9  A    between atoms: O5_28  and  C24_29 
REMARK   10  A    between atoms: C24_29  and  C25_31 
REMARK   11  A    between atoms: C25_31  and  C26_32 
ROOT
HETATM    1  C1  UNL     1      -4.997  46.871 -21.848  1.00  0.00     0.015 C 
HETATM    2  C2  UNL     1      -4.818  48.171 -22.137  1.00  0.00    -0.077 C 
HETATM    3  C3  UNL     1      -5.877  48.968 -22.858  1.00  0.00     0.034 C 
HETATM    4  C4  UNL     1      -5.295  50.090 -23.725  1.00  0.00     0.010 C 
HETATM    5  C5  UNL     1      -3.907  49.759 -24.311  1.00  0.00    -0.001 C 
HETATM    6  C13 UNL     1      -2.899  49.596 -23.129  1.00  0.00     0.037 C 
HETATM    7  C14 UNL     1      -3.529  48.901 -21.822  1.00  0.00     0.090 C 
HETATM    8  C15 UNL     1      -3.771  49.825 -20.559  1.00  0.00     0.138 C 
HETATM    9  O3  UNL     1      -4.700  50.638 -20.517  1.00  0.00    -0.297 OA
HETATM   10  C16 UNL     1      -2.774  49.731 -19.370  1.00  0.00     0.119 C 
HETATM   11  C17 UNL     1      -1.702  50.888 -19.256  1.00  0.00     0.087 C 
HETATM   12  C18 UNL     1      -0.386  50.299 -18.734  1.00  0.00     0.049 C 
HETATM   13  C19 UNL     1      -1.542  51.580 -20.618  1.00  0.00     0.156 C 
HETATM   14  C20 UNL     1      -0.380  52.461 -21.056  1.00  0.00     0.038 C 
HETATM   15  C21 UNL     1      -0.032  52.227 -22.564  1.00  0.00     0.043 C 
HETATM   16  C22 UNL     1      -1.206  51.753 -23.525  1.00  0.00     0.093 C 
HETATM   17  C23 UNL     1      -1.914  52.967 -24.151  1.00  0.00     0.049 C 
HETATM   18  C28 UNL     1      -2.243  50.926 -22.708  1.00  0.00     0.162 C 
HETATM   19  O7  UNL     1      -1.533  50.510 -21.545  1.00  0.00    -0.374 OA
ENDROOT
BRANCH   5  20
HETATM   20  C6  UNL     1      -3.917  48.526 -25.280  1.00  0.00     0.010 C 
HETATM   21  C7  UNL     1      -5.341  48.117 -25.696  1.00  0.00     0.012 C 
BRANCH  20  22
HETATM   22  C8  UNL     1      -3.107  48.798 -26.567  1.00  0.00     0.183 C 
BRANCH  22  23
HETATM   23  O1  UNL     1      -3.692  48.053 -27.651  1.00  0.00    -0.321 OA
BRANCH  23  24
HETATM   24  C9  UNL     1      -4.235  48.804 -28.649  1.00  0.00     0.258 C 
HETATM   25  O2  UNL     1      -3.761  49.843 -29.087  1.00  0.00    -0.265 OA
BRANCH  24  26
HETATM   26  C10 UNL     1      -5.495  48.141 -29.149  1.00  0.00     0.111 C 
BRANCH  26  27
HETATM   27  C11 UNL     1      -5.274  47.437 -30.487  1.00  0.00     0.005 C 
HETATM   28  C12 UNL     1      -6.018  48.136 -31.613  1.00  0.00     0.005 C 
ENDBRANCH  26  27
ENDBRANCH  24  26
ENDBRANCH  23  24
ENDBRANCH  22  23
ENDBRANCH  20  22
ENDBRANCH   5  20
BRANCH  16  29
HETATM   29  O5  UNL     1      -0.693  50.883 -24.572  1.00  0.00    -0.308 OA
BRANCH  29  30
HETATM   30  C24 UNL     1      -0.275  51.410 -25.761  1.00  0.00     0.259 C 
HETATM   31  O6  UNL     1      -0.900  51.380 -26.812  1.00  0.00    -0.265 OA
BRANCH  30  32
HETATM   32  C25 UNL     1       1.104  51.997 -25.589  1.00  0.00     0.111 C 
BRANCH  32  33
HETATM   33  C26 UNL     1       2.184  51.245 -26.360  1.00  0.00     0.005 C 
HETATM   34  C27 UNL     1       2.312  51.724 -27.801  1.00  0.00     0.005 C 
ENDBRANCH  32  33
ENDBRANCH  30  32
ENDBRANCH  29  30
ENDBRANCH  16  29
BRANCH  11  35
HETATM   35  O4  UNL     1      -2.130  51.865 -18.301  1.00  0.00    -0.387 OA
HETATM   36  H28 UNL     1      -2.326  51.412 -17.462  1.00  0.00     0.210 HD
ENDBRANCH  11  35
TORSDOF 11
ENDMDL
MODEL 3
REMARK minimizedAffinity -7.86027765
REMARK  11 active torsions:
REMARK  status: ('A' for Active; 'I' for Inactive)
REMARK    1  A    between atoms: C5_5  and  C6_6 
REMARK    2  A    between atoms: C6_6  and  C8_8 
REMARK    3  A    between atoms: C8_8  and  O1_9 
REMARK    4  A    between atoms: O1_9  and  C9_10 
REMARK    5  A    between atoms: C9_10  and  C10_12 
REMARK    6  A    between atoms: C10_12  and  C11_13 
REMARK    7  A    between atoms: C17_20  and  O4_22 
REMARK    8  A    between atoms: C22_26  and  O5_28 
REMARK    9  A    between atoms: O5_28  and  C24_29 
REMARK   10  A    between atoms: C24_29  and  C25_31 
REMARK   11  A    between atoms: C25_31  and  C26_32 
ROOT
HETATM    1  C1  UNL     1       1.986  51.725 -25.703  1.00  0.00     0.015 C 
HETATM    2  C2  UNL     1       0.772  52.162 -25.326  1.00  0.00    -0.077 C 
HETATM    3  C3  UNL     1       0.552  53.593 -24.899  1.00  0.00     0.034 C 
HETATM    4  C4  UNL     1      -0.567  53.742 -23.861  1.00  0.00     0.010 C 
HETATM    5  C5  UNL     1      -0.704  52.525 -22.924  1.00  0.00    -0.001 C 
HETATM    6  C13 UNL     1      -1.111  51.285 -23.783  1.00  0.00     0.037 C 
HETATM    7  C14 UNL     1      -0.429  51.245 -25.239  1.00  0.00     0.090 C 
HETATM    8  C15 UNL     1      -1.367  51.529 -26.484  1.00  0.00     0.138 C 
HETATM    9  O3  UNL     1      -1.764  52.667 -26.752  1.00  0.00    -0.297 OA
HETATM   10  C16 UNL     1      -1.834  50.325 -27.350  1.00  0.00     0.119 C 
HETATM   11  C17 UNL     1      -3.314  49.820 -27.115  1.00  0.00     0.087 C 
HETATM   12  C18 UNL     1      -3.351  48.295 -27.271  1.00  0.00     0.049 C 
HETATM   13  C19 UNL     1      -3.807  50.287 -25.737  1.00  0.00     0.156 C 
HETATM   14  C20 UNL     1      -4.988  49.723 -24.959  1.00  0.00     0.038 C 
HETATM   15  C21 UNL     1      -4.685  49.685 -23.423  1.00  0.00     0.043 C 
HETATM   16  C22 UNL     1      -3.665  50.760 -22.847  1.00  0.00     0.093 C 
HETATM   17  C23 UNL     1      -4.414  52.026 -22.397  1.00  0.00     0.049 C 
HETATM   18  C28 UNL     1      -2.636  51.143 -23.953  1.00  0.00     0.162 C 
HETATM   19  O7  UNL     1      -2.697  50.068 -24.886  1.00  0.00    -0.374 OA
ENDROOT
BRANCH   5  20
HETATM   20  C6  UNL     1       0.568  52.267 -22.045  1.00  0.00     0.010 C 
HETATM   21  C7  UNL     1       1.250  53.574 -21.601  1.00  0.00     0.012 C 
BRANCH  20  22
HETATM   22  C8  UNL     1       0.237  51.452 -20.775  1.00  0.00     0.183 C 
BRANCH  22  23
HETATM   23  O1  UNL     1      -0.400  52.318 -19.818  1.00  0.00    -0.321 OA
BRANCH  23  24
HETATM   24  C9  UNL     1      -1.189  51.693 -18.901  1.00  0.00     0.258 C 
HETATM   25  O2  UNL     1      -2.357  51.973 -18.669  1.00  0.00    -0.265 OA
BRANCH  24  26
HETATM   26  C10 UNL     1      -0.409  50.584 -18.238  1.00  0.00     0.111 C 
BRANCH  26  27
HETATM   27  C11 UNL     1       0.494  51.113 -17.124  1.00  0.00     0.005 C 
HETATM   28  C12 UNL     1       0.559  50.144 -15.955  1.00  0.00     0.005 C 
ENDBRANCH  26  27
ENDBRANCH  24  26
ENDBRANCH  23  24
ENDBRANCH  22  23
ENDBRANCH  20  22
ENDBRANCH   5  20
BRANCH  16  29
HETATM   29  O5  UNL     1      -2.911  50.207 -21.733  1.00  0.00    -0.308 OA
BRANCH  29  30
HETATM   30  C24 UNL     1      -3.414  49.161 -21.013  1.00  0.00     0.259 C 
HETATM   31  O6  UNL     1      -3.930  49.241 -19.907  1.00  0.00    -0.265 OA
BRANCH  30  32
HETATM   32  C25 UNL     1      -3.194  47.878 -21.777  1.00  0.00     0.111 C 
BRANCH  32  33
HETATM   33  C26 UNL     1      -1.938  47.125 -21.348  1.00  0.00     0.005 C 
HETATM   34  C27 UNL     1      -0.880  48.047 -20.756  1.00  0.00     0.005 C 
ENDBRANCH  32  33
ENDBRANCH  30  32
ENDBRANCH  29  30
ENDBRANCH  16  29
BRANCH  11  35
HETATM   35  O4  UNL     1      -4.185  50.363 -28.113  1.00  0.00    -0.387 OA
HETATM   36  H28 UNL     1      -3.820  50.151 -28.990  1.00  0.00     0.210 HD
ENDBRANCH  11  35
TORSDOF 11
ENDMDL
MODEL 4
REMARK minimizedAffinity -7.63151312
REMARK  11 active torsions:
REMARK  status: ('A' for Active; 'I' for Inactive)
REMARK    1  A    between atoms: C5_5  and  C6_6 
REMARK    2  A    between atoms: C6_6  and  C8_8 
REMARK    3  A    between atoms: C8_8  and  O1_9 
REMARK    4  A    between atoms: O1_9  and  C9_10 
REMARK    5  A    between atoms: C9_10  and  C10_12 
REMARK    6  A    between atoms: C10_12  and  C11_13 
REMARK    7  A    between atoms: C17_20  and  O4_22 
REMARK    8  A    between atoms: C22_26  and  O5_28 
REMARK    9  A    between atoms: O5_28  and  C24_29 
REMARK   10  A    between atoms: C24_29  and  C25_31 
REMARK   11  A    between atoms: C25_31  and  C26_32 
ROOT
HETATM    1  C1  UNL     1      -5.316  48.880 -23.798  1.00  0.00     0.015 C 
HETATM    2  C2  UNL     1      -4.872  49.836 -22.965  1.00  0.00    -0.077 C 
HETATM    3  C3  UNL     1      -5.248  51.284 -23.161  1.00  0.00     0.034 C 
HETATM    4  C4  UNL     1      -4.165  52.254 -22.675  1.00  0.00     0.010 C 
HETATM    5  C5  UNL     1      -2.733  51.702 -22.819  1.00  0.00    -0.001 C 
HETATM    6  C13 UNL     1      -2.594  50.446 -21.900  1.00  0.00     0.037 C 
HETATM    7  C14 UNL     1      -3.921  49.540 -21.825  1.00  0.00     0.090 C 
HETATM    8  C15 UNL     1      -4.739  49.567 -20.469  1.00  0.00     0.138 C 
HETATM    9  O3  UNL     1      -5.439  50.535 -20.152  1.00  0.00    -0.297 OA
HETATM   10  C16 UNL     1      -4.606  48.360 -19.498  1.00  0.00     0.119 C 
HETATM   11  C17 UNL     1      -3.675  48.568 -18.238  1.00  0.00     0.087 C 
HETATM   12  C18 UNL     1      -2.955  47.251 -17.926  1.00  0.00     0.049 C 
HETATM   13  C19 UNL     1      -2.701  49.728 -18.500  1.00  0.00     0.156 C 
HETATM   14  C20 UNL     1      -1.413  50.018 -17.743  1.00  0.00     0.038 C 
HETATM   15  C21 UNL     1      -0.298  50.545 -18.709  1.00  0.00     0.043 C 
HETATM   16  C22 UNL     1      -0.763  51.323 -20.015  1.00  0.00     0.093 C 
HETATM   17  C23 UNL     1      -0.863  52.833 -19.735  1.00  0.00     0.049 C 
HETATM   18  C28 UNL     1      -2.159  50.796 -20.463  1.00  0.00     0.162 C 
HETATM   19  O7  UNL     1      -2.279  49.522 -19.836  1.00  0.00    -0.374 OA
ENDROOT
BRANCH   5  20
HETATM   20  C6  UNL     1      -2.319  51.419 -24.305  1.00  0.00     0.010 C 
HETATM   21  C7  UNL     1      -2.196  49.914 -24.604  1.00  0.00     0.012 C 
BRANCH  20  22
HETATM   22  C8  UNL     1      -3.327  52.020 -25.309  1.00  0.00     0.183 C 
BRANCH  22  23
HETATM   23  O1  UNL     1      -2.606  52.522 -26.449  1.00  0.00    -0.321 OA
BRANCH  23  24
HETATM   24  C9  UNL     1      -2.384  51.617 -27.443  1.00  0.00     0.258 C 
HETATM   25  O2  UNL     1      -3.235  51.196 -28.215  1.00  0.00    -0.265 OA
BRANCH  24  26
HETATM   26  C10 UNL     1      -0.924  51.239 -27.462  1.00  0.00     0.111 C 
BRANCH  26  27
HETATM   27  C11 UNL     1      -0.063  52.330 -28.095  1.00  0.00     0.005 C 
HETATM   28  C12 UNL     1       1.407  51.941 -28.111  1.00  0.00     0.005 C 
ENDBRANCH  26  27
ENDBRANCH  24  26
ENDBRANCH  23  24
ENDBRANCH  22  23
ENDBRANCH  20  22
ENDBRANCH   5  20
BRANCH  16  29
HETATM   29  O5  UNL     1       0.159  51.082 -21.112  1.00  0.00    -0.308 OA
BRANCH  29  30
HETATM   30  C24 UNL     1       0.965  52.086 -21.568  1.00  0.00     0.259 C 
HETATM   31  O6  UNL     1       1.733  52.748 -20.884  1.00  0.00    -0.265 OA
BRANCH  30  32
HETATM   32  C25 UNL     1       0.729  52.285 -23.045  1.00  0.00     0.111 C 
BRANCH  32  33
HETATM   33  C26 UNL     1       0.841  53.741 -23.486  1.00  0.00     0.005 C 
HETATM   34  C27 UNL     1       0.238  53.981 -24.864  1.00  0.00     0.005 C 
ENDBRANCH  32  33
ENDBRANCH  30  32
ENDBRANCH  29  30
ENDBRANCH  16  29
BRANCH  11  35
HETATM   35  O4  UNL     1      -4.465  48.894 -17.089  1.00  0.00    -0.387 OA
HETATM   36  H28 UNL     1      -5.147  48.208 -16.978  1.00  0.00     0.210 HD
ENDBRANCH  11  35
TORSDOF 11
ENDMDL
MODEL 5
REMARK minimizedAffinity -7.3965888
REMARK  11 active torsions:
REMARK  status: ('A' for Active; 'I' for Inactive)
REMARK    1  A    between atoms: C5_5  and  C6_6 
REMARK    2  A    between atoms: C6_6  and  C8_8 
REMARK    3  A    between atoms: C8_8  and  O1_9 
REMARK    4  A    between atoms: O1_9  and  C9_10 
REMARK    5  A    between atoms: C9_10  and  C10_12 
REMARK    6  A    between atoms: C10_12  and  C11_13 
REMARK    7  A    between atoms: C17_20  and  O4_22 
REMARK    8  A    between atoms: C22_26  and  O5_28 
REMARK    9  A    between atoms: O5_28  and  C24_29 
REMARK   10  A    between atoms: C24_29  and  C25_31 
REMARK   11  A    between atoms: C25_31  and  C26_32 
ROOT
HETATM    1  C1  UNL     1      -3.199  47.461 -19.164  1.00  0.00     0.015 C 
HETATM    2  C2  UNL     1      -3.035  48.780 -18.970  1.00  0.00    -0.077 C 
HETATM    3  C3  UNL     1      -4.110  49.768 -19.351  1.00  0.00     0.034 C 
HETATM    4  C4  UNL     1      -3.548  51.134 -19.763  1.00  0.00     0.010 C 
HETATM    5  C5  UNL     1      -2.164  51.053 -20.439  1.00  0.00    -0.001 C 
HETATM    6  C13 UNL     1      -1.141  50.491 -19.401  1.00  0.00     0.037 C 
HETATM    7  C14 UNL     1      -1.750  49.366 -18.424  1.00  0.00     0.090 C 
HETATM    8  C15 UNL     1      -1.987  49.774 -16.912  1.00  0.00     0.138 C 
HETATM    9  O3  UNL     1      -2.923  50.506 -16.576  1.00  0.00    -0.297 OA
HETATM   10  C16 UNL     1      -0.976  49.274 -15.842  1.00  0.00     0.119 C 
HETATM   11  C17 UNL     1       0.086  50.327 -15.329  1.00  0.00     0.087 C 
HETATM   12  C18 UNL     1       1.413  49.608 -15.062  1.00  0.00     0.049 C 
HETATM   13  C19 UNL     1       0.224  51.464 -16.355  1.00  0.00     0.156 C 
HETATM   14  C20 UNL     1       1.372  52.458 -16.456  1.00  0.00     0.038 C 
HETATM   15  C21 UNL     1       1.706  52.784 -17.951  1.00  0.00     0.043 C 
HETATM   16  C22 UNL     1       0.525  52.669 -19.010  1.00  0.00     0.093 C 
HETATM   17  C23 UNL     1      -0.201  54.017 -19.156  1.00  0.00     0.049 C 
HETATM   18  C28 UNL     1      -0.493  51.590 -18.536  1.00  0.00     0.162 C 
HETATM   19  O7  UNL     1       0.234  50.796 -17.604  1.00  0.00    -0.374 OA
ENDROOT
BRANCH   5  20
HETATM   20  C6  UNL     1      -2.173  50.248 -21.784  1.00  0.00     0.010 C 
HETATM   21  C7  UNL     1      -1.284  48.992 -21.723  1.00  0.00     0.012 C 
BRANCH  20  22
HETATM   22  C8  UNL     1      -3.597  49.801 -22.181  1.00  0.00     0.183 C 
BRANCH  22  23
HETATM   23  O1  UNL     1      -3.577  49.333 -23.542  1.00  0.00    -0.321 OA
BRANCH  23  24
HETATM   24  C9  UNL     1      -4.741  49.493 -24.230  1.00  0.00     0.258 C 
HETATM   25  O2  UNL     1      -5.564  50.375 -24.027  1.00  0.00    -0.265 OA
BRANCH  24  26
HETATM   26  C10 UNL     1      -4.841  48.435 -25.301  1.00  0.00     0.111 C 
BRANCH  26  27
HETATM   27  C11 UNL     1      -3.579  48.374 -26.160  1.00  0.00     0.005 C 
HETATM   28  C12 UNL     1      -3.853  48.833 -27.583  1.00  0.00     0.005 C 
ENDBRANCH  26  27
ENDBRANCH  24  26
ENDBRANCH  23  24
ENDBRANCH  22  23
ENDBRANCH  20  22
ENDBRANCH   5  20
BRANCH  16  29
HETATM   29  O5  UNL     1       1.035  52.238 -20.302  1.00  0.00    -0.308 OA
BRANCH  29  30
HETATM   30  C24 UNL     1       1.239  53.148 -21.300  1.00  0.00     0.259 C 
HETATM   31  O6  UNL     1       1.928  54.155 -21.215  1.00  0.00    -0.265 OA
BRANCH  30  32
HETATM   32  C25 UNL     1       0.443  52.742 -22.516  1.00  0.00     0.111 C 
BRANCH  32  33
HETATM   33  C26 UNL     1       0.791  53.547 -23.764  1.00  0.00     0.005 C 
HETATM   34  C27 UNL     1       0.746  52.705 -25.033  1.00  0.00     0.005 C 
ENDBRANCH  32  33
ENDBRANCH  30  32
ENDBRANCH  29  30
ENDBRANCH  16  29
BRANCH  11  35
HETATM   35  O4  UNL     1      -0.340  50.893 -14.085  1.00  0.00    -0.387 OA
HETATM   36  H28 UNL     1      -0.523  50.167 -13.462  1.00  0.00     0.210 HD
ENDBRANCH  11  35
TORSDOF 11
ENDMDL
MODEL 6
REMARK minimizedAffinity -7.26515722
REMARK  11 active torsions:
REMARK  status: ('A' for Active; 'I' for Inactive)
REMARK    1  A    between atoms: C5_5  and  C6_6 
REMARK    2  A    between atoms: C6_6  and  C8_8 
REMARK    3  A    between atoms: C8_8  and  O1_9 
REMARK    4  A    between atoms: O1_9  and  C9_10 
REMARK    5  A    between atoms: C9_10  and  C10_12 
REMARK    6  A    between atoms: C10_12  and  C11_13 
REMARK    7  A    between atoms: C17_20  and  O4_22 
REMARK    8  A    between atoms: C22_26  and  O5_28 
REMARK    9  A    between atoms: O5_28  and  C24_29 
REMARK   10  A    between atoms: C24_29  and  C25_31 
REMARK   11  A    between atoms: C25_31  and  C26_32 
ROOT
HETATM    1  C1  UNL     1      -2.296  51.254 -17.922  1.00  0.00     0.015 C 
HETATM    2  C2  UNL     1      -2.220  50.355 -18.918  1.00  0.00    -0.077 C 
HETATM    3  C3  UNL     1      -0.925  49.649 -19.239  1.00  0.00     0.034 C 
HETATM    4  C4  UNL     1      -0.795  49.286 -20.723  1.00  0.00     0.010 C 
HETATM    5  C5  UNL     1      -1.498  50.284 -21.666  1.00  0.00    -0.001 C 
HETATM    6  C13 UNL     1      -3.032  50.242 -21.372  1.00  0.00     0.037 C 
HETATM    7  C14 UNL     1      -3.396  50.040 -19.818  1.00  0.00     0.090 C 
HETATM    8  C15 UNL     1      -3.992  48.636 -19.392  1.00  0.00     0.138 C 
HETATM    9  O3  UNL     1      -3.284  47.628 -19.309  1.00  0.00    -0.297 OA
HETATM   10  C16 UNL     1      -5.520  48.529 -19.126  1.00  0.00     0.119 C 
HETATM   11  C17 UNL     1      -6.391  47.873 -20.271  1.00  0.00     0.087 C 
HETATM   12  C18 UNL     1      -7.751  48.578 -20.329  1.00  0.00     0.049 C 
HETATM   13  C19 UNL     1      -5.630  47.943 -21.604  1.00  0.00     0.156 C 
HETATM   14  C20 UNL     1      -6.225  47.788 -22.996  1.00  0.00     0.038 C 
HETATM   15  C21 UNL     1      -5.538  48.759 -24.015  1.00  0.00     0.043 C 
HETATM   16  C22 UNL     1      -4.032  49.181 -23.728  1.00  0.00     0.093 C 
HETATM   17  C23 UNL     1      -3.060  48.203 -24.409  1.00  0.00     0.049 C 
HETATM   18  C28 UNL     1      -3.775  49.167 -22.191  1.00  0.00     0.162 C 
HETATM   19  O7  UNL     1      -5.072  49.245 -21.609  1.00  0.00    -0.374 OA
ENDROOT
BRANCH   5  20
HETATM   20  C6  UNL     1      -0.903  51.732 -21.599  1.00  0.00     0.010 C 
HETATM   21  C7  UNL     1       0.563  51.744 -21.131  1.00  0.00     0.012 C 
BRANCH  20  22
HETATM   22  C8  UNL     1      -0.970  52.447 -22.966  1.00  0.00     0.183 C 
BRANCH  22  23
HETATM   23  O1  UNL     1       0.134  53.365 -23.066  1.00  0.00    -0.321 OA
BRANCH  23  24
HETATM   24  C9  UNL     1       0.678  53.489 -24.309  1.00  0.00     0.258 C 
HETATM   25  O2  UNL     1       1.063  54.537 -24.809  1.00  0.00    -0.265 OA
BRANCH  24  26
HETATM   26  C10 UNL     1       0.760  52.130 -24.959  1.00  0.00     0.111 C 
BRANCH  26  27
HETATM   27  C11 UNL     1       1.115  52.230 -26.442  1.00  0.00     0.005 C 
HETATM   28  C12 UNL     1       2.389  51.466 -26.762  1.00  0.00     0.005 C 
ENDBRANCH  26  27
ENDBRANCH  24  26
ENDBRANCH  23  24
ENDBRANCH  22  23
ENDBRANCH  20  22
ENDBRANCH   5  20
BRANCH  16  29
HETATM   29  O5  UNL     1      -3.782  50.536 -24.193  1.00  0.00    -0.308 OA
BRANCH  29  30
HETATM   30  C24 UNL     1      -3.588  50.782 -25.522  1.00  0.00     0.259 C 
HETATM   31  O6  UNL     1      -3.699  49.961 -26.422  1.00  0.00    -0.265 OA
BRANCH  30  32
HETATM   32  C25 UNL     1      -3.169  52.220 -25.707  1.00  0.00     0.111 C 
BRANCH  32  33
HETATM   33  C26 UNL     1      -2.402  52.466 -27.003  1.00  0.00     0.005 C 
HETATM   34  C27 UNL     1      -2.535  51.311 -27.987  1.00  0.00     0.005 C 
ENDBRANCH  32  33
ENDBRANCH  30  32
ENDBRANCH  29  30
ENDBRANCH  16  29
BRANCH  11  35
HETATM   35  O4  UNL     1      -6.647  46.497 -19.970  1.00  0.00    -0.387 OA
HETATM   36  H28 UNL     1      -7.041  46.444 -19.081  1.00  0.00     0.210 HD
ENDBRANCH  11  35
TORSDOF 11
ENDMDL
MODEL 7
REMARK minimizedAffinity -7.26294041
REMARK  11 active torsions:
REMARK  status: ('A' for Active; 'I' for Inactive)
REMARK    1  A    between atoms: C5_5  and  C6_6 
REMARK    2  A    between atoms: C6_6  and  C8_8 
REMARK    3  A    between atoms: C8_8  and  O1_9 
REMARK    4  A    between atoms: O1_9  and  C9_10 
REMARK    5  A    between atoms: C9_10  and  C10_12 
REMARK    6  A    between atoms: C10_12  and  C11_13 
REMARK    7  A    between atoms: C17_20  and  O4_22 
REMARK    8  A    between atoms: C22_26  and  O5_28 
REMARK    9  A    between atoms: O5_28  and  C24_29 
REMARK   10  A    between atoms: C24_29  and  C25_31 
REMARK   11  A    between atoms: C25_31  and  C26_32 
ROOT
HETATM    1  C1  UNL     1      -3.385  48.030 -19.110  1.00  0.00     0.015 C 
HETATM    2  C2  UNL     1      -3.408  49.167 -19.825  1.00  0.00    -0.077 C 
HETATM    3  C3  UNL     1      -4.696  49.710 -20.392  1.00  0.00     0.034 C 
HETATM    4  C4  UNL     1      -4.494  50.489 -21.698  1.00  0.00     0.010 C 
HETATM    5  C5  UNL     1      -3.321  49.965 -22.552  1.00  0.00    -0.001 C 
HETATM    6  C13 UNL     1      -1.997  50.170 -21.749  1.00  0.00     0.037 C 
HETATM    7  C14 UNL     1      -2.150  49.938 -20.164  1.00  0.00     0.090 C 
HETATM    8  C15 UNL     1      -2.080  51.219 -19.237  1.00  0.00     0.138 C 
HETATM    9  O3  UNL     1      -3.019  52.019 -19.162  1.00  0.00    -0.297 OA
HETATM   10  C16 UNL     1      -0.771  51.492 -18.445  1.00  0.00     0.119 C 
HETATM   11  C17 UNL     1       0.187  52.607 -19.029  1.00  0.00     0.087 C 
HETATM   12  C18 UNL     1       1.642  52.193 -18.785  1.00  0.00     0.049 C 
HETATM   13  C19 UNL     1      -0.124  52.827 -20.518  1.00  0.00     0.156 C 
HETATM   14  C20 UNL     1       0.777  53.504 -21.541  1.00  0.00     0.038 C 
HETATM   15  C21 UNL     1       0.678  52.796 -22.934  1.00  0.00     0.043 C 
HETATM   16  C22 UNL     1      -0.685  52.060 -23.291  1.00  0.00     0.093 C 
HETATM   17  C23 UNL     1      -1.645  53.024 -24.010  1.00  0.00     0.049 C 
HETATM   18  C28 UNL     1      -1.358  51.553 -21.981  1.00  0.00     0.162 C 
HETATM   19  O7  UNL     1      -0.302  51.517 -21.026  1.00  0.00    -0.374 OA
ENDROOT
BRANCH   5  20
HETATM   20  C6  UNL     1      -3.516  48.489 -23.042  1.00  0.00     0.010 C 
HETATM   21  C7  UNL     1      -4.056  47.568 -21.933  1.00  0.00     0.012 C 
BRANCH  20  22
HETATM   22  C8  UNL     1      -4.485  48.402 -24.242  1.00  0.00     0.183 C 
BRANCH  22  23
HETATM   23  O1  UNL     1      -3.718  48.221 -25.447  1.00  0.00    -0.321 OA
BRANCH  23  24
HETATM   24  C9  UNL     1      -4.339  48.608 -26.596  1.00  0.00     0.258 C 
HETATM   25  O2  UNL     1      -3.831  49.289 -27.477  1.00  0.00    -0.265 OA
BRANCH  24  26
HETATM   26  C10 UNL     1      -5.738  48.043 -26.626  1.00  0.00     0.111 C 
BRANCH  26  27
HETATM   27  C11 UNL     1      -5.997  47.237 -27.898  1.00  0.00     0.005 C 
HETATM   28  C12 UNL     1      -6.773  48.048 -28.922  1.00  0.00     0.005 C 
ENDBRANCH  26  27
ENDBRANCH  24  26
ENDBRANCH  23  24
ENDBRANCH  22  23
ENDBRANCH  20  22
ENDBRANCH   5  20
BRANCH  16  29
HETATM   29  O5  UNL     1      -0.436  50.894 -24.124  1.00  0.00    -0.308 OA
BRANCH  29  30
HETATM   30  C24 UNL     1      -0.572  50.976 -25.481  1.00  0.00     0.259 C 
HETATM   31  O6  UNL     1      -1.625  50.887 -26.097  1.00  0.00    -0.265 OA
BRANCH  30  32
HETATM   32  C25 UNL     1       0.789  51.148 -26.110  1.00  0.00     0.111 C 
BRANCH  32  33
HETATM   33  C26 UNL     1       0.919  52.425 -26.934  1.00  0.00     0.005 C 
HETATM   34  C27 UNL     1       0.701  52.183 -28.422  1.00  0.00     0.005 C 
ENDBRANCH  32  33
ENDBRANCH  30  32
ENDBRANCH  29  30
ENDBRANCH  16  29
BRANCH  11  35
HETATM   35  O4  UNL     1      -0.017  53.844 -18.338  1.00  0.00    -0.387 OA
HETATM   36  H28 UNL     1       0.084  53.685 -17.383  1.00  0.00     0.210 HD
ENDBRANCH  11  35
TORSDOF 11
ENDMDL
MODEL 8
REMARK minimizedAffinity -7.18766642
REMARK  11 active torsions:
REMARK  status: ('A' for Active; 'I' for Inactive)
REMARK    1  A    between atoms: C5_5  and  C6_6 
REMARK    2  A    between atoms: C6_6  and  C8_8 
REMARK    3  A    between atoms: C8_8  and  O1_9 
REMARK    4  A    between atoms: O1_9  and  C9_10 
REMARK    5  A    between atoms: C9_10  and  C10_12 
REMARK    6  A    between atoms: C10_12  and  C11_13 
REMARK    7  A    between atoms: C17_20  and  O4_22 
REMARK    8  A    between atoms: C22_26  and  O5_28 
REMARK    9  A    between atoms: O5_28  and  C24_29 
REMARK   10  A    between atoms: C24_29  and  C25_31 
REMARK   11  A    between atoms: C25_31  and  C26_32 
ROOT
HETATM    1  C1  UNL     1      -5.700  47.704 -22.164  1.00  0.00     0.015 C 
HETATM    2  C2  UNL     1      -5.267  48.959 -22.373  1.00  0.00    -0.077 C 
HETATM    3  C3  UNL     1      -6.126  49.976 -23.083  1.00  0.00     0.034 C 
HETATM    4  C4  UNL     1      -5.306  51.009 -23.865  1.00  0.00     0.010 C 
HETATM    5  C5  UNL     1      -3.981  50.450 -24.423  1.00  0.00    -0.001 C 
HETATM    6  C13 UNL     1      -3.074  50.040 -23.219  1.00  0.00     0.037 C 
HETATM    7  C14 UNL     1      -3.880  49.415 -21.975  1.00  0.00     0.090 C 
HETATM    8  C15 UNL     1      -3.999  50.305 -20.670  1.00  0.00     0.138 C 
HETATM    9  O3  UNL     1      -4.760  51.276 -20.614  1.00  0.00    -0.297 OA
HETATM   10  C16 UNL     1      -3.090  49.965 -19.455  1.00  0.00     0.119 C 
HETATM   11  C17 UNL     1      -1.826  50.890 -19.240  1.00  0.00     0.087 C 
HETATM   12  C18 UNL     1      -0.668  50.037 -18.709  1.00  0.00     0.049 C 
HETATM   13  C19 UNL     1      -1.479  51.606 -20.555  1.00  0.00     0.156 C 
HETATM   14  C20 UNL     1      -0.155  52.271 -20.903  1.00  0.00     0.038 C 
HETATM   15  C21 UNL     1       0.208  52.050 -22.410  1.00  0.00     0.043 C 
HETATM   16  C22 UNL     1      -0.991  51.854 -23.435  1.00  0.00     0.093 C 
HETATM   17  C23 UNL     1      -1.430  53.210 -24.015  1.00  0.00     0.049 C 
HETATM   18  C28 UNL     1      -2.199  51.199 -22.701  1.00  0.00     0.162 C 
HETATM   19  O7  UNL     1      -1.631  50.600 -21.540  1.00  0.00    -0.374 OA
ENDROOT
BRANCH   5  20
HETATM   20  C6  UNL     1      -4.179  49.291 -25.459  1.00  0.00     0.010 C 
HETATM   21  C7  UNL     1      -3.066  48.230 -25.374  1.00  0.00     0.012 C 
BRANCH  20  22
HETATM   22  C8  UNL     1      -5.533  48.572 -25.269  1.00  0.00     0.183 C 
BRANCH  22  23
HETATM   23  O1  UNL     1      -5.804  47.771 -26.434  1.00  0.00    -0.321 OA
BRANCH  23  24
HETATM   24  C9  UNL     1      -7.122  47.600 -26.731  1.00  0.00     0.258 C 
HETATM   25  O2  UNL     1      -8.050  47.803 -25.960  1.00  0.00    -0.265 OA
BRANCH  24  26
HETATM   26  C10 UNL     1      -7.260  47.152 -28.165  1.00  0.00     0.111 C 
BRANCH  26  27
HETATM   27  C11 UNL     1      -8.661  47.422 -28.712  1.00  0.00     0.005 C 
HETATM   28  C12 UNL     1      -8.694  48.685 -29.556  1.00  0.00     0.005 C 
ENDBRANCH  26  27
ENDBRANCH  24  26
ENDBRANCH  23  24
ENDBRANCH  22  23
ENDBRANCH  20  22
ENDBRANCH   5  20
BRANCH  16  29
HETATM   29  O5  UNL     1      -0.605  50.955 -24.511  1.00  0.00    -0.308 OA
BRANCH  29  30
HETATM   30  C24 UNL     1       0.162  51.410 -25.545  1.00  0.00     0.259 C 
HETATM   31  O6  UNL     1       1.181  52.078 -25.436  1.00  0.00    -0.265 OA
BRANCH  30  32
HETATM   32  C25 UNL     1      -0.468  50.998 -26.853  1.00  0.00     0.111 C 
BRANCH  32  33
HETATM   33  C26 UNL     1      -1.432  52.038 -27.416  1.00  0.00     0.005 C 
HETATM   34  C27 UNL     1      -2.788  51.443 -27.773  1.00  0.00     0.005 C 
ENDBRANCH  32  33
ENDBRANCH  30  32
ENDBRANCH  29  30
ENDBRANCH  16  29
BRANCH  11  35
HETATM   35  O4  UNL     1      -2.104  51.883 -18.247  1.00  0.00    -0.387 OA
HETATM   36  H28 UNL     1      -2.418  51.434 -17.441  1.00  0.00     0.210 HD
ENDBRANCH  11  35
TORSDOF 11
ENDMDL
MODEL 9
REMARK minimizedAffinity -7.07232857
REMARK  11 active torsions:
REMARK  status: ('A' for Active; 'I' for Inactive)
REMARK    1  A    between atoms: C5_5  and  C6_6 
REMARK    2  A    between atoms: C6_6  and  C8_8 
REMARK    3  A    between atoms: C8_8  and  O1_9 
REMARK    4  A    between atoms: O1_9  and  C9_10 
REMARK    5  A    between atoms: C9_10  and  C10_12 
REMARK    6  A    between atoms: C10_12  and  C11_13 
REMARK    7  A    between atoms: C17_20  and  O4_22 
REMARK    8  A    between atoms: C22_26  and  O5_28 
REMARK    9  A    between atoms: O5_28  and  C24_29 
REMARK   10  A    between atoms: C24_29  and  C25_31 
REMARK   11  A    between atoms: C25_31  and  C26_32 
ROOT
HETATM    1  C1  UNL     1      -0.641  52.609 -22.566  1.00  0.00     0.015 C 
HETATM    2  C2  UNL     1      -1.196  51.396 -22.408  1.00  0.00    -0.077 C 
HETATM    3  C3  UNL     1      -1.182  50.376 -23.520  1.00  0.00     0.034 C 
HETATM    4  C4  UNL     1      -2.397  49.441 -23.490  1.00  0.00     0.010 C 
HETATM    5  C5  UNL     1      -3.674  50.108 -22.939  1.00  0.00    -0.001 C 
HETATM    6  C13 UNL     1      -3.423  50.494 -21.446  1.00  0.00     0.037 C 
HETATM    7  C14 UNL     1      -1.925  50.996 -21.142  1.00  0.00     0.090 C 
HETATM    8  C15 UNL     1      -0.992  50.024 -20.311  1.00  0.00     0.138 C 
HETATM    9  O3  UNL     1      -0.499  49.009 -20.815  1.00  0.00    -0.297 OA
HETATM   10  C16 UNL     1      -0.740  50.340 -18.810  1.00  0.00     0.119 C 
HETATM   11  C17 UNL     1      -1.551  49.477 -17.762  1.00  0.00     0.087 C 
HETATM   12  C18 UNL     1      -1.916  50.360 -16.564  1.00  0.00     0.049 C 
HETATM   13  C19 UNL     1      -2.785  48.863 -18.443  1.00  0.00     0.156 C 
HETATM   14  C20 UNL     1      -4.015  48.297 -17.748  1.00  0.00     0.038 C 
HETATM   15  C21 UNL     1      -5.319  48.630 -18.549  1.00  0.00     0.043 C 
HETATM   16  C22 UNL     1      -5.188  48.818 -20.122  1.00  0.00     0.093 C 
HETATM   17  C23 UNL     1      -5.403  47.478 -20.845  1.00  0.00     0.049 C 
HETATM   18  C28 UNL     1      -3.766  49.358 -20.462  1.00  0.00     0.162 C 
HETATM   19  O7  UNL     1      -3.293  49.917 -19.241  1.00  0.00    -0.374 OA
ENDROOT
BRANCH   5  20
HETATM   20  C6  UNL     1      -4.172  51.315 -23.806  1.00  0.00     0.010 C 
HETATM   21  C7  UNL     1      -4.333  52.604 -22.981  1.00  0.00     0.012 C 
BRANCH  20  22
HETATM   22  C8  UNL     1      -3.213  51.619 -24.977  1.00  0.00     0.183 C 
BRANCH  22  23
HETATM   23  O1  UNL     1      -3.666  50.912 -26.147  1.00  0.00    -0.321 OA
BRANCH  23  24
HETATM   24  C9  UNL     1      -2.825  50.957 -27.217  1.00  0.00     0.258 C 
HETATM   25  O2  UNL     1      -3.012  50.390 -28.285  1.00  0.00    -0.265 OA
BRANCH  24  26
HETATM   26  C10 UNL     1      -1.643  51.837 -26.891  1.00  0.00     0.111 C 
BRANCH  26  27
HETATM   27  C11 UNL     1      -0.317  51.103 -27.084  1.00  0.00     0.005 C 
HETATM   28  C12 UNL     1       0.521  51.747 -28.176  1.00  0.00     0.005 C 
ENDBRANCH  26  27
ENDBRANCH  24  26
ENDBRANCH  23  24
ENDBRANCH  22  23
ENDBRANCH  20  22
ENDBRANCH   5  20
BRANCH  16  29
HETATM   29  O5  UNL     1      -6.146  49.801 -20.602  1.00  0.00    -0.308 OA
BRANCH  29  30
HETATM   30  C24 UNL     1      -7.296  49.397 -21.217  1.00  0.00     0.259 C 
HETATM   31  O6  UNL     1      -8.137  48.652 -20.735  1.00  0.00    -0.265 OA
BRANCH  30  32
HETATM   32  C25 UNL     1      -7.349  49.979 -22.609  1.00  0.00     0.111 C 
BRANCH  32  33
HETATM   33  C26 UNL     1      -7.179  48.935 -23.709  1.00  0.00     0.005 C 
HETATM   34  C27 UNL     1      -8.495  48.590 -24.394  1.00  0.00     0.005 C 
ENDBRANCH  32  33
ENDBRANCH  30  32
ENDBRANCH  29  30
ENDBRANCH  16  29
BRANCH  11  35
HETATM   35  O4  UNL     1      -0.735  48.411 -17.263  1.00  0.00    -0.387 OA
HETATM   36  H28 UNL     1       0.093  48.791 -16.919  1.00  0.00     0.210 HD
ENDBRANCH  11  35
TORSDOF 11
ENDMDL
