MODEL 1
REMARK minimizedAffinity -6.00498104
REMARK CNNscore 0.364985764
REMARK CNNaffinity 6.02229691
REMARK  8 active torsions:
REMARK  status: ('A' for Active; 'I' for Inactive)
REMARK    1  A    between atoms: C5_5  and  C6_6 
REMARK    2  A    between atoms: C6_6  and  O1_9 
REMARK    3  A    between atoms: C11_12  and  C12_13 
REMARK    4  A    between atoms: C12_13  and  C13_14 
REMARK    5  A    between atoms: C17_18  and  O2_19 
REMARK    6  A    between atoms: C18_20  and  C19_21 
REMARK    7  A    between atoms: C20_23  and  O4_24 
REMARK    8  A    between atoms: C21_25  and  C22_26 
ROOT
HETATM    1  C1  UNL     1       1.465  57.189  -7.211  1.00  0.00     0.019 C 
HETATM    2  C2  UNL     1       1.065  55.922  -7.414  1.00  0.00    -0.068 C 
HETATM    3  C3  UNL     1      -0.293  55.683  -7.829  1.00  0.00     0.003 C 
HETATM    4  C4  UNL     1      -0.816  55.237  -8.980  1.00  0.00    -0.019 C 
HETATM    5  C5  UNL     1      -0.338  54.757 -10.354  1.00  0.00     0.042 C 
HETATM    6  C9  UNL     1       1.181  54.895 -10.728  1.00  0.00     0.020 C 
HETATM    7  C10 UNL     1       2.266  53.867 -10.288  1.00  0.00     0.030 C 
HETATM    8  C11 UNL     1       2.436  52.584 -11.170  1.00  0.00     0.031 C 
HETATM    9  C16 UNL     1       3.346  51.661 -10.379  1.00  0.00     0.015 A 
HETATM   10  C17 UNL     1       3.136  50.280 -10.214  1.00  0.00     0.091 A 
HETATM   11  C18 UNL     1       4.054  49.495  -9.492  1.00  0.00     0.069 A 
HETATM   12  C20 UNL     1       5.179  50.086  -8.898  1.00  0.00     0.097 A 
HETATM   13  C21 UNL     1       5.387  51.462  -9.037  1.00  0.00     0.070 A 
HETATM   14  C23 UNL     1       4.476  52.237  -9.777  1.00  0.00     0.095 A 
HETATM   15  O6  UNL     1       4.757  53.567  -9.927  1.00  0.00    -0.338 OA
HETATM   16  C24 UNL     1       3.678  54.522 -10.048  1.00  0.00     0.068 C 
HETATM   17  C25 UNL     1       4.119  55.472 -11.193  1.00  0.00     0.047 C 
HETATM   18  C26 UNL     1       3.767  55.389  -8.761  1.00  0.00     0.039 C 
HETATM   19  C27 UNL     1       3.384  54.745  -7.420  1.00  0.00     0.007 C 
HETATM   20  C28 UNL     1       1.898  54.716  -7.050  1.00  0.00     0.038 C 
ENDROOT
BRANCH   5  21
HETATM   21  C6  UNL     1      -1.106  53.435 -10.742  1.00  0.00     0.057 C 
HETATM   22  C7  UNL     1      -2.630  53.600 -10.772  1.00  0.00     0.046 C 
HETATM   23  C8  UNL     1      -0.655  52.216  -9.931  1.00  0.00     0.046 C 
BRANCH  21  24
HETATM   24  O1  UNL     1      -0.776  53.091 -12.112  1.00  0.00    -0.390 OA
HETATM   25  H12 UNL     1       0.178  52.907 -12.165  1.00  0.00     0.210 HD
ENDBRANCH  21  24
ENDBRANCH   5  21
BRANCH   8  26
HETATM   26  C12 UNL     1       2.940  52.787 -12.622  1.00  0.00     0.014 C 
BRANCH  26  27
HETATM   27  C13 UNL     1       2.854  51.522 -13.514  1.00  0.00    -0.022 C 
HETATM   28  C14 UNL     1       1.391  51.148 -13.770  1.00  0.00     0.009 C 
HETATM   29  C15 UNL     1       3.550  51.730 -14.862  1.00  0.00     0.009 C 
ENDBRANCH  26  27
ENDBRANCH   8  26
BRANCH  10  30
HETATM   30  O2  UNL     1       2.058  49.632 -10.756  1.00  0.00    -0.359 OA
HETATM   31  H26 UNL     1       1.415  50.251 -11.133  1.00  0.00     0.217 HD
ENDBRANCH  10  30
BRANCH  11  32
HETATM   32  C19 UNL     1       3.837  48.035  -9.390  1.00  0.00     0.275 C 
HETATM   33  O3  UNL     1       2.862  47.579  -8.797  1.00  0.00    -0.301 OA
ENDBRANCH  11  32
BRANCH  13  34
HETATM   34  C22 UNL     1       6.538  52.154  -8.400  1.00  0.00     0.275 C 
HETATM   35  O5  UNL     1       6.754  52.170  -7.194  1.00  0.00    -0.301 OA
ENDBRANCH  13  34
BRANCH  12  36
HETATM   36  O4  UNL     1       6.102  49.335  -8.218  1.00  0.00    -0.359 OA
HETATM   37  H28 UNL     1       5.803  48.396  -8.181  1.00  0.00     0.217 HD
ENDBRANCH  12  36
TORSDOF 8
ENDMDL
MODEL 2
REMARK minimizedAffinity -5.98202419
REMARK CNNscore 0.334073961
REMARK CNNaffinity 5.76851463
REMARK  8 active torsions:
REMARK  status: ('A' for Active; 'I' for Inactive)
REMARK    1  A    between atoms: C5_5  and  C6_6 
REMARK    2  A    between atoms: C6_6  and  O1_9 
REMARK    3  A    between atoms: C11_12  and  C12_13 
REMARK    4  A    between atoms: C12_13  and  C13_14 
REMARK    5  A    between atoms: C17_18  and  O2_19 
REMARK    6  A    between atoms: C18_20  and  C19_21 
REMARK    7  A    between atoms: C20_23  and  O4_24 
REMARK    8  A    between atoms: C21_25  and  C22_26 
ROOT
HETATM    1  C1  UNL     1      -3.493  50.862 -11.361  1.00  0.00     0.019 C 
HETATM    2  C2  UNL     1      -2.209  50.594 -11.068  1.00  0.00    -0.068 C 
HETATM    3  C3  UNL     1      -1.326  50.189 -12.132  1.00  0.00     0.003 C 
HETATM    4  C4  UNL     1      -0.282  50.796 -12.715  1.00  0.00    -0.019 C 
HETATM    5  C5  UNL     1       0.504  52.105 -12.594  1.00  0.00     0.042 C 
HETATM    6  C9  UNL     1      -0.028  53.233 -11.642  1.00  0.00     0.020 C 
HETATM    7  C10 UNL     1       0.232  53.249 -10.106  1.00  0.00     0.030 C 
HETATM    8  C11 UNL     1       1.595  53.842  -9.616  1.00  0.00     0.031 C 
HETATM    9  C16 UNL     1       1.689  53.492  -8.142  1.00  0.00     0.015 A 
HETATM   10  C17 UNL     1       2.844  52.996  -7.509  1.00  0.00     0.091 A 
HETATM   11  C18 UNL     1       2.848  52.732  -6.127  1.00  0.00     0.069 A 
HETATM   12  C20 UNL     1       1.688  52.930  -5.363  1.00  0.00     0.097 A 
HETATM   13  C21 UNL     1       0.527  53.402  -5.985  1.00  0.00     0.070 A 
HETATM   14  C23 UNL     1       0.536  53.683  -7.363  1.00  0.00     0.095 A 
HETATM   15  O6  UNL     1      -0.609  54.193  -7.909  1.00  0.00    -0.338 OA
HETATM   16  C24 UNL     1      -0.943  53.902  -9.286  1.00  0.00     0.068 C 
HETATM   17  C25 UNL     1      -1.421  55.259  -9.870  1.00  0.00     0.047 C 
HETATM   18  C26 UNL     1      -2.228  53.032  -9.209  1.00  0.00     0.039 C 
HETATM   19  C27 UNL     1      -2.106  51.598  -8.671  1.00  0.00     0.007 C 
HETATM   20  C28 UNL     1      -1.675  50.509  -9.659  1.00  0.00     0.038 C 
ENDROOT
BRANCH   5  21
HETATM   21  C6  UNL     1       2.050  51.791 -12.622  1.00  0.00     0.057 C 
HETATM   22  C7  UNL     1       2.545  51.277 -13.979  1.00  0.00     0.046 C 
HETATM   23  C8  UNL     1       2.507  50.914 -11.451  1.00  0.00     0.046 C 
BRANCH  21  24
HETATM   24  O1  UNL     1       2.780  53.031 -12.442  1.00  0.00    -0.390 OA
HETATM   25  H12 UNL     1       2.566  53.392 -11.565  1.00  0.00     0.210 HD
ENDBRANCH  21  24
ENDBRANCH   5  21
BRANCH   8  26
HETATM   26  C12 UNL     1       1.838  55.353  -9.867  1.00  0.00     0.014 C 
BRANCH  26  27
HETATM   27  C13 UNL     1       3.334  55.761  -9.923  1.00  0.00    -0.022 C 
HETATM   28  C14 UNL     1       3.628  56.532 -11.214  1.00  0.00     0.009 C 
HETATM   29  C15 UNL     1       3.728  56.635  -8.729  1.00  0.00     0.009 C 
ENDBRANCH  26  27
ENDBRANCH   8  26
BRANCH  10  30
HETATM   30  O2  UNL     1       4.011  52.770  -8.187  1.00  0.00    -0.359 OA
HETATM   31  H26 UNL     1       3.898  52.859  -9.145  1.00  0.00     0.217 HD
ENDBRANCH  10  30
BRANCH  11  32
HETATM   32  C19 UNL     1       4.097  52.272  -5.480  1.00  0.00     0.275 C 
HETATM   33  O3  UNL     1       4.706  51.293  -5.905  1.00  0.00    -0.301 OA
ENDBRANCH  11  32
BRANCH  13  34
HETATM   34  C22 UNL     1      -0.744  53.595  -5.240  1.00  0.00     0.275 C 
HETATM   35  O5  UNL     1      -1.560  54.476  -5.482  1.00  0.00    -0.301 OA
ENDBRANCH  13  34
BRANCH  12  36
HETATM   36  O4  UNL     1       1.679  52.710  -4.011  1.00  0.00    -0.359 OA
HETATM   37  H28 UNL     1       2.555  52.354  -3.727  1.00  0.00     0.217 HD
ENDBRANCH  12  36
TORSDOF 8
ENDMDL
MODEL 3
REMARK minimizedAffinity -6.08085251
REMARK CNNscore 0.295949876
REMARK CNNaffinity 5.11152077
REMARK  8 active torsions:
REMARK  status: ('A' for Active; 'I' for Inactive)
REMARK    1  A    between atoms: C5_5  and  C6_6 
REMARK    2  A    between atoms: C6_6  and  O1_9 
REMARK    3  A    between atoms: C11_12  and  C12_13 
REMARK    4  A    between atoms: C12_13  and  C13_14 
REMARK    5  A    between atoms: C17_18  and  O2_19 
REMARK    6  A    between atoms: C18_20  and  C19_21 
REMARK    7  A    between atoms: C20_23  and  O4_24 
REMARK    8  A    between atoms: C21_25  and  C22_26 
ROOT
HETATM    1  C1  UNL     1       4.856  55.532 -10.454  1.00  0.00     0.019 C 
HETATM    2  C2  UNL     1       3.698  56.044 -10.003  1.00  0.00    -0.068 C 
HETATM    3  C3  UNL     1       2.485  55.753 -10.723  1.00  0.00     0.003 C 
HETATM    4  C4  UNL     1       1.409  55.015 -10.413  1.00  0.00    -0.019 C 
HETATM    5  C5  UNL     1       0.890  54.169  -9.246  1.00  0.00     0.042 C 
HETATM    6  C9  UNL     1       1.841  53.871  -8.033  1.00  0.00     0.020 C 
HETATM    7  C10 UNL     1       2.067  54.868  -6.858  1.00  0.00     0.030 C 
HETATM    8  C11 UNL     1       1.016  54.859  -5.698  1.00  0.00     0.031 C 
HETATM    9  C16 UNL     1       1.328  56.080  -4.851  1.00  0.00     0.015 A 
HETATM   10  C17 UNL     1       0.364  56.971  -4.347  1.00  0.00     0.091 A 
HETATM   11  C18 UNL     1       0.744  58.059  -3.540  1.00  0.00     0.069 A 
HETATM   12  C20 UNL     1       2.098  58.289  -3.251  1.00  0.00     0.097 A 
HETATM   13  C21 UNL     1       3.067  57.423  -3.765  1.00  0.00     0.070 A 
HETATM   14  C23 UNL     1       2.679  56.325  -4.555  1.00  0.00     0.095 A 
HETATM   15  O6  UNL     1       3.662  55.479  -4.986  1.00  0.00    -0.338 OA
HETATM   16  C24 UNL     1       3.516  54.786  -6.246  1.00  0.00     0.068 C 
HETATM   17  C25 UNL     1       3.979  53.334  -5.954  1.00  0.00     0.047 C 
HETATM   18  C26 UNL     1       4.627  55.378  -7.158  1.00  0.00     0.039 C 
HETATM   19  C27 UNL     1       4.474  56.826  -7.647  1.00  0.00     0.007 C 
HETATM   20  C28 UNL     1       3.613  57.063  -8.892  1.00  0.00     0.038 C 
ENDROOT
BRANCH   5  21
HETATM   21  C6  UNL     1      -0.619  54.536  -8.966  1.00  0.00     0.057 C 
HETATM   22  C7  UNL     1      -1.447  53.357  -8.440  1.00  0.00     0.046 C 
HETATM   23  C8  UNL     1      -1.290  55.258 -10.139  1.00  0.00     0.046 C 
BRANCH  21  24
HETATM   24  O1  UNL     1      -0.670  55.497  -7.881  1.00  0.00    -0.390 OA
HETATM   25  H12 UNL     1      -0.215  56.309  -8.164  1.00  0.00     0.210 HD
ENDBRANCH  21  24
ENDBRANCH   5  21
BRANCH   8  26
HETATM   26  C12 UNL     1       0.923  53.570  -4.841  1.00  0.00     0.014 C 
BRANCH  26  27
HETATM   27  C13 UNL     1      -0.471  52.891  -4.852  1.00  0.00    -0.022 C 
HETATM   28  C14 UNL     1      -1.557  53.906  -5.220  1.00  0.00     0.009 C 
HETATM   29  C15 UNL     1      -0.528  51.729  -5.849  1.00  0.00     0.009 C 
ENDBRANCH  26  27
ENDBRANCH   8  26
BRANCH  10  30
HETATM   30  O2  UNL     1      -0.975  56.818  -4.591  1.00  0.00    -0.359 OA
HETATM   31  H26 UNL     1      -1.148  56.125  -5.245  1.00  0.00     0.217 HD
ENDBRANCH  10  30
BRANCH  11  32
HETATM   32  C19 UNL     1      -0.300  58.941  -2.972  1.00  0.00     0.275 C 
HETATM   33  O3  UNL     1      -0.372  59.138  -1.761  1.00  0.00    -0.301 OA
ENDBRANCH  11  32
BRANCH  13  34
HETATM   34  C22 UNL     1       4.520  57.634  -3.528  1.00  0.00     0.275 C 
HETATM   35  O5  UNL     1       5.152  58.600  -3.933  1.00  0.00    -0.301 OA
ENDBRANCH  13  34
BRANCH  12  36
HETATM   36  O4  UNL     1       2.487  59.323  -2.441  1.00  0.00    -0.359 OA
HETATM   37  H28 UNL     1       1.699  59.858  -2.184  1.00  0.00     0.217 HD
ENDBRANCH  12  36
TORSDOF 8
ENDMDL
MODEL 4
REMARK minimizedAffinity -5.27499533
REMARK CNNscore 0.260950983
REMARK CNNaffinity 5.6159873
REMARK  8 active torsions:
REMARK  status: ('A' for Active; 'I' for Inactive)
REMARK    1  A    between atoms: C5_5  and  C6_6 
REMARK    2  A    between atoms: C6_6  and  O1_9 
REMARK    3  A    between atoms: C11_12  and  C12_13 
REMARK    4  A    between atoms: C12_13  and  C13_14 
REMARK    5  A    between atoms: C17_18  and  O2_19 
REMARK    6  A    between atoms: C18_20  and  C19_21 
REMARK    7  A    between atoms: C20_23  and  O4_24 
REMARK    8  A    between atoms: C21_25  and  C22_26 
ROOT
HETATM    1  C1  UNL     1       3.288  50.894 -12.592  1.00  0.00     0.019 C 
HETATM    2  C2  UNL     1       3.381  50.785 -11.256  1.00  0.00    -0.068 C 
HETATM    3  C3  UNL     1       4.500  50.072 -10.695  1.00  0.00     0.003 C 
HETATM    4  C4  UNL     1       5.560  50.479  -9.982  1.00  0.00    -0.019 C 
HETATM    5  C5  UNL     1       6.125  51.776  -9.395  1.00  0.00     0.042 C 
HETATM    6  C9  UNL     1       5.447  53.143  -9.765  1.00  0.00     0.020 C 
HETATM    7  C10 UNL     1       4.175  53.688  -9.049  1.00  0.00     0.030 C 
HETATM    8  C11 UNL     1       4.386  54.458  -7.702  1.00  0.00     0.031 C 
HETATM    9  C16 UNL     1       2.999  54.633  -7.108  1.00  0.00     0.015 A 
HETATM   10  C17 UNL     1       2.676  54.420  -5.755  1.00  0.00     0.091 A 
HETATM   11  C18 UNL     1       1.368  54.642  -5.287  1.00  0.00     0.069 A 
HETATM   12  C20 UNL     1       0.357  55.048  -6.170  1.00  0.00     0.097 A 
HETATM   13  C21 UNL     1       0.661  55.242  -7.521  1.00  0.00     0.070 A 
HETATM   14  C23 UNL     1       1.976  55.038  -7.980  1.00  0.00     0.095 A 
HETATM   15  O6  UNL     1       2.230  55.294  -9.298  1.00  0.00    -0.338 OA
HETATM   16  C24 UNL     1       3.250  54.542  -9.995  1.00  0.00     0.068 C 
HETATM   17  C25 UNL     1       4.025  55.603 -10.821  1.00  0.00     0.047 C 
HETATM   18  C26 UNL     1       2.476  53.707 -11.053  1.00  0.00     0.039 C 
HETATM   19  C27 UNL     1       1.597  52.546 -10.565  1.00  0.00     0.007 C 
HETATM   20  C28 UNL     1       2.284  51.201 -10.306  1.00  0.00     0.038 C 
ENDROOT
BRANCH   5  21
HETATM   21  C6  UNL     1       6.577  51.523  -7.905  1.00  0.00     0.057 C 
HETATM   22  C7  UNL     1       7.120  52.777  -7.210  1.00  0.00     0.046 C 
HETATM   23  C8  UNL     1       7.503  50.311  -7.756  1.00  0.00     0.046 C 
BRANCH  21  24
HETATM   24  O1  UNL     1       5.410  51.176  -7.117  1.00  0.00    -0.390 OA
HETATM   25  H12 UNL     1       5.039  50.345  -7.461  1.00  0.00     0.210 HD
ENDBRANCH  21  24
ENDBRANCH   5  21
BRANCH   8  26
HETATM   26  C12 UNL     1       5.158  55.800  -7.770  1.00  0.00     0.014 C 
BRANCH  26  27
HETATM   27  C13 UNL     1       4.558  56.931  -6.895  1.00  0.00    -0.022 C 
HETATM   28  C14 UNL     1       5.645  57.565  -6.021  1.00  0.00     0.009 C 
HETATM   29  C15 UNL     1       3.913  58.028  -7.748  1.00  0.00     0.009 C 
ENDBRANCH  26  27
ENDBRANCH   8  26
BRANCH  10  30
HETATM   30  O2  UNL     1       3.605  54.016  -4.834  1.00  0.00    -0.359 OA
HETATM   31  H26 UNL     1       4.445  53.770  -5.250  1.00  0.00     0.217 HD
ENDBRANCH  10  30
BRANCH  11  32
HETATM   32  C19 UNL     1       1.075  54.470  -3.846  1.00  0.00     0.275 C 
HETATM   33  O3  UNL     1       1.203  53.377  -3.300  1.00  0.00    -0.301 OA
ENDBRANCH  11  32
BRANCH  13  34
HETATM   34  C22 UNL     1      -0.372  55.635  -8.514  1.00  0.00     0.275 C 
HETATM   35  O5  UNL     1      -1.024  54.842  -9.184  1.00  0.00    -0.301 OA
ENDBRANCH  13  34
BRANCH  12  36
HETATM   36  O4  UNL     1      -0.915  55.301  -5.729  1.00  0.00    -0.359 OA
HETATM   37  H28 UNL     1      -0.980  55.092  -4.766  1.00  0.00     0.217 HD
ENDBRANCH  12  36
TORSDOF 8
ENDMDL
MODEL 5
REMARK minimizedAffinity -5.79870319
REMARK CNNscore 0.248188064
REMARK CNNaffinity 4.98203421
REMARK  8 active torsions:
REMARK  status: ('A' for Active; 'I' for Inactive)
REMARK    1  A    between atoms: C5_5  and  C6_6 
REMARK    2  A    between atoms: C6_6  and  O1_9 
REMARK    3  A    between atoms: C11_12  and  C12_13 
REMARK    4  A    between atoms: C12_13  and  C13_14 
REMARK    5  A    between atoms: C17_18  and  O2_19 
REMARK    6  A    between atoms: C18_20  and  C19_21 
REMARK    7  A    between atoms: C20_23  and  O4_24 
REMARK    8  A    between atoms: C21_25  and  C22_26 
ROOT
HETATM    1  C1  UNL     1     -14.634  46.189 -19.419  1.00  0.00     0.019 C 
HETATM    2  C2  UNL     1     -13.628  47.063 -19.246  1.00  0.00    -0.068 C 
HETATM    3  C3  UNL     1     -13.232  47.405 -17.904  1.00  0.00     0.003 C 
HETATM    4  C4  UNL     1     -12.123  47.141 -17.198  1.00  0.00    -0.019 C 
HETATM    5  C5  UNL     1     -10.781  46.428 -17.385  1.00  0.00     0.042 C 
HETATM    6  C9  UNL     1     -10.532  45.593 -18.691  1.00  0.00     0.020 C 
HETATM    7  C10 UNL     1     -10.077  46.228 -20.038  1.00  0.00     0.030 C 
HETATM    8  C11 UNL     1      -8.545  46.487 -20.227  1.00  0.00     0.031 C 
HETATM    9  C16 UNL     1      -8.423  47.336 -21.480  1.00  0.00     0.015 A 
HETATM   10  C17 UNL     1      -7.591  48.464 -21.605  1.00  0.00     0.091 A 
HETATM   11  C18 UNL     1      -7.517  49.169 -22.820  1.00  0.00     0.069 A 
HETATM   12  C20 UNL     1      -8.297  48.776 -23.918  1.00  0.00     0.097 A 
HETATM   13  C21 UNL     1      -9.143  47.670 -23.799  1.00  0.00     0.070 A 
HETATM   14  C23 UNL     1      -9.198  46.956 -22.588  1.00  0.00     0.095 A 
HETATM   15  O6  UNL     1     -10.002  45.851 -22.543  1.00  0.00    -0.338 OA
HETATM   16  C24 UNL     1     -10.634  45.469 -21.300  1.00  0.00     0.068 C 
HETATM   17  C25 UNL     1     -10.451  43.929 -21.222  1.00  0.00     0.047 C 
HETATM   18  C26 UNL     1     -12.155  45.673 -21.547  1.00  0.00     0.039 C 
HETATM   19  C27 UNL     1     -12.687  47.108 -21.670  1.00  0.00     0.007 C 
HETATM   20  C28 UNL     1     -13.007  47.855 -20.371  1.00  0.00     0.038 C 
ENDROOT
BRANCH   5  21
HETATM   21  C6  UNL     1      -9.622  47.340 -16.826  1.00  0.00     0.057 C 
HETATM   22  C7  UNL     1      -9.426  48.637 -17.620  1.00  0.00     0.046 C 
HETATM   23  C8  UNL     1      -8.311  46.577 -16.600  1.00  0.00     0.046 C 
BRANCH  21  24
HETATM   24  O1  UNL     1      -9.992  47.805 -15.503  1.00  0.00    -0.390 OA
HETATM   25  H12 UNL     1     -10.075  47.035 -14.914  1.00  0.00     0.210 HD
ENDBRANCH  21  24
ENDBRANCH   5  21
BRANCH   8  26
HETATM   26  C12 UNL     1      -7.620  45.244 -20.279  1.00  0.00     0.014 C 
BRANCH  26  27
HETATM   27  C13 UNL     1      -6.675  45.198 -21.508  1.00  0.00    -0.022 C 
HETATM   28  C14 UNL     1      -5.215  45.327 -21.064  1.00  0.00     0.009 C 
HETATM   29  C15 UNL     1      -6.835  43.896 -22.298  1.00  0.00     0.009 C 
ENDBRANCH  26  27
ENDBRANCH   8  26
BRANCH  10  30
HETATM   30  O2  UNL     1      -6.807  48.914 -20.577  1.00  0.00    -0.359 OA
HETATM   31  H26 UNL     1      -7.000  48.455 -19.746  1.00  0.00     0.217 HD
ENDBRANCH  10  30
BRANCH  11  32
HETATM   32  C19 UNL     1      -6.585  50.313 -22.939  1.00  0.00     0.275 C 
HETATM   33  O3  UNL     1      -5.736  50.348 -23.827  1.00  0.00    -0.301 OA
ENDBRANCH  11  32
BRANCH  13  34
HETATM   34  C22 UNL     1     -10.023  47.226 -24.912  1.00  0.00     0.275 C 
HETATM   35  O5  UNL     1     -10.876  47.928 -25.441  1.00  0.00    -0.301 OA
ENDBRANCH  13  34
BRANCH  12  36
HETATM   36  O4  UNL     1      -8.215  49.429 -25.120  1.00  0.00    -0.359 OA
HETATM   37  H28 UNL     1      -7.603  50.199 -25.039  1.00  0.00     0.217 HD
ENDBRANCH  12  36
TORSDOF 8
ENDMDL
MODEL 6
REMARK minimizedAffinity -5.46592283
REMARK CNNscore 0.228712589
REMARK CNNaffinity 5.21070623
REMARK  8 active torsions:
REMARK  status: ('A' for Active; 'I' for Inactive)
REMARK    1  A    between atoms: C5_5  and  C6_6 
REMARK    2  A    between atoms: C6_6  and  O1_9 
REMARK    3  A    between atoms: C11_12  and  C12_13 
REMARK    4  A    between atoms: C12_13  and  C13_14 
REMARK    5  A    between atoms: C17_18  and  O2_19 
REMARK    6  A    between atoms: C18_20  and  C19_21 
REMARK    7  A    between atoms: C20_23  and  O4_24 
REMARK    8  A    between atoms: C21_25  and  C22_26 
ROOT
HETATM    1  C1  UNL     1      -1.037  55.012 -10.238  1.00  0.00     0.019 C 
HETATM    2  C2  UNL     1      -1.267  53.743  -9.860  1.00  0.00    -0.068 C 
HETATM    3  C3  UNL     1      -2.620  53.340  -9.575  1.00  0.00     0.003 C 
HETATM    4  C4  UNL     1      -3.463  52.511 -10.208  1.00  0.00    -0.019 C 
HETATM    5  C5  UNL     1      -3.476  51.599 -11.438  1.00  0.00     0.042 C 
HETATM    6  C9  UNL     1      -2.264  51.639 -12.435  1.00  0.00     0.020 C 
HETATM    7  C10 UNL     1      -0.938  50.855 -12.201  1.00  0.00     0.030 C 
HETATM    8  C11 UNL     1      -0.909  49.352 -12.638  1.00  0.00     0.031 C 
HETATM    9  C16 UNL     1       0.375  48.782 -12.061  1.00  0.00     0.015 A 
HETATM   10  C17 UNL     1       0.477  47.537 -11.413  1.00  0.00     0.091 A 
HETATM   11  C18 UNL     1       1.719  47.074 -10.941  1.00  0.00     0.069 A 
HETATM   12  C20 UNL     1       2.871  47.863 -11.081  1.00  0.00     0.097 A 
HETATM   13  C21 UNL     1       2.778  49.111 -11.704  1.00  0.00     0.070 A 
HETATM   14  C23 UNL     1       1.536  49.560 -12.193  1.00  0.00     0.095 A 
HETATM   15  O6  UNL     1       1.512  50.763 -12.841  1.00  0.00    -0.338 OA
HETATM   16  C24 UNL     1       0.327  51.589 -12.783  1.00  0.00     0.068 C 
HETATM   17  C25 UNL     1       0.129  52.096 -14.237  1.00  0.00     0.047 C 
HETATM   18  C26 UNL     1       0.758  52.849 -11.981  1.00  0.00     0.039 C 
HETATM   19  C27 UNL     1       1.033  52.697 -10.478  1.00  0.00     0.007 C 
HETATM   20  C28 UNL     1      -0.170  52.759  -9.531  1.00  0.00     0.038 C 
ENDROOT
BRANCH   5  21
HETATM   21  C6  UNL     1      -4.103  50.205 -11.049  1.00  0.00     0.057 C 
HETATM   22  C7  UNL     1      -5.513  50.312 -10.457  1.00  0.00     0.046 C 
HETATM   23  C8  UNL     1      -3.166  49.339 -10.200  1.00  0.00     0.046 C 
BRANCH  21  24
HETATM   24  O1  UNL     1      -4.302  49.430 -12.259  1.00  0.00    -0.390 OA
HETATM   25  H12 UNL     1      -3.434  49.263 -12.667  1.00  0.00     0.210 HD
ENDBRANCH  21  24
ENDBRANCH   5  21
BRANCH   8  26
HETATM   26  C12 UNL     1      -1.043  49.055 -14.153  1.00  0.00     0.014 C 
BRANCH  26  27
HETATM   27  C13 UNL     1      -2.504  49.003 -14.671  1.00  0.00    -0.022 C 
HETATM   28  C14 UNL     1      -2.741  50.101 -15.712  1.00  0.00     0.009 C 
HETATM   29  C15 UNL     1      -2.835  47.648 -15.304  1.00  0.00     0.009 C 
ENDBRANCH  26  27
ENDBRANCH   8  26
BRANCH  10  30
HETATM   30  O2  UNL     1      -0.602  46.715 -11.231  1.00  0.00    -0.359 OA
HETATM   31  H26 UNL     1      -1.434  47.148 -11.472  1.00  0.00     0.217 HD
ENDBRANCH  10  30
BRANCH  11  32
HETATM   32  C19 UNL     1       1.805  45.733 -10.320  1.00  0.00     0.275 C 
HETATM   33  O3  UNL     1       2.102  44.745 -10.988  1.00  0.00    -0.301 OA
ENDBRANCH  11  32
BRANCH  13  34
HETATM   34  C22 UNL     1       3.952  50.010 -11.850  1.00  0.00     0.275 C 
HETATM   35  O5  UNL     1       4.920  49.774 -12.562  1.00  0.00    -0.301 OA
ENDBRANCH  13  34
BRANCH  12  36
HETATM   36  O4  UNL     1       4.095  47.417 -10.657  1.00  0.00    -0.359 OA
HETATM   37  H28 UNL     1       3.995  46.541 -10.216  1.00  0.00     0.217 HD
ENDBRANCH  12  36
TORSDOF 8
ENDMDL
MODEL 7
REMARK minimizedAffinity -5.82983685
REMARK CNNscore 0.214906216
REMARK CNNaffinity 5.04866982
REMARK  8 active torsions:
REMARK  status: ('A' for Active; 'I' for Inactive)
REMARK    1  A    between atoms: C5_5  and  C6_6 
REMARK    2  A    between atoms: C6_6  and  O1_9 
REMARK    3  A    between atoms: C11_12  and  C12_13 
REMARK    4  A    between atoms: C12_13  and  C13_14 
REMARK    5  A    between atoms: C17_18  and  O2_19 
REMARK    6  A    between atoms: C18_20  and  C19_21 
REMARK    7  A    between atoms: C20_23  and  O4_24 
REMARK    8  A    between atoms: C21_25  and  C22_26 
ROOT
HETATM    1  C1  UNL     1      -6.746  48.133 -31.423  1.00  0.00     0.019 C 
HETATM    2  C2  UNL     1      -6.542  47.220 -32.388  1.00  0.00    -0.068 C 
HETATM    3  C3  UNL     1      -5.395  46.355 -32.290  1.00  0.00     0.003 C 
HETATM    4  C4  UNL     1      -5.278  45.038 -32.063  1.00  0.00    -0.019 C 
HETATM    5  C5  UNL     1      -6.183  43.825 -31.827  1.00  0.00     0.042 C 
HETATM    6  C9  UNL     1      -7.725  44.046 -31.631  1.00  0.00     0.020 C 
HETATM    7  C10 UNL     1      -8.722  44.221 -32.816  1.00  0.00     0.030 C 
HETATM    8  C11 UNL     1      -9.262  42.919 -33.496  1.00  0.00     0.031 C 
HETATM    9  C16 UNL     1      -9.978  43.379 -34.753  1.00  0.00     0.015 A 
HETATM   10  C17 UNL     1      -9.855  42.766 -36.014  1.00  0.00     0.091 A 
HETATM   11  C18 UNL     1     -10.587  43.242 -37.117  1.00  0.00     0.069 A 
HETATM   12  C20 UNL     1     -11.427  44.358 -36.984  1.00  0.00     0.097 A 
HETATM   13  C21 UNL     1     -11.540  44.989 -35.741  1.00  0.00     0.070 A 
HETATM   14  C23 UNL     1     -10.822  44.495 -34.637  1.00  0.00     0.095 A 
HETATM   15  O6  UNL     1     -11.011  45.117 -33.434  1.00  0.00    -0.338 OA
HETATM   16  C24 UNL     1      -9.933  45.166 -32.471  1.00  0.00     0.068 C 
HETATM   17  C25 UNL     1     -10.604  44.836 -31.111  1.00  0.00     0.047 C 
HETATM   18  C26 UNL     1      -9.558  46.672 -32.371  1.00  0.00     0.039 C 
HETATM   19  C27 UNL     1      -8.857  47.330 -33.568  1.00  0.00     0.007 C 
HETATM   20  C28 UNL     1      -7.337  47.169 -33.670  1.00  0.00     0.038 C 
ENDROOT
BRANCH   5  21
HETATM   21  C6  UNL     1      -5.689  42.622 -32.720  1.00  0.00     0.057 C 
HETATM   22  C7  UNL     1      -6.275  41.269 -32.302  1.00  0.00     0.046 C 
HETATM   23  C8  UNL     1      -4.166  42.584 -32.889  1.00  0.00     0.046 C 
BRANCH  21  24
HETATM   24  O1  UNL     1      -6.190  42.807 -34.069  1.00  0.00    -0.390 OA
HETATM   25  H12 UNL     1      -5.808  43.624 -34.433  1.00  0.00     0.210 HD
ENDBRANCH  21  24
ENDBRANCH   5  21
BRANCH   8  26
HETATM   26  C12 UNL     1     -10.151  41.988 -32.633  1.00  0.00     0.014 C 
BRANCH  26  27
HETATM   27  C13 UNL     1     -10.061  40.485 -33.007  1.00  0.00    -0.022 C 
HETATM   28  C14 UNL     1     -11.208  40.099 -33.946  1.00  0.00     0.009 C 
HETATM   29  C15 UNL     1      -8.733  40.150 -33.692  1.00  0.00     0.009 C 
ENDBRANCH  26  27
ENDBRANCH   8  26
BRANCH  10  30
HETATM   30  O2  UNL     1      -9.050  41.679 -36.225  1.00  0.00    -0.359 OA
HETATM   31  H26 UNL     1      -8.493  41.485 -35.457  1.00  0.00     0.217 HD
ENDBRANCH  10  30
BRANCH  11  32
HETATM   32  C19 UNL     1     -10.485  42.536 -38.414  1.00  0.00     0.275 C 
HETATM   33  O3  UNL     1     -10.082  43.116 -39.420  1.00  0.00    -0.301 OA
ENDBRANCH  11  32
BRANCH  13  34
HETATM   34  C22 UNL     1     -12.383  46.197 -35.544  1.00  0.00     0.275 C 
HETATM   35  O5  UNL     1     -12.700  46.972 -36.437  1.00  0.00    -0.301 OA
ENDBRANCH  13  34
BRANCH  12  36
HETATM   36  O4  UNL     1     -12.173  44.817 -38.037  1.00  0.00    -0.359 OA
HETATM   37  H28 UNL     1     -11.964  44.292 -38.846  1.00  0.00     0.217 HD
ENDBRANCH  12  36
TORSDOF 8
ENDMDL
MODEL 8
REMARK minimizedAffinity -5.38473892
REMARK CNNscore 0.193380892
REMARK CNNaffinity 5.17097998
REMARK  8 active torsions:
REMARK  status: ('A' for Active; 'I' for Inactive)
REMARK    1  A    between atoms: C5_5  and  C6_6 
REMARK    2  A    between atoms: C6_6  and  O1_9 
REMARK    3  A    between atoms: C11_12  and  C12_13 
REMARK    4  A    between atoms: C12_13  and  C13_14 
REMARK    5  A    between atoms: C17_18  and  O2_19 
REMARK    6  A    between atoms: C18_20  and  C19_21 
REMARK    7  A    between atoms: C20_23  and  O4_24 
REMARK    8  A    between atoms: C21_25  and  C22_26 
ROOT
HETATM    1  C1  UNL     1      -7.617  43.529 -33.602  1.00  0.00     0.019 C 
HETATM    2  C2  UNL     1      -7.072  43.904 -32.432  1.00  0.00    -0.068 C 
HETATM    3  C3  UNL     1      -6.215  45.061 -32.407  1.00  0.00     0.003 C 
HETATM    4  C4  UNL     1      -6.364  46.280 -31.867  1.00  0.00    -0.019 C 
HETATM    5  C5  UNL     1      -7.395  47.056 -31.042  1.00  0.00     0.042 C 
HETATM    6  C9  UNL     1      -8.806  46.419 -30.783  1.00  0.00     0.020 C 
HETATM    7  C10 UNL     1      -9.082  45.380 -29.656  1.00  0.00     0.030 C 
HETATM    8  C11 UNL     1      -9.363  45.938 -28.220  1.00  0.00     0.031 C 
HETATM    9  C16 UNL     1      -9.330  44.733 -27.297  1.00  0.00     0.015 A 
HETATM   10  C17 UNL     1      -8.681  44.699 -26.049  1.00  0.00     0.091 A 
HETATM   11  C18 UNL     1      -8.734  43.547 -25.244  1.00  0.00     0.069 A 
HETATM   12  C20 UNL     1      -9.409  42.400 -25.689  1.00  0.00     0.097 A 
HETATM   13  C21 UNL     1     -10.039  42.415 -26.937  1.00  0.00     0.070 A 
HETATM   14  C23 UNL     1     -10.000  43.578 -27.729  1.00  0.00     0.095 A 
HETATM   15  O6  UNL     1     -10.678  43.555 -28.916  1.00  0.00    -0.338 OA
HETATM   16  C24 UNL     1     -10.200  44.337 -30.034  1.00  0.00     0.068 C 
HETATM   17  C25 UNL     1     -11.475  44.991 -30.631  1.00  0.00     0.047 C 
HETATM   18  C26 UNL     1      -9.761  43.289 -31.095  1.00  0.00     0.039 C 
HETATM   19  C27 UNL     1      -8.504  42.453 -30.817  1.00  0.00     0.007 C 
HETATM   20  C28 UNL     1      -7.150  43.076 -31.172  1.00  0.00     0.038 C 
ENDROOT
BRANCH   5  21
HETATM   21  C6  UNL     1      -6.663  47.803 -29.861  1.00  0.00     0.057 C 
HETATM   22  C7  UNL     1      -5.447  48.618 -30.313  1.00  0.00     0.046 C 
HETATM   23  C8  UNL     1      -6.357  46.889 -28.669  1.00  0.00     0.046 C 
BRANCH  21  24
HETATM   24  O1  UNL     1      -7.560  48.805 -29.317  1.00  0.00    -0.390 OA
HETATM   25  H12 UNL     1      -8.340  48.356 -28.948  1.00  0.00     0.210 HD
ENDBRANCH  21  24
ENDBRANCH   5  21
BRANCH   8  26
HETATM   26  C12 UNL     1     -10.653  46.777 -28.029  1.00  0.00     0.014 C 
BRANCH  26  27
HETATM   27  C13 UNL     1     -10.541  47.891 -26.955  1.00  0.00    -0.022 C 
HETATM   28  C14 UNL     1     -11.117  47.407 -25.621  1.00  0.00     0.009 C 
HETATM   29  C15 UNL     1      -9.088  48.322 -26.735  1.00  0.00     0.009 C 
ENDBRANCH  26  27
ENDBRANCH   8  26
BRANCH  10  30
HETATM   30  O2  UNL     1      -7.996  45.774 -25.550  1.00  0.00    -0.359 OA
HETATM   31  H26 UNL     1      -7.903  46.482 -26.205  1.00  0.00     0.217 HD
ENDBRANCH  10  30
BRANCH  11  32
HETATM   32  C19 UNL     1      -8.095  43.565 -23.909  1.00  0.00     0.275 C 
HETATM   33  O3  UNL     1      -7.156  42.816 -23.647  1.00  0.00    -0.301 OA
ENDBRANCH  11  32
BRANCH  13  34
HETATM   34  C22 UNL     1     -10.737  41.221 -27.483  1.00  0.00     0.275 C 
HETATM   35  O5  UNL     1     -11.601  40.593 -26.884  1.00  0.00    -0.301 OA
ENDBRANCH  13  34
BRANCH  12  36
HETATM   36  O4  UNL     1      -9.500  41.279 -24.908  1.00  0.00    -0.359 OA
HETATM   37  H28 UNL     1      -8.984  41.410 -24.077  1.00  0.00     0.217 HD
ENDBRANCH  12  36
TORSDOF 8
ENDMDL
MODEL 9
REMARK minimizedAffinity -5.7365694
REMARK CNNscore 0.178967342
REMARK CNNaffinity 4.90465403
REMARK  8 active torsions:
REMARK  status: ('A' for Active; 'I' for Inactive)
REMARK    1  A    between atoms: C5_5  and  C6_6 
REMARK    2  A    between atoms: C6_6  and  O1_9 
REMARK    3  A    between atoms: C11_12  and  C12_13 
REMARK    4  A    between atoms: C12_13  and  C13_14 
REMARK    5  A    between atoms: C17_18  and  O2_19 
REMARK    6  A    between atoms: C18_20  and  C19_21 
REMARK    7  A    between atoms: C20_23  and  O4_24 
REMARK    8  A    between atoms: C21_25  and  C22_26 
ROOT
HETATM    1  C1  UNL     1      -5.918  46.705 -32.183  1.00  0.00     0.019 C 
HETATM    2  C2  UNL     1      -6.213  46.221 -30.964  1.00  0.00    -0.068 C 
HETATM    3  C3  UNL     1      -5.944  47.040 -29.810  1.00  0.00     0.003 C 
HETATM    4  C4  UNL     1      -6.753  47.655 -28.935  1.00  0.00    -0.019 C 
HETATM    5  C5  UNL     1      -8.253  47.812 -28.666  1.00  0.00     0.042 C 
HETATM    6  C9  UNL     1      -9.282  47.258 -29.715  1.00  0.00     0.020 C 
HETATM    7  C10 UNL     1      -9.722  45.765 -29.775  1.00  0.00     0.030 C 
HETATM    8  C11 UNL     1     -10.867  45.316 -28.807  1.00  0.00     0.031 C 
HETATM    9  C16 UNL     1     -10.902  43.800 -28.887  1.00  0.00     0.015 A 
HETATM   10  C17 UNL     1     -11.016  42.943 -27.778  1.00  0.00     0.091 A 
HETATM   11  C18 UNL     1     -11.076  41.548 -27.952  1.00  0.00     0.069 A 
HETATM   12  C20 UNL     1     -10.991  40.989 -29.236  1.00  0.00     0.097 A 
HETATM   13  C21 UNL     1     -10.855  41.830 -30.344  1.00  0.00     0.070 A 
HETATM   14  C23 UNL     1     -10.816  43.225 -30.165  1.00  0.00     0.095 A 
HETATM   15  O6  UNL     1     -10.737  44.002 -31.287  1.00  0.00    -0.338 OA
HETATM   16  C24 UNL     1     -10.055  45.276 -31.234  1.00  0.00     0.068 C 
HETATM   17  C25 UNL     1     -10.979  46.250 -32.014  1.00  0.00     0.047 C 
HETATM   18  C26 UNL     1      -8.810  45.099 -32.147  1.00  0.00     0.039 C 
HETATM   19  C27 UNL     1      -7.674  44.186 -31.663  1.00  0.00     0.007 C 
HETATM   20  C28 UNL     1      -6.637  44.794 -30.713  1.00  0.00     0.038 C 
ENDROOT
BRANCH   5  21
HETATM   21  C6  UNL     1      -8.534  47.595 -27.129  1.00  0.00     0.057 C 
HETATM   22  C7  UNL     1      -8.210  46.178 -26.641  1.00  0.00     0.046 C 
HETATM   23  C8  UNL     1      -9.927  48.069 -26.699  1.00  0.00     0.046 C 
BRANCH  21  24
HETATM   24  O1  UNL     1      -7.625  48.431 -26.368  1.00  0.00    -0.390 OA
HETATM   25  H12 UNL     1      -7.812  49.363 -26.576  1.00  0.00     0.210 HD
ENDBRANCH  21  24
ENDBRANCH   5  21
BRANCH   8  26
HETATM   26  C12 UNL     1     -12.268  45.939 -29.035  1.00  0.00     0.014 C 
BRANCH  26  27
HETATM   27  C13 UNL     1     -13.259  45.737 -27.858  1.00  0.00    -0.022 C 
HETATM   28  C14 UNL     1     -13.240  46.955 -26.929  1.00  0.00     0.009 C 
HETATM   29  C15 UNL     1     -14.692  45.521 -28.354  1.00  0.00     0.009 C 
ENDBRANCH  26  27
ENDBRANCH   8  26
BRANCH  10  30
HETATM   30  O2  UNL     1     -11.097  43.412 -26.494  1.00  0.00    -0.359 OA
HETATM   31  H26 UNL     1     -10.930  44.365 -26.444  1.00  0.00     0.217 HD
ENDBRANCH  10  30
BRANCH  11  32
HETATM   32  C19 UNL     1     -11.260  40.677 -26.770  1.00  0.00     0.275 C 
HETATM   33  O3  UNL     1     -10.468  39.770 -26.522  1.00  0.00    -0.301 OA
ENDBRANCH  11  32
BRANCH  13  34
HETATM   34  C22 UNL     1     -10.721  41.299 -31.726  1.00  0.00     0.275 C 
HETATM   35  O5  UNL     1     -11.394  40.384 -32.183  1.00  0.00    -0.301 OA
ENDBRANCH  13  34
BRANCH  12  36
HETATM   36  O4  UNL     1     -11.079  39.635 -29.430  1.00  0.00    -0.359 OA
HETATM   37  H28 UNL     1     -11.142  39.178 -28.558  1.00  0.00     0.217 HD
ENDBRANCH  12  36
TORSDOF 8
ENDMDL
