MODEL 1
REMARK minimizedAffinity -4.09937191
REMARK  0 active torsions:
REMARK  status: ('A' for Active; 'I' for Inactive)
ROOT
HETATM    1 CL1  UNL     1      -2.879   3.581  10.285  1.00  0.00     0.000 Cl
HETATM    2 RU1  UNL     1      -5.456   3.550  10.553  1.00  0.00     0.000 Ru
HETATM    3 CL2  UNL     1      -4.595   4.039  12.664  1.00  0.00     0.000 Cl
HETATM    4 CL3  UNL     1      -5.600   4.083  12.515  1.00  0.00     0.000 Cl
HETATM    5 CL4  UNL     1      -5.820   1.551  11.088  1.00  0.00     0.000 Cl
HETATM    6 CL5  UNL     1      -6.497   1.184  11.841  1.00  0.00     0.000 Cl
HETATM    7 CL6  UNL     1      -5.584   3.464   8.365  1.00  0.00     0.000 Cl
ENDROOT
TORSDOF 0
ENDMDL
MODEL 2
REMARK minimizedAffinity -3.9210279
REMARK  0 active torsions:
REMARK  status: ('A' for Active; 'I' for Inactive)
ROOT
HETATM    1 CL1  UNL     1      -7.762   2.269  12.915  1.00  0.00     0.000 Cl
HETATM    2 RU1  UNL     1      -6.629   4.173  11.572  1.00  0.00     0.000 Ru
HETATM    3 CL2  UNL     1      -5.521   2.212  10.969  1.00  0.00     0.000 Cl
HETATM    4 CL3  UNL     1      -5.307   3.075  10.476  1.00  0.00     0.000 Cl
HETATM    5 CL4  UNL     1      -5.064   4.745  12.852  1.00  0.00     0.000 Cl
HETATM    6 CL5  UNL     1      -4.048   4.980  12.585  1.00  0.00     0.000 Cl
HETATM    7 CL6  UNL     1      -8.260   5.480  12.238  1.00  0.00     0.000 Cl
ENDROOT
TORSDOF 0
ENDMDL
MODEL 3
REMARK minimizedAffinity -3.87063909
REMARK  0 active torsions:
REMARK  status: ('A' for Active; 'I' for Inactive)
ROOT
HETATM    1 CL1  UNL     1      -4.223   3.582  10.068  1.00  0.00     0.000 Cl
HETATM    2 RU1  UNL     1      -5.108   2.807  12.376  1.00  0.00     0.000 Ru
HETATM    3 CL2  UNL     1      -6.086   1.390  10.803  1.00  0.00     0.000 Cl
HETATM    4 CL3  UNL     1      -6.212   1.196  11.794  1.00  0.00     0.000 Cl
HETATM    5 CL4  UNL     1      -6.876   3.925  12.570  1.00  0.00     0.000 Cl
HETATM    6 CL5  UNL     1      -7.830   3.590  12.939  1.00  0.00     0.000 Cl
HETATM    7 CL6  UNL     1      -3.624   4.143  13.284  1.00  0.00     0.000 Cl
ENDROOT
TORSDOF 0
ENDMDL
MODEL 4
REMARK minimizedAffinity -3.86969566
REMARK  0 active torsions:
REMARK  status: ('A' for Active; 'I' for Inactive)
ROOT
HETATM    1 CL1  UNL     1      -7.057   4.157  12.263  1.00  0.00     0.000 Cl
HETATM    2 RU1  UNL     1      -4.887   2.758  12.059  1.00  0.00     0.000 Ru
HETATM    3 CL2  UNL     1      -4.307   4.675  13.253  1.00  0.00     0.000 Cl
HETATM    4 CL3  UNL     1      -3.624   3.928  13.150  1.00  0.00     0.000 Cl
HETATM    5 CL4  UNL     1      -4.036   3.517  10.294  1.00  0.00     0.000 Cl
HETATM    6 CL5  UNL     1      -3.002   3.750  10.109  1.00  0.00     0.000 Cl
HETATM    7 CL6  UNL     1      -6.131   1.121  11.295  1.00  0.00     0.000 Cl
ENDROOT
TORSDOF 0
ENDMDL
MODEL 5
REMARK minimizedAffinity -3.82047343
REMARK  0 active torsions:
REMARK  status: ('A' for Active; 'I' for Inactive)
ROOT
HETATM    1 CL1  UNL     1      -5.406   3.197  10.797  1.00  0.00     0.000 Cl
HETATM    2 RU1  UNL     1      -6.215   4.180  13.053  1.00  0.00     0.000 Ru
HETATM    3 CL2  UNL     1      -7.512   2.280  12.677  1.00  0.00     0.000 Cl
HETATM    4 CL3  UNL     1      -7.589   2.766  13.567  1.00  0.00     0.000 Cl
HETATM    5 CL4  UNL     1      -7.775   5.450  12.448  1.00  0.00     0.000 Cl
HETATM    6 CL5  UNL     1      -8.736   5.580  12.913  1.00  0.00     0.000 Cl
HETATM    7 CL6  UNL     1      -4.482   5.523  12.977  1.00  0.00     0.000 Cl
ENDROOT
TORSDOF 0
ENDMDL
MODEL 6
REMARK minimizedAffinity -3.73893523
REMARK  0 active torsions:
REMARK  status: ('A' for Active; 'I' for Inactive)
ROOT
HETATM    1 CL1  UNL     1      -6.678   6.515  14.901  1.00  0.00     0.000 Cl
HETATM    2 RU1  UNL     1      -6.576   5.158  12.696  1.00  0.00     0.000 Ru
HETATM    3 CL2  UNL     1      -8.792   5.847  12.926  1.00  0.00     0.000 Cl
HETATM    4 CL3  UNL     1      -8.501   5.386  12.067  1.00  0.00     0.000 Cl
HETATM    5 CL4  UNL     1      -7.039   3.216  13.351  1.00  0.00     0.000 Cl
HETATM    6 CL5  UNL     1      -7.685   2.498  12.876  1.00  0.00     0.000 Cl
HETATM    7 CL6  UNL     1      -4.391   5.193  12.891  1.00  0.00     0.000 Cl
ENDROOT
TORSDOF 0
ENDMDL
MODEL 7
REMARK minimizedAffinity -3.73351574
REMARK  0 active torsions:
REMARK  status: ('A' for Active; 'I' for Inactive)
ROOT
HETATM    1 CL1  UNL     1      -0.136   8.513   8.676  1.00  0.00     0.000 Cl
HETATM    2 RU1  UNL     1       1.744   6.738   8.509  1.00  0.00     0.000 Ru
HETATM    3 CL2  UNL     1       0.882   6.563  10.669  1.00  0.00     0.000 Cl
HETATM    4 CL3  UNL     1       1.565   5.880  10.349  1.00  0.00     0.000 Cl
HETATM    5 CL4  UNL     1       3.420   7.806   9.190  1.00  0.00     0.000 Cl
HETATM    6 CL5  UNL     1       4.195   7.462   9.854  1.00  0.00     0.000 Cl
HETATM    7 CL6  UNL     1       1.796   7.139   6.353  1.00  0.00     0.000 Cl
ENDROOT
TORSDOF 0
ENDMDL
MODEL 8
REMARK minimizedAffinity -3.73192906
REMARK  0 active torsions:
REMARK  status: ('A' for Active; 'I' for Inactive)
ROOT
HETATM    1 CL1  UNL     1       3.838  11.180  20.052  1.00  0.00     0.000 Cl
HETATM    2 RU1  UNL     1       2.046  10.739  21.870  1.00  0.00     0.000 Ru
HETATM    3 CL2  UNL     1       4.049  11.088  23.011  1.00  0.00     0.000 Cl
HETATM    4 CL3  UNL     1       3.184  11.002  23.540  1.00  0.00     0.000 Cl
HETATM    5 CL4  UNL     1       2.181   8.658  22.128  1.00  0.00     0.000 Cl
HETATM    6 CL5  UNL     1       2.163   8.107  23.052  1.00  0.00     0.000 Cl
HETATM    7 CL6  UNL     1       0.539  10.902  20.285  1.00  0.00     0.000 Cl
ENDROOT
TORSDOF 0
ENDMDL
MODEL 9
REMARK minimizedAffinity -3.66410208
REMARK  0 active torsions:
REMARK  status: ('A' for Active; 'I' for Inactive)
ROOT
HETATM    1 CL1  UNL     1      14.221  -5.309   9.029  1.00  0.00     0.000 Cl
HETATM    2 RU1  UNL     1      12.374  -6.871   8.101  1.00  0.00     0.000 Ru
HETATM    3 CL2  UNL     1      14.115  -6.941   6.551  1.00  0.00     0.000 Cl
HETATM    4 CL3  UNL     1      13.323  -7.570   6.439  1.00  0.00     0.000 Cl
HETATM    5 CL4  UNL     1      11.258  -5.564   6.891  1.00  0.00     0.000 Cl
HETATM    6 CL5  UNL     1      10.854  -5.757   5.913  1.00  0.00     0.000 Cl
HETATM    7 CL6  UNL     1      11.365  -6.667  10.038  1.00  0.00     0.000 Cl
ENDROOT
TORSDOF 0
ENDMDL
