MODEL 1
REMARK minimizedAffinity -9.87931919
REMARK CNNscore 0.767555118
REMARK CNNaffinity 7.27342033
REMARK  8 active torsions:
REMARK  status: ('A' for Active; 'I' for Inactive)
REMARK    1  A    between atoms: C2_2  and  C3_3 
REMARK    2  A    between atoms: C2_2  and  C27_30 
REMARK    3  A    between atoms: C3_3  and  C4_4 
REMARK    4  A    between atoms: C4_4  and  C5_5 
REMARK    5  A    between atoms: C5_5  and  C7_7 
REMARK    6  A    between atoms: C26_28  and  O3_29 
REMARK    7  A    between atoms: C27_30  and  C29_32 
REMARK    8  A    between atoms: C29_32  and  O5_34 
ROOT
HETATM    1  C7  UNL     1      -0.014  50.397 -18.489  1.00  0.00    -0.002 C 
HETATM    2  C8  UNL     1      -0.840  49.147 -18.089  1.00  0.00     0.006 C 
HETATM    3  C9  UNL     1      -1.698  48.784 -19.307  1.00  0.00     0.010 C 
HETATM    4  C10 UNL     1      -1.077  49.582 -20.456  1.00  0.00     0.027 C 
HETATM    5  C11 UNL     1      -1.755  49.741 -21.804  1.00  0.00    -0.036 C 
HETATM    6  C12 UNL     1      -1.393  50.753 -22.635  1.00  0.00     0.002 C 
HETATM    7  C13 UNL     1      -0.437  51.816 -22.121  1.00  0.00     0.157 C 
HETATM    8  O1  UNL     1      -0.136  52.785 -22.818  1.00  0.00    -0.293 OA
HETATM    9  C14 UNL     1       0.190  51.676 -20.744  1.00  0.00     0.093 C 
HETATM   10  C15 UNL     1      -0.722  50.928 -19.774  1.00  0.00    -0.026 C 
HETATM   11  C16 UNL     1      -1.967  51.789 -19.466  1.00  0.00     0.016 C 
HETATM   12  C17 UNL     1      -1.907  50.886 -24.087  1.00  0.00    -0.008 C 
HETATM   13  C18 UNL     1      -2.994  51.993 -24.075  1.00  0.00     0.021 C 
HETATM   14  C19 UNL     1      -0.770  51.293 -25.085  1.00  0.00     0.022 C 
HETATM   15  C20 UNL     1      -0.884  50.732 -26.503  1.00  0.00     0.080 C 
HETATM   16  C21 UNL     1      -2.314  50.495 -26.904  1.00  0.00     0.131 C 
HETATM   17  O2  UNL     1      -2.767  50.927 -27.962  1.00  0.00    -0.298 OA
HETATM   18  C22 UNL     1      -3.148  49.621 -25.980  1.00  0.00     0.056 C 
HETATM   19  C23 UNL     1      -3.340  48.261 -26.650  1.00  0.00     0.018 C 
HETATM   20  C24 UNL     1      -2.478  49.512 -24.588  1.00  0.00     0.012 C 
HETATM   21  C25 UNL     1      -3.430  48.908 -23.557  1.00  0.00     0.042 C 
HETATM   22  C26 UNL     1      -2.734  48.669 -22.218  1.00  0.00     0.148 C 
ENDROOT
BRANCH   1  23
HETATM   23  C5  UNL     1       0.350  51.320 -17.288  1.00  0.00    -0.014 C 
HETATM   24  C6  UNL     1       1.169  52.567 -17.630  1.00  0.00     0.010 C 
BRANCH  23  25
HETATM   25  C4  UNL     1       0.986  50.512 -16.130  1.00  0.00     0.009 C 
BRANCH  25  26
HETATM   26  C3  UNL     1       1.381  51.347 -14.895  1.00  0.00     0.034 C 
BRANCH  26  27
HETATM   27  C2  UNL     1       2.850  51.489 -14.528  1.00  0.00    -0.075 C 
HETATM   28  C1  UNL     1       3.778  51.969 -15.376  1.00  0.00     0.015 C 
BRANCH  27  29
HETATM   29  C27 UNL     1       3.275  51.005 -13.141  1.00  0.00     0.107 C 
HETATM   30  C28 UNL     1       2.147  51.047 -12.111  1.00  0.00     0.026 C 
BRANCH  29  31
HETATM   31  C29 UNL     1       3.861  49.601 -13.212  1.00  0.00     0.147 C 
HETATM   32  O4  UNL     1       3.256  48.545 -13.110  1.00  0.00    -0.650 OA
BRANCH  31  33
HETATM   33  O5  UNL     1       5.196  49.600 -13.413  1.00  0.00    -0.776 OA
HETATM   34  H42 UNL     1       5.425  48.649 -13.462  1.00  0.00     0.167 HD
ENDBRANCH  31  33
ENDBRANCH  29  31
ENDBRANCH  27  29
ENDBRANCH  26  27
ENDBRANCH  25  26
ENDBRANCH  23  25
ENDBRANCH   1  23
BRANCH  22  35
HETATM   35  O3  UNL     1      -3.763  48.567 -21.242  1.00  0.00    -0.391 OA
HETATM   36  H37 UNL     1      -4.311  47.798 -21.471  1.00  0.00     0.210 HD
ENDBRANCH  22  35
TORSDOF 8
ENDMDL
MODEL 2
REMARK minimizedAffinity -7.71868467
REMARK CNNscore 0.640798211
REMARK CNNaffinity 6.74543715
REMARK  8 active torsions:
REMARK  status: ('A' for Active; 'I' for Inactive)
REMARK    1  A    between atoms: C2_2  and  C3_3 
REMARK    2  A    between atoms: C2_2  and  C27_30 
REMARK    3  A    between atoms: C3_3  and  C4_4 
REMARK    4  A    between atoms: C4_4  and  C5_5 
REMARK    5  A    between atoms: C5_5  and  C7_7 
REMARK    6  A    between atoms: C26_28  and  O3_29 
REMARK    7  A    between atoms: C27_30  and  C29_32 
REMARK    8  A    between atoms: C29_32  and  O5_34 
ROOT
HETATM    1  C7  UNL     1       2.923  56.715  -8.276  1.00  0.00    -0.002 C 
HETATM    2  C8  UNL     1       3.829  56.584  -9.529  1.00  0.00     0.006 C 
HETATM    3  C9  UNL     1       3.155  55.557 -10.447  1.00  0.00     0.010 C 
HETATM    4  C10 UNL     1       1.739  55.420  -9.883  1.00  0.00     0.027 C 
HETATM    5  C11 UNL     1       0.789  54.317 -10.312  1.00  0.00    -0.036 C 
HETATM    6  C12 UNL     1      -0.270  53.985  -9.529  1.00  0.00     0.002 C 
HETATM    7  C13 UNL     1      -0.381  54.607  -8.147  1.00  0.00     0.157 C 
HETATM    8  O1  UNL     1      -1.288  54.283  -7.380  1.00  0.00    -0.293 OA
HETATM    9  C14 UNL     1       0.612  55.668  -7.706  1.00  0.00     0.093 C 
HETATM   10  C15 UNL     1       1.982  55.474  -8.354  1.00  0.00    -0.026 C 
HETATM   11  C16 UNL     1       2.635  54.185  -7.806  1.00  0.00     0.016 C 
HETATM   12  C17 UNL     1      -1.377  52.999  -9.968  1.00  0.00    -0.008 C 
HETATM   13  C18 UNL     1      -1.094  51.659  -9.239  1.00  0.00     0.021 C 
HETATM   14  C19 UNL     1      -2.809  53.502  -9.582  1.00  0.00     0.022 C 
HETATM   15  C20 UNL     1      -3.938  53.126 -10.541  1.00  0.00     0.080 C 
HETATM   16  C21 UNL     1      -3.663  51.833 -11.258  1.00  0.00     0.131 C 
HETATM   17  O2  UNL     1      -4.492  50.925 -11.291  1.00  0.00    -0.298 OA
HETATM   18  C22 UNL     1      -2.348  51.736 -12.014  1.00  0.00     0.056 C 
HETATM   19  C23 UNL     1      -2.645  51.833 -13.510  1.00  0.00     0.018 C 
HETATM   20  C24 UNL     1      -1.363  52.829 -11.529  1.00  0.00     0.012 C 
HETATM   21  C25 UNL     1       0.053  52.568 -12.037  1.00  0.00     0.042 C 
HETATM   22  C26 UNL     1       1.001  53.713 -11.680  1.00  0.00     0.148 C 
ENDROOT
BRANCH   1  23
HETATM   23  C5  UNL     1       3.696  57.105  -6.982  1.00  0.00    -0.014 C 
HETATM   24  C6  UNL     1       3.025  58.160  -6.098  1.00  0.00     0.010 C 
BRANCH  23  25
HETATM   25  C4  UNL     1       5.169  57.465  -7.292  1.00  0.00     0.009 C 
BRANCH  25  26
HETATM   26  C3  UNL     1       6.147  57.271  -6.116  1.00  0.00     0.034 C 
BRANCH  26  27
HETATM   27  C2  UNL     1       7.238  56.216  -6.216  1.00  0.00    -0.075 C 
HETATM   28  C1  UNL     1       7.340  55.359  -7.249  1.00  0.00     0.015 C 
BRANCH  27  29
HETATM   29  C27 UNL     1       8.219  56.109  -5.049  1.00  0.00     0.107 C 
HETATM   30  C28 UNL     1       8.671  54.677  -4.764  1.00  0.00     0.026 C 
BRANCH  29  31
HETATM   31  C29 UNL     1       9.432  57.001  -5.275  1.00  0.00     0.147 C 
HETATM   32  O4  UNL     1       9.493  58.212  -5.130  1.00  0.00    -0.650 OA
BRANCH  31  33
HETATM   33  O5  UNL     1      10.522  56.312  -5.676  1.00  0.00    -0.776 OA
HETATM   34  H42 UNL     1      11.217  56.998  -5.755  1.00  0.00     0.167 HD
ENDBRANCH  31  33
ENDBRANCH  29  31
ENDBRANCH  27  29
ENDBRANCH  26  27
ENDBRANCH  25  26
ENDBRANCH  23  25
ENDBRANCH   1  23
BRANCH  22  35
HETATM   35  O3  UNL     1       2.319  53.186 -11.764  1.00  0.00    -0.391 OA
HETATM   36  H37 UNL     1       2.467  52.909 -12.684  1.00  0.00     0.210 HD
ENDBRANCH  22  35
TORSDOF 8
ENDMDL
MODEL 3
REMARK minimizedAffinity -7.60373831
REMARK CNNscore 0.629728913
REMARK CNNaffinity 7.0726428
REMARK  8 active torsions:
REMARK  status: ('A' for Active; 'I' for Inactive)
REMARK    1  A    between atoms: C2_2  and  C3_3 
REMARK    2  A    between atoms: C2_2  and  C27_30 
REMARK    3  A    between atoms: C3_3  and  C4_4 
REMARK    4  A    between atoms: C4_4  and  C5_5 
REMARK    5  A    between atoms: C5_5  and  C7_7 
REMARK    6  A    between atoms: C26_28  and  O3_29 
REMARK    7  A    between atoms: C27_30  and  C29_32 
REMARK    8  A    between atoms: C29_32  and  O5_34 
ROOT
HETATM    1  C7  UNL     1      -2.790  52.936 -11.725  1.00  0.00    -0.002 C 
HETATM    2  C8  UNL     1      -3.614  53.824 -10.757  1.00  0.00     0.006 C 
HETATM    3  C9  UNL     1      -2.605  54.500  -9.820  1.00  0.00     0.010 C 
HETATM    4  C10 UNL     1      -1.252  54.280 -10.503  1.00  0.00     0.027 C 
HETATM    5  C11 UNL     1       0.070  54.550  -9.809  1.00  0.00    -0.036 C 
HETATM    6  C12 UNL     1       1.213  53.981 -10.273  1.00  0.00     0.002 C 
HETATM    7  C13 UNL     1       1.116  52.940 -11.376  1.00  0.00     0.157 C 
HETATM    8  O1  UNL     1       2.121  52.352 -11.779  1.00  0.00    -0.293 OA
HETATM    9  C14 UNL     1      -0.224  52.636 -12.023  1.00  0.00     0.093 C 
HETATM   10  C15 UNL     1      -1.386  52.838 -11.052  1.00  0.00    -0.026 C 
HETATM   11  C16 UNL     1      -1.323  51.766  -9.941  1.00  0.00     0.016 C 
HETATM   12  C17 UNL     1       2.618  54.335  -9.735  1.00  0.00    -0.008 C 
HETATM   13  C18 UNL     1       3.044  53.171  -8.803  1.00  0.00     0.021 C 
HETATM   14  C19 UNL     1       3.673  54.488 -10.883  1.00  0.00     0.022 C 
HETATM   15  C20 UNL     1       4.778  55.518 -10.652  1.00  0.00     0.080 C 
HETATM   16  C21 UNL     1       5.089  55.695  -9.191  1.00  0.00     0.131 C 
HETATM   17  O2  UNL     1       6.241  55.635  -8.765  1.00  0.00    -0.298 OA
HETATM   18  C22 UNL     1       3.921  56.040  -8.279  1.00  0.00     0.056 C 
HETATM   19  C23 UNL     1       4.035  57.514  -7.890  1.00  0.00     0.018 C 
HETATM   20  C24 UNL     1       2.577  55.707  -8.973  1.00  0.00     0.012 C 
HETATM   21  C25 UNL     1       1.414  55.749  -7.984  1.00  0.00     0.042 C 
HETATM   22  C26 UNL     1       0.069  55.559  -8.685  1.00  0.00     0.148 C 
ENDROOT
BRANCH   1  23
HETATM   23  C5  UNL     1      -3.563  51.689 -12.245  1.00  0.00    -0.014 C 
HETATM   24  C6  UNL     1      -4.226  50.821 -11.172  1.00  0.00     0.010 C 
BRANCH  23  25
HETATM   25  C4  UNL     1      -2.691  50.847 -13.209  1.00  0.00     0.009 C 
BRANCH  25  26
HETATM   26  C3  UNL     1      -2.900  51.150 -14.706  1.00  0.00     0.034 C 
BRANCH  26  27
HETATM   27  C2  UNL     1      -2.364  50.180 -15.748  1.00  0.00    -0.075 C 
HETATM   28  C1  UNL     1      -2.692  48.875 -15.776  1.00  0.00     0.015 C 
BRANCH  27  29
HETATM   29  C27 UNL     1      -1.363  50.728 -16.765  1.00  0.00     0.107 C 
HETATM   30  C28 UNL     1      -0.133  49.839 -16.947  1.00  0.00     0.026 C 
BRANCH  29  31
HETATM   31  C29 UNL     1      -2.034  50.967 -18.112  1.00  0.00     0.147 C 
HETATM   32  O4  UNL     1      -2.832  51.848 -18.390  1.00  0.00    -0.650 OA
BRANCH  31  33
HETATM   33  O5  UNL     1      -1.658  50.074 -19.051  1.00  0.00    -0.776 OA
HETATM   34  H42 UNL     1      -2.139  50.361 -19.854  1.00  0.00     0.167 HD
ENDBRANCH  31  33
ENDBRANCH  29  31
ENDBRANCH  27  29
ENDBRANCH  26  27
ENDBRANCH  25  26
ENDBRANCH  23  25
ENDBRANCH   1  23
BRANCH  22  35
HETATM   35  O3  UNL     1      -0.853  55.150  -7.683  1.00  0.00    -0.391 OA
HETATM   36  H37 UNL     1      -0.919  55.868  -7.033  1.00  0.00     0.210 HD
ENDBRANCH  22  35
TORSDOF 8
ENDMDL
MODEL 4
REMARK minimizedAffinity -7.52211523
REMARK CNNscore 0.568814456
REMARK CNNaffinity 6.50262785
REMARK  8 active torsions:
REMARK  status: ('A' for Active; 'I' for Inactive)
REMARK    1  A    between atoms: C2_2  and  C3_3 
REMARK    2  A    between atoms: C2_2  and  C27_30 
REMARK    3  A    between atoms: C3_3  and  C4_4 
REMARK    4  A    between atoms: C4_4  and  C5_5 
REMARK    5  A    between atoms: C5_5  and  C7_7 
REMARK    6  A    between atoms: C26_28  and  O3_29 
REMARK    7  A    between atoms: C27_30  and  C29_32 
REMARK    8  A    between atoms: C29_32  and  O5_34 
ROOT
HETATM    1  C7  UNL     1       2.545  56.402  -8.638  1.00  0.00    -0.002 C 
HETATM    2  C8  UNL     1       3.384  56.391  -9.943  1.00  0.00     0.006 C 
HETATM    3  C9  UNL     1       2.746  55.342 -10.862  1.00  0.00     0.010 C 
HETATM    4  C10 UNL     1       1.381  55.065 -10.227  1.00  0.00     0.027 C 
HETATM    5  C11 UNL     1       0.503  53.901 -10.645  1.00  0.00    -0.036 C 
HETATM    6  C12 UNL     1      -0.478  53.453  -9.818  1.00  0.00     0.002 C 
HETATM    7  C13 UNL     1      -0.559  54.016  -8.409  1.00  0.00     0.157 C 
HETATM    8  O1  UNL     1      -1.390  53.590  -7.606  1.00  0.00    -0.293 OA
HETATM    9  C14 UNL     1       0.366  55.143  -7.983  1.00  0.00     0.093 C 
HETATM   10  C15 UNL     1       1.707  55.088  -8.712  1.00  0.00    -0.026 C 
HETATM   11  C16 UNL     1       2.496  53.842  -8.251  1.00  0.00     0.016 C 
HETATM   12  C17 UNL     1      -1.522  52.392 -10.233  1.00  0.00    -0.008 C 
HETATM   13  C18 UNL     1      -1.087  51.057  -9.573  1.00  0.00     0.021 C 
HETATM   14  C19 UNL     1      -2.966  52.758  -9.750  1.00  0.00     0.022 C 
HETATM   15  C20 UNL     1      -4.114  52.319 -10.659  1.00  0.00     0.080 C 
HETATM   16  C21 UNL     1      -3.774  51.079 -11.439  1.00  0.00     0.131 C 
HETATM   17  O2  UNL     1      -4.525  50.106 -11.462  1.00  0.00    -0.298 OA
HETATM   18  C22 UNL     1      -2.501  51.120 -12.270  1.00  0.00     0.056 C 
HETATM   19  C23 UNL     1      -2.892  51.243 -13.743  1.00  0.00     0.018 C 
HETATM   20  C24 UNL     1      -1.584  52.276 -11.798  1.00  0.00     0.012 C 
HETATM   21  C25 UNL     1      -0.183  52.155 -12.393  1.00  0.00     0.042 C 
HETATM   22  C26 UNL     1       0.685  53.364 -12.045  1.00  0.00     0.148 C 
ENDROOT
BRANCH   1  23
HETATM   23  C5  UNL     1       3.356  56.812  -7.374  1.00  0.00    -0.014 C 
HETATM   24  C6  UNL     1       2.961  58.144  -6.732  1.00  0.00     0.010 C 
BRANCH  23  25
HETATM   25  C4  UNL     1       4.881  56.727  -7.631  1.00  0.00     0.009 C 
BRANCH  25  26
HETATM   26  C3  UNL     1       5.537  55.397  -7.207  1.00  0.00     0.034 C 
BRANCH  26  27
HETATM   27  C2  UNL     1       6.247  54.548  -8.250  1.00  0.00    -0.075 C 
HETATM   28  C1  UNL     1       6.568  55.003  -9.475  1.00  0.00     0.015 C 
BRANCH  27  29
HETATM   29  C27 UNL     1       6.550  53.095  -7.882  1.00  0.00     0.107 C 
HETATM   30  C28 UNL     1       5.787  52.608  -6.652  1.00  0.00     0.026 C 
BRANCH  29  31
HETATM   31  C29 UNL     1       6.281  52.169  -9.061  1.00  0.00     0.147 C 
HETATM   32  O4  UNL     1       5.201  51.935  -9.581  1.00  0.00    -0.650 OA
BRANCH  31  33
HETATM   33  O5  UNL     1       7.400  51.580  -9.531  1.00  0.00    -0.776 OA
HETATM   34  H42 UNL     1       7.083  51.044 -10.288  1.00  0.00     0.167 HD
ENDBRANCH  31  33
ENDBRANCH  29  31
ENDBRANCH  27  29
ENDBRANCH  26  27
ENDBRANCH  25  26
ENDBRANCH  23  25
ENDBRANCH   1  23
BRANCH  22  35
HETATM   35  O3  UNL     1       2.035  52.954 -12.221  1.00  0.00    -0.391 OA
HETATM   36  H37 UNL     1       2.152  52.723 -13.158  1.00  0.00     0.210 HD
ENDBRANCH  22  35
TORSDOF 8
ENDMDL
MODEL 5
REMARK minimizedAffinity -9.21707821
REMARK CNNscore 0.436544806
REMARK CNNaffinity 6.68226385
REMARK  8 active torsions:
REMARK  status: ('A' for Active; 'I' for Inactive)
REMARK    1  A    between atoms: C2_2  and  C3_3 
REMARK    2  A    between atoms: C2_2  and  C27_30 
REMARK    3  A    between atoms: C3_3  and  C4_4 
REMARK    4  A    between atoms: C4_4  and  C5_5 
REMARK    5  A    between atoms: C5_5  and  C7_7 
REMARK    6  A    between atoms: C26_28  and  O3_29 
REMARK    7  A    between atoms: C27_30  and  C29_32 
REMARK    8  A    between atoms: C29_32  and  O5_34 
ROOT
HETATM    1  C7  UNL     1      -0.263  51.531 -22.662  1.00  0.00    -0.002 C 
HETATM    2  C8  UNL     1       0.581  51.928 -21.423  1.00  0.00     0.006 C 
HETATM    3  C9  UNL     1       0.051  51.093 -20.250  1.00  0.00     0.010 C 
HETATM    4  C10 UNL     1      -0.796  50.005 -20.916  1.00  0.00     0.027 C 
HETATM    5  C11 UNL     1      -1.731  49.101 -20.134  1.00  0.00    -0.036 C 
HETATM    6  C12 UNL     1      -2.738  48.447 -20.769  1.00  0.00     0.002 C 
HETATM    7  C13 UNL     1      -3.017  48.773 -22.227  1.00  0.00     0.157 C 
HETATM    8  O1  UNL     1      -3.962  48.252 -22.821  1.00  0.00    -0.293 OA
HETATM    9  C14 UNL     1      -2.108  49.727 -22.983  1.00  0.00     0.093 C 
HETATM   10  C15 UNL     1      -1.492  50.779 -22.064  1.00  0.00    -0.026 C 
HETATM   11  C16 UNL     1      -2.596  51.734 -21.558  1.00  0.00     0.016 C 
HETATM   12  C17 UNL     1      -3.624  47.380 -20.085  1.00  0.00    -0.008 C 
HETATM   13  C18 UNL     1      -4.980  48.065 -19.770  1.00  0.00     0.021 C 
HETATM   14  C19 UNL     1      -3.876  46.138 -21.005  1.00  0.00     0.022 C 
HETATM   15  C20 UNL     1      -4.013  44.790 -20.297  1.00  0.00     0.080 C 
HETATM   16  C21 UNL     1      -4.565  44.936 -18.906  1.00  0.00     0.131 C 
HETATM   17  O2  UNL     1      -5.520  44.265 -18.518  1.00  0.00    -0.298 OA
HETATM   18  C22 UNL     1      -3.832  45.889 -17.974  1.00  0.00     0.056 C 
HETATM   19  C23 UNL     1      -3.051  45.059 -16.956  1.00  0.00     0.018 C 
HETATM   20  C24 UNL     1      -2.924  46.846 -18.786  1.00  0.00     0.012 C 
HETATM   21  C25 UNL     1      -2.419  48.001 -17.923  1.00  0.00     0.042 C 
HETATM   22  C26 UNL     1      -1.414  48.871 -18.675  1.00  0.00     0.148 C 
ENDROOT
BRANCH   1  23
HETATM   23  C5  UNL     1      -0.405  52.669 -23.715  1.00  0.00    -0.014 C 
HETATM   24  C6  UNL     1      -1.754  52.747 -24.435  1.00  0.00     0.010 C 
BRANCH  23  25
HETATM   25  C4  UNL     1       0.780  52.666 -24.712  1.00  0.00     0.009 C 
BRANCH  25  26
HETATM   26  C3  UNL     1       0.802  51.475 -25.692  1.00  0.00     0.034 C 
BRANCH  26  27
HETATM   27  C2  UNL     1       0.961  51.736 -27.182  1.00  0.00    -0.075 C 
HETATM   28  C1  UNL     1       2.157  51.776 -27.798  1.00  0.00     0.015 C 
BRANCH  27  29
HETATM   29  C27 UNL     1      -0.310  52.020 -27.983  1.00  0.00     0.107 C 
HETATM   30  C28 UNL     1      -1.493  51.143 -27.576  1.00  0.00     0.026 C 
BRANCH  29  31
HETATM   31  C29 UNL     1      -0.696  53.490 -27.887  1.00  0.00     0.147 C 
HETATM   32  O4  UNL     1       0.025  54.421 -27.562  1.00  0.00    -0.650 OA
BRANCH  31  33
HETATM   33  O5  UNL     1      -1.986  53.715 -28.212  1.00  0.00    -0.776 OA
HETATM   34  H42 UNL     1      -2.083  54.686 -28.132  1.00  0.00     0.167 HD
ENDBRANCH  31  33
ENDBRANCH  29  31
ENDBRANCH  27  29
ENDBRANCH  26  27
ENDBRANCH  25  26
ENDBRANCH  23  25
ENDBRANCH   1  23
BRANCH  22  35
HETATM   35  O3  UNL     1      -1.376  50.121 -17.998  1.00  0.00    -0.391 OA
HETATM   36  H37 UNL     1      -1.059  49.956 -17.094  1.00  0.00     0.210 HD
ENDBRANCH  22  35
TORSDOF 8
ENDMDL
MODEL 6
REMARK minimizedAffinity -10.2531757
REMARK CNNscore 0.404312104
REMARK CNNaffinity 6.73616028
REMARK  8 active torsions:
REMARK  status: ('A' for Active; 'I' for Inactive)
REMARK    1  A    between atoms: C2_2  and  C3_3 
REMARK    2  A    between atoms: C2_2  and  C27_30 
REMARK    3  A    between atoms: C3_3  and  C4_4 
REMARK    4  A    between atoms: C4_4  and  C5_5 
REMARK    5  A    between atoms: C5_5  and  C7_7 
REMARK    6  A    between atoms: C26_28  and  O3_29 
REMARK    7  A    between atoms: C27_30  and  C29_32 
REMARK    8  A    between atoms: C29_32  and  O5_34 
ROOT
HETATM    1  C7  UNL     1      -0.899  50.878 -22.580  1.00  0.00    -0.002 C 
HETATM    2  C8  UNL     1      -0.197  52.254 -22.725  1.00  0.00     0.006 C 
HETATM    3  C9  UNL     1       0.232  52.674 -21.313  1.00  0.00     0.010 C 
HETATM    4  C10 UNL     1       0.104  51.394 -20.484  1.00  0.00     0.027 C 
HETATM    5  C11 UNL     1       0.173  51.389 -18.969  1.00  0.00    -0.036 C 
HETATM    6  C12 UNL     1      -0.333  50.342 -18.266  1.00  0.00     0.002 C 
HETATM    7  C13 UNL     1      -1.121  49.275 -19.008  1.00  0.00     0.157 C 
HETATM    8  O1  UNL     1      -1.653  48.346 -18.400  1.00  0.00    -0.293 OA
HETATM    9  C14 UNL     1      -1.233  49.325 -20.522  1.00  0.00     0.093 C 
HETATM   10  C15 UNL     1      -1.189  50.756 -21.052  1.00  0.00    -0.026 C 
HETATM   11  C16 UNL     1      -2.468  51.507 -20.618  1.00  0.00     0.016 C 
HETATM   12  C17 UNL     1      -0.153  50.176 -16.739  1.00  0.00    -0.008 C 
HETATM   13  C18 UNL     1      -1.499  50.581 -16.085  1.00  0.00     0.021 C 
HETATM   14  C19 UNL     1       0.190  48.701 -16.338  1.00  0.00     0.022 C 
HETATM   15  C20 UNL     1       1.107  48.526 -15.128  1.00  0.00     0.080 C 
HETATM   16  C21 UNL     1       0.969  49.657 -14.146  1.00  0.00     0.131 C 
HETATM   17  O2  UNL     1       0.777  49.451 -12.949  1.00  0.00    -0.298 OA
HETATM   18  C22 UNL     1       1.165  51.064 -14.690  1.00  0.00     0.056 C 
HETATM   19  C23 UNL     1       2.522  51.579 -14.211  1.00  0.00     0.018 C 
HETATM   20  C24 UNL     1       1.035  51.070 -16.233  1.00  0.00     0.012 C 
HETATM   21  C25 UNL     1       0.918  52.492 -16.777  1.00  0.00     0.042 C 
HETATM   22  C26 UNL     1       0.929  52.515 -18.305  1.00  0.00     0.148 C 
ENDROOT
BRANCH   1  23
HETATM   23  C5  UNL     1      -1.982  50.609 -23.665  1.00  0.00    -0.014 C 
HETATM   24  C6  UNL     1      -2.637  49.226 -23.626  1.00  0.00     0.010 C 
BRANCH  23  25
HETATM   25  C4  UNL     1      -1.460  50.959 -25.081  1.00  0.00     0.009 C 
BRANCH  25  26
HETATM   26  C3  UNL     1       0.027  51.364 -25.143  1.00  0.00     0.034 C 
BRANCH  26  27
HETATM   27  C2  UNL     1       0.693  51.555 -26.496  1.00  0.00    -0.075 C 
HETATM   28  C1  UNL     1       2.006  51.343 -26.707  1.00  0.00     0.015 C 
BRANCH  27  29
HETATM   29  C27 UNL     1      -0.180  52.067 -27.642  1.00  0.00     0.107 C 
HETATM   30  C28 UNL     1      -1.449  51.241 -27.854  1.00  0.00     0.026 C 
BRANCH  29  31
HETATM   31  C29 UNL     1      -0.543  53.532 -27.436  1.00  0.00     0.147 C 
HETATM   32  O4  UNL     1       0.074  54.358 -26.782  1.00  0.00    -0.650 OA
BRANCH  31  33
HETATM   33  O5  UNL     1      -1.679  53.885 -28.074  1.00  0.00    -0.776 OA
HETATM   34  H42 UNL     1      -1.772  54.840 -27.876  1.00  0.00     0.167 HD
ENDBRANCH  31  33
ENDBRANCH  29  31
ENDBRANCH  27  29
ENDBRANCH  26  27
ENDBRANCH  25  26
ENDBRANCH  23  25
ENDBRANCH   1  23
BRANCH  22  35
HETATM   35  O3  UNL     1       0.360  53.759 -18.694  1.00  0.00    -0.391 OA
HETATM   36  H37 UNL     1       0.932  54.464 -18.349  1.00  0.00     0.210 HD
ENDBRANCH  22  35
TORSDOF 8
ENDMDL
MODEL 7
REMARK minimizedAffinity -10.4491453
REMARK CNNscore 0.394910514
REMARK CNNaffinity 6.78322601
REMARK  8 active torsions:
REMARK  status: ('A' for Active; 'I' for Inactive)
REMARK    1  A    between atoms: C2_2  and  C3_3 
REMARK    2  A    between atoms: C2_2  and  C27_30 
REMARK    3  A    between atoms: C3_3  and  C4_4 
REMARK    4  A    between atoms: C4_4  and  C5_5 
REMARK    5  A    between atoms: C5_5  and  C7_7 
REMARK    6  A    between atoms: C26_28  and  O3_29 
REMARK    7  A    between atoms: C27_30  and  C29_32 
REMARK    8  A    between atoms: C29_32  and  O5_34 
ROOT
HETATM    1  C7  UNL     1      -0.793  51.060 -25.125  1.00  0.00    -0.002 C 
HETATM    2  C8  UNL     1       0.167  52.250 -25.385  1.00  0.00     0.006 C 
HETATM    3  C9  UNL     1       0.553  52.806 -24.009  1.00  0.00     0.010 C 
HETATM    4  C10 UNL     1       0.119  51.715 -23.027  1.00  0.00     0.027 C 
HETATM    5  C11 UNL     1       0.064  51.937 -21.527  1.00  0.00    -0.036 C 
HETATM    6  C12 UNL     1      -0.686  51.120 -20.742  1.00  0.00     0.002 C 
HETATM    7  C13 UNL     1      -1.600  50.105 -21.408  1.00  0.00     0.157 C 
HETATM    8  O1  UNL     1      -2.345  49.391 -20.736  1.00  0.00    -0.293 OA
HETATM    9  C14 UNL     1      -1.579  49.933 -22.917  1.00  0.00     0.093 C 
HETATM   10  C15 UNL     1      -1.222  51.233 -23.635  1.00  0.00    -0.026 C 
HETATM   11  C16 UNL     1      -2.365  52.256 -23.451  1.00  0.00     0.016 C 
HETATM   12  C17 UNL     1      -0.663  51.168 -19.197  1.00  0.00    -0.008 C 
HETATM   13  C18 UNL     1      -1.956  51.902 -18.756  1.00  0.00     0.021 C 
HETATM   14  C19 UNL     1      -0.639  49.738 -18.559  1.00  0.00     0.022 C 
HETATM   15  C20 UNL     1       0.128  49.598 -17.244  1.00  0.00     0.080 C 
HETATM   16  C21 UNL     1       0.129  50.876 -16.452  1.00  0.00     0.131 C 
HETATM   17  O2  UNL     1      -0.193  50.899 -15.265  1.00  0.00    -0.298 OA
HETATM   18  C22 UNL     1       0.631  52.123 -17.163  1.00  0.00     0.056 C 
HETATM   19  C23 UNL     1       2.019  52.460 -16.618  1.00  0.00     0.018 C 
HETATM   20  C24 UNL     1       0.629  51.908 -18.697  1.00  0.00     0.012 C 
HETATM   21  C25 UNL     1       0.828  53.224 -19.445  1.00  0.00     0.042 C 
HETATM   22  C26 UNL     1       0.965  53.003 -20.951  1.00  0.00     0.148 C 
ENDROOT
BRANCH   1  23
HETATM   23  C5  UNL     1      -1.818  50.817 -26.272  1.00  0.00    -0.014 C 
HETATM   24  C6  UNL     1      -3.032  51.748 -26.289  1.00  0.00     0.010 C 
BRANCH  23  25
HETATM   25  C4  UNL     1      -2.233  49.327 -26.350  1.00  0.00     0.009 C 
BRANCH  25  26
HETATM   26  C3  UNL     1      -3.479  49.045 -27.214  1.00  0.00     0.034 C 
BRANCH  26  27
HETATM   27  C2  UNL     1      -4.702  48.404 -26.575  1.00  0.00    -0.075 C 
HETATM   28  C1  UNL     1      -4.952  48.452 -25.254  1.00  0.00     0.015 C 
BRANCH  27  29
HETATM   29  C27 UNL     1      -5.646  47.628 -27.493  1.00  0.00     0.107 C 
HETATM   30  C28 UNL     1      -7.063  47.494 -26.936  1.00  0.00     0.026 C 
BRANCH  29  31
HETATM   31  C29 UNL     1      -5.691  48.253 -28.881  1.00  0.00     0.147 C 
HETATM   32  O4  UNL     1      -4.755  48.408 -29.650  1.00  0.00    -0.650 OA
BRANCH  31  33
HETATM   33  O5  UNL     1      -6.930  48.657 -29.234  1.00  0.00    -0.776 OA
HETATM   34  H42 UNL     1      -6.813  49.009 -30.141  1.00  0.00     0.167 HD
ENDBRANCH  31  33
ENDBRANCH  29  31
ENDBRANCH  27  29
ENDBRANCH  26  27
ENDBRANCH  25  26
ENDBRANCH  23  25
ENDBRANCH   1  23
BRANCH  22  35
HETATM   35  O3  UNL     1       0.675  54.251 -21.569  1.00  0.00    -0.391 OA
HETATM   36  H37 UNL     1       1.341  54.890 -21.267  1.00  0.00     0.210 HD
ENDBRANCH  22  35
TORSDOF 8
ENDMDL
MODEL 8
REMARK minimizedAffinity -8.68931103
REMARK CNNscore 0.393294901
REMARK CNNaffinity 6.80533648
REMARK  8 active torsions:
REMARK  status: ('A' for Active; 'I' for Inactive)
REMARK    1  A    between atoms: C2_2  and  C3_3 
REMARK    2  A    between atoms: C2_2  and  C27_30 
REMARK    3  A    between atoms: C3_3  and  C4_4 
REMARK    4  A    between atoms: C4_4  and  C5_5 
REMARK    5  A    between atoms: C5_5  and  C7_7 
REMARK    6  A    between atoms: C26_28  and  O3_29 
REMARK    7  A    between atoms: C27_30  and  C29_32 
REMARK    8  A    between atoms: C29_32  and  O5_34 
ROOT
HETATM    1  C7  UNL     1      -3.536  50.960 -24.206  1.00  0.00    -0.002 C 
HETATM    2  C8  UNL     1      -5.046  50.922 -23.855  1.00  0.00     0.006 C 
HETATM    3  C9  UNL     1      -5.136  50.642 -22.350  1.00  0.00     0.010 C 
HETATM    4  C10 UNL     1      -3.717  50.898 -21.834  1.00  0.00     0.027 C 
HETATM    5  C11 UNL     1      -3.266  50.495 -20.443  1.00  0.00    -0.036 C 
HETATM    6  C12 UNL     1      -1.942  50.366 -20.166  1.00  0.00     0.002 C 
HETATM    7  C13 UNL     1      -0.943  50.455 -21.308  1.00  0.00     0.157 C 
HETATM    8  O1  UNL     1       0.259  50.278 -21.110  1.00  0.00    -0.293 OA
HETATM    9  C14 UNL     1      -1.416  50.802 -22.709  1.00  0.00     0.093 C 
HETATM   10  C15 UNL     1      -2.839  50.314 -22.970  1.00  0.00    -0.026 C 
HETATM   11  C16 UNL     1      -2.857  48.769 -23.006  1.00  0.00     0.016 C 
HETATM   12  C17 UNL     1      -1.391  50.127 -18.741  1.00  0.00    -0.008 C 
HETATM   13  C18 UNL     1      -1.014  48.625 -18.656  1.00  0.00     0.021 C 
HETATM   14  C19 UNL     1      -0.121  50.994 -18.443  1.00  0.00     0.022 C 
HETATM   15  C20 UNL     1       0.052  51.463 -16.998  1.00  0.00     0.080 C 
HETATM   16  C21 UNL     1      -0.567  50.506 -16.016  1.00  0.00     0.131 C 
HETATM   17  O2  UNL     1       0.060  50.082 -15.047  1.00  0.00    -0.298 OA
HETATM   18  C22 UNL     1      -2.032  50.159 -16.229  1.00  0.00     0.056 C 
HETATM   19  C23 UNL     1      -2.857  50.882 -15.164  1.00  0.00     0.018 C 
HETATM   20  C24 UNL     1      -2.469  50.521 -17.670  1.00  0.00     0.012 C 
HETATM   21  C25 UNL     1      -3.826  49.909 -18.011  1.00  0.00     0.042 C 
HETATM   22  C26 UNL     1      -4.329  50.374 -19.378  1.00  0.00     0.148 C 
ENDROOT
BRANCH   1  23
HETATM   23  C5  UNL     1      -3.221  50.530 -25.669  1.00  0.00    -0.014 C 
HETATM   24  C6  UNL     1      -2.433  49.227 -25.826  1.00  0.00     0.010 C 
BRANCH  23  25
HETATM   25  C4  UNL     1      -2.581  51.690 -26.472  1.00  0.00     0.009 C 
BRANCH  25  26
HETATM   26  C3  UNL     1      -1.614  52.581 -25.667  1.00  0.00     0.034 C 
BRANCH  26  27
HETATM   27  C2  UNL     1      -0.126  52.540 -25.977  1.00  0.00    -0.075 C 
HETATM   28  C1  UNL     1       0.785  52.005 -25.143  1.00  0.00     0.015 C 
BRANCH  27  29
HETATM   29  C27 UNL     1       0.337  53.194 -27.279  1.00  0.00     0.107 C 
HETATM   30  C28 UNL     1       0.338  52.239 -28.472  1.00  0.00     0.026 C 
BRANCH  29  31
HETATM   31  C29 UNL     1      -0.504  54.423 -27.599  1.00  0.00     0.147 C 
HETATM   32  O4  UNL     1      -1.489  54.474 -28.319  1.00  0.00    -0.650 OA
BRANCH  31  33
HETATM   33  O5  UNL     1      -0.056  55.538 -26.985  1.00  0.00    -0.776 OA
HETATM   34  H42 UNL     1      -0.696  56.229 -27.257  1.00  0.00     0.167 HD
ENDBRANCH  31  33
ENDBRANCH  29  31
ENDBRANCH  27  29
ENDBRANCH  26  27
ENDBRANCH  25  26
ENDBRANCH  23  25
ENDBRANCH   1  23
BRANCH  22  35
HETATM   35  O3  UNL     1      -5.306  49.428 -19.791  1.00  0.00    -0.391 OA
HETATM   36  H37 UNL     1      -6.032  49.454 -19.146  1.00  0.00     0.210 HD
ENDBRANCH  22  35
TORSDOF 8
ENDMDL
MODEL 9
REMARK minimizedAffinity -7.62138557
REMARK CNNscore 0.342479914
REMARK CNNaffinity 6.48241091
REMARK  8 active torsions:
REMARK  status: ('A' for Active; 'I' for Inactive)
REMARK    1  A    between atoms: C2_2  and  C3_3 
REMARK    2  A    between atoms: C2_2  and  C27_30 
REMARK    3  A    between atoms: C3_3  and  C4_4 
REMARK    4  A    between atoms: C4_4  and  C5_5 
REMARK    5  A    between atoms: C5_5  and  C7_7 
REMARK    6  A    between atoms: C26_28  and  O3_29 
REMARK    7  A    between atoms: C27_30  and  C29_32 
REMARK    8  A    between atoms: C29_32  and  O5_34 
ROOT
HETATM    1  C7  UNL     1      -4.029  49.304 -22.293  1.00  0.00    -0.002 C 
HETATM    2  C8  UNL     1      -4.343  47.785 -22.301  1.00  0.00     0.006 C 
HETATM    3  C9  UNL     1      -3.988  47.261 -20.903  1.00  0.00     0.010 C 
HETATM    4  C10 UNL     1      -3.847  48.526 -20.052  1.00  0.00     0.027 C 
HETATM    5  C11 UNL     1      -3.247  48.512 -18.659  1.00  0.00    -0.036 C 
HETATM    6  C12 UNL     1      -2.773  49.661 -18.108  1.00  0.00     0.002 C 
HETATM    7  C13 UNL     1      -2.692  50.907 -18.973  1.00  0.00     0.157 C 
HETATM    8  O1  UNL     1      -2.208  51.951 -18.534  1.00  0.00    -0.293 OA
HETATM    9  C14 UNL     1      -3.243  50.891 -20.389  1.00  0.00     0.093 C 
HETATM   10  C15 UNL     1      -3.144  49.506 -21.025  1.00  0.00    -0.026 C 
HETATM   11  C16 UNL     1      -1.659  49.152 -21.262  1.00  0.00     0.016 C 
HETATM   12  C17 UNL     1      -2.306  49.770 -16.638  1.00  0.00    -0.008 C 
HETATM   13  C18 UNL     1      -0.755  49.767 -16.664  1.00  0.00     0.021 C 
HETATM   14  C19 UNL     1      -2.807  51.086 -15.952  1.00  0.00     0.022 C 
HETATM   15  C20 UNL     1      -3.114  50.992 -14.458  1.00  0.00     0.080 C 
HETATM   16  C21 UNL     1      -2.275  49.949 -13.772  1.00  0.00     0.131 C 
HETATM   17  O2  UNL     1      -1.641  50.202 -12.749  1.00  0.00    -0.298 OA
HETATM   18  C22 UNL     1      -2.319  48.545 -14.353  1.00  0.00     0.056 C 
HETATM   19  C23 UNL     1      -3.148  47.664 -13.419  1.00  0.00     0.018 C 
HETATM   20  C24 UNL     1      -2.879  48.574 -15.797  1.00  0.00     0.012 C 
HETATM   21  C25 UNL     1      -2.649  47.244 -16.512  1.00  0.00     0.042 C 
HETATM   22  C26 UNL     1      -3.319  47.218 -17.885  1.00  0.00     0.148 C 
ENDROOT
BRANCH   1  23
HETATM   23  C5  UNL     1      -3.637  49.871 -23.690  1.00  0.00    -0.014 C 
HETATM   24  C6  UNL     1      -2.979  48.878 -24.652  1.00  0.00     0.010 C 
BRANCH  23  25
HETATM   25  C4  UNL     1      -2.815  51.176 -23.558  1.00  0.00     0.009 C 
BRANCH  25  26
HETATM   26  C3  UNL     1      -1.551  51.240 -24.440  1.00  0.00     0.034 C 
BRANCH  26  27
HETATM   27  C2  UNL     1      -1.540  52.136 -25.668  1.00  0.00    -0.075 C 
HETATM   28  C1  UNL     1      -2.565  52.207 -26.537  1.00  0.00     0.015 C 
BRANCH  27  29
HETATM   29  C27 UNL     1      -0.270  52.944 -25.934  1.00  0.00     0.107 C 
HETATM   30  C28 UNL     1       0.342  53.549 -24.671  1.00  0.00     0.026 C 
BRANCH  29  31
HETATM   31  C29 UNL     1       0.769  52.100 -26.660  1.00  0.00     0.147 C 
HETATM   32  O4  UNL     1       0.577  51.343 -27.600  1.00  0.00    -0.650 OA
BRANCH  31  33
HETATM   33  O5  UNL     1       2.013  52.254 -26.159  1.00  0.00    -0.776 OA
HETATM   34  H42 UNL     1       2.568  51.682 -26.729  1.00  0.00     0.167 HD
ENDBRANCH  31  33
ENDBRANCH  29  31
ENDBRANCH  27  29
ENDBRANCH  26  27
ENDBRANCH  25  26
ENDBRANCH  23  25
ENDBRANCH   1  23
BRANCH  22  35
HETATM   35  O3  UNL     1      -2.677  46.188 -18.627  1.00  0.00    -0.391 OA
HETATM   36  H37 UNL     1      -2.838  45.349 -18.164  1.00  0.00     0.210 HD
ENDBRANCH  22  35
TORSDOF 8
ENDMDL
