MODEL 1
REMARK minimizedAffinity -7.05177021
REMARK CNNscore 0.778179109
REMARK CNNaffinity 7.10708094
REMARK  6 active torsions:
REMARK  status: ('A' for Active; 'I' for Inactive)
REMARK    1  A    between atoms: C2_2  and  C30_31 
REMARK    2  A    between atoms: C3_3  and  C4_4 
REMARK    3  A    between atoms: C4_4  and  C5_5 
REMARK    4  A    between atoms: C5_5  and  C6_6 
REMARK    5  A    between atoms: C6_6  and  C8_8 
REMARK    6  A    between atoms: C30_31  and  O2_32 
ROOT
HETATM    1  C8  UNL     1       5.304  55.919  -8.566  1.00  0.00    -0.002 C 
HETATM    2  C9  UNL     1       4.490  57.099  -7.975  1.00  0.00     0.007 C 
HETATM    3  C10 UNL     1       3.000  56.803  -8.259  1.00  0.00     0.015 C 
HETATM    4  C11 UNL     1       3.007  55.619  -9.251  1.00  0.00    -0.013 C 
HETATM    5  C12 UNL     1       3.181  56.256 -10.668  1.00  0.00     0.021 C 
HETATM    6  C13 UNL     1       1.773  54.730  -9.346  1.00  0.00    -0.070 C 
HETATM    7  C14 UNL     1       0.534  55.192  -9.105  1.00  0.00    -0.022 C 
HETATM    8  C15 UNL     1      -0.722  54.410  -9.332  1.00  0.00     0.034 C 
HETATM    9  C16 UNL     1      -0.525  52.920  -9.698  1.00  0.00     0.013 C 
HETATM   10  C17 UNL     1      -1.842  52.248 -10.245  1.00  0.00     0.018 C 
HETATM   11  C18 UNL     1      -2.720  53.165 -11.124  1.00  0.00     0.023 C 
HETATM   12  C19 UNL     1      -2.715  51.783  -9.059  1.00  0.00     0.023 C 
HETATM   13  C20 UNL     1      -1.488  50.994 -11.049  1.00  0.00     0.135 C 
HETATM   14  O1  UNL     1      -2.221  50.541 -11.930  1.00  0.00    -0.297 OA
HETATM   15  C21 UNL     1      -0.236  50.262 -10.650  1.00  0.00     0.080 C 
HETATM   16  C22 UNL     1       0.996  51.143 -10.760  1.00  0.00     0.017 C 
HETATM   17  C23 UNL     1       0.763  52.675 -10.572  1.00  0.00    -0.031 C 
HETATM   18  C24 UNL     1       0.627  53.328 -11.969  1.00  0.00     0.016 C 
HETATM   19  C25 UNL     1       1.999  53.281  -9.783  1.00  0.00     0.024 C 
HETATM   20  C26 UNL     1       3.382  53.047 -10.452  1.00  0.00     0.010 C 
HETATM   21  C27 UNL     1       4.599  53.699  -9.749  1.00  0.00     0.011 C 
HETATM   22  C28 UNL     1       4.231  54.794  -8.727  1.00  0.00    -0.029 C 
HETATM   23  C29 UNL     1       3.985  54.118  -7.344  1.00  0.00     0.016 C 
ENDROOT
BRANCH   1  24
HETATM   24  C6  UNL     1       6.649  55.566  -7.861  1.00  0.00    -0.014 C 
HETATM   25  C7  UNL     1       6.988  54.070  -7.824  1.00  0.00     0.010 C 
BRANCH  24  26
HETATM   26  C5  UNL     1       6.638  56.161  -6.424  1.00  0.00     0.008 C 
BRANCH  26  27
HETATM   27  C4  UNL     1       7.897  55.859  -5.605  1.00  0.00     0.028 C 
BRANCH  27  28
HETATM   28  C3  UNL     1       8.652  57.113  -5.251  1.00  0.00    -0.022 C 
HETATM   29  C2  UNL     1       9.985  57.224  -5.075  1.00  0.00    -0.064 C 
HETATM   30  C1  UNL     1      10.614  58.556  -4.764  1.00  0.00     0.045 C 
BRANCH  29  31
HETATM   31  C30 UNL     1      10.943  56.063  -5.155  1.00  0.00     0.197 C 
BRANCH  31  32
HETATM   32  O2  UNL     1      12.284  56.528  -5.072  1.00  0.00    -0.397 OA
HETATM   33  H48 UNL     1      12.274  57.352  -4.557  1.00  0.00     0.209 HD
ENDBRANCH  31  32
ENDBRANCH  29  31
ENDBRANCH  27  28
ENDBRANCH  26  27
ENDBRANCH  24  26
ENDBRANCH   1  24
TORSDOF 6
ENDMDL
MODEL 2
REMARK minimizedAffinity -7.65809727
REMARK CNNscore 0.528533697
REMARK CNNaffinity 6.01886606
REMARK  6 active torsions:
REMARK  status: ('A' for Active; 'I' for Inactive)
REMARK    1  A    between atoms: C2_2  and  C30_31 
REMARK    2  A    between atoms: C3_3  and  C4_4 
REMARK    3  A    between atoms: C4_4  and  C5_5 
REMARK    4  A    between atoms: C5_5  and  C6_6 
REMARK    5  A    between atoms: C6_6  and  C8_8 
REMARK    6  A    between atoms: C30_31  and  O2_32 
ROOT
HETATM    1  C8  UNL     1     -13.373  46.458 -26.926  1.00  0.00    -0.002 C 
HETATM    2  C9  UNL     1     -14.034  45.689 -28.099  1.00  0.00     0.007 C 
HETATM    3  C10 UNL     1     -13.028  45.710 -29.272  1.00  0.00     0.015 C 
HETATM    4  C11 UNL     1     -11.944  46.728 -28.855  1.00  0.00    -0.013 C 
HETATM    5  C12 UNL     1     -12.498  48.130 -29.266  1.00  0.00     0.021 C 
HETATM    6  C13 UNL     1     -10.560  46.630 -29.484  1.00  0.00    -0.070 C 
HETATM    7  C14 UNL     1     -10.366  46.154 -30.726  1.00  0.00    -0.022 C 
HETATM    8  C15 UNL     1      -9.057  46.178 -31.450  1.00  0.00     0.034 C 
HETATM    9  C16 UNL     1      -7.836  46.625 -30.610  1.00  0.00     0.013 C 
HETATM   10  C17 UNL     1      -6.574  46.949 -31.496  1.00  0.00     0.018 C 
HETATM   11  C18 UNL     1      -6.887  47.623 -32.849  1.00  0.00     0.023 C 
HETATM   12  C19 UNL     1      -5.811  45.642 -31.804  1.00  0.00     0.023 C 
HETATM   13  C20 UNL     1      -5.610  47.847 -30.715  1.00  0.00     0.135 C 
HETATM   14  O1  UNL     1      -4.804  48.596 -31.268  1.00  0.00    -0.297 OA
HETATM   15  C21 UNL     1      -5.612  47.706 -29.217  1.00  0.00     0.080 C 
HETATM   16  C22 UNL     1      -6.976  48.005 -28.621  1.00  0.00     0.017 C 
HETATM   17  C23 UNL     1      -8.205  47.725 -29.543  1.00  0.00    -0.031 C 
HETATM   18  C24 UNL     1      -8.622  49.051 -30.224  1.00  0.00     0.016 C 
HETATM   19  C25 UNL     1      -9.385  47.151 -28.651  1.00  0.00     0.024 C 
HETATM   20  C26 UNL     1      -9.821  48.065 -27.474  1.00  0.00     0.010 C 
HETATM   21  C27 UNL     1     -11.028  47.571 -26.636  1.00  0.00     0.011 C 
HETATM   22  C28 UNL     1     -11.859  46.462 -27.313  1.00  0.00    -0.029 C 
HETATM   23  C29 UNL     1     -11.233  45.082 -26.949  1.00  0.00     0.016 C 
ENDROOT
BRANCH   1  24
HETATM   24  C6  UNL     1     -13.769  46.019 -25.483  1.00  0.00    -0.014 C 
HETATM   25  C7  UNL     1     -13.918  44.506 -25.284  1.00  0.00     0.010 C 
BRANCH  24  26
HETATM   26  C5  UNL     1     -15.075  46.757 -25.071  1.00  0.00     0.008 C 
BRANCH  26  27
HETATM   27  C4  UNL     1     -16.277  45.834 -24.845  1.00  0.00     0.028 C 
BRANCH  27  28
HETATM   28  C3  UNL     1     -16.866  46.003 -23.469  1.00  0.00    -0.022 C 
HETATM   29  C2  UNL     1     -18.160  46.243 -23.175  1.00  0.00    -0.064 C 
HETATM   30  C1  UNL     1     -18.620  46.346 -21.745  1.00  0.00     0.045 C 
BRANCH  29  31
HETATM   31  C30 UNL     1     -19.236  46.440 -24.212  1.00  0.00     0.197 C 
BRANCH  31  32
HETATM   32  O2  UNL     1     -19.092  47.711 -24.832  1.00  0.00    -0.397 OA
HETATM   33  H48 UNL     1     -18.150  47.948 -24.792  1.00  0.00     0.209 HD
ENDBRANCH  31  32
ENDBRANCH  29  31
ENDBRANCH  27  28
ENDBRANCH  26  27
ENDBRANCH  24  26
ENDBRANCH   1  24
TORSDOF 6
ENDMDL
MODEL 3
REMARK minimizedAffinity -6.84319305
REMARK CNNscore 0.492709786
REMARK CNNaffinity 6.21725798
REMARK  6 active torsions:
REMARK  status: ('A' for Active; 'I' for Inactive)
REMARK    1  A    between atoms: C2_2  and  C30_31 
REMARK    2  A    between atoms: C3_3  and  C4_4 
REMARK    3  A    between atoms: C4_4  and  C5_5 
REMARK    4  A    between atoms: C5_5  and  C6_6 
REMARK    5  A    between atoms: C6_6  and  C8_8 
REMARK    6  A    between atoms: C30_31  and  O2_32 
ROOT
HETATM    1  C8  UNL     1       1.791  54.998  -9.935  1.00  0.00    -0.002 C 
HETATM    2  C9  UNL     1       2.827  54.944 -11.088  1.00  0.00     0.007 C 
HETATM    3  C10 UNL     1       4.216  55.183 -10.454  1.00  0.00     0.015 C 
HETATM    4  C11 UNL     1       3.925  55.655  -9.012  1.00  0.00    -0.013 C 
HETATM    5  C12 UNL     1       3.673  57.194  -9.112  1.00  0.00     0.021 C 
HETATM    6  C13 UNL     1       5.002  55.481  -7.948  1.00  0.00    -0.070 C 
HETATM    7  C14 UNL     1       6.314  55.505  -8.242  1.00  0.00    -0.022 C 
HETATM    8  C15 UNL     1       7.411  55.495  -7.225  1.00  0.00     0.034 C 
HETATM    9  C16 UNL     1       6.965  55.260  -5.761  1.00  0.00     0.013 C 
HETATM   10  C17 UNL     1       8.100  55.591  -4.719  1.00  0.00     0.018 C 
HETATM   11  C18 UNL     1       8.986  56.801  -5.087  1.00  0.00     0.023 C 
HETATM   12  C19 UNL     1       9.035  54.371  -4.569  1.00  0.00     0.023 C 
HETATM   13  C20 UNL     1       7.480  55.841  -3.341  1.00  0.00     0.135 C 
HETATM   14  O1  UNL     1       8.031  56.528  -2.480  1.00  0.00    -0.297 OA
HETATM   15  C21 UNL     1       6.195  55.123  -3.033  1.00  0.00     0.080 C 
HETATM   16  C22 UNL     1       5.094  55.483  -4.015  1.00  0.00     0.017 C 
HETATM   17  C23 UNL     1       5.559  55.900  -5.446  1.00  0.00    -0.031 C 
HETATM   18  C24 UNL     1       5.618  57.445  -5.515  1.00  0.00     0.016 C 
HETATM   19  C25 UNL     1       4.524  55.325  -6.502  1.00  0.00     0.024 C 
HETATM   20  C26 UNL     1       3.052  55.774  -6.287  1.00  0.00     0.010 C 
HETATM   21  C27 UNL     1       2.031  55.298  -7.351  1.00  0.00     0.011 C 
HETATM   22  C28 UNL     1       2.669  54.787  -8.660  1.00  0.00    -0.029 C 
HETATM   23  C29 UNL     1       2.982  53.269  -8.498  1.00  0.00     0.016 C 
ENDROOT
BRANCH   1  24
HETATM   24  C6  UNL     1       0.504  54.134 -10.102  1.00  0.00    -0.014 C 
HETATM   25  C7  UNL     1       0.234  53.645 -11.531  1.00  0.00     0.010 C 
BRANCH  24  26
HETATM   26  C5  UNL     1      -0.715  54.931  -9.556  1.00  0.00     0.008 C 
BRANCH  26  27
HETATM   27  C4  UNL     1      -1.996  54.769 -10.380  1.00  0.00     0.028 C 
BRANCH  27  28
HETATM   28  C3  UNL     1      -2.757  53.527 -10.000  1.00  0.00    -0.022 C 
HETATM   29  C2  UNL     1      -3.588  52.821 -10.794  1.00  0.00    -0.064 C 
HETATM   30  C1  UNL     1      -4.253  51.566 -10.294  1.00  0.00     0.045 C 
BRANCH  29  31
HETATM   31  C30 UNL     1      -3.934  53.213 -12.208  1.00  0.00     0.197 C 
BRANCH  31  32
HETATM   32  O2  UNL     1      -2.909  52.793 -13.098  1.00  0.00    -0.397 OA
HETATM   33  H48 UNL     1      -2.486  52.010 -12.705  1.00  0.00     0.209 HD
ENDBRANCH  31  32
ENDBRANCH  29  31
ENDBRANCH  27  28
ENDBRANCH  26  27
ENDBRANCH  24  26
ENDBRANCH   1  24
TORSDOF 6
ENDMDL
MODEL 4
REMARK minimizedAffinity -7.69621801
REMARK CNNscore 0.454362631
REMARK CNNaffinity 5.9765892
REMARK  6 active torsions:
REMARK  status: ('A' for Active; 'I' for Inactive)
REMARK    1  A    between atoms: C2_2  and  C30_31 
REMARK    2  A    between atoms: C3_3  and  C4_4 
REMARK    3  A    between atoms: C4_4  and  C5_5 
REMARK    4  A    between atoms: C5_5  and  C6_6 
REMARK    5  A    between atoms: C6_6  and  C8_8 
REMARK    6  A    between atoms: C30_31  and  O2_32 
ROOT
HETATM    1  C8  UNL     1     -12.694  45.790 -27.585  1.00  0.00    -0.002 C 
HETATM    2  C9  UNL     1     -13.179  47.229 -27.901  1.00  0.00     0.007 C 
HETATM    3  C10 UNL     1     -12.025  47.937 -28.648  1.00  0.00     0.015 C 
HETATM    4  C11 UNL     1     -10.808  46.998 -28.490  1.00  0.00    -0.013 C 
HETATM    5  C12 UNL     1     -10.173  47.357 -27.108  1.00  0.00     0.021 C 
HETATM    6  C13 UNL     1      -9.673  47.088 -29.502  1.00  0.00    -0.070 C 
HETATM    7  C14 UNL     1      -9.360  48.233 -30.134  1.00  0.00    -0.022 C 
HETATM    8  C15 UNL     1      -8.166  48.417 -31.016  1.00  0.00     0.034 C 
HETATM    9  C16 UNL     1      -7.366  47.132 -31.336  1.00  0.00     0.013 C 
HETATM   10  C17 UNL     1      -5.958  47.434 -31.976  1.00  0.00     0.018 C 
HETATM   11  C18 UNL     1      -5.247  48.685 -31.415  1.00  0.00     0.023 C 
HETATM   12  C19 UNL     1      -6.117  47.646 -33.497  1.00  0.00     0.023 C 
HETATM   13  C20 UNL     1      -5.036  46.225 -31.794  1.00  0.00     0.135 C 
HETATM   14  O1  UNL     1      -3.808  46.322 -31.782  1.00  0.00    -0.297 OA
HETATM   15  C21 UNL     1      -5.693  44.874 -31.730  1.00  0.00     0.080 C 
HETATM   16  C22 UNL     1      -6.678  44.775 -30.579  1.00  0.00     0.017 C 
HETATM   17  C23 UNL     1      -7.350  46.113 -30.134  1.00  0.00    -0.031 C 
HETATM   18  C24 UNL     1      -6.564  46.681 -28.927  1.00  0.00     0.016 C 
HETATM   19  C25 UNL     1      -8.857  45.814 -29.738  1.00  0.00     0.024 C 
HETATM   20  C26 UNL     1      -9.043  44.748 -28.624  1.00  0.00     0.010 C 
HETATM   21  C27 UNL     1     -10.498  44.496 -28.156  1.00  0.00     0.011 C 
HETATM   22  C28 UNL     1     -11.498  45.594 -28.571  1.00  0.00    -0.029 C 
HETATM   23  C29 UNL     1     -12.052  45.250 -29.987  1.00  0.00     0.016 C 
ENDROOT
BRANCH   1  24
HETATM   24  C6  UNL     1     -13.785  44.679 -27.511  1.00  0.00    -0.014 C 
HETATM   25  C7  UNL     1     -13.363  43.318 -28.079  1.00  0.00     0.010 C 
BRANCH  24  26
HETATM   26  C5  UNL     1     -15.076  45.189 -28.214  1.00  0.00     0.008 C 
BRANCH  26  27
HETATM   27  C4  UNL     1     -16.337  45.120 -27.347  1.00  0.00     0.028 C 
BRANCH  27  28
HETATM   28  C3  UNL     1     -16.107  45.687 -25.971  1.00  0.00    -0.022 C 
HETATM   29  C2  UNL     1     -17.056  46.062 -25.089  1.00  0.00    -0.064 C 
HETATM   30  C1  UNL     1     -16.682  46.574 -23.724  1.00  0.00     0.045 C 
BRANCH  29  31
HETATM   31  C30 UNL     1     -18.535  46.020 -25.378  1.00  0.00     0.197 C 
BRANCH  31  32
HETATM   32  O2  UNL     1     -19.157  47.213 -24.919  1.00  0.00    -0.397 OA
HETATM   33  H48 UNL     1     -18.489  47.919 -24.950  1.00  0.00     0.209 HD
ENDBRANCH  31  32
ENDBRANCH  29  31
ENDBRANCH  27  28
ENDBRANCH  26  27
ENDBRANCH  24  26
ENDBRANCH   1  24
TORSDOF 6
ENDMDL
MODEL 5
REMARK minimizedAffinity -7.43164968
REMARK CNNscore 0.44232595
REMARK CNNaffinity 6.73653793
REMARK  6 active torsions:
REMARK  status: ('A' for Active; 'I' for Inactive)
REMARK    1  A    between atoms: C2_2  and  C30_31 
REMARK    2  A    between atoms: C3_3  and  C4_4 
REMARK    3  A    between atoms: C4_4  and  C5_5 
REMARK    4  A    between atoms: C5_5  and  C6_6 
REMARK    5  A    between atoms: C6_6  and  C8_8 
REMARK    6  A    between atoms: C30_31  and  O2_32 
ROOT
HETATM    1  C8  UNL     1      -1.759  52.595 -10.729  1.00  0.00    -0.002 C 
HETATM    2  C9  UNL     1      -2.554  52.232  -9.447  1.00  0.00     0.007 C 
HETATM    3  C10 UNL     1      -1.759  52.804  -8.251  1.00  0.00     0.015 C 
HETATM    4  C11 UNL     1      -0.393  53.224  -8.839  1.00  0.00    -0.013 C 
HETATM    5  C12 UNL     1       0.483  51.930  -8.840  1.00  0.00     0.021 C 
HETATM    6  C13 UNL     1       0.429  54.279  -8.110  1.00  0.00    -0.070 C 
HETATM    7  C14 UNL     1       0.371  54.442  -6.776  1.00  0.00    -0.022 C 
HETATM    8  C15 UNL     1       1.265  55.352  -5.993  1.00  0.00     0.034 C 
HETATM    9  C16 UNL     1       2.178  56.277  -6.832  1.00  0.00     0.013 C 
HETATM   10  C17 UNL     1       3.313  56.954  -5.972  1.00  0.00     0.018 C 
HETATM   11  C18 UNL     1       3.906  56.059  -4.862  1.00  0.00     0.023 C 
HETATM   12  C19 UNL     1       2.756  58.220  -5.286  1.00  0.00     0.023 C 
HETATM   13  C20 UNL     1       4.451  57.414  -6.888  1.00  0.00     0.135 C 
HETATM   14  O1  UNL     1       5.608  57.555  -6.490  1.00  0.00    -0.297 OA
HETATM   15  C21 UNL     1       4.080  57.793  -8.296  1.00  0.00     0.080 C 
HETATM   16  C22 UNL     1       3.435  56.639  -9.043  1.00  0.00     0.017 C 
HETATM   17  C23 UNL     1       2.665  55.599  -8.169  1.00  0.00    -0.031 C 
HETATM   18  C24 UNL     1       3.606  54.404  -7.881  1.00  0.00     0.016 C 
HETATM   19  C25 UNL     1       1.376  55.127  -8.963  1.00  0.00     0.024 C 
HETATM   20  C26 UNL     1       1.657  54.516 -10.364  1.00  0.00     0.010 C 
HETATM   21  C27 UNL     1       0.426  53.968 -11.129  1.00  0.00     0.011 C 
HETATM   22  C28 UNL     1      -0.823  53.750 -10.251  1.00  0.00    -0.029 C 
HETATM   23  C29 UNL     1      -1.633  55.081 -10.203  1.00  0.00     0.016 C 
ENDROOT
BRANCH   1  24
HETATM   24  C6  UNL     1      -2.586  52.801 -12.035  1.00  0.00    -0.014 C 
HETATM   25  C7  UNL     1      -4.082  53.061 -11.820  1.00  0.00     0.010 C 
BRANCH  24  26
HETATM   26  C5  UNL     1      -2.371  51.576 -12.968  1.00  0.00     0.008 C 
BRANCH  26  27
HETATM   27  C4  UNL     1      -0.902  51.254 -13.261  1.00  0.00     0.028 C 
BRANCH  27  28
HETATM   28  C3  UNL     1      -0.695  50.812 -14.686  1.00  0.00    -0.022 C 
HETATM   29  C2  UNL     1       0.277  51.230 -15.522  1.00  0.00    -0.064 C 
HETATM   30  C1  UNL     1       0.392  50.669 -16.914  1.00  0.00     0.045 C 
BRANCH  29  31
HETATM   31  C30 UNL     1       1.302  52.275 -15.164  1.00  0.00     0.197 C 
BRANCH  31  32
HETATM   32  O2  UNL     1       1.425  53.222 -16.216  1.00  0.00    -0.397 OA
HETATM   33  H48 UNL     1       0.570  53.254 -16.679  1.00  0.00     0.209 HD
ENDBRANCH  31  32
ENDBRANCH  29  31
ENDBRANCH  27  28
ENDBRANCH  26  27
ENDBRANCH  24  26
ENDBRANCH   1  24
TORSDOF 6
ENDMDL
MODEL 6
REMARK minimizedAffinity -6.71659279
REMARK CNNscore 0.416744232
REMARK CNNaffinity 6.01618338
REMARK  6 active torsions:
REMARK  status: ('A' for Active; 'I' for Inactive)
REMARK    1  A    between atoms: C2_2  and  C30_31 
REMARK    2  A    between atoms: C3_3  and  C4_4 
REMARK    3  A    between atoms: C4_4  and  C5_5 
REMARK    4  A    between atoms: C5_5  and  C6_6 
REMARK    5  A    between atoms: C6_6  and  C8_8 
REMARK    6  A    between atoms: C30_31  and  O2_32 
ROOT
HETATM    1  C8  UNL     1       2.654  55.601  -8.258  1.00  0.00    -0.002 C 
HETATM    2  C9  UNL     1       1.402  56.352  -7.735  1.00  0.00     0.007 C 
HETATM    3  C10 UNL     1       1.875  57.262  -6.579  1.00  0.00     0.015 C 
HETATM    4  C11 UNL     1       3.318  56.804  -6.271  1.00  0.00    -0.013 C 
HETATM    5  C12 UNL     1       3.178  55.589  -5.297  1.00  0.00     0.021 C 
HETATM    6  C13 UNL     1       4.269  57.776  -5.584  1.00  0.00    -0.070 C 
HETATM    7  C14 UNL     1       3.838  58.724  -4.733  1.00  0.00    -0.022 C 
HETATM    8  C15 UNL     1       4.734  59.601  -3.916  1.00  0.00     0.034 C 
HETATM    9  C16 UNL     1       6.244  59.497  -4.234  1.00  0.00     0.013 C 
HETATM   10  C17 UNL     1       7.147  60.176  -3.135  1.00  0.00     0.018 C 
HETATM   11  C18 UNL     1       6.635  60.016  -1.687  1.00  0.00     0.023 C 
HETATM   12  C19 UNL     1       7.250  61.692  -3.416  1.00  0.00     0.023 C 
HETATM   13  C20 UNL     1       8.570  59.617  -3.215  1.00  0.00     0.135 C 
HETATM   14  O1  UNL     1       9.338  59.616  -2.252  1.00  0.00    -0.297 OA
HETATM   15  C21 UNL     1       9.042  59.151  -4.565  1.00  0.00     0.080 C 
HETATM   16  C22 UNL     1       8.166  58.041  -5.120  1.00  0.00     0.017 C 
HETATM   17  C23 UNL     1       6.678  58.040  -4.649  1.00  0.00    -0.031 C 
HETATM   18  C24 UNL     1       6.537  57.054  -3.464  1.00  0.00     0.016 C 
HETATM   19  C25 UNL     1       5.763  57.596  -5.866  1.00  0.00     0.024 C 
HETATM   20  C26 UNL     1       6.112  56.210  -6.477  1.00  0.00     0.010 C 
HETATM   21  C27 UNL     1       5.183  55.711  -7.612  1.00  0.00     0.011 C 
HETATM   22  C28 UNL     1       3.838  56.460  -7.708  1.00  0.00    -0.029 C 
HETATM   23  C29 UNL     1       4.031  57.710  -8.620  1.00  0.00     0.016 C 
ENDROOT
BRANCH   1  24
HETATM   24  C6  UNL     1       2.661  55.206  -9.766  1.00  0.00    -0.014 C 
HETATM   25  C7  UNL     1       3.040  56.338 -10.730  1.00  0.00     0.010 C 
BRANCH  24  26
HETATM   26  C5  UNL     1       1.273  54.611 -10.139  1.00  0.00     0.008 C 
BRANCH  26  27
HETATM   27  C4  UNL     1       0.079  55.429  -9.637  1.00  0.00     0.028 C 
BRANCH  27  28
HETATM   28  C3  UNL     1      -1.202  55.035 -10.323  1.00  0.00    -0.022 C 
HETATM   29  C2  UNL     1      -1.924  53.918 -10.096  1.00  0.00    -0.064 C 
HETATM   30  C1  UNL     1      -3.216  53.672 -10.828  1.00  0.00     0.045 C 
BRANCH  29  31
HETATM   31  C30 UNL     1      -1.515  52.835  -9.131  1.00  0.00     0.197 C 
BRANCH  31  32
HETATM   32  O2  UNL     1      -1.899  53.187  -7.809  1.00  0.00    -0.397 OA
HETATM   33  H48 UNL     1      -2.680  53.762  -7.876  1.00  0.00     0.209 HD
ENDBRANCH  31  32
ENDBRANCH  29  31
ENDBRANCH  27  28
ENDBRANCH  26  27
ENDBRANCH  24  26
ENDBRANCH   1  24
TORSDOF 6
ENDMDL
MODEL 7
REMARK minimizedAffinity -7.39441729
REMARK CNNscore 0.396429569
REMARK CNNaffinity 5.58427477
REMARK  6 active torsions:
REMARK  status: ('A' for Active; 'I' for Inactive)
REMARK    1  A    between atoms: C2_2  and  C30_31 
REMARK    2  A    between atoms: C3_3  and  C4_4 
REMARK    3  A    between atoms: C4_4  and  C5_5 
REMARK    4  A    between atoms: C5_5  and  C6_6 
REMARK    5  A    between atoms: C6_6  and  C8_8 
REMARK    6  A    between atoms: C30_31  and  O2_32 
ROOT
HETATM    1  C8  UNL     1     -10.255  46.916 -29.445  1.00  0.00    -0.002 C 
HETATM    2  C9  UNL     1     -10.576  45.890 -30.563  1.00  0.00     0.007 C 
HETATM    3  C10 UNL     1     -11.863  45.149 -30.135  1.00  0.00     0.015 C 
HETATM    4  C11 UNL     1     -12.090  45.555 -28.662  1.00  0.00    -0.013 C 
HETATM    5  C12 UNL     1     -11.212  44.579 -27.813  1.00  0.00     0.021 C 
HETATM    6  C13 UNL     1     -13.494  45.458 -28.079  1.00  0.00    -0.070 C 
HETATM    7  C14 UNL     1     -14.390  44.550 -28.506  1.00  0.00    -0.022 C 
HETATM    8  C15 UNL     1     -15.722  44.308 -27.869  1.00  0.00     0.034 C 
HETATM    9  C16 UNL     1     -16.127  45.311 -26.763  1.00  0.00     0.013 C 
HETATM   10  C17 UNL     1     -17.360  44.817 -25.915  1.00  0.00     0.018 C 
HETATM   11  C18 UNL     1     -17.397  43.296 -25.650  1.00  0.00     0.023 C 
HETATM   12  C19 UNL     1     -18.670  45.182 -26.646  1.00  0.00     0.023 C 
HETATM   13  C20 UNL     1     -17.389  45.547 -24.569  1.00  0.00     0.135 C 
HETATM   14  O1  UNL     1     -17.932  45.076 -23.569  1.00  0.00    -0.297 OA
HETATM   15  C21 UNL     1     -16.808  46.934 -24.536  1.00  0.00     0.080 C 
HETATM   16  C22 UNL     1     -15.344  46.946 -24.942  1.00  0.00     0.017 C 
HETATM   17  C23 UNL     1     -14.894  45.815 -25.920  1.00  0.00    -0.031 C 
HETATM   18  C24 UNL     1     -14.273  44.665 -25.092  1.00  0.00     0.016 C 
HETATM   19  C25 UNL     1     -13.835  46.418 -26.935  1.00  0.00     0.024 C 
HETATM   20  C26 UNL     1     -12.582  47.056 -26.273  1.00  0.00     0.010 C 
HETATM   21  C27 UNL     1     -11.490  47.577 -27.241  1.00  0.00     0.011 C 
HETATM   22  C28 UNL     1     -11.613  47.047 -28.684  1.00  0.00    -0.029 C 
HETATM   23  C29 UNL     1     -12.559  47.995 -29.481  1.00  0.00     0.016 C 
ENDROOT
BRANCH   1  24
HETATM   24  C6  UNL     1      -9.517  48.220 -29.877  1.00  0.00    -0.014 C 
HETATM   25  C7  UNL     1      -9.021  48.234 -31.328  1.00  0.00     0.010 C 
BRANCH  24  26
HETATM   26  C5  UNL     1      -8.341  48.485 -28.894  1.00  0.00     0.008 C 
BRANCH  26  27
HETATM   27  C4  UNL     1      -7.581  47.226 -28.464  1.00  0.00     0.028 C 
BRANCH  27  28
HETATM   28  C3  UNL     1      -6.276  47.557 -27.790  1.00  0.00    -0.022 C 
HETATM   29  C2  UNL     1      -5.192  48.111 -28.370  1.00  0.00    -0.064 C 
HETATM   30  C1  UNL     1      -3.962  48.430 -27.563  1.00  0.00     0.045 C 
BRANCH  29  31
HETATM   31  C30 UNL     1      -5.100  48.441 -29.838  1.00  0.00     0.197 C 
BRANCH  31  32
HETATM   32  O2  UNL     1      -4.799  47.271 -30.586  1.00  0.00    -0.397 OA
HETATM   33  H48 UNL     1      -5.153  46.512 -30.092  1.00  0.00     0.209 HD
ENDBRANCH  31  32
ENDBRANCH  29  31
ENDBRANCH  27  28
ENDBRANCH  26  27
ENDBRANCH  24  26
ENDBRANCH   1  24
TORSDOF 6
ENDMDL
MODEL 8
REMARK minimizedAffinity -6.7364049
REMARK CNNscore 0.342308372
REMARK CNNaffinity 5.73755503
REMARK  6 active torsions:
REMARK  status: ('A' for Active; 'I' for Inactive)
REMARK    1  A    between atoms: C2_2  and  C30_31 
REMARK    2  A    between atoms: C3_3  and  C4_4 
REMARK    3  A    between atoms: C4_4  and  C5_5 
REMARK    4  A    between atoms: C5_5  and  C6_6 
REMARK    5  A    between atoms: C6_6  and  C8_8 
REMARK    6  A    between atoms: C30_31  and  O2_32 
ROOT
HETATM    1  C8  UNL     1     -13.099  45.480 -26.878  1.00  0.00    -0.002 C 
HETATM    2  C9  UNL     1     -13.686  44.760 -28.120  1.00  0.00     0.007 C 
HETATM    3  C10 UNL     1     -12.694  44.991 -29.282  1.00  0.00     0.015 C 
HETATM    4  C11 UNL     1     -11.715  46.070 -28.767  1.00  0.00    -0.013 C 
HETATM    5  C12 UNL     1     -12.410  47.442 -29.049  1.00  0.00     0.021 C 
HETATM    6  C13 UNL     1     -10.332  46.171 -29.397  1.00  0.00    -0.070 C 
HETATM    7  C14 UNL     1     -10.098  45.834 -30.678  1.00  0.00    -0.022 C 
HETATM    8  C15 UNL     1      -8.801  46.057 -31.391  1.00  0.00     0.034 C 
HETATM    9  C16 UNL     1      -7.628  46.545 -30.508  1.00  0.00     0.013 C 
HETATM   10  C17 UNL     1      -6.409  47.076 -31.355  1.00  0.00     0.018 C 
HETATM   11  C18 UNL     1      -6.796  47.837 -32.641  1.00  0.00     0.023 C 
HETATM   12  C19 UNL     1      -5.520  45.887 -31.780  1.00  0.00     0.023 C 
HETATM   13  C20 UNL     1      -5.536  47.990 -30.490  1.00  0.00     0.135 C 
HETATM   14  O1  UNL     1      -4.813  48.864 -30.968  1.00  0.00    -0.297 OA
HETATM   15  C21 UNL     1      -5.516  47.710 -29.012  1.00  0.00     0.080 C 
HETATM   16  C22 UNL     1      -6.900  47.814 -28.396  1.00  0.00     0.017 C 
HETATM   17  C23 UNL     1      -8.099  47.498 -29.345  1.00  0.00    -0.031 C 
HETATM   18  C24 UNL     1      -8.652  48.833 -29.902  1.00  0.00     0.016 C 
HETATM   19  C25 UNL     1      -9.211  46.728 -28.516  1.00  0.00     0.024 C 
HETATM   20  C26 UNL     1      -9.731  47.481 -27.260  1.00  0.00     0.010 C 
HETATM   21  C27 UNL     1     -10.877  46.791 -26.477  1.00  0.00     0.011 C 
HETATM   22  C28 UNL     1     -11.596  45.672 -27.257  1.00  0.00    -0.029 C 
HETATM   23  C29 UNL     1     -10.832  44.334 -27.020  1.00  0.00     0.016 C 
ENDROOT
BRANCH   1  24
HETATM   24  C6  UNL     1     -13.442  44.871 -25.484  1.00  0.00    -0.014 C 
HETATM   25  C7  UNL     1     -14.625  43.895 -25.476  1.00  0.00     0.010 C 
BRANCH  24  26
HETATM   26  C5  UNL     1     -13.680  46.028 -24.471  1.00  0.00     0.008 C 
BRANCH  26  27
HETATM   27  C4  UNL     1     -14.832  46.966 -24.843  1.00  0.00     0.028 C 
BRANCH  27  28
HETATM   28  C3  UNL     1     -16.076  46.674 -24.047  1.00  0.00    -0.022 C 
HETATM   29  C2  UNL     1     -16.166  46.578 -22.704  1.00  0.00    -0.064 C 
HETATM   30  C1  UNL     1     -17.489  46.323 -22.035  1.00  0.00     0.045 C 
BRANCH  29  31
HETATM   31  C30 UNL     1     -14.986  46.696 -21.773  1.00  0.00     0.197 C 
BRANCH  31  32
HETATM   32  O2  UNL     1     -14.655  48.064 -21.574  1.00  0.00    -0.397 OA
HETATM   33  H48 UNL     1     -15.470  48.580 -21.689  1.00  0.00     0.209 HD
ENDBRANCH  31  32
ENDBRANCH  29  31
ENDBRANCH  27  28
ENDBRANCH  26  27
ENDBRANCH  24  26
ENDBRANCH   1  24
TORSDOF 6
ENDMDL
MODEL 9
REMARK minimizedAffinity -6.74840689
REMARK CNNscore 0.300183594
REMARK CNNaffinity 5.68226385
REMARK  6 active torsions:
REMARK  status: ('A' for Active; 'I' for Inactive)
REMARK    1  A    between atoms: C2_2  and  C30_31 
REMARK    2  A    between atoms: C3_3  and  C4_4 
REMARK    3  A    between atoms: C4_4  and  C5_5 
REMARK    4  A    between atoms: C5_5  and  C6_6 
REMARK    5  A    between atoms: C6_6  and  C8_8 
REMARK    6  A    between atoms: C30_31  and  O2_32 
ROOT
HETATM    1  C8  UNL     1     -14.449  44.600 -26.715  1.00  0.00    -0.002 C 
HETATM    2  C9  UNL     1     -15.353  45.137 -27.856  1.00  0.00     0.007 C 
HETATM    3  C10 UNL     1     -14.442  45.947 -28.806  1.00  0.00     0.015 C 
HETATM    4  C11 UNL     1     -13.105  46.102 -28.047  1.00  0.00    -0.013 C 
HETATM    5  C12 UNL     1     -13.288  47.344 -27.116  1.00  0.00     0.021 C 
HETATM    6  C13 UNL     1     -11.833  46.365 -28.843  1.00  0.00    -0.070 C 
HETATM    7  C14 UNL     1     -11.840  47.029 -30.012  1.00  0.00    -0.022 C 
HETATM    8  C15 UNL     1     -10.612  47.449 -30.756  1.00  0.00     0.034 C 
HETATM    9  C16 UNL     1      -9.273  46.910 -30.198  1.00  0.00     0.013 C 
HETATM   10  C17 UNL     1      -8.019  47.645 -30.806  1.00  0.00     0.018 C 
HETATM   11  C18 UNL     1      -8.214  49.156 -31.061  1.00  0.00     0.023 C 
HETATM   12  C19 UNL     1      -7.649  47.001 -32.160  1.00  0.00     0.023 C 
HETATM   13  C20 UNL     1      -6.811  47.457 -29.885  1.00  0.00     0.135 C 
HETATM   14  O1  UNL     1      -5.866  48.246 -29.859  1.00  0.00    -0.297 OA
HETATM   15  C21 UNL     1      -6.770  46.195 -29.067  1.00  0.00     0.080 C 
HETATM   16  C22 UNL     1      -7.972  46.077 -28.146  1.00  0.00     0.017 C 
HETATM   17  C23 UNL     1      -9.278  46.783 -28.627  1.00  0.00    -0.031 C 
HETATM   18  C24 UNL     1      -9.364  48.174 -27.953  1.00  0.00     0.016 C 
HETATM   19  C25 UNL     1     -10.519  45.881 -28.223  1.00  0.00     0.024 C 
HETATM   20  C26 UNL     1     -10.633  45.565 -26.706  1.00  0.00     0.010 C 
HETATM   21  C27 UNL     1     -11.881  44.757 -26.269  1.00  0.00     0.011 C 
HETATM   22  C28 UNL     1     -13.012  44.719 -27.316  1.00  0.00    -0.029 C 
HETATM   23  C29 UNL     1     -12.757  43.519 -28.278  1.00  0.00     0.016 C 
ENDROOT
BRANCH   1  24
HETATM   24  C6  UNL     1     -14.870  43.250 -26.059  1.00  0.00    -0.014 C 
HETATM   25  C7  UNL     1     -15.858  42.411 -26.880  1.00  0.00     0.010 C 
BRANCH  24  26
HETATM   26  C5  UNL     1     -15.440  43.533 -24.640  1.00  0.00     0.008 C 
BRANCH  26  27
HETATM   27  C4  UNL     1     -16.969  43.491 -24.552  1.00  0.00     0.028 C 
BRANCH  27  28
HETATM   28  C3  UNL     1     -17.497  44.395 -23.469  1.00  0.00    -0.022 C 
HETATM   29  C2  UNL     1     -18.087  45.595 -23.643  1.00  0.00    -0.064 C 
HETATM   30  C1  UNL     1     -18.610  46.375 -22.466  1.00  0.00     0.045 C 
BRANCH  29  31
HETATM   31  C30 UNL     1     -18.263  46.259 -24.984  1.00  0.00     0.197 C 
BRANCH  31  32
HETATM   32  O2  UNL     1     -19.034  47.445 -24.846  1.00  0.00    -0.397 OA
HETATM   33  H48 UNL     1     -18.888  47.783 -23.947  1.00  0.00     0.209 HD
ENDBRANCH  31  32
ENDBRANCH  29  31
ENDBRANCH  27  28
ENDBRANCH  26  27
ENDBRANCH  24  26
ENDBRANCH   1  24
TORSDOF 6
ENDMDL
