MODEL 1
REMARK minimizedAffinity -7.4320817
REMARK CNNscore 0.787610471
REMARK CNNaffinity 7.0450902
REMARK  6 active torsions:
REMARK  status: ('A' for Active; 'I' for Inactive)
REMARK    1  A    between atoms: C2_2  and  C30_32 
REMARK    2  A    between atoms: C3_3  and  C4_4 
REMARK    3  A    between atoms: C4_4  and  C5_6 
REMARK    4  A    between atoms: C5_6  and  C6_7 
REMARK    5  A    between atoms: C6_7  and  C8_9 
REMARK    6  A    between atoms: C30_32  and  O4_34 
ROOT
HETATM    1  C8  UNL     1       4.734  55.701  -8.371  1.00  0.00    -0.001 C 
HETATM    2  C9  UNL     1       3.762  56.603  -7.616  1.00  0.00     0.007 C 
HETATM    3  C10 UNL     1       2.469  56.599  -8.434  1.00  0.00     0.015 C 
HETATM    4  C11 UNL     1       2.612  55.533  -9.567  1.00  0.00    -0.013 C 
HETATM    5  C12 UNL     1       2.941  56.257 -10.902  1.00  0.00     0.021 C 
HETATM    6  C13 UNL     1       1.277  54.785  -9.765  1.00  0.00    -0.070 C 
HETATM    7  C14 UNL     1       0.132  55.464  -9.965  1.00  0.00    -0.022 C 
HETATM    8  C15 UNL     1      -1.180  54.849 -10.322  1.00  0.00     0.034 C 
HETATM    9  C16 UNL     1      -1.091  53.382 -10.809  1.00  0.00     0.013 C 
HETATM   10  C17 UNL     1      -2.513  52.728 -11.006  1.00  0.00     0.018 C 
HETATM   11  C18 UNL     1      -3.653  53.747 -11.220  1.00  0.00     0.023 C 
HETATM   12  C19 UNL     1      -2.514  51.817 -12.255  1.00  0.00     0.023 C 
HETATM   13  C20 UNL     1      -2.890  51.905  -9.769  1.00  0.00     0.135 C 
HETATM   14  O2  UNL     1      -3.700  50.979  -9.823  1.00  0.00    -0.297 OA
HETATM   15  C21 UNL     1      -2.312  52.341  -8.442  1.00  0.00     0.080 C 
HETATM   16  C22 UNL     1      -0.789  52.474  -8.455  1.00  0.00     0.017 C 
HETATM   17  C23 UNL     1      -0.134  52.568  -9.864  1.00  0.00    -0.031 C 
HETATM   18  C24 UNL     1       0.100  51.124 -10.383  1.00  0.00     0.016 C 
HETATM   19  C25 UNL     1       1.297  53.269  -9.828  1.00  0.00     0.024 C 
HETATM   20  C26 UNL     1       2.240  52.633  -8.777  1.00  0.00     0.010 C 
HETATM   21  C27 UNL     1       3.241  53.577  -8.111  1.00  0.00     0.011 C 
HETATM   22  C28 UNL     1       3.815  54.638  -9.065  1.00  0.00    -0.029 C 
HETATM   23  C29 UNL     1       4.611  53.937 -10.186  1.00  0.00     0.016 C 
ENDROOT
BRANCH   1  24
HETATM   24  C6  UNL     1       6.043  55.294  -7.633  1.00  0.00    -0.007 C 
HETATM   25  C7  UNL     1       7.205  55.216  -8.643  1.00  0.00     0.011 C 
BRANCH  24  26
HETATM   26  C5  UNL     1       6.499  56.028  -6.362  1.00  0.00     0.087 C 
BRANCH  26  27
HETATM   27  C4  UNL     1       7.654  55.441  -5.572  1.00  0.00     0.150 C 
HETATM   28  O1  UNL     1       7.557  54.353  -5.011  1.00  0.00    -0.293 OA
BRANCH  27  29
HETATM   29  C3  UNL     1       8.932  56.210  -5.556  1.00  0.00     0.063 C 
HETATM   30  C2  UNL     1       9.134  57.348  -4.864  1.00  0.00     0.015 C 
HETATM   31  C1  UNL     1       8.108  58.073  -4.040  1.00  0.00     0.055 C 
BRANCH  30  32
HETATM   32  C30 UNL     1      10.470  57.991  -4.897  1.00  0.00     0.171 C 
HETATM   33  O3  UNL     1      11.526  57.451  -4.621  1.00  0.00    -0.646 OA
BRANCH  32  34
HETATM   34  O4  UNL     1      10.445  59.283  -5.267  1.00  0.00    -0.773 OA
HETATM   35  H44 UNL     1      11.390  59.542  -5.239  1.00  0.00     0.167 HD
ENDBRANCH  32  34
ENDBRANCH  30  32
ENDBRANCH  27  29
ENDBRANCH  26  27
ENDBRANCH  24  26
ENDBRANCH   1  24
TORSDOF 6
ENDMDL
MODEL 2
REMARK minimizedAffinity -7.49077511
REMARK CNNscore 0.688804805
REMARK CNNaffinity 7.08573341
REMARK  6 active torsions:
REMARK  status: ('A' for Active; 'I' for Inactive)
REMARK    1  A    between atoms: C2_2  and  C30_32 
REMARK    2  A    between atoms: C3_3  and  C4_4 
REMARK    3  A    between atoms: C4_4  and  C5_6 
REMARK    4  A    between atoms: C5_6  and  C6_7 
REMARK    5  A    between atoms: C6_7  and  C8_9 
REMARK    6  A    between atoms: C30_32  and  O4_34 
ROOT
HETATM    1  C8  UNL     1      -1.951  51.899 -10.900  1.00  0.00    -0.001 C 
HETATM    2  C9  UNL     1      -2.139  51.722  -9.396  1.00  0.00     0.007 C 
HETATM    3  C10 UNL     1      -0.728  51.691  -8.802  1.00  0.00     0.015 C 
HETATM    4  C11 UNL     1       0.287  52.051  -9.934  1.00  0.00    -0.013 C 
HETATM    5  C12 UNL     1       0.947  50.746 -10.454  1.00  0.00     0.021 C 
HETATM    6  C13 UNL     1       1.412  52.947  -9.375  1.00  0.00    -0.070 C 
HETATM    7  C14 UNL     1       2.109  52.574  -8.284  1.00  0.00    -0.022 C 
HETATM    8  C15 UNL     1       3.312  53.277  -7.753  1.00  0.00     0.034 C 
HETATM    9  C16 UNL     1       3.954  54.286  -8.736  1.00  0.00     0.013 C 
HETATM   10  C17 UNL     1       5.110  55.124  -8.067  1.00  0.00     0.018 C 
HETATM   11  C18 UNL     1       5.740  54.453  -6.827  1.00  0.00     0.023 C 
HETATM   12  C19 UNL     1       6.267  55.338  -9.070  1.00  0.00     0.023 C 
HETATM   13  C20 UNL     1       4.575  56.483  -7.602  1.00  0.00     0.135 C 
HETATM   14  O2  UNL     1       5.312  57.460  -7.455  1.00  0.00    -0.297 OA
HETATM   15  C21 UNL     1       3.115  56.561  -7.221  1.00  0.00     0.080 C 
HETATM   16  C22 UNL     1       2.172  56.047  -8.308  1.00  0.00     0.017 C 
HETATM   17  C23 UNL     1       2.832  55.160  -9.406  1.00  0.00    -0.031 C 
HETATM   18  C24 UNL     1       3.405  56.097 -10.502  1.00  0.00     0.016 C 
HETATM   19  C25 UNL     1       1.782  54.207 -10.134  1.00  0.00     0.024 C 
HETATM   20  C26 UNL     1       0.548  54.980 -10.659  1.00  0.00     0.010 C 
HETATM   21  C27 UNL     1      -0.776  54.216 -10.661  1.00  0.00     0.011 C 
HETATM   22  C28 UNL     1      -0.630  52.731 -11.030  1.00  0.00    -0.029 C 
HETATM   23  C29 UNL     1      -0.100  52.616 -12.476  1.00  0.00     0.016 C 
ENDROOT
BRANCH   1  24
HETATM   24  C6  UNL     1      -3.218  52.241 -11.737  1.00  0.00    -0.007 C 
HETATM   25  C7  UNL     1      -3.865  53.531 -11.197  1.00  0.00     0.011 C 
BRANCH  24  26
HETATM   26  C5  UNL     1      -3.168  52.280 -13.274  1.00  0.00     0.087 C 
BRANCH  26  27
HETATM   27  C4  UNL     1      -3.087  50.962 -14.021  1.00  0.00     0.150 C 
HETATM   28  O1  UNL     1      -3.063  49.889 -13.424  1.00  0.00    -0.293 OA
BRANCH  27  29
HETATM   29  C3  UNL     1      -3.101  51.020 -15.512  1.00  0.00     0.063 C 
HETATM   30  C2  UNL     1      -2.016  50.865 -16.295  1.00  0.00     0.015 C 
HETATM   31  C1  UNL     1      -0.605  50.669 -15.818  1.00  0.00     0.055 C 
BRANCH  30  32
HETATM   32  C30 UNL     1      -2.174  50.899 -17.769  1.00  0.00     0.171 C 
HETATM   33  O3  UNL     1      -2.745  51.768 -18.403  1.00  0.00    -0.646 OA
BRANCH  32  34
HETATM   34  O4  UNL     1      -1.621  49.850 -18.402  1.00  0.00    -0.773 OA
HETATM   35  H44 UNL     1      -1.811  50.032 -19.346  1.00  0.00     0.167 HD
ENDBRANCH  32  34
ENDBRANCH  30  32
ENDBRANCH  27  29
ENDBRANCH  26  27
ENDBRANCH  24  26
ENDBRANCH   1  24
TORSDOF 6
ENDMDL
MODEL 3
REMARK minimizedAffinity -8.67248058
REMARK CNNscore 0.589707673
REMARK CNNaffinity 6.03338766
REMARK  6 active torsions:
REMARK  status: ('A' for Active; 'I' for Inactive)
REMARK    1  A    between atoms: C2_2  and  C30_32 
REMARK    2  A    between atoms: C3_3  and  C4_4 
REMARK    3  A    between atoms: C4_4  and  C5_6 
REMARK    4  A    between atoms: C5_6  and  C6_7 
REMARK    5  A    between atoms: C6_7  and  C8_9 
REMARK    6  A    between atoms: C30_32  and  O4_34 
ROOT
HETATM    1  C8  UNL     1       6.320  66.453 -35.264  1.00  0.00    -0.001 C 
HETATM    2  C9  UNL     1       6.140  67.910 -34.847  1.00  0.00     0.007 C 
HETATM    3  C10 UNL     1       5.603  68.633 -36.084  1.00  0.00     0.015 C 
HETATM    4  C11 UNL     1       5.276  67.562 -37.173  1.00  0.00    -0.013 C 
HETATM    5  C12 UNL     1       6.423  67.540 -38.220  1.00  0.00     0.021 C 
HETATM    6  C13 UNL     1       3.978  67.938 -37.917  1.00  0.00    -0.070 C 
HETATM    7  C14 UNL     1       3.831  69.159 -38.467  1.00  0.00    -0.022 C 
HETATM    8  C15 UNL     1       2.695  69.577 -39.339  1.00  0.00     0.034 C 
HETATM    9  C16 UNL     1       1.840  68.407 -39.886  1.00  0.00     0.013 C 
HETATM   10  C17 UNL     1       0.557  68.909 -40.653  1.00  0.00     0.018 C 
HETATM   11  C18 UNL     1       0.664  70.355 -41.184  1.00  0.00     0.023 C 
HETATM   12  C19 UNL     1       0.290  68.019 -41.889  1.00  0.00     0.023 C 
HETATM   13  C20 UNL     1      -0.661  68.875 -39.723  1.00  0.00     0.135 C 
HETATM   14  O2  UNL     1      -1.811  68.795 -40.155  1.00  0.00    -0.297 OA
HETATM   15  C21 UNL     1      -0.410  69.055 -38.244  1.00  0.00     0.080 C 
HETATM   16  C22 UNL     1       0.624  68.082 -37.678  1.00  0.00     0.017 C 
HETATM   17  C23 UNL     1       1.538  67.385 -38.729  1.00  0.00    -0.031 C 
HETATM   18  C24 UNL     1       0.800  66.124 -39.249  1.00  0.00     0.016 C 
HETATM   19  C25 UNL     1       2.912  66.875 -38.102  1.00  0.00     0.024 C 
HETATM   20  C26 UNL     1       2.698  66.008 -36.837  1.00  0.00     0.010 C 
HETATM   21  C27 UNL     1       3.785  66.098 -35.766  1.00  0.00     0.011 C 
HETATM   22  C28 UNL     1       5.206  66.218 -36.340  1.00  0.00    -0.029 C 
HETATM   23  C29 UNL     1       5.540  64.943 -37.143  1.00  0.00     0.016 C 
ENDROOT
BRANCH   1  24
HETATM   24  C6  UNL     1       6.595  65.421 -34.132  1.00  0.00    -0.007 C 
HETATM   25  C7  UNL     1       5.661  65.699 -32.938  1.00  0.00     0.011 C 
BRANCH  24  26
HETATM   26  C5  UNL     1       6.637  63.912 -34.426  1.00  0.00     0.087 C 
BRANCH  26  27
HETATM   27  C4  UNL     1       7.981  63.281 -34.740  1.00  0.00     0.150 C 
HETATM   28  O1  UNL     1       8.434  63.278 -35.882  1.00  0.00    -0.293 OA
BRANCH  27  29
HETATM   29  C3  UNL     1       8.758  62.721 -33.596  1.00  0.00     0.063 C 
HETATM   30  C2  UNL     1      10.098  62.781 -33.477  1.00  0.00     0.015 C 
HETATM   31  C1  UNL     1      11.048  63.361 -34.486  1.00  0.00     0.055 C 
BRANCH  30  32
HETATM   32  C30 UNL     1      10.745  62.225 -32.264  1.00  0.00     0.171 C 
HETATM   33  O3  UNL     1      11.544  62.807 -31.554  1.00  0.00    -0.646 OA
BRANCH  32  34
HETATM   34  O4  UNL     1      10.377  60.963 -31.979  1.00  0.00    -0.773 OA
HETATM   35  H44 UNL     1      10.884  60.761 -31.166  1.00  0.00     0.167 HD
ENDBRANCH  32  34
ENDBRANCH  30  32
ENDBRANCH  27  29
ENDBRANCH  26  27
ENDBRANCH  24  26
ENDBRANCH   1  24
TORSDOF 6
ENDMDL
MODEL 4
REMARK minimizedAffinity -8.517169
REMARK CNNscore 0.475249857
REMARK CNNaffinity 6.51780081
REMARK  6 active torsions:
REMARK  status: ('A' for Active; 'I' for Inactive)
REMARK    1  A    between atoms: C2_2  and  C30_32 
REMARK    2  A    between atoms: C3_3  and  C4_4 
REMARK    3  A    between atoms: C4_4  and  C5_6 
REMARK    4  A    between atoms: C5_6  and  C6_7 
REMARK    5  A    between atoms: C6_7  and  C8_9 
REMARK    6  A    between atoms: C30_32  and  O4_34 
ROOT
HETATM    1  C8  UNL     1       6.059  64.317 -34.253  1.00  0.00    -0.001 C 
HETATM    2  C9  UNL     1       6.011  65.321 -33.104  1.00  0.00     0.007 C 
HETATM    3  C10 UNL     1       6.003  66.703 -33.761  1.00  0.00     0.015 C 
HETATM    4  C11 UNL     1       5.844  66.511 -35.303  1.00  0.00    -0.013 C 
HETATM    5  C12 UNL     1       7.232  66.678 -35.979  1.00  0.00     0.021 C 
HETATM    6  C13 UNL     1       4.914  67.598 -35.883  1.00  0.00    -0.070 C 
HETATM    7  C14 UNL     1       5.149  68.902 -35.641  1.00  0.00    -0.022 C 
HETATM    8  C15 UNL     1       4.416  70.037 -36.273  1.00  0.00     0.034 C 
HETATM    9  C16 UNL     1       3.582  69.650 -37.519  1.00  0.00     0.013 C 
HETATM   10  C17 UNL     1       2.695  70.845 -38.042  1.00  0.00     0.018 C 
HETATM   11  C18 UNL     1       3.200  72.240 -37.616  1.00  0.00     0.023 C 
HETATM   12  C19 UNL     1       2.667  70.854 -39.588  1.00  0.00     0.023 C 
HETATM   13  C20 UNL     1       1.266  70.715 -37.503  1.00  0.00     0.135 C 
HETATM   14  O2  UNL     1       0.303  71.231 -38.073  1.00  0.00    -0.297 OA
HETATM   15  C21 UNL     1       1.085  70.018 -36.175  1.00  0.00     0.080 C 
HETATM   16  C22 UNL     1       1.720  68.628 -36.124  1.00  0.00     0.017 C 
HETATM   17  C23 UNL     1       2.777  68.331 -37.228  1.00  0.00    -0.031 C 
HETATM   18  C24 UNL     1       2.028  67.821 -38.488  1.00  0.00     0.016 C 
HETATM   19  C25 UNL     1       3.790  67.174 -36.809  1.00  0.00     0.024 C 
HETATM   20  C26 UNL     1       3.060  65.896 -36.328  1.00  0.00     0.010 C 
HETATM   21  C27 UNL     1       3.773  65.078 -35.251  1.00  0.00     0.011 C 
HETATM   22  C28 UNL     1       5.300  65.030 -35.423  1.00  0.00    -0.029 C 
HETATM   23  C29 UNL     1       5.639  64.322 -36.752  1.00  0.00     0.016 C 
ENDROOT
BRANCH   1  24
HETATM   24  C6  UNL     1       5.801  62.823 -33.900  1.00  0.00    -0.007 C 
HETATM   25  C7  UNL     1       4.337  62.641 -33.455  1.00  0.00     0.011 C 
BRANCH  24  26
HETATM   26  C5  UNL     1       6.200  61.697 -34.868  1.00  0.00     0.087 C 
BRANCH  26  27
HETATM   27  C4  UNL     1       7.506  60.965 -34.614  1.00  0.00     0.150 C 
HETATM   28  O1  UNL     1       7.720  59.856 -35.097  1.00  0.00    -0.293 OA
BRANCH  27  29
HETATM   29  C3  UNL     1       8.540  61.673 -33.807  1.00  0.00     0.063 C 
HETATM   30  C2  UNL     1       9.414  62.573 -34.299  1.00  0.00     0.015 C 
HETATM   31  C1  UNL     1       9.544  62.979 -35.740  1.00  0.00     0.055 C 
BRANCH  30  32
HETATM   32  C30 UNL     1      10.365  63.241 -33.378  1.00  0.00     0.171 C 
HETATM   33  O3  UNL     1      10.063  63.884 -32.389  1.00  0.00    -0.646 OA
BRANCH  32  34
HETATM   34  O4  UNL     1      11.655  63.090 -33.722  1.00  0.00    -0.773 OA
HETATM   35  H44 UNL     1      12.132  63.579 -33.020  1.00  0.00     0.167 HD
ENDBRANCH  32  34
ENDBRANCH  30  32
ENDBRANCH  27  29
ENDBRANCH  26  27
ENDBRANCH  24  26
ENDBRANCH   1  24
TORSDOF 6
ENDMDL
MODEL 5
REMARK minimizedAffinity -7.43779469
REMARK CNNscore 0.437375128
REMARK CNNaffinity 6.87413025
REMARK  6 active torsions:
REMARK  status: ('A' for Active; 'I' for Inactive)
REMARK    1  A    between atoms: C2_2  and  C30_32 
REMARK    2  A    between atoms: C3_3  and  C4_4 
REMARK    3  A    between atoms: C4_4  and  C5_6 
REMARK    4  A    between atoms: C5_6  and  C6_7 
REMARK    5  A    between atoms: C6_7  and  C8_9 
REMARK    6  A    between atoms: C30_32  and  O4_34 
ROOT
HETATM    1  C8  UNL     1      -4.094  47.609 -19.325  1.00  0.00    -0.001 C 
HETATM    2  C9  UNL     1      -4.258  49.052 -18.857  1.00  0.00     0.007 C 
HETATM    3  C10 UNL     1      -3.194  49.856 -19.609  1.00  0.00     0.015 C 
HETATM    4  C11 UNL     1      -2.534  48.920 -20.671  1.00  0.00    -0.013 C 
HETATM    5  C12 UNL     1      -1.161  48.433 -20.131  1.00  0.00     0.021 C 
HETATM    6  C13 UNL     1      -2.267  49.700 -21.975  1.00  0.00    -0.070 C 
HETATM    7  C14 UNL     1      -1.586  50.861 -21.954  1.00  0.00    -0.022 C 
HETATM    8  C15 UNL     1      -1.135  51.615 -23.160  1.00  0.00     0.034 C 
HETATM    9  C16 UNL     1      -1.182  50.805 -24.479  1.00  0.00     0.013 C 
HETATM   10  C17 UNL     1      -0.864  51.695 -25.741  1.00  0.00     0.018 C 
HETATM   11  C18 UNL     1      -0.062  52.976 -25.425  1.00  0.00     0.023 C 
HETATM   12  C19 UNL     1      -0.013  50.898 -26.757  1.00  0.00     0.023 C 
HETATM   13  C20 UNL     1      -2.167  52.150 -26.407  1.00  0.00     0.135 C 
HETATM   14  O2  UNL     1      -2.217  52.467 -27.596  1.00  0.00    -0.297 OA
HETATM   15  C21 UNL     1      -3.383  52.303 -25.522  1.00  0.00     0.080 C 
HETATM   16  C22 UNL     1      -3.701  51.053 -24.702  1.00  0.00     0.017 C 
HETATM   17  C23 UNL     1      -2.542  50.021 -24.571  1.00  0.00    -0.031 C 
HETATM   18  C24 UNL     1      -2.587  49.085 -25.807  1.00  0.00     0.016 C 
HETATM   19  C25 UNL     1      -2.700  49.083 -23.292  1.00  0.00     0.024 C 
HETATM   20  C26 UNL     1      -4.097  48.418 -23.216  1.00  0.00     0.010 C 
HETATM   21  C27 UNL     1      -4.648  48.165 -21.813  1.00  0.00     0.011 C 
HETATM   22  C28 UNL     1      -3.576  47.736 -20.798  1.00  0.00    -0.029 C 
HETATM   23  C29 UNL     1      -2.970  46.387 -21.239  1.00  0.00     0.016 C 
ENDROOT
BRANCH   1  24
HETATM   24  C6  UNL     1      -5.220  46.606 -18.938  1.00  0.00    -0.007 C 
HETATM   25  C7  UNL     1      -6.595  47.284 -19.095  1.00  0.00     0.011 C 
BRANCH  24  26
HETATM   26  C5  UNL     1      -5.261  45.189 -19.533  1.00  0.00     0.087 C 
BRANCH  26  27
HETATM   27  C4  UNL     1      -6.377  44.853 -20.505  1.00  0.00     0.150 C 
HETATM   28  O1  UNL     1      -6.325  45.200 -21.682  1.00  0.00    -0.293 OA
BRANCH  27  29
HETATM   29  C3  UNL     1      -7.510  44.033 -19.987  1.00  0.00     0.063 C 
HETATM   30  C2  UNL     1      -7.514  42.688 -19.917  1.00  0.00     0.015 C 
HETATM   31  C1  UNL     1      -6.419  41.777 -20.396  1.00  0.00     0.055 C 
BRANCH  30  32
HETATM   32  C30 UNL     1      -8.689  41.993 -19.338  1.00  0.00     0.171 C 
HETATM   33  O3  UNL     1      -8.661  41.198 -18.416  1.00  0.00    -0.646 OA
BRANCH  32  34
HETATM   34  O4  UNL     1      -9.855  42.309 -19.927  1.00  0.00    -0.773 OA
HETATM   35  H44 UNL     1     -10.509  41.777 -19.428  1.00  0.00     0.167 HD
ENDBRANCH  32  34
ENDBRANCH  30  32
ENDBRANCH  27  29
ENDBRANCH  26  27
ENDBRANCH  24  26
ENDBRANCH   1  24
TORSDOF 6
ENDMDL
MODEL 6
REMARK minimizedAffinity -9.74628353
REMARK CNNscore 0.339073718
REMARK CNNaffinity 6.8395505
REMARK  6 active torsions:
REMARK  status: ('A' for Active; 'I' for Inactive)
REMARK    1  A    between atoms: C2_2  and  C30_32 
REMARK    2  A    between atoms: C3_3  and  C4_4 
REMARK    3  A    between atoms: C4_4  and  C5_6 
REMARK    4  A    between atoms: C5_6  and  C6_7 
REMARK    5  A    between atoms: C6_7  and  C8_9 
REMARK    6  A    between atoms: C30_32  and  O4_34 
ROOT
HETATM    1  C8  UNL     1      -0.488  50.752 -18.799  1.00  0.00    -0.001 C 
HETATM    2  C9  UNL     1      -0.438  49.314 -19.309  1.00  0.00     0.007 C 
HETATM    3  C10 UNL     1      -1.168  49.325 -20.654  1.00  0.00     0.015 C 
HETATM    4  C11 UNL     1      -1.474  50.809 -21.032  1.00  0.00    -0.013 C 
HETATM    5  C12 UNL     1      -2.964  51.114 -20.715  1.00  0.00     0.021 C 
HETATM    6  C13 UNL     1      -1.272  51.025 -22.546  1.00  0.00    -0.070 C 
HETATM    7  C14 UNL     1      -1.882  50.226 -23.442  1.00  0.00    -0.022 C 
HETATM    8  C15 UNL     1      -1.886  50.436 -24.919  1.00  0.00     0.034 C 
HETATM    9  C16 UNL     1      -1.436  51.849 -25.368  1.00  0.00     0.013 C 
HETATM   10  C17 UNL     1      -1.291  51.963 -26.934  1.00  0.00     0.018 C 
HETATM   11  C18 UNL     1      -2.108  50.915 -27.722  1.00  0.00     0.023 C 
HETATM   12  C19 UNL     1      -1.788  53.344 -27.418  1.00  0.00     0.023 C 
HETATM   13  C20 UNL     1       0.173  51.770 -27.344  1.00  0.00     0.135 C 
HETATM   14  O2  UNL     1       0.622  52.223 -28.398  1.00  0.00    -0.297 OA
HETATM   15  C21 UNL     1       1.035  50.905 -26.454  1.00  0.00     0.080 C 
HETATM   16  C22 UNL     1       1.024  51.336 -24.987  1.00  0.00     0.017 C 
HETATM   17  C23 UNL     1      -0.149  52.273 -24.571  1.00  0.00    -0.031 C 
HETATM   18  C24 UNL     1       0.269  53.735 -24.882  1.00  0.00     0.016 C 
HETATM   19  C25 UNL     1      -0.451  52.215 -23.007  1.00  0.00     0.024 C 
HETATM   20  C26 UNL     1       0.820  52.440 -22.151  1.00  0.00     0.010 C 
HETATM   21  C27 UNL     1       0.870  51.701 -20.813  1.00  0.00     0.011 C 
HETATM   22  C28 UNL     1      -0.490  51.624 -20.100  1.00  0.00    -0.029 C 
HETATM   23  C29 UNL     1      -0.963  53.051 -19.752  1.00  0.00     0.016 C 
ENDROOT
BRANCH   1  24
HETATM   24  C6  UNL     1       0.413  51.103 -17.579  1.00  0.00    -0.007 C 
HETATM   25  C7  UNL     1       1.003  52.515 -17.759  1.00  0.00     0.011 C 
BRANCH  24  26
HETATM   26  C5  UNL     1      -0.095  50.925 -16.139  1.00  0.00     0.087 C 
BRANCH  26  27
HETATM   27  C4  UNL     1       0.772  51.443 -15.006  1.00  0.00     0.150 C 
HETATM   28  O1  UNL     1       0.633  52.580 -14.563  1.00  0.00    -0.293 OA
BRANCH  27  29
HETATM   29  C3  UNL     1       1.756  50.493 -14.410  1.00  0.00     0.063 C 
HETATM   30  C2  UNL     1       3.094  50.636 -14.474  1.00  0.00     0.015 C 
HETATM   31  C1  UNL     1       3.831  51.728 -15.197  1.00  0.00     0.055 C 
BRANCH  30  32
HETATM   32  C30 UNL     1       3.964  49.642 -13.799  1.00  0.00     0.171 C 
HETATM   33  O3  UNL     1       5.126  49.815 -13.481  1.00  0.00    -0.646 OA
BRANCH  32  34
HETATM   34  O4  UNL     1       3.359  48.469 -13.548  1.00  0.00    -0.773 OA
HETATM   35  H44 UNL     1       4.060  47.946 -13.106  1.00  0.00     0.167 HD
ENDBRANCH  32  34
ENDBRANCH  30  32
ENDBRANCH  27  29
ENDBRANCH  26  27
ENDBRANCH  24  26
ENDBRANCH   1  24
TORSDOF 6
ENDMDL
MODEL 7
REMARK minimizedAffinity -7.72123766
REMARK CNNscore 0.307729095
REMARK CNNaffinity 6.15813255
REMARK  6 active torsions:
REMARK  status: ('A' for Active; 'I' for Inactive)
REMARK    1  A    between atoms: C2_2  and  C30_32 
REMARK    2  A    between atoms: C3_3  and  C4_4 
REMARK    3  A    between atoms: C4_4  and  C5_6 
REMARK    4  A    between atoms: C5_6  and  C6_7 
REMARK    5  A    between atoms: C6_7  and  C8_9 
REMARK    6  A    between atoms: C30_32  and  O4_34 
ROOT
HETATM    1  C8  UNL     1      -5.814  46.620 -19.368  1.00  0.00    -0.001 C 
HETATM    2  C9  UNL     1      -5.958  47.984 -18.701  1.00  0.00     0.007 C 
HETATM    3  C10 UNL     1      -4.787  48.825 -19.217  1.00  0.00     0.015 C 
HETATM    4  C11 UNL     1      -4.067  48.018 -20.344  1.00  0.00    -0.013 C 
HETATM    5  C12 UNL     1      -2.780  47.374 -19.759  1.00  0.00     0.021 C 
HETATM    6  C13 UNL     1      -3.632  48.966 -21.482  1.00  0.00    -0.070 C 
HETATM    7  C14 UNL     1      -2.904  50.067 -21.218  1.00  0.00    -0.022 C 
HETATM    8  C15 UNL     1      -2.299  50.963 -22.246  1.00  0.00     0.034 C 
HETATM    9  C16 UNL     1      -2.249  50.362 -23.673  1.00  0.00     0.013 C 
HETATM   10  C17 UNL     1      -1.763  51.409 -24.748  1.00  0.00     0.018 C 
HETATM   11  C18 UNL     1      -0.940  52.578 -24.164  1.00  0.00     0.023 C 
HETATM   12  C19 UNL     1      -0.851  50.722 -25.790  1.00  0.00     0.023 C 
HETATM   13  C20 UNL     1      -2.970  52.037 -25.455  1.00  0.00     0.135 C 
HETATM   14  O2  UNL     1      -2.884  52.530 -26.580  1.00  0.00    -0.297 OA
HETATM   15  C21 UNL     1      -4.261  52.130 -24.674  1.00  0.00     0.080 C 
HETATM   16  C22 UNL     1      -4.718  50.794 -24.090  1.00  0.00     0.017 C 
HETATM   17  C23 UNL     1      -3.627  49.686 -24.011  1.00  0.00    -0.031 C 
HETATM   18  C24 UNL     1      -3.590  48.948 -25.376  1.00  0.00     0.016 C 
HETATM   19  C25 UNL     1      -3.958  48.580 -22.912  1.00  0.00     0.024 C 
HETATM   20  C26 UNL     1      -5.384  47.997 -23.071  1.00  0.00     0.010 C 
HETATM   21  C27 UNL     1      -6.086  47.572 -21.781  1.00  0.00     0.011 C 
HETATM   22  C28 UNL     1      -5.143  46.932 -20.749  1.00  0.00    -0.029 C 
HETATM   23  C29 UNL     1      -4.559  45.629 -21.334  1.00  0.00     0.016 C 
ENDROOT
BRANCH   1  24
HETATM   24  C6  UNL     1      -7.019  45.641 -19.247  1.00  0.00    -0.007 C 
HETATM   25  C7  UNL     1      -7.132  45.135 -17.796  1.00  0.00     0.011 C 
BRANCH  24  26
HETATM   26  C5  UNL     1      -8.410  46.022 -19.781  1.00  0.00     0.087 C 
BRANCH  26  27
HETATM   27  C4  UNL     1      -9.065  47.279 -19.237  1.00  0.00     0.150 C 
HETATM   28  O1  UNL     1      -8.874  48.375 -19.757  1.00  0.00    -0.293 OA
BRANCH  27  29
HETATM   29  C3  UNL     1      -9.998  47.118 -18.084  1.00  0.00     0.063 C 
HETATM   30  C2  UNL     1     -11.322  47.362 -18.130  1.00  0.00     0.015 C 
HETATM   31  C1  UNL     1     -12.081  47.890 -19.314  1.00  0.00     0.055 C 
BRANCH  30  32
HETATM   32  C30 UNL     1     -12.147  47.118 -16.922  1.00  0.00     0.171 C 
HETATM   33  O3  UNL     1     -11.841  46.405 -15.985  1.00  0.00    -0.646 OA
BRANCH  32  34
HETATM   34  O4  UNL     1     -13.325  47.767 -16.926  1.00  0.00    -0.773 OA
HETATM   35  H44 UNL     1     -13.728  47.502 -16.073  1.00  0.00     0.167 HD
ENDBRANCH  32  34
ENDBRANCH  30  32
ENDBRANCH  27  29
ENDBRANCH  26  27
ENDBRANCH  24  26
ENDBRANCH   1  24
TORSDOF 6
ENDMDL
MODEL 8
REMARK minimizedAffinity -8.82413864
REMARK CNNscore 0.30313018
REMARK CNNaffinity 6.67404175
REMARK  6 active torsions:
REMARK  status: ('A' for Active; 'I' for Inactive)
REMARK    1  A    between atoms: C2_2  and  C30_32 
REMARK    2  A    between atoms: C3_3  and  C4_4 
REMARK    3  A    between atoms: C4_4  and  C5_6 
REMARK    4  A    between atoms: C5_6  and  C6_7 
REMARK    5  A    between atoms: C6_7  and  C8_9 
REMARK    6  A    between atoms: C30_32  and  O4_34 
ROOT
HETATM    1  C8  UNL     1      -4.113  47.951 -19.238  1.00  0.00    -0.001 C 
HETATM    2  C9  UNL     1      -4.172  49.411 -18.797  1.00  0.00     0.007 C 
HETATM    3  C10 UNL     1      -3.068  50.126 -19.578  1.00  0.00     0.015 C 
HETATM    4  C11 UNL     1      -2.488  49.127 -20.630  1.00  0.00    -0.013 C 
HETATM    5  C12 UNL     1      -1.143  48.559 -20.098  1.00  0.00     0.021 C 
HETATM    6  C13 UNL     1      -2.187  49.862 -21.953  1.00  0.00    -0.070 C 
HETATM    7  C14 UNL     1      -1.429  50.975 -21.964  1.00  0.00    -0.022 C 
HETATM    8  C15 UNL     1      -0.946  51.673 -23.191  1.00  0.00     0.034 C 
HETATM    9  C16 UNL     1      -1.067  50.843 -24.492  1.00  0.00     0.013 C 
HETATM   10  C17 UNL     1      -0.707  51.685 -25.776  1.00  0.00     0.018 C 
HETATM   11  C18 UNL     1       0.183  52.915 -25.497  1.00  0.00     0.023 C 
HETATM   12  C19 UNL     1       0.073  50.813 -26.787  1.00  0.00     0.023 C 
HETATM   13  C20 UNL     1      -1.987  52.214 -26.434  1.00  0.00     0.135 C 
HETATM   14  O2  UNL     1      -2.032  52.511 -27.629  1.00  0.00    -0.297 OA
HETATM   15  C21 UNL     1      -3.177  52.466 -25.537  1.00  0.00     0.080 C 
HETATM   16  C22 UNL     1      -3.566  51.256 -24.688  1.00  0.00     0.017 C 
HETATM   17  C23 UNL     1      -2.477  50.151 -24.551  1.00  0.00    -0.031 C 
HETATM   18  C24 UNL     1      -2.604  49.197 -25.768  1.00  0.00     0.016 C 
HETATM   19  C25 UNL     1      -2.680  49.251 -23.251  1.00  0.00     0.024 C 
HETATM   20  C26 UNL     1      -4.117  48.683 -23.144  1.00  0.00     0.010 C 
HETATM   21  C27 UNL     1      -4.663  48.495 -21.729  1.00  0.00     0.011 C 
HETATM   22  C28 UNL     1      -3.608  48.014 -20.720  1.00  0.00    -0.029 C 
HETATM   23  C29 UNL     1      -3.101  46.619 -21.141  1.00  0.00     0.016 C 
ENDROOT
BRANCH   1  24
HETATM   24  C6  UNL     1      -5.298  47.034 -18.816  1.00  0.00    -0.007 C 
HETATM   25  C7  UNL     1      -5.365  46.948 -17.279  1.00  0.00     0.011 C 
BRANCH  24  26
HETATM   26  C5  UNL     1      -6.708  47.242 -19.393  1.00  0.00     0.087 C 
BRANCH  26  27
HETATM   27  C4  UNL     1      -7.511  48.436 -18.908  1.00  0.00     0.150 C 
HETATM   28  O1  UNL     1      -7.391  49.541 -19.430  1.00  0.00    -0.293 OA
BRANCH  27  29
HETATM   29  C3  UNL     1      -8.494  48.198 -17.812  1.00  0.00     0.063 C 
HETATM   30  C2  UNL     1      -9.805  47.949 -17.999  1.00  0.00     0.015 C 
HETATM   31  C1  UNL     1     -10.518  47.925 -19.322  1.00  0.00     0.055 C 
BRANCH  30  32
HETATM   32  C30 UNL     1     -10.669  47.684 -16.824  1.00  0.00     0.171 C 
HETATM   33  O3  UNL     1     -11.869  47.480 -16.855  1.00  0.00    -0.646 OA
BRANCH  32  34
HETATM   34  O4  UNL     1     -10.012  47.687 -15.651  1.00  0.00    -0.773 OA
HETATM   35  H44 UNL     1     -10.717  47.496 -14.999  1.00  0.00     0.167 HD
ENDBRANCH  32  34
ENDBRANCH  30  32
ENDBRANCH  27  29
ENDBRANCH  26  27
ENDBRANCH  24  26
ENDBRANCH   1  24
TORSDOF 6
ENDMDL
MODEL 9
REMARK minimizedAffinity -8.34105873
REMARK CNNscore 0.279793292
REMARK CNNaffinity 6.19796801
REMARK  6 active torsions:
REMARK  status: ('A' for Active; 'I' for Inactive)
REMARK    1  A    between atoms: C2_2  and  C30_32 
REMARK    2  A    between atoms: C3_3  and  C4_4 
REMARK    3  A    between atoms: C4_4  and  C5_6 
REMARK    4  A    between atoms: C5_6  and  C6_7 
REMARK    5  A    between atoms: C6_7  and  C8_9 
REMARK    6  A    between atoms: C30_32  and  O4_34 
ROOT
HETATM    1  C8  UNL     1      -0.574  49.948 -18.746  1.00  0.00    -0.001 C 
HETATM    2  C9  UNL     1      -0.280  50.902 -19.900  1.00  0.00     0.007 C 
HETATM    3  C10 UNL     1      -0.881  50.245 -21.145  1.00  0.00     0.015 C 
HETATM    4  C11 UNL     1      -1.705  48.999 -20.690  1.00  0.00    -0.013 C 
HETATM    5  C12 UNL     1      -0.868  47.717 -20.952  1.00  0.00     0.021 C 
HETATM    6  C13 UNL     1      -2.999  48.883 -21.524  1.00  0.00    -0.070 C 
HETATM    7  C14 UNL     1      -2.952  48.891 -22.869  1.00  0.00    -0.022 C 
HETATM    8  C15 UNL     1      -4.111  48.629 -23.771  1.00  0.00     0.034 C 
HETATM    9  C16 UNL     1      -5.335  47.985 -23.074  1.00  0.00     0.013 C 
HETATM   10  C17 UNL     1      -6.588  47.890 -24.027  1.00  0.00     0.018 C 
HETATM   11  C18 UNL     1      -6.240  47.919 -25.531  1.00  0.00     0.023 C 
HETATM   12  C19 UNL     1      -7.342  46.563 -23.788  1.00  0.00     0.023 C 
HETATM   13  C20 UNL     1      -7.532  49.072 -23.775  1.00  0.00     0.135 C 
HETATM   14  O2  UNL     1      -8.732  49.017 -24.047  1.00  0.00    -0.297 OA
HETATM   15  C21 UNL     1      -6.917  50.359 -23.277  1.00  0.00     0.080 C 
HETATM   16  C22 UNL     1      -6.064  50.181 -22.021  1.00  0.00     0.017 C 
HETATM   17  C23 UNL     1      -5.617  48.721 -21.713  1.00  0.00    -0.031 C 
HETATM   18  C24 UNL     1      -6.749  48.031 -20.906  1.00  0.00     0.016 C 
HETATM   19  C25 UNL     1      -4.313  48.661 -20.798  1.00  0.00     0.024 C 
HETATM   20  C26 UNL     1      -4.449  49.522 -19.519  1.00  0.00     0.010 C 
HETATM   21  C27 UNL     1      -3.162  50.159 -18.995  1.00  0.00     0.011 C 
HETATM   22  C28 UNL     1      -1.924  49.261 -19.145  1.00  0.00    -0.029 C 
HETATM   23  C29 UNL     1      -2.114  47.987 -18.295  1.00  0.00     0.016 C 
ENDROOT
BRANCH   1  24
HETATM   24  C6  UNL     1      -0.322  50.480 -17.304  1.00  0.00    -0.007 C 
HETATM   25  C7  UNL     1      -0.451  49.323 -16.294  1.00  0.00     0.011 C 
BRANCH  24  26
HETATM   26  C5  UNL     1       0.917  51.329 -16.976  1.00  0.00     0.087 C 
BRANCH  26  27
HETATM   27  C4  UNL     1       1.178  51.683 -15.524  1.00  0.00     0.150 C 
HETATM   28  O1  UNL     1       0.352  52.304 -14.860  1.00  0.00    -0.293 OA
BRANCH  27  29
HETATM   29  C3  UNL     1       2.450  51.194 -14.919  1.00  0.00     0.063 C 
HETATM   30  C2  UNL     1       2.536  50.201 -14.012  1.00  0.00     0.015 C 
HETATM   31  C1  UNL     1       1.379  49.456 -13.408  1.00  0.00     0.055 C 
BRANCH  30  32
HETATM   32  C30 UNL     1       3.870  49.778 -13.522  1.00  0.00     0.171 C 
HETATM   33  O3  UNL     1       4.925  49.933 -14.110  1.00  0.00    -0.646 OA
BRANCH  32  34
HETATM   34  O4  UNL     1       3.844  49.174 -12.322  1.00  0.00    -0.773 OA
HETATM   35  H44 UNL     1       4.788  48.970 -12.154  1.00  0.00     0.167 HD
ENDBRANCH  32  34
ENDBRANCH  30  32
ENDBRANCH  27  29
ENDBRANCH  26  27
ENDBRANCH  24  26
ENDBRANCH   1  24
TORSDOF 6
ENDMDL
