MODEL 1
REMARK minimizedAffinity -8.46653652
REMARK CNNscore 0.667021453
REMARK CNNaffinity 6.97617579
REMARK  10 active torsions:
REMARK  status: ('A' for Active; 'I' for Inactive)
REMARK    1  A    between atoms: C3_3  and  C4_4 
REMARK    2  A    between atoms: C4_4  and  O1_5 
REMARK    3  A    between atoms: C5_6  and  C6_7 
REMARK    4  A    between atoms: C6_7  and  O2_8 
REMARK    5  A    between atoms: C6_7  and  C7_9 
REMARK    6  A    between atoms: C7_9  and  O3_11 
REMARK    7  A    between atoms: C7_9  and  C9_12 
REMARK    8  A    between atoms: C16_20  and  C17_21 
REMARK    9  A    between atoms: C39_46  and  C40_47 
REMARK   10  A    between atoms: C40_47  and  O8_48 
ROOT
HETATM    1  C9  UNL     1       5.808  48.970  -8.221  1.00  0.00     0.034 C 
HETATM    2  C10 UNL     1       4.557  48.741  -7.326  1.00  0.00     0.012 C 
HETATM    3  C11 UNL     1       3.989  50.135  -6.999  1.00  0.00     0.044 C 
HETATM    4  C12 UNL     1       4.537  51.044  -8.117  1.00  0.00     0.093 C 
HETATM    5  O4  UNL     1       3.947  50.740  -9.405  1.00  0.00    -0.363 OA
HETATM    6  C13 UNL     1       2.546  50.500  -9.540  1.00  0.00     0.263 C 
HETATM    7  C14 UNL     1       1.807  51.672 -10.018  1.00  0.00    -0.080 C 
HETATM    8  C15 UNL     1       1.135  52.567 -10.467  1.00  0.00    -0.093 C 
HETATM    9  C16 UNL     1       0.316  53.653 -11.059  1.00  0.00     0.121 C 
HETATM   10  C23 UNL     1       0.597  55.024 -10.399  1.00  0.00     0.190 C 
HETATM   11  O5  UNL     1       1.808  55.636 -10.872  1.00  0.00    -0.384 OA
HETATM   12  C24 UNL     1       2.974  55.249 -10.146  1.00  0.00     0.122 C 
HETATM   13  C25 UNL     1       4.208  55.515 -11.013  1.00  0.00     0.033 C 
HETATM   14  C26 UNL     1       5.514  55.602 -10.210  1.00  0.00     0.013 C 
HETATM   15  C27 UNL     1       5.468  54.883  -8.829  1.00  0.00    -0.026 C 
HETATM   16  C28 UNL     1       6.778  55.249  -8.075  1.00  0.00     0.016 C 
HETATM   17  C29 UNL     1       4.302  55.513  -8.004  1.00  0.00     0.071 C 
HETATM   18  C30 UNL     1       3.094  55.994  -8.823  1.00  0.00     0.045 C 
HETATM   19  C31 UNL     1       3.830  54.641  -6.858  1.00  0.00     0.154 C 
HETATM   20  O6  UNL     1       3.313  55.120  -5.850  1.00  0.00    -0.293 OA
HETATM   21  C32 UNL     1       3.904  53.175  -6.972  1.00  0.00     0.057 C 
HETATM   22  C33 UNL     1       4.552  52.559  -7.971  1.00  0.00    -0.036 C 
HETATM   23  C34 UNL     1       5.333  53.312  -9.056  1.00  0.00     0.026 C 
HETATM   24  C35 UNL     1       6.707  52.645  -9.391  1.00  0.00     0.011 C 
HETATM   25  C36 UNL     1       6.700  51.111  -9.429  1.00  0.00     0.014 C 
HETATM   26  C37 UNL     1       6.031  50.526  -8.164  1.00  0.00    -0.002 C 
HETATM   27  C38 UNL     1       6.852  50.937  -6.912  1.00  0.00     0.019 C 
ENDROOT
BRANCH   1  28
HETATM   28  C7  UNL     1       7.012  47.978  -8.002  1.00  0.00     0.087 C 
HETATM   29  C8  UNL     1       6.576  46.537  -7.659  1.00  0.00     0.049 C 
BRANCH  28  30
HETATM   30  C6  UNL     1       7.948  47.994  -9.283  1.00  0.00     0.181 C 
BRANCH  30  31
HETATM   31  C5  UNL     1       9.470  48.108  -8.961  1.00  0.00     0.160 C 
HETATM   32  C3  UNL     1      10.469  47.438  -9.916  1.00  0.00     0.047 C 
HETATM   33  C2  UNL     1      10.670  46.066  -9.276  1.00  0.00     0.021 C 
HETATM   34  C1  UNL     1      11.965  45.358  -9.663  1.00  0.00     0.013 C 
HETATM   35  C39 UNL     1      10.624  46.419  -7.793  1.00  0.00     0.149 C 
HETATM   36  O7  UNL     1       9.751  47.566  -7.649  1.00  0.00    -0.375 OA
BRANCH  32  37
HETATM   37  C4  UNL     1      10.078  47.426 -11.388  1.00  0.00     0.172 C 
BRANCH  37  38
HETATM   38  O1  UNL     1       9.802  48.743 -11.848  1.00  0.00    -0.400 OA
HETATM   39  H8  UNL     1       9.031  49.078 -11.358  1.00  0.00     0.209 HD
ENDBRANCH  37  38
ENDBRANCH  32  37
BRANCH  35  40
HETATM   40  C40 UNL     1      10.101  45.286  -6.914  1.00  0.00     0.196 C 
BRANCH  40  41
HETATM   41  O8  UNL     1       9.335  45.828  -5.837  1.00  0.00    -0.398 OA
HETATM   42  H54 UNL     1       8.759  46.508  -6.243  1.00  0.00     0.209 HD
ENDBRANCH  40  41
ENDBRANCH  35  40
ENDBRANCH  30  31
BRANCH  30  43
HETATM   43  O2  UNL     1       7.690  46.867 -10.126  1.00  0.00    -0.390 OA
HETATM   44  H11 UNL     1       6.790  46.958 -10.484  1.00  0.00     0.210 HD
ENDBRANCH  30  43
ENDBRANCH  28  30
BRANCH  28  45
HETATM   45  O3  UNL     1       7.763  48.470  -6.884  1.00  0.00    -0.387 OA
HETATM   46  H15 UNL     1       8.446  47.801  -6.682  1.00  0.00     0.210 HD
ENDBRANCH  28  45
ENDBRANCH   1  28
BRANCH   9  47
HETATM   47  C17 UNL     1      -1.166  53.316 -10.968  1.00  0.00    -0.040 A 
HETATM   48  C18 UNL     1      -2.092  54.227 -10.431  1.00  0.00     0.008 A 
HETATM   49  C19 UNL     1      -3.449  53.913 -10.392  1.00  0.00     0.001 A 
HETATM   50  C20 UNL     1      -3.901  52.690 -10.878  1.00  0.00     0.000 A 
HETATM   51  C21 UNL     1      -2.994  51.776 -11.407  1.00  0.00     0.001 A 
HETATM   52  C22 UNL     1      -1.634  52.084 -11.452  1.00  0.00     0.008 A 
ENDBRANCH   9  47
TORSDOF 10
ENDMDL
MODEL 2
REMARK minimizedAffinity -8.74712563
REMARK CNNscore 0.572107852
REMARK CNNaffinity 6.53350592
REMARK  10 active torsions:
REMARK  status: ('A' for Active; 'I' for Inactive)
REMARK    1  A    between atoms: C3_3  and  C4_4 
REMARK    2  A    between atoms: C4_4  and  O1_5 
REMARK    3  A    between atoms: C5_6  and  C6_7 
REMARK    4  A    between atoms: C6_7  and  O2_8 
REMARK    5  A    between atoms: C6_7  and  C7_9 
REMARK    6  A    between atoms: C7_9  and  O3_11 
REMARK    7  A    between atoms: C7_9  and  C9_12 
REMARK    8  A    between atoms: C16_20  and  C17_21 
REMARK    9  A    between atoms: C39_46  and  C40_47 
REMARK   10  A    between atoms: C40_47  and  O8_48 
ROOT
HETATM    1  C9  UNL     1     -12.846  44.906 -26.905  1.00  0.00     0.034 C 
HETATM    2  C10 UNL     1     -12.935  46.458 -26.863  1.00  0.00     0.012 C 
HETATM    3  C11 UNL     1     -14.333  46.805 -26.318  1.00  0.00     0.044 C 
HETATM    4  C12 UNL     1     -14.770  45.539 -25.555  1.00  0.00     0.093 C 
HETATM    5  O4  UNL     1     -13.989  45.329 -24.353  1.00  0.00    -0.363 OA
HETATM    6  C13 UNL     1     -13.676  46.411 -23.475  1.00  0.00     0.263 C 
HETATM    7  C14 UNL     1     -14.561  46.476 -22.309  1.00  0.00    -0.080 C 
HETATM    8  C15 UNL     1     -15.203  46.564 -21.291  1.00  0.00    -0.093 C 
HETATM    9  C16 UNL     1     -15.964  46.645 -20.020  1.00  0.00     0.121 C 
HETATM   10  C23 UNL     1     -17.489  46.516 -20.242  1.00  0.00     0.190 C 
HETATM   11  O5  UNL     1     -17.913  45.158 -20.446  1.00  0.00    -0.384 OA
HETATM   12  C24 UNL     1     -17.861  44.734 -21.807  1.00  0.00     0.122 C 
HETATM   13  C25 UNL     1     -17.816  43.204 -21.847  1.00  0.00     0.033 C 
HETATM   14  C26 UNL     1     -18.236  42.613 -23.201  1.00  0.00     0.013 C 
HETATM   15  C27 UNL     1     -18.087  43.594 -24.403  1.00  0.00    -0.026 C 
HETATM   16  C28 UNL     1     -18.746  42.914 -25.637  1.00  0.00     0.016 C 
HETATM   17  C29 UNL     1     -18.946  44.859 -24.093  1.00  0.00     0.071 C 
HETATM   18  C30 UNL     1     -19.050  45.243 -22.609  1.00  0.00     0.045 C 
HETATM   19  C31 UNL     1     -18.555  46.073 -24.912  1.00  0.00     0.154 C 
HETATM   20  O6  UNL     1     -19.363  46.962 -25.179  1.00  0.00    -0.293 OA
HETATM   21  C32 UNL     1     -17.156  46.254 -25.333  1.00  0.00     0.057 C 
HETATM   22  C33 UNL     1     -16.230  45.296 -25.195  1.00  0.00    -0.036 C 
HETATM   23  C34 UNL     1     -16.542  43.898 -24.647  1.00  0.00     0.026 C 
HETATM   24  C35 UNL     1     -15.838  42.756 -25.451  1.00  0.00     0.011 C 
HETATM   25  C36 UNL     1     -14.402  43.059 -25.900  1.00  0.00     0.014 C 
HETATM   26  C37 UNL     1     -14.315  44.438 -26.595  1.00  0.00    -0.002 C 
HETATM   27  C38 UNL     1     -15.189  44.422 -27.878  1.00  0.00     0.019 C 
ENDROOT
BRANCH   1  28
HETATM   28  C7  UNL     1     -12.044  44.286 -28.110  1.00  0.00     0.087 C 
HETATM   29  C8  UNL     1     -12.445  44.861 -29.486  1.00  0.00     0.049 C 
BRANCH  28  30
HETATM   30  C6  UNL     1     -10.488  44.465 -27.856  1.00  0.00     0.181 C 
BRANCH  30  31
HETATM   31  C5  UNL     1      -9.823  45.576 -28.726  1.00  0.00     0.160 C 
HETATM   32  C3  UNL     1      -8.289  45.634 -28.785  1.00  0.00     0.047 C 
HETATM   33  C2  UNL     1      -7.952  46.624 -27.673  1.00  0.00     0.021 C 
HETATM   34  C1  UNL     1      -6.588  47.297 -27.800  1.00  0.00     0.013 C 
HETATM   35  C39 UNL     1      -9.101  47.618 -27.798  1.00  0.00     0.149 C 
HETATM   36  O7  UNL     1     -10.253  46.886 -28.288  1.00  0.00    -0.375 OA
BRANCH  32  37
HETATM   37  C4  UNL     1      -7.568  44.295 -28.715  1.00  0.00     0.172 C 
BRANCH  37  38
HETATM   38  O1  UNL     1      -6.781  44.082 -29.881  1.00  0.00    -0.400 OA
HETATM   39  H8  UNL     1      -7.382  44.036 -30.645  1.00  0.00     0.209 HD
ENDBRANCH  37  38
ENDBRANCH  32  37
BRANCH  35  40
HETATM   40  C40 UNL     1      -9.470  48.292 -26.479  1.00  0.00     0.196 C 
BRANCH  40  41
HETATM   41  O8  UNL     1      -9.327  49.707 -26.606  1.00  0.00    -0.398 OA
HETATM   42  H54 UNL     1      -9.739  49.935 -27.463  1.00  0.00     0.209 HD
ENDBRANCH  40  41
ENDBRANCH  35  40
ENDBRANCH  30  31
BRANCH  30  43
HETATM   43  O2  UNL     1     -10.211  44.673 -26.468  1.00  0.00    -0.390 OA
HETATM   44  H11 UNL     1     -10.441  43.857 -25.990  1.00  0.00     0.210 HD
ENDBRANCH  30  43
ENDBRANCH  28  30
BRANCH  28  45
HETATM   45  O3  UNL     1     -12.342  42.883 -28.136  1.00  0.00    -0.387 OA
HETATM   46  H15 UNL     1     -11.931  42.518 -28.943  1.00  0.00     0.210 HD
ENDBRANCH  28  45
ENDBRANCH   1  28
BRANCH   9  47
HETATM   47  C17 UNL     1     -15.643  47.941 -19.287  1.00  0.00    -0.040 A 
HETATM   48  C18 UNL     1     -14.457  48.650 -19.542  1.00  0.00     0.008 A 
HETATM   49  C19 UNL     1     -14.200  49.853 -18.887  1.00  0.00     0.001 A 
HETATM   50  C20 UNL     1     -15.113  50.361 -17.968  1.00  0.00     0.000 A 
HETATM   51  C21 UNL     1     -16.289  49.665 -17.701  1.00  0.00     0.001 A 
HETATM   52  C22 UNL     1     -16.554  48.461 -18.354  1.00  0.00     0.008 A 
ENDBRANCH   9  47
TORSDOF 10
ENDMDL
MODEL 3
REMARK minimizedAffinity -8.23815632
REMARK CNNscore 0.506797075
REMARK CNNaffinity 6.84704256
REMARK  10 active torsions:
REMARK  status: ('A' for Active; 'I' for Inactive)
REMARK    1  A    between atoms: C3_3  and  C4_4 
REMARK    2  A    between atoms: C4_4  and  O1_5 
REMARK    3  A    between atoms: C5_6  and  C6_7 
REMARK    4  A    between atoms: C6_7  and  O2_8 
REMARK    5  A    between atoms: C6_7  and  C7_9 
REMARK    6  A    between atoms: C7_9  and  O3_11 
REMARK    7  A    between atoms: C7_9  and  C9_12 
REMARK    8  A    between atoms: C16_20  and  C17_21 
REMARK    9  A    between atoms: C39_46  and  C40_47 
REMARK   10  A    between atoms: C40_47  and  O8_48 
ROOT
HETATM    1  C9  UNL     1       6.180  49.913  -8.195  1.00  0.00     0.034 C 
HETATM    2  C10 UNL     1       5.087  49.361  -7.236  1.00  0.00     0.012 C 
HETATM    3  C11 UNL     1       4.191  50.554  -6.856  1.00  0.00     0.044 C 
HETATM    4  C12 UNL     1       4.414  51.576  -7.988  1.00  0.00     0.093 C 
HETATM    5  O4  UNL     1       3.853  51.127  -9.247  1.00  0.00    -0.363 OA
HETATM    6  C13 UNL     1       2.560  50.525  -9.308  1.00  0.00     0.263 C 
HETATM    7  C14 UNL     1       1.511  51.459  -9.726  1.00  0.00    -0.080 C 
HETATM    8  C15 UNL     1       0.601  52.144 -10.123  1.00  0.00    -0.093 C 
HETATM    9  C16 UNL     1      -0.509  52.974 -10.652  1.00  0.00     0.121 C 
HETATM   10  C23 UNL     1      -0.563  54.370  -9.987  1.00  0.00     0.190 C 
HETATM   11  O5  UNL     1       0.413  55.282 -10.516  1.00  0.00    -0.384 OA
HETATM   12  C24 UNL     1       1.679  55.217  -9.862  1.00  0.00     0.122 C 
HETATM   13  C25 UNL     1       2.747  55.801 -10.791  1.00  0.00     0.033 C 
HETATM   14  C26 UNL     1       4.027  56.231 -10.059  1.00  0.00     0.013 C 
HETATM   15  C27 UNL     1       4.252  55.525  -8.689  1.00  0.00    -0.026 C 
HETATM   16  C28 UNL     1       5.460  56.224  -8.002  1.00  0.00     0.016 C 
HETATM   17  C29 UNL     1       3.010  55.822  -7.792  1.00  0.00     0.071 C 
HETATM   18  C30 UNL     1       1.674  55.966  -8.536  1.00  0.00     0.045 C 
HETATM   19  C31 UNL     1       2.853  54.855  -6.635  1.00  0.00     0.154 C 
HETATM   20  O6  UNL     1       2.285  55.180  -5.593  1.00  0.00    -0.293 OA
HETATM   21  C32 UNL     1       3.305  53.462  -6.776  1.00  0.00     0.057 C 
HETATM   22  C33 UNL     1       4.035  53.041  -7.819  1.00  0.00    -0.036 C 
HETATM   23  C34 UNL     1       4.525  53.974  -8.933  1.00  0.00     0.026 C 
HETATM   24  C35 UNL     1       6.005  53.696  -9.354  1.00  0.00     0.011 C 
HETATM   25  C36 UNL     1       6.403  52.216  -9.416  1.00  0.00     0.014 C 
HETATM   26  C37 UNL     1       5.986  51.473  -8.126  1.00  0.00    -0.002 C 
HETATM   27  C38 UNL     1       6.739  52.086  -6.914  1.00  0.00     0.019 C 
ENDROOT
BRANCH   1  28
HETATM   28  C7  UNL     1       7.614  49.277  -8.058  1.00  0.00     0.087 C 
HETATM   29  C8  UNL     1       7.906  48.697  -6.657  1.00  0.00     0.049 C 
BRANCH  28  30
HETATM   30  C6  UNL     1       7.809  48.170  -9.178  1.00  0.00     0.181 C 
BRANCH  30  31
HETATM   31  C5  UNL     1       8.881  47.092  -8.831  1.00  0.00     0.160 C 
HETATM   32  C3  UNL     1       9.850  46.644  -9.936  1.00  0.00     0.047 C 
HETATM   33  C2  UNL     1       9.144  45.424 -10.521  1.00  0.00     0.021 C 
HETATM   34  C1  UNL     1      10.051  44.450 -11.266  1.00  0.00     0.013 C 
HETATM   35  C39 UNL     1       8.532  44.804  -9.270  1.00  0.00     0.149 C 
HETATM   36  O7  UNL     1       8.246  45.885  -8.348  1.00  0.00    -0.375 OA
BRANCH  32  37
HETATM   37  C4  UNL     1      10.254  47.715 -10.941  1.00  0.00     0.172 C 
BRANCH  37  38
HETATM   38  O1  UNL     1      11.186  48.623 -10.365  1.00  0.00    -0.400 OA
HETATM   39  H8  UNL     1      10.743  49.083  -9.631  1.00  0.00     0.209 HD
ENDBRANCH  37  38
ENDBRANCH  32  37
BRANCH  35  40
HETATM   40  C40 UNL     1       7.243  44.031  -9.540  1.00  0.00     0.196 C 
BRANCH  40  41
HETATM   41  O8  UNL     1       6.468  44.719 -10.522  1.00  0.00    -0.398 OA
HETATM   42  H54 UNL     1       7.100  44.975 -11.222  1.00  0.00     0.209 HD
ENDBRANCH  40  41
ENDBRANCH  35  40
ENDBRANCH  30  31
BRANCH  30  43
HETATM   43  O2  UNL     1       6.563  47.556  -9.521  1.00  0.00    -0.390 OA
HETATM   44  H11 UNL     1       6.001  48.230  -9.942  1.00  0.00     0.210 HD
ENDBRANCH  30  43
ENDBRANCH  28  30
BRANCH  28  45
HETATM   45  O3  UNL     1       8.564  50.327  -8.286  1.00  0.00    -0.387 OA
HETATM   46  H15 UNL     1       9.449  49.959  -8.098  1.00  0.00     0.210 HD
ENDBRANCH  28  45
ENDBRANCH   1  28
BRANCH   9  47
HETATM   47  C17 UNL     1      -1.841  52.256 -10.485  1.00  0.00    -0.040 A 
HETATM   48  C18 UNL     1      -1.996  51.208  -9.561  1.00  0.00     0.008 A 
HETATM   49  C19 UNL     1      -3.233  50.589  -9.397  1.00  0.00     0.001 A 
HETATM   50  C20 UNL     1      -4.328  50.997 -10.154  1.00  0.00     0.000 A 
HETATM   51  C21 UNL     1      -4.187  52.029 -11.077  1.00  0.00     0.001 A 
HETATM   52  C22 UNL     1      -2.952  52.656 -11.245  1.00  0.00     0.008 A 
ENDBRANCH   9  47
TORSDOF 10
ENDMDL
MODEL 4
REMARK minimizedAffinity -9.2919836
REMARK CNNscore 0.423164934
REMARK CNNaffinity 7.22357607
REMARK  10 active torsions:
REMARK  status: ('A' for Active; 'I' for Inactive)
REMARK    1  A    between atoms: C3_3  and  C4_4 
REMARK    2  A    between atoms: C4_4  and  O1_5 
REMARK    3  A    between atoms: C5_6  and  C6_7 
REMARK    4  A    between atoms: C6_7  and  O2_8 
REMARK    5  A    between atoms: C6_7  and  C7_9 
REMARK    6  A    between atoms: C7_9  and  O3_11 
REMARK    7  A    between atoms: C7_9  and  C9_12 
REMARK    8  A    between atoms: C16_20  and  C17_21 
REMARK    9  A    between atoms: C39_46  and  C40_47 
REMARK   10  A    between atoms: C40_47  and  O8_48 
ROOT
HETATM    1  C9  UNL     1      -4.507  49.953 -22.699  1.00  0.00     0.034 C 
HETATM    2  C10 UNL     1      -4.338  50.282 -21.188  1.00  0.00     0.012 C 
HETATM    3  C11 UNL     1      -5.336  49.388 -20.429  1.00  0.00     0.044 C 
HETATM    4  C12 UNL     1      -5.619  48.222 -21.396  1.00  0.00     0.093 C 
HETATM    5  O4  UNL     1      -4.465  47.362 -21.565  1.00  0.00    -0.363 OA
HETATM    6  C13 UNL     1      -3.671  46.960 -20.449  1.00  0.00     0.263 C 
HETATM    7  C14 UNL     1      -4.000  45.615 -19.966  1.00  0.00    -0.080 C 
HETATM    8  C15 UNL     1      -4.164  44.496 -19.548  1.00  0.00    -0.093 C 
HETATM    9  C16 UNL     1      -4.336  43.105 -19.061  1.00  0.00     0.121 C 
HETATM   10  C23 UNL     1      -5.825  42.734 -18.864  1.00  0.00     0.190 C 
HETATM   11  O5  UNL     1      -6.492  42.419 -20.097  1.00  0.00    -0.384 OA
HETATM   12  C24 UNL     1      -7.049  43.553 -20.759  1.00  0.00     0.122 C 
HETATM   13  C25 UNL     1      -7.253  43.212 -22.238  1.00  0.00     0.033 C 
HETATM   14  C26 UNL     1      -8.259  44.131 -22.946  1.00  0.00     0.013 C 
HETATM   15  C27 UNL     1      -8.455  45.517 -22.262  1.00  0.00    -0.026 C 
HETATM   16  C28 UNL     1      -9.643  46.221 -22.977  1.00  0.00     0.016 C 
HETATM   17  C29 UNL     1      -8.921  45.261 -20.795  1.00  0.00     0.071 C 
HETATM   18  C30 UNL     1      -8.368  43.987 -20.136  1.00  0.00     0.045 C 
HETATM   19  C31 UNL     1      -8.711  46.447 -19.876  1.00  0.00     0.154 C 
HETATM   20  O6  UNL     1      -9.416  46.631 -18.884  1.00  0.00    -0.293 OA
HETATM   21  C32 UNL     1      -7.584  47.366 -20.109  1.00  0.00     0.057 C 
HETATM   22  C33 UNL     1      -6.833  47.322 -21.218  1.00  0.00    -0.036 C 
HETATM   23  C34 UNL     1      -7.108  46.359 -22.381  1.00  0.00     0.026 C 
HETATM   24  C35 UNL     1      -6.960  47.038 -23.782  1.00  0.00     0.011 C 
HETATM   25  C36 UNL     1      -5.793  48.026 -23.913  1.00  0.00     0.014 C 
HETATM   26  C37 UNL     1      -5.784  49.036 -22.742  1.00  0.00    -0.002 C 
HETATM   27  C38 UNL     1      -7.088  49.879 -22.782  1.00  0.00     0.019 C 
ENDROOT
BRANCH   1  28
HETATM   28  C7  UNL     1      -4.352  51.160 -23.698  1.00  0.00     0.087 C 
HETATM   29  C8  UNL     1      -4.345  52.541 -23.007  1.00  0.00     0.049 C 
BRANCH  28  30
HETATM   30  C6  UNL     1      -3.042  50.959 -24.569  1.00  0.00     0.181 C 
BRANCH  30  31
HETATM   31  C5  UNL     1      -2.763  52.115 -25.579  1.00  0.00     0.160 C 
HETATM   32  C3  UNL     1      -2.359  51.747 -27.015  1.00  0.00     0.047 C 
HETATM   33  C2  UNL     1      -0.834  51.751 -26.942  1.00  0.00     0.021 C 
HETATM   34  C1  UNL     1      -0.125  51.938 -28.280  1.00  0.00     0.013 C 
HETATM   35  C39 UNL     1      -0.584  52.912 -25.987  1.00  0.00     0.149 C 
HETATM   36  O7  UNL     1      -1.714  52.978 -25.082  1.00  0.00    -0.375 OA
BRANCH  32  37
HETATM   37  C4  UNL     1      -2.987  50.480 -27.579  1.00  0.00     0.172 C 
BRANCH  37  38
HETATM   38  O1  UNL     1      -3.438  50.689 -28.913  1.00  0.00    -0.400 OA
HETATM   39  H8  UNL     1      -4.141  51.362 -28.891  1.00  0.00     0.209 HD
ENDBRANCH  37  38
ENDBRANCH  32  37
BRANCH  35  40
HETATM   40  C40 UNL     1       0.696  52.763 -25.168  1.00  0.00     0.196 C 
BRANCH  40  41
HETATM   41  O8  UNL     1       1.822  52.693 -26.044  1.00  0.00    -0.398 OA
HETATM   42  H54 UNL     1       1.683  53.400 -26.704  1.00  0.00     0.209 HD
ENDBRANCH  40  41
ENDBRANCH  35  40
ENDBRANCH  30  31
BRANCH  30  43
HETATM   43  O2  UNL     1      -1.900  50.723 -23.740  1.00  0.00    -0.390 OA
HETATM   44  H11 UNL     1      -2.026  49.867 -23.292  1.00  0.00     0.210 HD
ENDBRANCH  30  43
ENDBRANCH  28  30
BRANCH  28  45
HETATM   45  O3  UNL     1      -5.488  51.131 -24.572  1.00  0.00    -0.387 OA
HETATM   46  H15 UNL     1      -5.448  51.938 -25.121  1.00  0.00     0.210 HD
ENDBRANCH  28  45
ENDBRANCH   1  28
BRANCH   9  47
HETATM   47  C17 UNL     1      -3.560  42.891 -17.768  1.00  0.00    -0.040 A 
HETATM   48  C18 UNL     1      -2.358  42.164 -17.749  1.00  0.00     0.008 A 
HETATM   49  C19 UNL     1      -1.644  42.012 -16.563  1.00  0.00     0.001 A 
HETATM   50  C20 UNL     1      -2.119  42.573 -15.381  1.00  0.00     0.000 A 
HETATM   51  C21 UNL     1      -3.312  43.290 -15.385  1.00  0.00     0.001 A 
HETATM   52  C22 UNL     1      -4.031  43.449 -16.570  1.00  0.00     0.008 A 
ENDBRANCH   9  47
TORSDOF 10
ENDMDL
MODEL 5
REMARK minimizedAffinity -8.38796616
REMARK CNNscore 0.343988806
REMARK CNNaffinity 5.64577913
REMARK  10 active torsions:
REMARK  status: ('A' for Active; 'I' for Inactive)
REMARK    1  A    between atoms: C3_3  and  C4_4 
REMARK    2  A    between atoms: C4_4  and  O1_5 
REMARK    3  A    between atoms: C5_6  and  C6_7 
REMARK    4  A    between atoms: C6_7  and  O2_8 
REMARK    5  A    between atoms: C6_7  and  C7_9 
REMARK    6  A    between atoms: C7_9  and  O3_11 
REMARK    7  A    between atoms: C7_9  and  C9_12 
REMARK    8  A    between atoms: C16_20  and  C17_21 
REMARK    9  A    between atoms: C39_46  and  C40_47 
REMARK   10  A    between atoms: C40_47  and  O8_48 
ROOT
HETATM    1  C9  UNL     1     -11.909  46.044 -26.595  1.00  0.00     0.034 C 
HETATM    2  C10 UNL     1     -11.724  44.544 -26.958  1.00  0.00     0.012 C 
HETATM    3  C11 UNL     1     -12.913  43.790 -26.334  1.00  0.00     0.044 C 
HETATM    4  C12 UNL     1     -13.994  44.871 -26.142  1.00  0.00     0.093 C 
HETATM    5  O4  UNL     1     -14.526  45.341 -27.405  1.00  0.00    -0.363 OA
HETATM    6  C13 UNL     1     -14.851  44.431 -28.456  1.00  0.00     0.263 C 
HETATM    7  C14 UNL     1     -16.280  44.117 -28.521  1.00  0.00    -0.080 C 
HETATM    8  C15 UNL     1     -17.447  43.856 -28.684  1.00  0.00    -0.093 C 
HETATM    9  C16 UNL     1     -18.885  43.569 -28.910  1.00  0.00     0.121 C 
HETATM   10  C23 UNL     1     -19.623  43.210 -27.599  1.00  0.00     0.190 C 
HETATM   11  O5  UNL     1     -19.946  44.363 -26.804  1.00  0.00    -0.384 OA
HETATM   12  C24 UNL     1     -18.911  44.752 -25.903  1.00  0.00     0.122 C 
HETATM   13  C25 UNL     1     -19.120  46.218 -25.513  1.00  0.00     0.033 C 
HETATM   14  C26 UNL     1     -18.394  46.618 -24.220  1.00  0.00     0.013 C 
HETATM   15  C27 UNL     1     -17.185  45.707 -23.854  1.00  0.00    -0.026 C 
HETATM   16  C28 UNL     1     -16.710  46.120 -22.432  1.00  0.00     0.016 C 
HETATM   17  C29 UNL     1     -17.712  44.244 -23.729  1.00  0.00     0.071 C 
HETATM   18  C30 UNL     1     -18.881  43.879 -24.656  1.00  0.00     0.045 C 
HETATM   19  C31 UNL     1     -16.623  43.196 -23.839  1.00  0.00     0.154 C 
HETATM   20  O6  UNL     1     -16.729  42.093 -23.302  1.00  0.00    -0.293 OA
HETATM   21  C32 UNL     1     -15.440  43.451 -24.677  1.00  0.00     0.057 C 
HETATM   22  C33 UNL     1     -15.174  44.654 -25.205  1.00  0.00    -0.036 C 
HETATM   23  C34 UNL     1     -16.035  45.896 -24.941  1.00  0.00     0.026 C 
HETATM   24  C35 UNL     1     -15.184  47.183 -24.681  1.00  0.00     0.011 C 
HETATM   25  C36 UNL     1     -13.937  47.334 -25.561  1.00  0.00     0.014 C 
HETATM   26  C37 UNL     1     -13.095  46.036 -25.561  1.00  0.00    -0.002 C 
HETATM   27  C38 UNL     1     -12.592  45.750 -24.121  1.00  0.00     0.019 C 
ENDROOT
BRANCH   1  28
HETATM   28  C7  UNL     1     -10.593  46.858 -26.299  1.00  0.00     0.087 C 
HETATM   29  C8  UNL     1      -9.565  46.087 -25.442  1.00  0.00     0.049 C 
BRANCH  28  30
HETATM   30  C6  UNL     1      -9.946  47.329 -27.668  1.00  0.00     0.181 C 
BRANCH  30  31
HETATM   31  C5  UNL     1      -9.334  46.172 -28.517  1.00  0.00     0.160 C 
HETATM   32  C3  UNL     1      -7.908  46.345 -29.064  1.00  0.00     0.047 C 
HETATM   33  C2  UNL     1      -8.155  46.927 -30.454  1.00  0.00     0.021 C 
HETATM   34  C1  UNL     1      -7.012  46.733 -31.445  1.00  0.00     0.013 C 
HETATM   35  C39 UNL     1      -9.416  46.179 -30.871  1.00  0.00     0.149 C 
HETATM   36  O7  UNL     1     -10.167  45.893 -29.665  1.00  0.00    -0.375 OA
BRANCH  32  37
HETATM   37  C4  UNL     1      -6.948  47.132 -28.183  1.00  0.00     0.172 C 
BRANCH  37  38
HETATM   38  O1  UNL     1      -6.811  48.469 -28.651  1.00  0.00    -0.400 OA
HETATM   39  H8  UNL     1      -6.413  48.437 -29.539  1.00  0.00     0.209 HD
ENDBRANCH  37  38
ENDBRANCH  32  37
BRANCH  35  40
HETATM   40  C40 UNL     1     -10.304  46.968 -31.830  1.00  0.00     0.196 C 
BRANCH  40  41
HETATM   41  O8  UNL     1     -11.644  46.991 -31.337  1.00  0.00    -0.398 OA
HETATM   42  H54 UNL     1     -11.567  47.192 -30.383  1.00  0.00     0.209 HD
ENDBRANCH  40  41
ENDBRANCH  35  40
ENDBRANCH  30  31
BRANCH  30  43
HETATM   43  O2  UNL     1     -10.875  48.092 -28.444  1.00  0.00    -0.390 OA
HETATM   44  H11 UNL     1     -11.058  48.920 -27.966  1.00  0.00     0.210 HD
ENDBRANCH  30  43
ENDBRANCH  28  30
BRANCH  28  45
HETATM   45  O3  UNL     1     -10.977  48.021 -25.553  1.00  0.00    -0.387 OA
HETATM   46  H15 UNL     1     -10.154  48.469 -25.278  1.00  0.00     0.210 HD
ENDBRANCH  28  45
ENDBRANCH   1  28
BRANCH   9  47
HETATM   47  C17 UNL     1     -19.053  42.455 -29.935  1.00  0.00    -0.040 A 
HETATM   48  C18 UNL     1     -19.287  41.127 -29.539  1.00  0.00     0.008 A 
HETATM   49  C19 UNL     1     -19.475  40.129 -30.494  1.00  0.00     0.001 A 
HETATM   50  C20 UNL     1     -19.426  40.437 -31.850  1.00  0.00     0.000 A 
HETATM   51  C21 UNL     1     -19.189  41.748 -32.256  1.00  0.00     0.001 A 
HETATM   52  C22 UNL     1     -19.001  42.752 -31.306  1.00  0.00     0.008 A 
ENDBRANCH   9  47
TORSDOF 10
ENDMDL
MODEL 6
REMARK minimizedAffinity -8.35109615
REMARK CNNscore 0.326388568
REMARK CNNaffinity 5.98099089
REMARK  10 active torsions:
REMARK  status: ('A' for Active; 'I' for Inactive)
REMARK    1  A    between atoms: C3_3  and  C4_4 
REMARK    2  A    between atoms: C4_4  and  O1_5 
REMARK    3  A    between atoms: C5_6  and  C6_7 
REMARK    4  A    between atoms: C6_7  and  O2_8 
REMARK    5  A    between atoms: C6_7  and  C7_9 
REMARK    6  A    between atoms: C7_9  and  O3_11 
REMARK    7  A    between atoms: C7_9  and  C9_12 
REMARK    8  A    between atoms: C16_20  and  C17_21 
REMARK    9  A    between atoms: C39_46  and  C40_47 
REMARK   10  A    between atoms: C40_47  and  O8_48 
ROOT
HETATM    1  C9  UNL     1     -11.826  45.672 -27.535  1.00  0.00     0.034 C 
HETATM    2  C10 UNL     1     -12.262  47.157 -27.385  1.00  0.00     0.012 C 
HETATM    3  C11 UNL     1     -13.707  47.141 -26.853  1.00  0.00     0.044 C 
HETATM    4  C12 UNL     1     -13.855  45.756 -26.192  1.00  0.00     0.093 C 
HETATM    5  O4  UNL     1     -13.057  45.638 -24.989  1.00  0.00    -0.363 OA
HETATM    6  C13 UNL     1     -13.003  46.693 -24.029  1.00  0.00     0.263 C 
HETATM    7  C14 UNL     1     -13.890  46.472 -22.883  1.00  0.00    -0.080 C 
HETATM    8  C15 UNL     1     -14.544  46.338 -21.878  1.00  0.00    -0.093 C 
HETATM    9  C16 UNL     1     -15.315  46.152 -20.624  1.00  0.00     0.121 C 
HETATM   10  C23 UNL     1     -16.770  45.702 -20.893  1.00  0.00     0.190 C 
HETATM   11  O5  UNL     1     -16.876  44.302 -21.203  1.00  0.00    -0.384 OA
HETATM   12  C24 UNL     1     -16.717  44.003 -22.589  1.00  0.00     0.122 C 
HETATM   13  C25 UNL     1     -16.330  42.529 -22.736  1.00  0.00     0.033 C 
HETATM   14  C26 UNL     1     -16.594  41.962 -24.138  1.00  0.00     0.013 C 
HETATM   15  C27 UNL     1     -16.659  43.037 -25.263  1.00  0.00    -0.026 C 
HETATM   16  C28 UNL     1     -17.137  42.321 -26.558  1.00  0.00     0.016 C 
HETATM   17  C29 UNL     1     -17.784  44.052 -24.887  1.00  0.00     0.071 C 
HETATM   18  C30 UNL     1     -17.984  44.292 -23.383  1.00  0.00     0.045 C 
HETATM   19  C31 UNL     1     -17.668  45.380 -25.608  1.00  0.00     0.154 C 
HETATM   20  O6  UNL     1     -18.654  46.083 -25.832  1.00  0.00    -0.293 OA
HETATM   21  C32 UNL     1     -16.343  45.901 -25.980  1.00  0.00     0.057 C 
HETATM   22  C33 UNL     1     -15.225  45.167 -25.887  1.00  0.00    -0.036 C 
HETATM   23  C34 UNL     1     -15.220  43.697 -25.447  1.00  0.00     0.026 C 
HETATM   24  C35 UNL     1     -14.270  42.805 -26.312  1.00  0.00     0.011 C 
HETATM   25  C36 UNL     1     -12.936  43.454 -26.702  1.00  0.00     0.014 C 
HETATM   26  C37 UNL     1     -13.155  44.865 -27.295  1.00  0.00    -0.002 C 
HETATM   27  C38 UNL     1     -13.992  44.750 -28.598  1.00  0.00     0.019 C 
ENDROOT
BRANCH   1  28
HETATM   28  C7  UNL     1     -10.895  45.338 -28.760  1.00  0.00     0.087 C 
HETATM   29  C8  UNL     1     -11.652  45.209 -30.099  1.00  0.00     0.049 C 
BRANCH  28  30
HETATM   30  C6  UNL     1      -9.748  46.430 -28.864  1.00  0.00     0.181 C 
BRANCH  30  31
HETATM   31  C5  UNL     1      -8.340  45.921 -28.425  1.00  0.00     0.160 C 
HETATM   32  C3  UNL     1      -7.405  46.901 -27.700  1.00  0.00     0.047 C 
HETATM   33  C2  UNL     1      -6.583  47.484 -28.847  1.00  0.00     0.021 C 
HETATM   34  C1  UNL     1      -5.241  48.082 -28.439  1.00  0.00     0.013 C 
HETATM   35  C39 UNL     1      -6.424  46.266 -29.751  1.00  0.00     0.149 C 
HETATM   36  O7  UNL     1      -7.599  45.437 -29.569  1.00  0.00    -0.375 OA
BRANCH  32  37
HETATM   37  C4  UNL     1      -8.080  47.918 -26.791  1.00  0.00     0.172 C 
BRANCH  37  38
HETATM   38  O1  UNL     1      -7.264  48.208 -25.663  1.00  0.00    -0.400 OA
HETATM   39  H8  UNL     1      -7.167  47.391 -25.143  1.00  0.00     0.209 HD
ENDBRANCH  37  38
ENDBRANCH  32  37
BRANCH  35  40
HETATM   40  C40 UNL     1      -6.292  46.618 -31.230  1.00  0.00     0.196 C 
BRANCH  40  41
HETATM   41  O8  UNL     1      -5.303  45.785 -31.836  1.00  0.00    -0.398 OA
HETATM   42  H54 UNL     1      -5.488  44.881 -31.511  1.00  0.00     0.209 HD
ENDBRANCH  40  41
ENDBRANCH  35  40
ENDBRANCH  30  31
BRANCH  30  43
HETATM   43  O2  UNL     1      -9.696  47.001 -30.174  1.00  0.00    -0.390 OA
HETATM   44  H11 UNL     1     -10.519  47.502 -30.318  1.00  0.00     0.210 HD
ENDBRANCH  30  43
ENDBRANCH  28  30
BRANCH  28  45
HETATM   45  O3  UNL     1     -10.289  44.066 -28.493  1.00  0.00    -0.387 OA
HETATM   46  H15 UNL     1      -9.796  43.810 -29.296  1.00  0.00     0.210 HD
ENDBRANCH  28  45
ENDBRANCH   1  28
BRANCH   9  47
HETATM   47  C17 UNL     1     -15.300  47.428 -19.793  1.00  0.00    -0.040 A 
HETATM   48  C18 UNL     1     -16.280  47.676 -18.817  1.00  0.00     0.008 A 
HETATM   49  C19 UNL     1     -16.226  48.832 -18.042  1.00  0.00     0.001 A 
HETATM   50  C20 UNL     1     -15.204  49.758 -18.231  1.00  0.00     0.000 A 
HETATM   51  C21 UNL     1     -14.230  49.528 -19.199  1.00  0.00     0.001 A 
HETATM   52  C22 UNL     1     -14.276  48.371 -19.978  1.00  0.00     0.008 A 
ENDBRANCH   9  47
TORSDOF 10
ENDMDL
MODEL 7
REMARK minimizedAffinity -10.3808374
REMARK CNNscore 0.313701063
REMARK CNNaffinity 7.18362379
REMARK  10 active torsions:
REMARK  status: ('A' for Active; 'I' for Inactive)
REMARK    1  A    between atoms: C3_3  and  C4_4 
REMARK    2  A    between atoms: C4_4  and  O1_5 
REMARK    3  A    between atoms: C5_6  and  C6_7 
REMARK    4  A    between atoms: C6_7  and  O2_8 
REMARK    5  A    between atoms: C6_7  and  C7_9 
REMARK    6  A    between atoms: C7_9  and  O3_11 
REMARK    7  A    between atoms: C7_9  and  C9_12 
REMARK    8  A    between atoms: C16_20  and  C17_21 
REMARK    9  A    between atoms: C39_46  and  C40_47 
REMARK   10  A    between atoms: C40_47  and  O8_48 
ROOT
HETATM    1  C9  UNL     1      -2.614  50.218 -22.688  1.00  0.00     0.034 C 
HETATM    2  C10 UNL     1      -3.243  51.471 -22.015  1.00  0.00     0.012 C 
HETATM    3  C11 UNL     1      -4.104  50.957 -20.846  1.00  0.00     0.044 C 
HETATM    4  C12 UNL     1      -3.525  49.565 -20.526  1.00  0.00     0.093 C 
HETATM    5  O4  UNL     1      -2.198  49.646 -19.950  1.00  0.00    -0.363 OA
HETATM    6  C13 UNL     1      -1.886  50.608 -18.942  1.00  0.00     0.263 C 
HETATM    7  C14 UNL     1      -1.916  50.048 -17.587  1.00  0.00    -0.080 C 
HETATM    8  C15 UNL     1      -1.857  49.654 -16.449  1.00  0.00    -0.093 C 
HETATM    9  C16 UNL     1      -1.742  49.160 -15.054  1.00  0.00     0.121 C 
HETATM   10  C23 UNL     1      -2.946  48.278 -14.646  1.00  0.00     0.190 C 
HETATM   11  O5  UNL     1      -2.859  46.939 -15.161  1.00  0.00    -0.384 OA
HETATM   12  C24 UNL     1      -3.418  46.784 -16.465  1.00  0.00     0.122 C 
HETATM   13  C25 UNL     1      -2.830  45.525 -17.109  1.00  0.00     0.033 C 
HETATM   14  C26 UNL     1      -3.671  44.982 -18.273  1.00  0.00     0.013 C 
HETATM   15  C27 UNL     1      -4.601  46.038 -18.942  1.00  0.00    -0.026 C 
HETATM   16  C28 UNL     1      -5.519  45.278 -19.941  1.00  0.00     0.016 C 
HETATM   17  C29 UNL     1      -5.542  46.610 -17.836  1.00  0.00     0.071 C 
HETATM   18  C30 UNL     1      -4.937  46.689 -16.426  1.00  0.00     0.045 C 
HETATM   19  C31 UNL     1      -6.167  47.941 -18.202  1.00  0.00     0.154 C 
HETATM   20  O6  UNL     1      -7.250  48.298 -17.737  1.00  0.00    -0.293 OA
HETATM   21  C32 UNL     1      -5.436  48.884 -19.065  1.00  0.00     0.057 C 
HETATM   22  C33 UNL     1      -4.312  48.548 -19.713  1.00  0.00    -0.036 C 
HETATM   23  C34 UNL     1      -3.709  47.137 -19.674  1.00  0.00     0.026 C 
HETATM   24  C35 UNL     1      -3.205  46.651 -21.071  1.00  0.00     0.011 C 
HETATM   25  C36 UNL     1      -2.508  47.718 -21.925  1.00  0.00     0.014 C 
HETATM   26  C37 UNL     1      -3.352  49.012 -21.998  1.00  0.00    -0.002 C 
HETATM   27  C38 UNL     1      -4.707  48.703 -22.690  1.00  0.00     0.019 C 
ENDROOT
BRANCH   1  28
HETATM   28  C7  UNL     1      -2.458  50.272 -24.254  1.00  0.00     0.087 C 
HETATM   29  C8  UNL     1      -2.648  48.905 -24.946  1.00  0.00     0.049 C 
BRANCH  28  30
HETATM   30  C6  UNL     1      -3.461  51.348 -24.848  1.00  0.00     0.181 C 
BRANCH  30  31
HETATM   31  C5  UNL     1      -2.822  52.304 -25.903  1.00  0.00     0.160 C 
HETATM   32  C3  UNL     1      -2.151  51.682 -27.137  1.00  0.00     0.047 C 
HETATM   33  C2  UNL     1      -0.694  51.564 -26.699  1.00  0.00     0.021 C 
HETATM   34  C1  UNL     1       0.317  51.478 -27.838  1.00  0.00     0.013 C 
HETATM   35  C39 UNL     1      -0.527  52.835 -25.872  1.00  0.00     0.149 C 
HETATM   36  O7  UNL     1      -1.816  53.139 -25.284  1.00  0.00    -0.375 OA
BRANCH  32  37
HETATM   37  C4  UNL     1      -2.784  50.402 -27.665  1.00  0.00     0.172 C 
BRANCH  37  38
HETATM   38  O1  UNL     1      -3.476  50.645 -28.885  1.00  0.00    -0.400 OA
HETATM   39  H8  UNL     1      -4.206  51.261 -28.699  1.00  0.00     0.209 HD
ENDBRANCH  37  38
ENDBRANCH  32  37
BRANCH  35  40
HETATM   40  C40 UNL     1       0.506  52.704 -24.756  1.00  0.00     0.196 C 
BRANCH  40  41
HETATM   41  O8  UNL     1       1.002  53.997 -24.406  1.00  0.00    -0.398 OA
HETATM   42  H54 UNL     1       0.213  54.572 -24.347  1.00  0.00     0.209 HD
ENDBRANCH  40  41
ENDBRANCH  35  40
ENDBRANCH  30  31
BRANCH  30  43
HETATM   43  O2  UNL     1      -4.636  50.725 -25.374  1.00  0.00    -0.390 OA
HETATM   44  H11 UNL     1      -5.123  50.325 -24.631  1.00  0.00     0.210 HD
ENDBRANCH  30  43
ENDBRANCH  28  30
BRANCH  28  45
HETATM   45  O3  UNL     1      -1.117  50.701 -24.528  1.00  0.00    -0.387 OA
HETATM   46  H15 UNL     1      -0.986  50.632 -25.494  1.00  0.00     0.210 HD
ENDBRANCH  28  45
ENDBRANCH   1  28
BRANCH   9  47
HETATM   47  C17 UNL     1      -1.586  50.324 -14.085  1.00  0.00    -0.040 A 
HETATM   48  C18 UNL     1      -2.583  50.631 -13.144  1.00  0.00     0.008 A 
HETATM   49  C19 UNL     1      -2.404  51.677 -12.241  1.00  0.00     0.001 A 
HETATM   50  C20 UNL     1      -1.236  52.435 -12.268  1.00  0.00     0.000 A 
HETATM   51  C21 UNL     1      -0.243  52.145 -13.200  1.00  0.00     0.001 A 
HETATM   52  C22 UNL     1      -0.415  51.098 -14.105  1.00  0.00     0.008 A 
ENDBRANCH   9  47
TORSDOF 10
ENDMDL
MODEL 8
REMARK minimizedAffinity -8.99256039
REMARK CNNscore 0.28753823
REMARK CNNaffinity 6.35260153
REMARK  10 active torsions:
REMARK  status: ('A' for Active; 'I' for Inactive)
REMARK    1  A    between atoms: C3_3  and  C4_4 
REMARK    2  A    between atoms: C4_4  and  O1_5 
REMARK    3  A    between atoms: C5_6  and  C6_7 
REMARK    4  A    between atoms: C6_7  and  O2_8 
REMARK    5  A    between atoms: C6_7  and  C7_9 
REMARK    6  A    between atoms: C7_9  and  O3_11 
REMARK    7  A    between atoms: C7_9  and  C9_12 
REMARK    8  A    between atoms: C16_20  and  C17_21 
REMARK    9  A    between atoms: C39_46  and  C40_47 
REMARK   10  A    between atoms: C40_47  and  O8_48 
ROOT
HETATM    1  C9  UNL     1     -12.554  45.220 -28.108  1.00  0.00     0.034 C 
HETATM    2  C10 UNL     1     -13.458  46.151 -28.965  1.00  0.00     0.012 C 
HETATM    3  C11 UNL     1     -12.521  47.154 -29.663  1.00  0.00     0.044 C 
HETATM    4  C12 UNL     1     -11.146  46.458 -29.662  1.00  0.00     0.093 C 
HETATM    5  O4  UNL     1     -11.117  45.307 -30.542  1.00  0.00    -0.363 OA
HETATM    6  C13 UNL     1     -11.697  45.357 -31.846  1.00  0.00     0.263 C 
HETATM    7  C14 UNL     1     -10.710  45.588 -32.904  1.00  0.00    -0.080 C 
HETATM    8  C15 UNL     1      -9.958  45.712 -33.839  1.00  0.00    -0.093 C 
HETATM    9  C16 UNL     1      -9.029  45.821 -34.991  1.00  0.00     0.121 C 
HETATM   10  C23 UNL     1      -7.981  46.941 -34.792  1.00  0.00     0.190 C 
HETATM   11  O5  UNL     1      -6.905  46.555 -33.920  1.00  0.00    -0.384 OA
HETATM   12  C24 UNL     1      -7.165  46.800 -32.539  1.00  0.00     0.122 C 
HETATM   13  C25 UNL     1      -6.243  45.912 -31.697  1.00  0.00     0.033 C 
HETATM   14  C26 UNL     1      -6.071  46.403 -30.252  1.00  0.00     0.013 C 
HETATM   15  C27 UNL     1      -7.225  47.316 -29.742  1.00  0.00    -0.026 C 
HETATM   16  C28 UNL     1      -6.789  47.883 -28.361  1.00  0.00     0.016 C 
HETATM   17  C29 UNL     1      -7.323  48.540 -30.704  1.00  0.00     0.071 C 
HETATM   18  C30 UNL     1      -6.960  48.263 -32.171  1.00  0.00     0.045 C 
HETATM   19  C31 UNL     1      -8.654  49.263 -30.633  1.00  0.00     0.154 C 
HETATM   20  O6  UNL     1      -8.757  50.458 -30.905  1.00  0.00    -0.293 OA
HETATM   21  C32 UNL     1      -9.881  48.512 -30.317  1.00  0.00     0.057 C 
HETATM   22  C33 UNL     1      -9.861  47.241 -29.894  1.00  0.00    -0.036 C 
HETATM   23  C34 UNL     1      -8.566  46.460 -29.636  1.00  0.00     0.026 C 
HETATM   24  C35 UNL     1      -8.619  45.609 -28.325  1.00  0.00     0.011 C 
HETATM   25  C36 UNL     1      -9.957  44.912 -28.049  1.00  0.00     0.014 C 
HETATM   26  C37 UNL     1     -11.138  45.901 -28.181  1.00  0.00    -0.002 C 
HETATM   27  C38 UNL     1     -10.991  47.022 -27.116  1.00  0.00     0.019 C 
ENDROOT
BRANCH   1  28
HETATM   28  C7  UNL     1     -13.147  44.749 -26.728  1.00  0.00     0.087 C 
HETATM   29  C8  UNL     1     -12.197  44.976 -25.533  1.00  0.00     0.049 C 
BRANCH  28  30
HETATM   30  C6  UNL     1     -14.543  45.462 -26.482  1.00  0.00     0.181 C 
BRANCH  30  31
HETATM   31  C5  UNL     1     -15.650  44.521 -25.913  1.00  0.00     0.160 C 
HETATM   32  C3  UNL     1     -16.736  44.011 -26.873  1.00  0.00     0.047 C 
HETATM   33  C2  UNL     1     -17.846  45.045 -26.695  1.00  0.00     0.021 C 
HETATM   34  C1  UNL     1     -19.240  44.569 -27.092  1.00  0.00     0.013 C 
HETATM   35  C39 UNL     1     -17.740  45.345 -25.204  1.00  0.00     0.149 C 
HETATM   36  O7  UNL     1     -16.352  45.166 -24.826  1.00  0.00    -0.375 OA
BRANCH  32  37
HETATM   37  C4  UNL     1     -16.294  43.761 -28.308  1.00  0.00     0.172 C 
BRANCH  37  38
HETATM   38  O1  UNL     1     -17.205  44.351 -29.228  1.00  0.00    -0.400 OA
HETATM   39  H8  UNL     1     -18.067  43.912 -29.121  1.00  0.00     0.209 HD
ENDBRANCH  37  38
ENDBRANCH  32  37
BRANCH  35  40
HETATM   40  C40 UNL     1     -18.173  46.761 -24.835  1.00  0.00     0.196 C 
BRANCH  40  41
HETATM   41  O8  UNL     1     -19.593  46.874 -24.946  1.00  0.00    -0.398 OA
HETATM   42  H54 UNL     1     -19.952  46.071 -24.520  1.00  0.00     0.209 HD
ENDBRANCH  40  41
ENDBRANCH  35  40
ENDBRANCH  30  31
BRANCH  30  43
HETATM   43  O2  UNL     1     -14.392  46.623 -25.660  1.00  0.00    -0.390 OA
HETATM   44  H11 UNL     1     -13.871  47.278 -26.157  1.00  0.00     0.210 HD
ENDBRANCH  30  43
ENDBRANCH  28  30
BRANCH  28  45
HETATM   45  O3  UNL     1     -13.371  43.335 -26.826  1.00  0.00    -0.387 OA
HETATM   46  H15 UNL     1     -13.637  43.025 -25.940  1.00  0.00     0.210 HD
ENDBRANCH  28  45
ENDBRANCH   1  28
BRANCH   9  47
HETATM   47  C17 UNL     1      -9.803  46.043 -36.283  1.00  0.00    -0.040 A 
HETATM   48  C18 UNL     1      -9.270  46.812 -37.331  1.00  0.00     0.008 A 
HETATM   49  C19 UNL     1      -9.978  46.971 -38.521  1.00  0.00     0.001 A 
HETATM   50  C20 UNL     1     -11.226  46.375 -38.680  1.00  0.00     0.000 A 
HETATM   51  C21 UNL     1     -11.767  45.614 -37.647  1.00  0.00     0.001 A 
HETATM   52  C22 UNL     1     -11.063  45.449 -36.454  1.00  0.00     0.008 A 
ENDBRANCH   9  47
TORSDOF 10
ENDMDL
MODEL 9
REMARK minimizedAffinity -8.71528625
REMARK CNNscore 0.276876986
REMARK CNNaffinity 6.27155447
REMARK  10 active torsions:
REMARK  status: ('A' for Active; 'I' for Inactive)
REMARK    1  A    between atoms: C3_3  and  C4_4 
REMARK    2  A    between atoms: C4_4  and  O1_5 
REMARK    3  A    between atoms: C5_6  and  C6_7 
REMARK    4  A    between atoms: C6_7  and  O2_8 
REMARK    5  A    between atoms: C6_7  and  C7_9 
REMARK    6  A    between atoms: C7_9  and  O3_11 
REMARK    7  A    between atoms: C7_9  and  C9_12 
REMARK    8  A    between atoms: C16_20  and  C17_21 
REMARK    9  A    between atoms: C39_46  and  C40_47 
REMARK   10  A    between atoms: C40_47  and  O8_48 
ROOT
HETATM    1  C9  UNL     1     -13.730  46.482 -25.005  1.00  0.00     0.034 C 
HETATM    2  C10 UNL     1     -12.948  45.502 -24.085  1.00  0.00     0.012 C 
HETATM    3  C11 UNL     1     -11.722  45.029 -24.887  1.00  0.00     0.044 C 
HETATM    4  C12 UNL     1     -11.518  46.123 -25.954  1.00  0.00     0.093 C 
HETATM    5  O4  UNL     1     -11.072  47.374 -25.375  1.00  0.00    -0.363 OA
HETATM    6  C13 UNL     1     -10.061  47.405 -24.367  1.00  0.00     0.263 C 
HETATM    7  C14 UNL     1      -8.735  47.733 -24.896  1.00  0.00    -0.080 C 
HETATM    8  C15 UNL     1      -7.624  48.058 -25.238  1.00  0.00    -0.093 C 
HETATM    9  C16 UNL     1      -6.269  48.499 -25.651  1.00  0.00     0.121 C 
HETATM   10  C23 UNL     1      -5.780  47.770 -26.924  1.00  0.00     0.190 C 
HETATM   11  O5  UNL     1      -6.355  48.300 -28.130  1.00  0.00    -0.384 OA
HETATM   12  C24 UNL     1      -7.602  47.706 -28.486  1.00  0.00     0.122 C 
HETATM   13  C25 UNL     1      -8.352  48.654 -29.426  1.00  0.00     0.033 C 
HETATM   14  C26 UNL     1      -9.448  47.961 -30.249  1.00  0.00     0.013 C 
HETATM   15  C27 UNL     1      -9.978  46.636 -29.626  1.00  0.00    -0.026 C 
HETATM   16  C28 UNL     1     -10.912  45.973 -30.678  1.00  0.00     0.016 C 
HETATM   17  C29 UNL     1      -8.763  45.672 -29.454  1.00  0.00     0.071 C 
HETATM   18  C30 UNL     1      -7.418  46.349 -29.151  1.00  0.00     0.045 C 
HETATM   19  C31 UNL     1      -9.011  44.555 -28.461  1.00  0.00     0.154 C 
HETATM   20  O6  UNL     1      -8.428  43.474 -28.543  1.00  0.00    -0.293 OA
HETATM   21  C32 UNL     1      -9.903  44.779 -27.311  1.00  0.00     0.057 C 
HETATM   22  C33 UNL     1     -10.672  45.870 -27.195  1.00  0.00    -0.036 C 
HETATM   23  C34 UNL     1     -10.750  46.962 -28.270  1.00  0.00     0.026 C 
HETATM   24  C35 UNL     1     -12.209  47.460 -28.528  1.00  0.00     0.011 C 
HETATM   25  C36 UNL     1     -13.084  47.607 -27.277  1.00  0.00     0.014 C 
HETATM   26  C37 UNL     1     -13.020  46.334 -26.401  1.00  0.00    -0.002 C 
HETATM   27  C38 UNL     1     -13.587  45.131 -27.202  1.00  0.00     0.019 C 
ENDROOT
BRANCH   1  28
HETATM   28  C7  UNL     1     -15.301  46.438 -24.896  1.00  0.00     0.087 C 
HETATM   29  C8  UNL     1     -16.002  45.978 -26.192  1.00  0.00     0.049 C 
BRANCH  28  30
HETATM   30  C6  UNL     1     -15.719  45.520 -23.672  1.00  0.00     0.181 C 
BRANCH  30  31
HETATM   31  C5  UNL     1     -16.761  46.172 -22.711  1.00  0.00     0.160 C 
HETATM   32  C3  UNL     1     -17.328  45.320 -21.565  1.00  0.00     0.047 C 
HETATM   33  C2  UNL     1     -18.600  44.741 -22.180  1.00  0.00     0.021 C 
HETATM   34  C1  UNL     1     -19.652  44.284 -21.174  1.00  0.00     0.013 C 
HETATM   35  C39 UNL     1     -19.081  45.912 -23.029  1.00  0.00     0.149 C 
HETATM   36  O7  UNL     1     -17.906  46.648 -23.455  1.00  0.00    -0.375 OA
BRANCH  32  37
HETATM   37  C4  UNL     1     -16.372  44.304 -20.954  1.00  0.00     0.172 C 
BRANCH  37  38
HETATM   38  O1  UNL     1     -15.561  44.911 -19.954  1.00  0.00    -0.400 OA
HETATM   39  H8  UNL     1     -15.010  45.589 -20.385  1.00  0.00     0.209 HD
ENDBRANCH  37  38
ENDBRANCH  32  37
BRANCH  35  40
HETATM   40  C40 UNL     1     -19.870  45.486 -24.264  1.00  0.00     0.196 C 
BRANCH  40  41
HETATM   41  O8  UNL     1     -20.030  46.601 -25.142  1.00  0.00    -0.398 OA
HETATM   42  H54 UNL     1     -19.151  47.029 -25.183  1.00  0.00     0.209 HD
ENDBRANCH  40  41
ENDBRANCH  35  40
ENDBRANCH  30  31
BRANCH  30  43
HETATM   43  O2  UNL     1     -16.172  44.239 -24.118  1.00  0.00    -0.390 OA
HETATM   44  H11 UNL     1     -15.416  43.775 -24.520  1.00  0.00     0.210 HD
ENDBRANCH  30  43
ENDBRANCH  28  30
BRANCH  28  45
HETATM   45  O3  UNL     1     -15.742  47.777 -24.630  1.00  0.00    -0.387 OA
HETATM   46  H15 UNL     1     -16.717  47.770 -24.668  1.00  0.00     0.210 HD
ENDBRANCH  28  45
ENDBRANCH   1  28
BRANCH   9  47
HETATM   47  C17 UNL     1      -5.274  48.306 -24.515  1.00  0.00    -0.040 A 
HETATM   48  C18 UNL     1      -5.671  47.767 -23.279  1.00  0.00     0.008 A 
HETATM   49  C19 UNL     1      -4.738  47.563 -22.266  1.00  0.00     0.001 A 
HETATM   50  C20 UNL     1      -3.402  47.900 -22.464  1.00  0.00     0.000 A 
HETATM   51  C21 UNL     1      -2.996  48.441 -23.681  1.00  0.00     0.001 A 
HETATM   52  C22 UNL     1      -3.925  48.645 -24.701  1.00  0.00     0.008 A 
ENDBRANCH   9  47
TORSDOF 10
ENDMDL
