MODEL 1
REMARK minimizedAffinity -10.2057762
REMARK  7 active torsions:
REMARK  status: ('A' for Active; 'I' for Inactive)
REMARK    1  A    between atoms: O1_2  and  C2_3 
REMARK    2  A    between atoms: C2_3  and  C3_5 
REMARK    3  A    between atoms: C5_7  and  C6_8 
REMARK    4  A    between atoms: C6_8  and  C7_9 
REMARK    5  A    between atoms: C7_9  and  C8_10 
REMARK    6  A    between atoms: C8_10  and  C10_12 
REMARK    7  A    between atoms: C17_19  and  O3_20 
ROOT
HETATM    1  C10 UNL     1      -3.037   7.395  15.105  1.00  0.00    -0.002 C 
HETATM    2  C11 UNL     1      -2.674   5.951  15.482  1.00  0.00     0.007 C 
HETATM    3  C12 UNL     1      -1.486   5.618  14.602  1.00  0.00     0.015 C 
HETATM    4  C13 UNL     1      -1.885   6.152  13.207  1.00  0.00    -0.005 C 
HETATM    5  C14 UNL     1      -2.912   5.174  12.560  1.00  0.00     0.021 C 
HETATM    6  C15 UNL     1      -0.641   6.264  12.294  1.00  0.00     0.002 C 
HETATM    7  C16 UNL     1      -0.151   7.416  11.769  1.00  0.00    -0.032 C 
HETATM    8  C17 UNL     1      -0.767   8.741  12.195  1.00  0.00     0.149 C 
HETATM    9  C18 UNL     1      -1.527   8.669  13.520  1.00  0.00     0.047 C 
HETATM   10  C19 UNL     1      -2.589   7.538  13.577  1.00  0.00    -0.026 C 
HETATM   11  C20 UNL     1      -3.740   7.881  12.603  1.00  0.00     0.016 C 
HETATM   12  C21 UNL     1       1.064   7.499  10.776  1.00  0.00    -0.012 C 
HETATM   13  C22 UNL     1       0.681   8.458   9.621  1.00  0.00     0.021 C 
HETATM   14  C23 UNL     1       2.287   8.071  11.542  1.00  0.00     0.021 C 
HETATM   15  C24 UNL     1       3.571   8.097  10.728  1.00  0.00     0.080 C 
HETATM   16  C25 UNL     1       3.904   6.728  10.185  1.00  0.00     0.135 C 
HETATM   17  O4  UNL     1       5.035   6.266  10.336  1.00  0.00    -0.297 OA
HETATM   18  C26 UNL     1       2.814   6.001   9.385  1.00  0.00     0.018 C 
HETATM   19  C27 UNL     1       2.738   6.629   7.975  1.00  0.00     0.023 C 
HETATM   20  C28 UNL     1       3.260   4.533   9.162  1.00  0.00     0.023 C 
HETATM   21  C29 UNL     1       1.441   6.085  10.181  1.00  0.00     0.020 C 
HETATM   22  C30 UNL     1       1.419   5.046  11.308  1.00  0.00     0.090 C 
HETATM   23  C31 UNL     1       0.106   4.990  12.030  1.00  0.00     0.157 C 
HETATM   24  O5  UNL     1      -0.284   3.908  12.466  1.00  0.00    -0.293 OA
ENDROOT
BRANCH   1  25
HETATM   25  C8  UNL     1      -4.484   7.778  15.537  1.00  0.00    -0.014 C 
HETATM   26  C9  UNL     1      -5.004   9.010  14.767  1.00  0.00     0.010 C 
BRANCH  25  27
HETATM   27  C7  UNL     1      -5.520   6.635  15.405  1.00  0.00     0.008 C 
BRANCH  27  28
HETATM   28  C6  UNL     1      -6.225   6.534  14.046  1.00  0.00     0.028 C 
BRANCH  28  29
HETATM   29  C5  UNL     1      -6.295   5.101  13.589  1.00  0.00    -0.014 C 
HETATM   30  C3  UNL     1      -7.313   4.498  12.941  1.00  0.00     0.009 C 
HETATM   31  C4  UNL     1      -8.617   5.147  12.568  1.00  0.00     0.054 C 
BRANCH  30  32
HETATM   32  C2  UNL     1      -7.224   3.062  12.520  1.00  0.00     0.288 C 
HETATM   33  O2  UNL     1      -8.036   2.214  12.868  1.00  0.00    -0.260 OA
BRANCH  32  34
HETATM   34  O1  UNL     1      -6.141   2.833  11.733  1.00  0.00    -0.323 OA
HETATM   35  C1  UNL     1      -6.004   1.474  11.316  1.00  0.00     0.213 C 
ENDBRANCH  32  34
ENDBRANCH  30  32
ENDBRANCH  28  29
ENDBRANCH  27  28
ENDBRANCH  25  27
ENDBRANCH   1  25
BRANCH   8  36
HETATM   36  O3  UNL     1      -1.616   9.212  11.158  1.00  0.00    -0.391 OA
HETATM   37  H25 UNL     1      -1.983  10.065  11.444  1.00  0.00     0.210 HD
ENDBRANCH   8  36
TORSDOF 7
ENDMDL
MODEL 2
REMARK minimizedAffinity -9.81770802
REMARK  7 active torsions:
REMARK  status: ('A' for Active; 'I' for Inactive)
REMARK    1  A    between atoms: O1_2  and  C2_3 
REMARK    2  A    between atoms: C2_3  and  C3_5 
REMARK    3  A    between atoms: C5_7  and  C6_8 
REMARK    4  A    between atoms: C6_8  and  C7_9 
REMARK    5  A    between atoms: C7_9  and  C8_10 
REMARK    6  A    between atoms: C8_10  and  C10_12 
REMARK    7  A    between atoms: C17_19  and  O3_20 
ROOT
HETATM    1  C10 UNL     1       0.472   7.774  11.952  1.00  0.00    -0.002 C 
HETATM    2  C11 UNL     1       0.366   6.806  10.765  1.00  0.00     0.007 C 
HETATM    3  C12 UNL     1      -1.026   6.216  10.881  1.00  0.00     0.015 C 
HETATM    4  C13 UNL     1      -1.171   5.880  12.382  1.00  0.00    -0.005 C 
HETATM    5  C14 UNL     1      -0.362   4.585  12.696  1.00  0.00     0.021 C 
HETATM    6  C15 UNL     1      -2.659   5.654  12.745  1.00  0.00     0.002 C 
HETATM    7  C16 UNL     1      -3.381   6.410  13.612  1.00  0.00    -0.032 C 
HETATM    8  C17 UNL     1      -2.752   7.667  14.194  1.00  0.00     0.149 C 
HETATM    9  C18 UNL     1      -1.579   8.206  13.374  1.00  0.00     0.047 C 
HETATM   10  C19 UNL     1      -0.484   7.148  13.070  1.00  0.00    -0.026 C 
HETATM   11  C20 UNL     1       0.233   6.775  14.388  1.00  0.00     0.016 C 
HETATM   12  C21 UNL     1      -4.866   6.114  14.031  1.00  0.00    -0.012 C 
HETATM   13  C22 UNL     1      -4.973   6.263  15.569  1.00  0.00     0.021 C 
HETATM   14  C23 UNL     1      -5.787   7.156  13.342  1.00  0.00     0.021 C 
HETATM   15  C24 UNL     1      -7.272   6.915  13.569  1.00  0.00     0.080 C 
HETATM   16  C25 UNL     1      -7.672   5.522  13.146  1.00  0.00     0.135 C 
HETATM   17  O4  UNL     1      -8.646   5.360  12.411  1.00  0.00    -0.297 OA
HETATM   18  C26 UNL     1      -6.875   4.349  13.735  1.00  0.00     0.018 C 
HETATM   19  C27 UNL     1      -7.335   4.125  15.193  1.00  0.00     0.023 C 
HETATM   20  C28 UNL     1      -7.265   3.056  12.973  1.00  0.00     0.023 C 
HETATM   21  C29 UNL     1      -5.323   4.661  13.610  1.00  0.00     0.020 C 
HETATM   22  C30 UNL     1      -4.839   4.378  12.184  1.00  0.00     0.090 C 
HETATM   23  C31 UNL     1      -3.357   4.541  12.022  1.00  0.00     0.157 C 
HETATM   24  O5  UNL     1      -2.764   3.811  11.229  1.00  0.00    -0.293 OA
ENDROOT
BRANCH   1  25
HETATM   25  C8  UNL     1       1.947   8.137  12.295  1.00  0.00    -0.014 C 
HETATM   26  C9  UNL     1       2.082   8.689  13.730  1.00  0.00     0.010 C 
BRANCH  25  27
HETATM   27  C7  UNL     1       2.955   6.975  12.113  1.00  0.00     0.008 C 
BRANCH  27  28
HETATM   28  C6  UNL     1       3.981   7.160  10.987  1.00  0.00     0.028 C 
BRANCH  28  29
HETATM   29  C5  UNL     1       3.602   6.340   9.783  1.00  0.00    -0.014 C 
HETATM   30  C3  UNL     1       3.134   6.791   8.600  1.00  0.00     0.009 C 
HETATM   31  C4  UNL     1       2.865   8.229   8.260  1.00  0.00     0.054 C 
BRANCH  30  32
HETATM   32  C2  UNL     1       2.827   5.847   7.476  1.00  0.00     0.288 C 
HETATM   33  O2  UNL     1       2.128   6.156   6.520  1.00  0.00    -0.260 OA
BRANCH  32  34
HETATM   34  O1  UNL     1       3.403   4.632   7.666  1.00  0.00    -0.323 OA
HETATM   35  C1  UNL     1       3.647   3.911   6.458  1.00  0.00     0.213 C 
ENDBRANCH  32  34
ENDBRANCH  30  32
ENDBRANCH  28  29
ENDBRANCH  27  28
ENDBRANCH  25  27
ENDBRANCH   1  25
BRANCH   8  36
HETATM   36  O3  UNL     1      -2.349   7.408  15.531  1.00  0.00    -0.391 OA
HETATM   37  H25 UNL     1      -1.968   8.228  15.887  1.00  0.00     0.210 HD
ENDBRANCH   8  36
TORSDOF 7
ENDMDL
MODEL 3
REMARK minimizedAffinity -9.53542328
REMARK  7 active torsions:
REMARK  status: ('A' for Active; 'I' for Inactive)
REMARK    1  A    between atoms: O1_2  and  C2_3 
REMARK    2  A    between atoms: C2_3  and  C3_5 
REMARK    3  A    between atoms: C5_7  and  C6_8 
REMARK    4  A    between atoms: C6_8  and  C7_9 
REMARK    5  A    between atoms: C7_9  and  C8_10 
REMARK    6  A    between atoms: C8_10  and  C10_12 
REMARK    7  A    between atoms: C17_19  and  O3_20 
ROOT
HETATM    1  C10 UNL     1       0.346   8.024  12.932  1.00  0.00    -0.002 C 
HETATM    2  C11 UNL     1       0.414   7.149  11.672  1.00  0.00     0.007 C 
HETATM    3  C12 UNL     1      -0.956   6.506  11.583  1.00  0.00     0.015 C 
HETATM    4  C13 UNL     1      -1.255   6.049  13.029  1.00  0.00    -0.005 C 
HETATM    5  C14 UNL     1      -0.433   4.761  13.337  1.00  0.00     0.021 C 
HETATM    6  C15 UNL     1      -2.763   5.746  13.200  1.00  0.00     0.002 C 
HETATM    7  C16 UNL     1      -3.609   6.408  14.032  1.00  0.00    -0.032 C 
HETATM    8  C17 UNL     1      -3.102   7.636  14.774  1.00  0.00     0.149 C 
HETATM    9  C18 UNL     1      -1.868   8.276  14.137  1.00  0.00     0.047 C 
HETATM   10  C19 UNL     1      -0.703   7.282  13.883  1.00  0.00    -0.026 C 
HETATM   11  C20 UNL     1      -0.124   6.830  15.243  1.00  0.00     0.016 C 
HETATM   12  C21 UNL     1      -5.118   6.031  14.254  1.00  0.00    -0.012 C 
HETATM   13  C22 UNL     1      -5.404   6.056  15.776  1.00  0.00     0.021 C 
HETATM   14  C23 UNL     1      -5.999   7.093  13.543  1.00  0.00     0.021 C 
HETATM   15  C24 UNL     1      -7.488   6.787  13.578  1.00  0.00     0.080 C 
HETATM   16  C25 UNL     1      -7.780   5.419  13.010  1.00  0.00     0.135 C 
HETATM   17  O4  UNL     1      -8.658   5.282  12.157  1.00  0.00    -0.297 OA
HETATM   18  C26 UNL     1      -7.006   4.230  13.598  1.00  0.00     0.018 C 
HETATM   19  C27 UNL     1      -7.617   3.877  14.973  1.00  0.00     0.023 C 
HETATM   20  C28 UNL     1      -7.254   2.988  12.704  1.00  0.00     0.023 C 
HETATM   21  C29 UNL     1      -5.464   4.602  13.677  1.00  0.00     0.020 C 
HETATM   22  C30 UNL     1      -4.812   4.447  12.298  1.00  0.00     0.090 C 
HETATM   23  C31 UNL     1      -3.329   4.671  12.321  1.00  0.00     0.157 C 
HETATM   24  O5  UNL     1      -2.621   4.025  11.550  1.00  0.00    -0.293 OA
ENDROOT
BRANCH   1  25
HETATM   25  C8  UNL     1       1.757   8.407  13.469  1.00  0.00    -0.014 C 
HETATM   26  C9  UNL     1       2.328   7.321  14.404  1.00  0.00     0.010 C 
BRANCH  25  27
HETATM   27  C7  UNL     1       2.802   8.717  12.369  1.00  0.00     0.008 C 
BRANCH  27  28
HETATM   28  C6  UNL     1       3.930   7.689  12.219  1.00  0.00     0.028 C 
BRANCH  28  29
HETATM   29  C5  UNL     1       3.556   6.633  11.215  1.00  0.00    -0.014 C 
HETATM   30  C3  UNL     1       3.447   6.777   9.877  1.00  0.00     0.009 C 
HETATM   31  C4  UNL     1       3.653   8.058   9.118  1.00  0.00     0.054 C 
BRANCH  30  32
HETATM   32  C2  UNL     1       3.093   5.616   8.997  1.00  0.00     0.288 C 
HETATM   33  O2  UNL     1       2.677   5.750   7.853  1.00  0.00    -0.260 OA
BRANCH  32  34
HETATM   34  O1  UNL     1       3.277   4.429   9.629  1.00  0.00    -0.323 OA
HETATM   35  C1  UNL     1       4.233   3.577   8.997  1.00  0.00     0.213 C 
ENDBRANCH  32  34
ENDBRANCH  30  32
ENDBRANCH  28  29
ENDBRANCH  27  28
ENDBRANCH  25  27
ENDBRANCH   1  25
BRANCH   8  36
HETATM   36  O3  UNL     1      -2.842   7.286  16.125  1.00  0.00    -0.391 OA
HETATM   37  H25 UNL     1      -2.537   8.088  16.582  1.00  0.00     0.210 HD
ENDBRANCH   8  36
TORSDOF 7
ENDMDL
MODEL 4
REMARK minimizedAffinity -9.44894981
REMARK  7 active torsions:
REMARK  status: ('A' for Active; 'I' for Inactive)
REMARK    1  A    between atoms: O1_2  and  C2_3 
REMARK    2  A    between atoms: C2_3  and  C3_5 
REMARK    3  A    between atoms: C5_7  and  C6_8 
REMARK    4  A    between atoms: C6_8  and  C7_9 
REMARK    5  A    between atoms: C7_9  and  C8_10 
REMARK    6  A    between atoms: C8_10  and  C10_12 
REMARK    7  A    between atoms: C17_19  and  O3_20 
ROOT
HETATM    1  C10 UNL     1      -3.973   7.579  14.192  1.00  0.00    -0.002 C 
HETATM    2  C11 UNL     1      -3.547   9.021  14.507  1.00  0.00     0.007 C 
HETATM    3  C12 UNL     1      -2.234   9.197  13.770  1.00  0.00     0.015 C 
HETATM    4  C13 UNL     1      -1.452   7.899  14.075  1.00  0.00    -0.005 C 
HETATM    5  C14 UNL     1      -0.893   7.968  15.528  1.00  0.00     0.021 C 
HETATM    6  C15 UNL     1      -0.276   7.730  13.083  1.00  0.00     0.002 C 
HETATM    7  C16 UNL     1      -0.138   6.716  12.190  1.00  0.00    -0.032 C 
HETATM    8  C17 UNL     1      -1.274   5.717  12.029  1.00  0.00     0.149 C 
HETATM    9  C18 UNL     1      -2.626   6.236  12.520  1.00  0.00     0.047 C 
HETATM   10  C19 UNL     1      -2.600   6.792  13.969  1.00  0.00    -0.026 C 
HETATM   11  C20 UNL     1      -2.368   5.621  14.951  1.00  0.00     0.016 C 
HETATM   12  C21 UNL     1       1.105   6.517  11.250  1.00  0.00    -0.012 C 
HETATM   13  C22 UNL     1       1.517   5.025  11.302  1.00  0.00     0.021 C 
HETATM   14  C23 UNL     1       0.690   6.891   9.802  1.00  0.00     0.021 C 
HETATM   15  C24 UNL     1       1.835   6.856   8.801  1.00  0.00     0.080 C 
HETATM   16  C25 UNL     1       2.980   7.734   9.247  1.00  0.00     0.135 C 
HETATM   17  O4  UNL     1       3.471   8.547   8.463  1.00  0.00    -0.297 OA
HETATM   18  C26 UNL     1       3.537   7.505  10.659  1.00  0.00     0.018 C 
HETATM   19  C27 UNL     1       4.414   6.233  10.641  1.00  0.00     0.023 C 
HETATM   20  C28 UNL     1       4.501   8.669  11.004  1.00  0.00     0.023 C 
HETATM   21  C29 UNL     1       2.329   7.416  11.686  1.00  0.00     0.020 C 
HETATM   22  C30 UNL     1       1.820   8.822  12.028  1.00  0.00     0.090 C 
HETATM   23  C31 UNL     1       0.754   8.821  13.082  1.00  0.00     0.157 C 
HETATM   24  O5  UNL     1       0.697   9.766  13.868  1.00  0.00    -0.293 OA
ENDROOT
BRANCH   1  25
HETATM   25  C8  UNL     1      -5.033   7.038  15.197  1.00  0.00    -0.014 C 
HETATM   26  C9  UNL     1      -6.127   8.085  15.495  1.00  0.00     0.010 C 
BRANCH  25  27
HETATM   27  C7  UNL     1      -5.715   5.716  14.763  1.00  0.00     0.008 C 
BRANCH  27  28
HETATM   28  C6  UNL     1      -6.322   5.715  13.355  1.00  0.00     0.028 C 
BRANCH  28  29
HETATM   29  C5  UNL     1      -5.771   4.576  12.540  1.00  0.00    -0.014 C 
HETATM   30  C3  UNL     1      -6.290   3.336  12.411  1.00  0.00     0.009 C 
HETATM   31  C4  UNL     1      -7.529   2.833  13.096  1.00  0.00     0.054 C 
BRANCH  30  32
HETATM   32  C2  UNL     1      -5.639   2.310  11.532  1.00  0.00     0.288 C 
HETATM   33  O2  UNL     1      -6.169   1.244  11.250  1.00  0.00    -0.260 OA
BRANCH  32  34
HETATM   34  O1  UNL     1      -4.410   2.709  11.114  1.00  0.00    -0.323 OA
HETATM   35  C1  UNL     1      -3.331   2.013  11.739  1.00  0.00     0.213 C 
ENDBRANCH  32  34
ENDBRANCH  30  32
ENDBRANCH  28  29
ENDBRANCH  27  28
ENDBRANCH  25  27
ENDBRANCH   1  25
BRANCH   8  36
HETATM   36  O3  UNL     1      -0.930   4.512  12.698  1.00  0.00    -0.391 OA
HETATM   37  H25 UNL     1      -1.660   3.885  12.567  1.00  0.00     0.210 HD
ENDBRANCH   8  36
TORSDOF 7
ENDMDL
MODEL 5
REMARK minimizedAffinity -9.23539066
REMARK  7 active torsions:
REMARK  status: ('A' for Active; 'I' for Inactive)
REMARK    1  A    between atoms: O1_2  and  C2_3 
REMARK    2  A    between atoms: C2_3  and  C3_5 
REMARK    3  A    between atoms: C5_7  and  C6_8 
REMARK    4  A    between atoms: C6_8  and  C7_9 
REMARK    5  A    between atoms: C7_9  and  C8_10 
REMARK    6  A    between atoms: C8_10  and  C10_12 
REMARK    7  A    between atoms: C17_19  and  O3_20 
ROOT
HETATM    1  C10 UNL     1      -0.445   5.291  12.769  1.00  0.00    -0.002 C 
HETATM    2  C11 UNL     1       0.191   4.538  11.592  1.00  0.00     0.007 C 
HETATM    3  C12 UNL     1       1.520   5.232  11.372  1.00  0.00     0.015 C 
HETATM    4  C13 UNL     1       1.179   6.737  11.448  1.00  0.00    -0.005 C 
HETATM    5  C14 UNL     1       0.487   7.173  10.121  1.00  0.00     0.021 C 
HETATM    6  C15 UNL     1       2.464   7.574  11.653  1.00  0.00     0.002 C 
HETATM    7  C16 UNL     1       2.737   8.346  12.737  1.00  0.00    -0.032 C 
HETATM    8  C17 UNL     1       1.788   8.309  13.925  1.00  0.00     0.149 C 
HETATM    9  C18 UNL     1       0.912   7.057  13.976  1.00  0.00     0.047 C 
HETATM   10  C19 UNL     1       0.137   6.776  12.660  1.00  0.00    -0.026 C 
HETATM   11  C20 UNL     1      -0.936   7.871  12.466  1.00  0.00     0.016 C 
HETATM   12  C21 UNL     1       4.010   9.254  12.888  1.00  0.00    -0.012 C 
HETATM   13  C22 UNL     1       3.558  10.636  13.423  1.00  0.00     0.021 C 
HETATM   14  C23 UNL     1       4.969   8.589  13.911  1.00  0.00     0.021 C 
HETATM   15  C24 UNL     1       6.301   9.306  14.068  1.00  0.00     0.080 C 
HETATM   16  C25 UNL     1       7.001   9.460  12.739  1.00  0.00     0.135 C 
HETATM   17  O4  UNL     1       8.181   9.130  12.625  1.00  0.00    -0.297 OA
HETATM   18  C26 UNL     1       6.209  10.112  11.596  1.00  0.00     0.018 C 
HETATM   19  C27 UNL     1       6.161  11.637  11.838  1.00  0.00     0.023 C 
HETATM   20  C28 UNL     1       7.003   9.926  10.277  1.00  0.00     0.023 C 
HETATM   21  C29 UNL     1       4.769   9.446  11.516  1.00  0.00     0.020 C 
HETATM   22  C30 UNL     1       4.851   8.094  10.797  1.00  0.00     0.090 C 
HETATM   23  C31 UNL     1       3.508   7.460  10.582  1.00  0.00     0.157 C 
HETATM   24  O5  UNL     1       3.327   6.786   9.570  1.00  0.00    -0.293 OA
ENDROOT
BRANCH   1  25
HETATM   25  C8  UNL     1      -1.982   5.057  12.867  1.00  0.00    -0.014 C 
HETATM   26  C9  UNL     1      -2.753   6.382  13.046  1.00  0.00     0.010 C 
BRANCH  25  27
HETATM   27  C7  UNL     1      -2.593   4.283  11.672  1.00  0.00     0.008 C 
BRANCH  27  28
HETATM   28  C6  UNL     1      -3.404   3.034  12.038  1.00  0.00     0.028 C 
BRANCH  28  29
HETATM   29  C5  UNL     1      -4.822   3.403  12.383  1.00  0.00    -0.014 C 
HETATM   30  C3  UNL     1      -5.948   2.753  12.020  1.00  0.00     0.009 C 
HETATM   31  C4  UNL     1      -6.007   1.525  11.157  1.00  0.00     0.054 C 
BRANCH  30  32
HETATM   32  C2  UNL     1      -7.297   3.228  12.470  1.00  0.00     0.288 C 
HETATM   33  O2  UNL     1      -8.120   2.492  12.999  1.00  0.00    -0.260 OA
BRANCH  32  34
HETATM   34  O1  UNL     1      -7.483   4.547  12.203  1.00  0.00    -0.323 OA
HETATM   35  C1  UNL     1      -8.243   5.238  13.195  1.00  0.00     0.213 C 
ENDBRANCH  32  34
ENDBRANCH  30  32
ENDBRANCH  28  29
ENDBRANCH  27  28
ENDBRANCH  25  27
ENDBRANCH   1  25
BRANCH   8  36
HETATM   36  O3  UNL     1       0.984   9.480  13.913  1.00  0.00    -0.391 OA
HETATM   37  H25 UNL     1       0.400   9.443  14.689  1.00  0.00     0.210 HD
ENDBRANCH   8  36
TORSDOF 7
ENDMDL
MODEL 6
REMARK minimizedAffinity -8.93347359
REMARK  7 active torsions:
REMARK  status: ('A' for Active; 'I' for Inactive)
REMARK    1  A    between atoms: O1_2  and  C2_3 
REMARK    2  A    between atoms: C2_3  and  C3_5 
REMARK    3  A    between atoms: C5_7  and  C6_8 
REMARK    4  A    between atoms: C6_8  and  C7_9 
REMARK    5  A    between atoms: C7_9  and  C8_10 
REMARK    6  A    between atoms: C8_10  and  C10_12 
REMARK    7  A    between atoms: C17_19  and  O3_20 
ROOT
HETATM    1  C10 UNL     1      -1.655   5.774  11.549  1.00  0.00    -0.002 C 
HETATM    2  C11 UNL     1      -1.935   6.710  12.734  1.00  0.00     0.007 C 
HETATM    3  C12 UNL     1      -0.617   7.418  12.977  1.00  0.00     0.015 C 
HETATM    4  C13 UNL     1       0.438   6.292  12.900  1.00  0.00    -0.005 C 
HETATM    5  C14 UNL     1       0.396   5.460  14.217  1.00  0.00     0.021 C 
HETATM    6  C15 UNL     1       1.855   6.888  12.718  1.00  0.00     0.002 C 
HETATM    7  C16 UNL     1       2.659   6.693  11.641  1.00  0.00    -0.032 C 
HETATM    8  C17 UNL     1       2.109   5.942  10.437  1.00  0.00     0.149 C 
HETATM    9  C18 UNL     1       0.582   5.920  10.369  1.00  0.00     0.047 C 
HETATM   10  C19 UNL     1      -0.101   5.422  11.672  1.00  0.00    -0.026 C 
HETATM   11  C20 UNL     1       0.201   3.917  11.852  1.00  0.00     0.016 C 
HETATM   12  C21 UNL     1       4.127   7.239  11.513  1.00  0.00    -0.012 C 
HETATM   13  C22 UNL     1       5.022   6.096  10.974  1.00  0.00     0.021 C 
HETATM   14  C23 UNL     1       4.125   8.417  10.502  1.00  0.00     0.021 C 
HETATM   15  C24 UNL     1       5.468   9.119  10.369  1.00  0.00     0.080 C 
HETATM   16  C25 UNL     1       5.973   9.596  11.709  1.00  0.00     0.135 C 
HETATM   17  O4  UNL     1       6.361  10.757  11.841  1.00  0.00    -0.297 OA
HETATM   18  C26 UNL     1       6.055   8.563  12.842  1.00  0.00     0.018 C 
HETATM   19  C27 UNL     1       7.293   7.670  12.603  1.00  0.00     0.023 C 
HETATM   20  C28 UNL     1       6.332   9.309  14.172  1.00  0.00     0.023 C 
HETATM   21  C29 UNL     1       4.695   7.744  12.897  1.00  0.00     0.020 C 
HETATM   22  C30 UNL     1       3.614   8.562  13.613  1.00  0.00     0.090 C 
HETATM   23  C31 UNL     1       2.334   7.805  13.804  1.00  0.00     0.157 C 
HETATM   24  O5  UNL     1       1.663   8.021  14.812  1.00  0.00    -0.293 OA
ENDROOT
BRANCH   1  25
HETATM   25  C8  UNL     1      -2.710   4.635  11.426  1.00  0.00    -0.014 C 
HETATM   26  C9  UNL     1      -2.196   3.470  10.555  1.00  0.00     0.010 C 
BRANCH  25  27
HETATM   27  C7  UNL     1      -3.202   4.064  12.779  1.00  0.00     0.008 C 
BRANCH  27  28
HETATM   28  C6  UNL     1      -4.651   3.563  12.799  1.00  0.00     0.028 C 
BRANCH  28  29
HETATM   29  C5  UNL     1      -5.606   4.704  13.028  1.00  0.00    -0.014 C 
HETATM   30  C3  UNL     1      -6.948   4.636  13.154  1.00  0.00     0.009 C 
HETATM   31  C4  UNL     1      -7.770   3.382  13.058  1.00  0.00     0.054 C 
BRANCH  30  32
HETATM   32  C2  UNL     1      -7.767   5.864  13.411  1.00  0.00     0.288 C 
HETATM   33  O2  UNL     1      -7.337   6.836  14.019  1.00  0.00    -0.260 OA
BRANCH  32  34
HETATM   34  O1  UNL     1      -9.022   5.750  12.904  1.00  0.00    -0.323 OA
HETATM   35  C1  UNL     1      -9.972   6.631  13.503  1.00  0.00     0.213 C 
ENDBRANCH  32  34
ENDBRANCH  30  32
ENDBRANCH  28  29
ENDBRANCH  27  28
ENDBRANCH  25  27
ENDBRANCH   1  25
BRANCH   8  36
HETATM   36  O3  UNL     1       2.627   4.619  10.440  1.00  0.00    -0.391 OA
HETATM   37  H25 UNL     1       2.277   4.165   9.655  1.00  0.00     0.210 HD
ENDBRANCH   8  36
TORSDOF 7
ENDMDL
MODEL 7
REMARK minimizedAffinity -8.8946743
REMARK  7 active torsions:
REMARK  status: ('A' for Active; 'I' for Inactive)
REMARK    1  A    between atoms: O1_2  and  C2_3 
REMARK    2  A    between atoms: C2_3  and  C3_5 
REMARK    3  A    between atoms: C5_7  and  C6_8 
REMARK    4  A    between atoms: C6_8  and  C7_9 
REMARK    5  A    between atoms: C7_9  and  C8_10 
REMARK    6  A    between atoms: C8_10  and  C10_12 
REMARK    7  A    between atoms: C17_19  and  O3_20 
ROOT
HETATM    1  C10 UNL     1      -5.127   6.616  13.630  1.00  0.00    -0.002 C 
HETATM    2  C11 UNL     1      -5.290   8.061  13.136  1.00  0.00     0.007 C 
HETATM    3  C12 UNL     1      -3.875   8.530  12.864  1.00  0.00     0.015 C 
HETATM    4  C13 UNL     1      -3.072   8.043  14.092  1.00  0.00    -0.005 C 
HETATM    5  C14 UNL     1      -3.378   8.974  15.304  1.00  0.00     0.021 C 
HETATM    6  C15 UNL     1      -1.554   8.075  13.793  1.00  0.00     0.002 C 
HETATM    7  C16 UNL     1      -0.734   6.993  13.766  1.00  0.00    -0.032 C 
HETATM    8  C17 UNL     1      -1.341   5.605  13.905  1.00  0.00     0.149 C 
HETATM    9  C18 UNL     1      -2.831   5.547  13.568  1.00  0.00     0.047 C 
HETATM   10  C19 UNL     1      -3.691   6.590  14.332  1.00  0.00    -0.026 C 
HETATM   11  C20 UNL     1      -3.720   6.214  15.832  1.00  0.00     0.016 C 
HETATM   12  C21 UNL     1       0.820   7.057  13.544  1.00  0.00    -0.012 C 
HETATM   13  C22 UNL     1       1.497   6.135  14.589  1.00  0.00     0.021 C 
HETATM   14  C23 UNL     1       1.133   6.538  12.114  1.00  0.00     0.021 C 
HETATM   15  C24 UNL     1       2.598   6.654  11.721  1.00  0.00     0.080 C 
HETATM   16  C25 UNL     1       3.095   8.071  11.869  1.00  0.00     0.135 C 
HETATM   17  O4  UNL     1       3.704   8.609  10.944  1.00  0.00    -0.297 OA
HETATM   18  C26 UNL     1       2.883   8.756  13.227  1.00  0.00     0.018 C 
HETATM   19  C27 UNL     1       3.923   8.201  14.226  1.00  0.00     0.023 C 
HETATM   20  C28 UNL     1       3.213  10.263  13.078  1.00  0.00     0.023 C 
HETATM   21  C29 UNL     1       1.382   8.525  13.696  1.00  0.00     0.020 C 
HETATM   22  C30 UNL     1       0.446   9.497  12.969  1.00  0.00     0.090 C 
HETATM   23  C31 UNL     1      -0.973   9.415  13.447  1.00  0.00     0.157 C 
HETATM   24  O5  UNL     1      -1.654  10.439  13.459  1.00  0.00    -0.293 OA
ENDROOT
BRANCH   1  25
HETATM   25  C8  UNL     1      -6.383   6.101  14.394  1.00  0.00    -0.014 C 
HETATM   26  C9  UNL     1      -7.154   7.253  15.072  1.00  0.00     0.010 C 
BRANCH  25  27
HETATM   27  C7  UNL     1      -7.372   5.282  13.528  1.00  0.00     0.008 C 
BRANCH  27  28
HETATM   28  C6  UNL     1      -6.956   3.834  13.238  1.00  0.00     0.028 C 
BRANCH  28  29
HETATM   29  C5  UNL     1      -5.650   3.796  12.491  1.00  0.00    -0.014 C 
HETATM   30  C3  UNL     1      -5.201   2.816  11.678  1.00  0.00     0.009 C 
HETATM   31  C4  UNL     1      -5.922   1.533  11.378  1.00  0.00     0.054 C 
BRANCH  30  32
HETATM   32  C2  UNL     1      -3.883   2.935  10.975  1.00  0.00     0.288 C 
HETATM   33  O2  UNL     1      -3.691   3.707  10.044  1.00  0.00    -0.260 OA
BRANCH  32  34
HETATM   34  O1  UNL     1      -2.959   2.081  11.487  1.00  0.00    -0.323 OA
HETATM   35  C1  UNL     1      -1.620   2.572  11.427  1.00  0.00     0.213 C 
ENDBRANCH  32  34
ENDBRANCH  30  32
ENDBRANCH  28  29
ENDBRANCH  27  28
ENDBRANCH  25  27
ENDBRANCH   1  25
BRANCH   8  36
HETATM   36  O3  UNL     1      -1.108   5.127  15.223  1.00  0.00    -0.391 OA
HETATM   37  H25 UNL     1      -1.488   4.235  15.282  1.00  0.00     0.210 HD
ENDBRANCH   8  36
TORSDOF 7
ENDMDL
MODEL 8
REMARK minimizedAffinity -8.71377373
REMARK  7 active torsions:
REMARK  status: ('A' for Active; 'I' for Inactive)
REMARK    1  A    between atoms: O1_2  and  C2_3 
REMARK    2  A    between atoms: C2_3  and  C3_5 
REMARK    3  A    between atoms: C5_7  and  C6_8 
REMARK    4  A    between atoms: C6_8  and  C7_9 
REMARK    5  A    between atoms: C7_9  and  C8_10 
REMARK    6  A    between atoms: C8_10  and  C10_12 
REMARK    7  A    between atoms: C17_19  and  O3_20 
ROOT
HETATM    1  C10 UNL     1       0.994   6.834  11.837  1.00  0.00    -0.002 C 
HETATM    2  C11 UNL     1       0.716   5.949  10.612  1.00  0.00     0.007 C 
HETATM    3  C12 UNL     1      -0.750   5.584  10.735  1.00  0.00     0.015 C 
HETATM    4  C13 UNL     1      -0.923   5.207  12.224  1.00  0.00    -0.005 C 
HETATM    5  C14 UNL     1      -0.327   3.787  12.465  1.00  0.00     0.021 C 
HETATM    6  C15 UNL     1      -2.422   5.205  12.611  1.00  0.00     0.002 C 
HETATM    7  C16 UNL     1      -3.000   6.026  13.525  1.00  0.00    -0.032 C 
HETATM    8  C17 UNL     1      -2.169   7.140  14.145  1.00  0.00     0.149 C 
HETATM    9  C18 UNL     1      -0.939   7.522  13.322  1.00  0.00     0.047 C 
HETATM   10  C19 UNL     1      -0.031   6.318  12.948  1.00  0.00    -0.026 C 
HETATM   11  C20 UNL     1       0.637   5.777  14.233  1.00  0.00     0.016 C 
HETATM   12  C21 UNL     1      -4.507   5.951  13.965  1.00  0.00    -0.012 C 
HETATM   13  C22 UNL     1      -4.565   6.045  15.510  1.00  0.00     0.021 C 
HETATM   14  C23 UNL     1      -5.260   7.156  13.342  1.00  0.00     0.021 C 
HETATM   15  C24 UNL     1      -6.761   7.145  13.592  1.00  0.00     0.080 C 
HETATM   16  C25 UNL     1      -7.385   5.853  13.120  1.00  0.00     0.135 C 
HETATM   17  O4  UNL     1      -8.384   5.881  12.401  1.00  0.00    -0.297 OA
HETATM   18  C26 UNL     1      -6.777   4.543  13.641  1.00  0.00     0.018 C 
HETATM   19  C27 UNL     1      -7.243   4.329  15.098  1.00  0.00     0.023 C 
HETATM   20  C28 UNL     1      -7.380   3.364  12.835  1.00  0.00     0.023 C 
HETATM   21  C29 UNL     1      -5.196   4.610  13.494  1.00  0.00     0.020 C 
HETATM   22  C30 UNL     1      -4.787   4.318  12.046  1.00  0.00     0.090 C 
HETATM   23  C31 UNL     1      -3.300   4.251  11.857  1.00  0.00     0.157 C 
HETATM   24  O5  UNL     1      -2.844   3.472  11.022  1.00  0.00    -0.293 OA
ENDROOT
BRANCH   1  25
HETATM   25  C8  UNL     1       2.514   6.942  12.161  1.00  0.00    -0.014 C 
HETATM   26  C9  UNL     1       3.387   6.439  10.992  1.00  0.00     0.010 C 
BRANCH  25  27
HETATM   27  C7  UNL     1       2.987   8.361  12.562  1.00  0.00     0.008 C 
BRANCH  27  28
HETATM   28  C6  UNL     1       4.106   8.954  11.697  1.00  0.00     0.028 C 
BRANCH  28  29
HETATM   29  C5  UNL     1       5.413   8.954  12.444  1.00  0.00    -0.014 C 
HETATM   30  C3  UNL     1       6.603   9.421  12.011  1.00  0.00     0.009 C 
HETATM   31  C4  UNL     1       6.867  10.017  10.657  1.00  0.00     0.054 C 
BRANCH  30  32
HETATM   32  C2  UNL     1       7.819   9.380  12.888  1.00  0.00     0.288 C 
HETATM   33  O2  UNL     1       8.867   9.943  12.600  1.00  0.00    -0.260 OA
BRANCH  32  34
HETATM   34  O1  UNL     1       7.608   8.641  14.008  1.00  0.00    -0.323 OA
HETATM   35  C1  UNL     1       8.736   7.863  14.410  1.00  0.00     0.213 C 
ENDBRANCH  32  34
ENDBRANCH  30  32
ENDBRANCH  28  29
ENDBRANCH  27  28
ENDBRANCH  25  27
ENDBRANCH   1  25
BRANCH   8  36
HETATM   36  O3  UNL     1      -1.792   6.759  15.460  1.00  0.00    -0.391 OA
HETATM   37  H25 UNL     1      -1.279   7.492  15.841  1.00  0.00     0.210 HD
ENDBRANCH   8  36
TORSDOF 7
ENDMDL
MODEL 9
REMARK minimizedAffinity -8.67950439
REMARK  7 active torsions:
REMARK  status: ('A' for Active; 'I' for Inactive)
REMARK    1  A    between atoms: O1_2  and  C2_3 
REMARK    2  A    between atoms: C2_3  and  C3_5 
REMARK    3  A    between atoms: C5_7  and  C6_8 
REMARK    4  A    between atoms: C6_8  and  C7_9 
REMARK    5  A    between atoms: C7_9  and  C8_10 
REMARK    6  A    between atoms: C8_10  and  C10_12 
REMARK    7  A    between atoms: C17_19  and  O3_20 
ROOT
HETATM    1  C10 UNL     1       3.069   7.342  12.136  1.00  0.00    -0.002 C 
HETATM    2  C11 UNL     1       2.693   8.817  11.927  1.00  0.00     0.007 C 
HETATM    3  C12 UNL     1       1.236   8.897  12.338  1.00  0.00     0.015 C 
HETATM    4  C13 UNL     1       0.587   7.660  11.677  1.00  0.00    -0.005 C 
HETATM    5  C14 UNL     1       0.396   7.936  10.155  1.00  0.00     0.021 C 
HETATM    6  C15 UNL     1      -0.789   7.363  12.319  1.00  0.00     0.002 C 
HETATM    7  C16 UNL     1      -1.112   6.235  13.003  1.00  0.00    -0.032 C 
HETATM    8  C17 UNL     1      -0.022   5.215  13.298  1.00  0.00     0.149 C 
HETATM    9  C18 UNL     1       1.394   5.788  13.228  1.00  0.00     0.047 C 
HETATM   10  C19 UNL     1       1.705   6.542  11.907  1.00  0.00    -0.026 C 
HETATM   11  C20 UNL     1       1.750   5.521  10.746  1.00  0.00     0.016 C 
HETATM   12  C21 UNL     1      -2.540   5.915  13.575  1.00  0.00    -0.012 C 
HETATM   13  C22 UNL     1      -2.886   4.448  13.219  1.00  0.00     0.021 C 
HETATM   14  C23 UNL     1      -2.499   6.080  15.118  1.00  0.00     0.021 C 
HETATM   15  C24 UNL     1      -3.851   5.913  15.794  1.00  0.00     0.080 C 
HETATM   16  C25 UNL     1      -4.877   6.853  15.208  1.00  0.00     0.135 C 
HETATM   17  O4  UNL     1      -5.566   7.551  15.951  1.00  0.00    -0.297 OA
HETATM   18  C26 UNL     1      -5.069   6.828  13.684  1.00  0.00     0.018 C 
HETATM   19  C27 UNL     1      -5.889   5.572  13.313  1.00  0.00     0.023 C 
HETATM   20  C28 UNL     1      -5.952   8.035  13.277  1.00  0.00     0.023 C 
HETATM   21  C29 UNL     1      -3.645   6.875  12.981  1.00  0.00     0.020 C 
HETATM   22  C30 UNL     1      -3.108   8.310  12.970  1.00  0.00     0.090 C 
HETATM   23  C31 UNL     1      -1.818   8.450  12.218  1.00  0.00     0.157 C 
HETATM   24  O5  UNL     1      -1.598   9.495  11.607  1.00  0.00    -0.293 OA
ENDROOT
BRANCH   1  25
HETATM   25  C8  UNL     1       4.356   6.939  11.356  1.00  0.00    -0.014 C 
HETATM   26  C9  UNL     1       4.626   7.886  10.167  1.00  0.00     0.010 C 
BRANCH  25  27
HETATM   27  C7  UNL     1       5.635   6.854  12.224  1.00  0.00     0.008 C 
BRANCH  27  28
HETATM   28  C6  UNL     1       5.562   7.562  13.583  1.00  0.00     0.028 C 
BRANCH  28  29
HETATM   29  C5  UNL     1       6.883   7.477  14.298  1.00  0.00    -0.014 C 
HETATM   30  C3  UNL     1       7.370   8.333  15.222  1.00  0.00     0.009 C 
HETATM   31  C4  UNL     1       6.684   9.581  15.703  1.00  0.00     0.054 C 
BRANCH  30  32
HETATM   32  C2  UNL     1       8.700   8.098  15.873  1.00  0.00     0.288 C 
HETATM   33  O2  UNL     1       8.856   8.102  17.087  1.00  0.00    -0.260 OA
BRANCH  32  34
HETATM   34  O1  UNL     1       9.683   7.900  14.958  1.00  0.00    -0.323 OA
HETATM   35  C1  UNL     1      10.246   9.107  14.441  1.00  0.00     0.213 C 
ENDBRANCH  32  34
ENDBRANCH  30  32
ENDBRANCH  28  29
ENDBRANCH  27  28
ENDBRANCH  25  27
ENDBRANCH   1  25
BRANCH   8  36
HETATM   36  O3  UNL     1      -0.160   4.118  12.406  1.00  0.00    -0.391 OA
HETATM   37  H25 UNL     1       0.534   3.473  12.624  1.00  0.00     0.210 HD
ENDBRANCH   8  36
TORSDOF 7
ENDMDL
