MODEL 1
REMARK minimizedAffinity -9.56261158
REMARK  8 active torsions:
REMARK  status: ('A' for Active; 'I' for Inactive)
REMARK    1  A    between atoms: C4_4  and  C5_5 
REMARK    2  A    between atoms: C5_5  and  C6_6 
REMARK    3  A    between atoms: C6_6  and  C7_7 
REMARK    4  A    between atoms: C7_7  and  C9_9 
REMARK    5  A    between atoms: C18_18  and  C20_20 
REMARK    6  A    between atoms: C20_20  and  O2_22 
REMARK    7  A    between atoms: C21_23  and  O3_24 
REMARK    8  A    between atoms: C23_26  and  O4_27 
ROOT
HETATM    1  C9  UNL     1      -2.852   6.132  13.379  1.00  0.00    -0.002 C 
HETATM    2  C10 UNL     1      -2.897   5.166  12.162  1.00  0.00     0.006 C 
HETATM    3  C11 UNL     1      -1.505   5.195  11.513  1.00  0.00     0.011 C 
HETATM    4  C12 UNL     1      -0.583   5.820  12.576  1.00  0.00    -0.032 C 
HETATM    5  C13 UNL     1      -0.201   4.668  13.561  1.00  0.00     0.016 C 
HETATM    6  C14 UNL     1       0.691   6.490  12.002  1.00  0.00     0.004 C 
HETATM    7  C15 UNL     1       1.701   5.499  11.403  1.00  0.00     0.007 C 
HETATM    8  C16 UNL     1       2.864   6.259  10.778  1.00  0.00     0.007 C 
HETATM    9  C17 UNL     1       3.716   6.914  11.876  1.00  0.00     0.018 C 
HETATM   10  C18 UNL     1       4.942   7.739  11.339  1.00  0.00     0.072 C 
HETATM   11  C19 UNL     1       4.562   8.688  10.181  1.00  0.00     0.030 C 
HETATM   12  C21 UNL     1       5.649   8.524  12.490  1.00  0.00     0.139 C 
HETATM   13  C22 UNL     1       5.251   8.016  13.869  1.00  0.00     0.065 C 
HETATM   14  C23 UNL     1       3.738   8.116  14.120  1.00  0.00     0.130 C 
HETATM   15  C24 UNL     1       2.896   7.716  12.900  1.00  0.00    -0.001 A 
HETATM   16  C25 UNL     1       1.900   8.744  12.408  1.00  0.00     0.024 A 
HETATM   17  C26 UNL     1       1.352   7.466  13.011  1.00  0.00    -0.025 A 
HETATM   18  C27 UNL     1       0.678   7.604  14.386  1.00  0.00     0.011 C 
HETATM   19  C28 UNL     1      -0.859   7.477  14.456  1.00  0.00     0.011 C 
HETATM   20  C29 UNL     1      -1.521   6.929  13.182  1.00  0.00    -0.032 C 
HETATM   21  C30 UNL     1      -1.754   8.141  12.239  1.00  0.00     0.016 C 
ENDROOT
BRANCH   1  22
HETATM   22  C7  UNL     1      -4.224   6.819  13.662  1.00  0.00    -0.014 C 
HETATM   23  C8  UNL     1      -4.335   8.291  13.239  1.00  0.00     0.010 C 
BRANCH  22  24
HETATM   24  C6  UNL     1      -4.675   6.600  15.127  1.00  0.00     0.008 C 
BRANCH  24  25
HETATM   25  C5  UNL     1      -6.166   6.273  15.313  1.00  0.00     0.028 C 
BRANCH  25  26
HETATM   26  C4  UNL     1      -6.950   6.185  14.036  1.00  0.00    -0.025 C 
HETATM   27  C2  UNL     1      -7.494   5.091  13.462  1.00  0.00    -0.091 C 
HETATM   28  C1  UNL     1      -8.249   5.204  12.166  1.00  0.00     0.042 C 
HETATM   29  C3  UNL     1      -7.403   3.683  13.997  1.00  0.00     0.042 C 
ENDBRANCH  25  26
ENDBRANCH  24  25
ENDBRANCH  22  24
ENDBRANCH   1  22
BRANCH  14  30
HETATM   30  O4  UNL     1       3.447   7.240  15.213  1.00  0.00    -0.395 OA
HETATM   31  H39 UNL     1       3.842   7.640  16.007  1.00  0.00     0.210 HD
ENDBRANCH  14  30
BRANCH  10  32
HETATM   32  C20 UNL     1       5.968   6.748  10.781  1.00  0.00     0.151 C 
HETATM   33  O1  UNL     1       7.104   7.002  10.417  1.00  0.00    -0.649 OA
BRANCH  32  34
HETATM   34  O2  UNL     1       5.528   5.476  10.726  1.00  0.00    -0.776 OA
HETATM   35  H33 UNL     1       6.271   4.980  10.322  1.00  0.00     0.167 HD
ENDBRANCH  32  34
ENDBRANCH  10  32
BRANCH  12  36
HETATM   36  O3  UNL     1       5.374   9.932  12.458  1.00  0.00    -0.394 OA
HETATM   37  H35 UNL     1       5.925  10.326  11.755  1.00  0.00     0.210 HD
ENDBRANCH  12  36
TORSDOF 8
ENDMDL
MODEL 2
REMARK minimizedAffinity -9.53396225
REMARK  8 active torsions:
REMARK  status: ('A' for Active; 'I' for Inactive)
REMARK    1  A    between atoms: C4_4  and  C5_5 
REMARK    2  A    between atoms: C5_5  and  C6_6 
REMARK    3  A    between atoms: C6_6  and  C7_7 
REMARK    4  A    between atoms: C7_7  and  C9_9 
REMARK    5  A    between atoms: C18_18  and  C20_20 
REMARK    6  A    between atoms: C20_20  and  O2_22 
REMARK    7  A    between atoms: C21_23  and  O3_24 
REMARK    8  A    between atoms: C23_26  and  O4_27 
ROOT
HETATM    1  C9  UNL     1      -2.691   6.203  13.037  1.00  0.00    -0.002 C 
HETATM    2  C10 UNL     1      -2.627   5.223  11.831  1.00  0.00     0.006 C 
HETATM    3  C11 UNL     1      -1.186   5.256  11.302  1.00  0.00     0.011 C 
HETATM    4  C12 UNL     1      -0.360   5.897  12.432  1.00  0.00    -0.032 C 
HETATM    5  C13 UNL     1      -0.056   4.759  13.458  1.00  0.00     0.016 C 
HETATM    6  C14 UNL     1       0.953   6.571  11.959  1.00  0.00     0.004 C 
HETATM    7  C15 UNL     1       2.016   5.580  11.459  1.00  0.00     0.007 C 
HETATM    8  C16 UNL     1       3.223   6.342  10.926  1.00  0.00     0.007 C 
HETATM    9  C17 UNL     1       3.976   7.015  12.085  1.00  0.00     0.018 C 
HETATM   10  C18 UNL     1       5.237   7.843  11.644  1.00  0.00     0.072 C 
HETATM   11  C19 UNL     1       4.951   8.777  10.448  1.00  0.00     0.030 C 
HETATM   12  C21 UNL     1       5.840   8.645  12.842  1.00  0.00     0.139 C 
HETATM   13  C22 UNL     1       5.329   8.148  14.188  1.00  0.00     0.065 C 
HETATM   14  C23 UNL     1       3.800   8.240  14.310  1.00  0.00     0.130 C 
HETATM   15  C24 UNL     1       3.067   7.821  13.027  1.00  0.00    -0.001 A 
HETATM   16  C25 UNL     1       2.109   8.837  12.442  1.00  0.00     0.024 A 
HETATM   17  C26 UNL     1       1.521   7.562  13.011  1.00  0.00    -0.025 A 
HETATM   18  C27 UNL     1       0.732   7.709  14.322  1.00  0.00     0.011 C 
HETATM   19  C28 UNL     1      -0.805   7.572  14.264  1.00  0.00     0.011 C 
HETATM   20  C29 UNL     1      -1.353   7.007  12.945  1.00  0.00    -0.032 C 
HETATM   21  C30 UNL     1      -1.513   8.206  11.972  1.00  0.00     0.016 C 
ENDROOT
BRANCH   1  22
HETATM   22  C7  UNL     1      -4.087   6.882  13.196  1.00  0.00    -0.014 C 
HETATM   23  C8  UNL     1      -4.076   8.414  13.292  1.00  0.00     0.010 C 
BRANCH  22  24
HETATM   24  C6  UNL     1      -4.906   6.233  14.339  1.00  0.00     0.008 C 
BRANCH  24  25
HETATM   25  C5  UNL     1      -6.096   5.372  13.886  1.00  0.00     0.028 C 
BRANCH  25  26
HETATM   26  C4  UNL     1      -5.740   4.267  12.933  1.00  0.00    -0.025 C 
HETATM   27  C2  UNL     1      -6.519   3.253  12.501  1.00  0.00    -0.091 C 
HETATM   28  C1  UNL     1      -5.978   2.231  11.539  1.00  0.00     0.042 C 
HETATM   29  C3  UNL     1      -7.948   3.005  12.919  1.00  0.00     0.042 C 
ENDBRANCH  25  26
ENDBRANCH  24  25
ENDBRANCH  22  24
ENDBRANCH   1  22
BRANCH  14  30
HETATM   30  O4  UNL     1       3.423   7.373  15.383  1.00  0.00    -0.395 OA
HETATM   31  H39 UNL     1       3.747   7.784  16.203  1.00  0.00     0.210 HD
ENDBRANCH  14  30
BRANCH  10  32
HETATM   32  C20 UNL     1       6.313   6.853  11.186  1.00  0.00     0.151 C 
HETATM   33  O1  UNL     1       7.171   7.048  10.342  1.00  0.00    -0.649 OA
BRANCH  32  34
HETATM   34  O2  UNL     1       6.274   5.668  11.825  1.00  0.00    -0.776 OA
HETATM   35  H33 UNL     1       6.988   5.143  11.404  1.00  0.00     0.167 HD
ENDBRANCH  32  34
ENDBRANCH  10  32
BRANCH  12  36
HETATM   36  O3  UNL     1       5.559  10.050  12.771  1.00  0.00    -0.394 OA
HETATM   37  H35 UNL     1       6.166  10.441  12.113  1.00  0.00     0.210 HD
ENDBRANCH  12  36
TORSDOF 8
ENDMDL
MODEL 3
REMARK minimizedAffinity -9.53359699
REMARK  8 active torsions:
REMARK  status: ('A' for Active; 'I' for Inactive)
REMARK    1  A    between atoms: C4_4  and  C5_5 
REMARK    2  A    between atoms: C5_5  and  C6_6 
REMARK    3  A    between atoms: C6_6  and  C7_7 
REMARK    4  A    between atoms: C7_7  and  C9_9 
REMARK    5  A    between atoms: C18_18  and  C20_20 
REMARK    6  A    between atoms: C20_20  and  O2_22 
REMARK    7  A    between atoms: C21_23  and  O3_24 
REMARK    8  A    between atoms: C23_26  and  O4_27 
ROOT
HETATM    1  C9  UNL     1      -3.262   7.830  14.658  1.00  0.00    -0.002 C 
HETATM    2  C10 UNL     1      -4.021   6.649  13.988  1.00  0.00     0.006 C 
HETATM    3  C11 UNL     1      -3.061   6.017  12.970  1.00  0.00     0.011 C 
HETATM    4  C12 UNL     1      -1.667   6.543  13.357  1.00  0.00    -0.032 C 
HETATM    5  C13 UNL     1      -1.164   5.642  14.530  1.00  0.00     0.016 C 
HETATM    6  C14 UNL     1      -0.641   6.548  12.194  1.00  0.00     0.004 C 
HETATM    7  C15 UNL     1      -0.216   5.145  11.734  1.00  0.00     0.007 C 
HETATM    8  C16 UNL     1       0.710   5.255  10.529  1.00  0.00     0.007 C 
HETATM    9  C17 UNL     1       2.064   5.843  10.956  1.00  0.00     0.018 C 
HETATM   10  C18 UNL     1       3.095   6.013   9.783  1.00  0.00     0.072 C 
HETATM   11  C19 UNL     1       2.478   6.685   8.536  1.00  0.00     0.030 C 
HETATM   12  C21 UNL     1       4.372   6.782  10.253  1.00  0.00     0.139 C 
HETATM   13  C22 UNL     1       4.491   6.836  11.769  1.00  0.00     0.065 C 
HETATM   14  C23 UNL     1       3.285   7.519  12.433  1.00  0.00     0.130 C 
HETATM   15  C24 UNL     1       1.943   7.124  11.798  1.00  0.00    -0.001 A 
HETATM   16  C25 UNL     1       1.080   8.261  11.295  1.00  0.00     0.024 A 
HETATM   17  C26 UNL     1       0.576   7.467  12.483  1.00  0.00    -0.025 A 
HETATM   18  C27 UNL     1       0.589   8.195  13.837  1.00  0.00     0.011 C 
HETATM   19  C28 UNL     1      -0.764   8.635  14.438  1.00  0.00     0.011 C 
HETATM   20  C29 UNL     1      -2.000   8.029  13.756  1.00  0.00    -0.032 C 
HETATM   21  C30 UNL     1      -2.342   8.944  12.548  1.00  0.00     0.016 C 
ENDROOT
BRANCH   1  22
HETATM   22  C7  UNL     1      -4.205   8.999  15.078  1.00  0.00    -0.014 C 
HETATM   23  C8  UNL     1      -3.558  10.111  15.916  1.00  0.00     0.010 C 
BRANCH  22  24
HETATM   24  C6  UNL     1      -5.511   8.471  15.721  1.00  0.00     0.008 C 
BRANCH  24  25
HETATM   25  C5  UNL     1      -5.908   7.041  15.320  1.00  0.00     0.028 C 
BRANCH  25  26
HETATM   26  C4  UNL     1      -7.238   6.931  14.632  1.00  0.00    -0.025 C 
HETATM   27  C2  UNL     1      -7.810   5.837  14.088  1.00  0.00    -0.091 C 
HETATM   28  C1  UNL     1      -9.161   5.927  13.433  1.00  0.00     0.042 C 
HETATM   29  C3  UNL     1      -7.197   4.459  14.041  1.00  0.00     0.042 C 
ENDBRANCH  25  26
ENDBRANCH  24  25
ENDBRANCH  22  24
ENDBRANCH   1  22
BRANCH  14  30
HETATM   30  O4  UNL     1       3.299   7.128  13.808  1.00  0.00    -0.395 OA
HETATM   31  H39 UNL     1       4.067   7.564  14.216  1.00  0.00     0.210 HD
ENDBRANCH  14  30
BRANCH  10  32
HETATM   32  C20 UNL     1       3.553   4.616   9.352  1.00  0.00     0.151 C 
HETATM   33  O1  UNL     1       4.222   4.337   8.371  1.00  0.00    -0.649 OA
BRANCH  32  34
HETATM   34  O2  UNL     1       3.165   3.631  10.186  1.00  0.00    -0.776 OA
HETATM   35  H33 UNL     1       3.498   2.811   9.763  1.00  0.00     0.167 HD
ENDBRANCH  32  34
ENDBRANCH  10  32
BRANCH  12  36
HETATM   36  O3  UNL     1       4.418   8.134   9.772  1.00  0.00    -0.394 OA
HETATM   37  H35 UNL     1       4.694   8.106   8.836  1.00  0.00     0.210 HD
ENDBRANCH  12  36
TORSDOF 8
ENDMDL
MODEL 4
REMARK minimizedAffinity -9.10533047
REMARK  8 active torsions:
REMARK  status: ('A' for Active; 'I' for Inactive)
REMARK    1  A    between atoms: C4_4  and  C5_5 
REMARK    2  A    between atoms: C5_5  and  C6_6 
REMARK    3  A    between atoms: C6_6  and  C7_7 
REMARK    4  A    between atoms: C7_7  and  C9_9 
REMARK    5  A    between atoms: C18_18  and  C20_20 
REMARK    6  A    between atoms: C20_20  and  O2_22 
REMARK    7  A    between atoms: C21_23  and  O3_24 
REMARK    8  A    between atoms: C23_26  and  O4_27 
ROOT
HETATM    1  C9  UNL     1      -3.338   7.726  14.954  1.00  0.00    -0.002 C 
HETATM    2  C10 UNL     1      -4.112   6.544  14.302  1.00  0.00     0.006 C 
HETATM    3  C11 UNL     1      -3.196   5.948  13.223  1.00  0.00     0.011 C 
HETATM    4  C12 UNL     1      -1.792   6.492  13.547  1.00  0.00    -0.032 C 
HETATM    5  C13 UNL     1      -1.213   5.577  14.674  1.00  0.00     0.016 C 
HETATM    6  C14 UNL     1      -0.830   6.536  12.333  1.00  0.00     0.004 C 
HETATM    7  C15 UNL     1      -0.406   5.150  11.823  1.00  0.00     0.007 C 
HETATM    8  C16 UNL     1       0.454   5.298  10.574  1.00  0.00     0.007 C 
HETATM    9  C17 UNL     1       1.818   5.902  10.942  1.00  0.00     0.018 C 
HETATM   10  C18 UNL     1       2.783   6.112   9.719  1.00  0.00     0.072 C 
HETATM   11  C19 UNL     1       2.091   6.796   8.520  1.00  0.00     0.030 C 
HETATM   12  C21 UNL     1       4.070   6.895  10.137  1.00  0.00     0.139 C 
HETATM   13  C22 UNL     1       4.268   6.922  11.646  1.00  0.00     0.065 C 
HETATM   14  C23 UNL     1       3.087   7.572  12.385  1.00  0.00     0.130 C 
HETATM   15  C24 UNL     1       1.721   7.165  11.813  1.00  0.00    -0.001 A 
HETATM   16  C25 UNL     1       0.813   8.296  11.379  1.00  0.00     0.024 A 
HETATM   17  C26 UNL     1       0.386   7.471  12.576  1.00  0.00    -0.025 A 
HETATM   18  C27 UNL     1       0.458   8.174  13.941  1.00  0.00     0.011 C 
HETATM   19  C28 UNL     1      -0.868   8.578  14.620  1.00  0.00     0.011 C 
HETATM   20  C29 UNL     1      -2.129   7.964  13.992  1.00  0.00    -0.032 C 
HETATM   21  C30 UNL     1      -2.548   8.895  12.822  1.00  0.00     0.016 C 
ENDROOT
BRANCH   1  22
HETATM   22  C7  UNL     1      -4.277   8.871  15.446  1.00  0.00    -0.014 C 
HETATM   23  C8  UNL     1      -5.727   8.806  14.948  1.00  0.00     0.010 C 
BRANCH  22  24
HETATM   24  C6  UNL     1      -3.642  10.263  15.209  1.00  0.00     0.008 C 
BRANCH  24  25
HETATM   25  C5  UNL     1      -3.505  11.144  16.461  1.00  0.00     0.028 C 
BRANCH  25  26
HETATM   26  C4  UNL     1      -2.329  10.809  17.334  1.00  0.00    -0.025 C 
HETATM   27  C2  UNL     1      -1.814  11.528  18.353  1.00  0.00    -0.091 C 
HETATM   28  C1  UNL     1      -0.619  11.024  19.115  1.00  0.00     0.042 C 
HETATM   29  C3  UNL     1      -2.319  12.869  18.824  1.00  0.00     0.042 C 
ENDBRANCH  25  26
ENDBRANCH  24  25
ENDBRANCH  22  24
ENDBRANCH   1  22
BRANCH  14  30
HETATM   30  O4  UNL     1       3.180   7.155  13.749  1.00  0.00    -0.395 OA
HETATM   31  H39 UNL     1       3.961   7.597  14.126  1.00  0.00     0.210 HD
ENDBRANCH  14  30
BRANCH  10  32
HETATM   32  C20 UNL     1       3.240   4.731   9.238  1.00  0.00     0.151 C 
HETATM   33  O1  UNL     1       3.749   4.466   8.162  1.00  0.00    -0.649 OA
BRANCH  32  34
HETATM   34  O2  UNL     1       3.056   3.748  10.140  1.00  0.00    -0.776 OA
HETATM   35  H33 UNL     1       3.359   2.937   9.679  1.00  0.00     0.167 HD
ENDBRANCH  32  34
ENDBRANCH  10  32
BRANCH  12  36
HETATM   36  O3  UNL     1       4.069   8.256   9.681  1.00  0.00    -0.394 OA
HETATM   37  H35 UNL     1       4.295   8.251   8.731  1.00  0.00     0.210 HD
ENDBRANCH  12  36
TORSDOF 8
ENDMDL
MODEL 5
REMARK minimizedAffinity -9.06493855
REMARK  8 active torsions:
REMARK  status: ('A' for Active; 'I' for Inactive)
REMARK    1  A    between atoms: C4_4  and  C5_5 
REMARK    2  A    between atoms: C5_5  and  C6_6 
REMARK    3  A    between atoms: C6_6  and  C7_7 
REMARK    4  A    between atoms: C7_7  and  C9_9 
REMARK    5  A    between atoms: C18_18  and  C20_20 
REMARK    6  A    between atoms: C20_20  and  O2_22 
REMARK    7  A    between atoms: C21_23  and  O3_24 
REMARK    8  A    between atoms: C23_26  and  O4_27 
ROOT
HETATM    1  C9  UNL     1       0.716   6.981  13.489  1.00  0.00    -0.002 C 
HETATM    2  C10 UNL     1       0.764   7.529  14.944  1.00  0.00     0.006 C 
HETATM    3  C11 UNL     1      -0.666   7.458  15.498  1.00  0.00     0.011 C 
HETATM    4  C12 UNL     1      -1.415   6.505  14.549  1.00  0.00    -0.032 C 
HETATM    5  C13 UNL     1      -1.065   5.054  15.013  1.00  0.00     0.016 C 
HETATM    6  C14 UNL     1      -2.950   6.711  14.518  1.00  0.00     0.004 C 
HETATM    7  C15 UNL     1      -3.659   6.309  15.821  1.00  0.00     0.007 C 
HETATM    8  C16 UNL     1      -5.143   6.642  15.727  1.00  0.00     0.007 C 
HETATM    9  C17 UNL     1      -5.831   5.705  14.722  1.00  0.00     0.018 C 
HETATM   10  C18 UNL     1      -7.369   5.972  14.537  1.00  0.00     0.072 C 
HETATM   11  C19 UNL     1      -7.697   7.467  14.334  1.00  0.00     0.030 C 
HETATM   12  C21 UNL     1      -7.960   5.112  13.372  1.00  0.00     0.139 C 
HETATM   13  C22 UNL     1      -7.037   3.971  12.968  1.00  0.00     0.065 C 
HETATM   14  C23 UNL     1      -5.656   4.464  12.506  1.00  0.00     0.130 C 
HETATM   15  C24 UNL     1      -5.103   5.607  13.371  1.00  0.00    -0.001 A 
HETATM   16  C25 UNL     1      -4.725   6.877  12.639  1.00  0.00     0.024 A 
HETATM   17  C26 UNL     1      -3.609   6.067  13.268  1.00  0.00    -0.025 A 
HETATM   18  C27 UNL     1      -2.674   5.335  12.292  1.00  0.00     0.011 C 
HETATM   19  C28 UNL     1      -1.241   5.880  12.112  1.00  0.00     0.011 C 
HETATM   20  C29 UNL     1      -0.811   6.922  13.156  1.00  0.00    -0.032 C 
HETATM   21  C30 UNL     1      -1.303   8.302  12.644  1.00  0.00     0.016 C 
ENDROOT
BRANCH   1  22
HETATM   22  C7  UNL     1       1.769   7.650  12.551  1.00  0.00    -0.014 C 
HETATM   23  C8  UNL     1       1.832   9.183  12.603  1.00  0.00     0.010 C 
BRANCH  22  24
HETATM   24  C6  UNL     1       1.651   7.122  11.100  1.00  0.00     0.008 C 
BRANCH  24  25
HETATM   25  C5  UNL     1       0.966   8.076  10.108  1.00  0.00     0.028 C 
BRANCH  25  26
HETATM   26  C4  UNL     1       0.975   7.606   8.681  1.00  0.00    -0.025 C 
HETATM   27  C2  UNL     1       1.908   7.834   7.733  1.00  0.00    -0.091 C 
HETATM   28  C1  UNL     1       1.738   7.277   6.346  1.00  0.00     0.042 C 
HETATM   29  C3  UNL     1       3.162   8.653   7.915  1.00  0.00     0.042 C 
ENDBRANCH  25  26
ENDBRANCH  24  25
ENDBRANCH  22  24
ENDBRANCH   1  22
BRANCH  14  30
HETATM   30  O4  UNL     1      -4.776   3.339  12.578  1.00  0.00    -0.395 OA
HETATM   31  H39 UNL     1      -5.050   2.723  11.876  1.00  0.00     0.210 HD
ENDBRANCH  14  30
BRANCH  10  32
HETATM   32  C20 UNL     1      -8.081   5.531  15.819  1.00  0.00     0.151 C 
HETATM   33  O1  UNL     1      -8.753   6.232  16.557  1.00  0.00    -0.649 OA
BRANCH  32  34
HETATM   34  O2  UNL     1      -7.932   4.224  16.107  1.00  0.00    -0.776 OA
HETATM   35  H33 UNL     1      -8.406   4.107  16.958  1.00  0.00     0.167 HD
ENDBRANCH  32  34
ENDBRANCH  10  32
BRANCH  12  36
HETATM   36  O3  UNL     1      -8.231   5.881  12.192  1.00  0.00    -0.394 OA
HETATM   37  H35 UNL     1      -9.061   6.374  12.343  1.00  0.00     0.210 HD
ENDBRANCH  12  36
TORSDOF 8
ENDMDL
MODEL 6
REMARK minimizedAffinity -8.99158478
REMARK  8 active torsions:
REMARK  status: ('A' for Active; 'I' for Inactive)
REMARK    1  A    between atoms: C4_4  and  C5_5 
REMARK    2  A    between atoms: C5_5  and  C6_6 
REMARK    3  A    between atoms: C6_6  and  C7_7 
REMARK    4  A    between atoms: C7_7  and  C9_9 
REMARK    5  A    between atoms: C18_18  and  C20_20 
REMARK    6  A    between atoms: C20_20  and  O2_22 
REMARK    7  A    between atoms: C21_23  and  O3_24 
REMARK    8  A    between atoms: C23_26  and  O4_27 
ROOT
HETATM    1  C9  UNL     1      -3.222   6.363  13.350  1.00  0.00    -0.002 C 
HETATM    2  C10 UNL     1      -3.201   7.365  14.539  1.00  0.00     0.006 C 
HETATM    3  C11 UNL     1      -1.821   8.038  14.536  1.00  0.00     0.011 C 
HETATM    4  C12 UNL     1      -1.238   7.746  13.141  1.00  0.00    -0.032 C 
HETATM    5  C13 UNL     1      -1.859   8.805  12.173  1.00  0.00     0.016 C 
HETATM    6  C14 UNL     1       0.309   7.788  13.074  1.00  0.00     0.004 C 
HETATM    7  C15 UNL     1       0.904   9.193  13.260  1.00  0.00     0.007 C 
HETATM    8  C16 UNL     1       2.425   9.113  13.278  1.00  0.00     0.007 C 
HETATM    9  C17 UNL     1       2.951   8.758  11.879  1.00  0.00     0.018 C 
HETATM   10  C18 UNL     1       4.516   8.637  11.788  1.00  0.00     0.072 C 
HETATM   11  C19 UNL     1       5.117   7.782  12.925  1.00  0.00     0.030 C 
HETATM   12  C21 UNL     1       4.965   8.096  10.391  1.00  0.00     0.139 C 
HETATM   13  C22 UNL     1       3.857   8.187   9.351  1.00  0.00     0.065 C 
HETATM   14  C23 UNL     1       2.601   7.400   9.755  1.00  0.00     0.130 C 
HETATM   15  C24 UNL     1       2.248   7.549  11.242  1.00  0.00    -0.001 A 
HETATM   16  C25 UNL     1       2.125   6.263  12.032  1.00  0.00     0.024 A 
HETATM   17  C26 UNL     1       0.866   7.076  11.811  1.00  0.00    -0.025 A 
HETATM   18  C27 UNL     1      -0.166   6.473  10.844  1.00  0.00     0.011 C 
HETATM   19  C28 UNL     1      -1.470   5.901  11.438  1.00  0.00     0.011 C 
HETATM   20  C29 UNL     1      -1.725   6.267  12.908  1.00  0.00    -0.032 C 
HETATM   21  C30 UNL     1      -0.977   5.215  13.771  1.00  0.00     0.016 C 
ENDROOT
BRANCH   1  22
HETATM   22  C7  UNL     1      -4.113   5.112  13.624  1.00  0.00    -0.014 C 
HETATM   23  C8  UNL     1      -3.726   3.837  12.862  1.00  0.00     0.010 C 
BRANCH  22  24
HETATM   24  C6  UNL     1      -5.618   5.445  13.473  1.00  0.00     0.008 C 
BRANCH  24  25
HETATM   25  C5  UNL     1      -6.237   6.228  14.643  1.00  0.00     0.028 C 
BRANCH  25  26
HETATM   26  C4  UNL     1      -7.699   6.533  14.486  1.00  0.00    -0.025 C 
HETATM   27  C2  UNL     1      -8.538   6.126  13.511  1.00  0.00    -0.091 C 
HETATM   28  C1  UNL     1      -9.984   6.543  13.524  1.00  0.00     0.042 C 
HETATM   29  C3  UNL     1      -8.159   5.269  12.328  1.00  0.00     0.042 C 
ENDBRANCH  25  26
ENDBRANCH  24  25
ENDBRANCH  22  24
ENDBRANCH   1  22
BRANCH  14  30
HETATM   30  O4  UNL     1       1.528   7.904   8.954  1.00  0.00    -0.395 OA
HETATM   31  H39 UNL     1       1.700   7.616   8.041  1.00  0.00     0.210 HD
ENDBRANCH  14  30
BRANCH  10  32
HETATM   32  C20 UNL     1       5.106  10.043  11.930  1.00  0.00     0.151 C 
HETATM   33  O1  UNL     1       5.051  10.761  12.915  1.00  0.00    -0.649 OA
BRANCH  32  34
HETATM   34  O2  UNL     1       5.759  10.476  10.834  1.00  0.00    -0.776 OA
HETATM   35  H33 UNL     1       6.042  11.387  11.065  1.00  0.00     0.167 HD
ENDBRANCH  32  34
ENDBRANCH  10  32
BRANCH  12  36
HETATM   36  O3  UNL     1       5.398   6.729  10.435  1.00  0.00    -0.394 OA
HETATM   37  H35 UNL     1       6.301   6.716  10.808  1.00  0.00     0.210 HD
ENDBRANCH  12  36
TORSDOF 8
ENDMDL
MODEL 7
REMARK minimizedAffinity -8.94532776
REMARK  8 active torsions:
REMARK  status: ('A' for Active; 'I' for Inactive)
REMARK    1  A    between atoms: C4_4  and  C5_5 
REMARK    2  A    between atoms: C5_5  and  C6_6 
REMARK    3  A    between atoms: C6_6  and  C7_7 
REMARK    4  A    between atoms: C7_7  and  C9_9 
REMARK    5  A    between atoms: C18_18  and  C20_20 
REMARK    6  A    between atoms: C20_20  and  O2_22 
REMARK    7  A    between atoms: C21_23  and  O3_24 
REMARK    8  A    between atoms: C23_26  and  O4_27 
ROOT
HETATM    1  C9  UNL     1      -6.627   6.772  14.119  1.00  0.00    -0.002 C 
HETATM    2  C10 UNL     1      -6.951   8.174  14.712  1.00  0.00     0.006 C 
HETATM    3  C11 UNL     1      -5.609   8.880  14.953  1.00  0.00     0.011 C 
HETATM    4  C12 UNL     1      -4.584   8.083  14.126  1.00  0.00    -0.032 C 
HETATM    5  C13 UNL     1      -4.699   8.603  12.658  1.00  0.00     0.016 C 
HETATM    6  C14 UNL     1      -3.124   8.201  14.634  1.00  0.00     0.004 C 
HETATM    7  C15 UNL     1      -2.509   9.596  14.441  1.00  0.00     0.007 C 
HETATM    8  C16 UNL     1      -1.117   9.638  15.059  1.00  0.00     0.007 C 
HETATM    9  C17 UNL     1      -0.148   8.777  14.234  1.00  0.00     0.018 C 
HETATM   10  C18 UNL     1       1.320   8.739  14.794  1.00  0.00     0.072 C 
HETATM   11  C19 UNL     1       1.374   8.473  16.314  1.00  0.00     0.030 C 
HETATM   12  C21 UNL     1       2.199   7.705  14.018  1.00  0.00     0.139 C 
HETATM   13  C22 UNL     1       1.568   7.282  12.699  1.00  0.00     0.065 C 
HETATM   14  C23 UNL     1       0.182   6.644  12.884  1.00  0.00     0.130 C 
HETATM   15  C24 UNL     1      -0.679   7.367  13.931  1.00  0.00    -0.001 A 
HETATM   16  C25 UNL     1      -1.207   6.515  15.066  1.00  0.00     0.024 A 
HETATM   17  C26 UNL     1      -2.212   7.074  14.079  1.00  0.00    -0.025 A 
HETATM   18  C27 UNL     1      -2.866   6.056  13.131  1.00  0.00     0.011 C 
HETATM   19  C28 UNL     1      -4.346   5.688  13.370  1.00  0.00     0.011 C 
HETATM   20  C29 UNL     1      -5.089   6.609  14.351  1.00  0.00    -0.032 C 
HETATM   21  C30 UNL     1      -4.816   6.060  15.778  1.00  0.00     0.016 C 
ENDROOT
BRANCH   1  22
HETATM   22  C7  UNL     1      -7.672   5.685  14.522  1.00  0.00    -0.014 C 
HETATM   23  C8  UNL     1      -7.222   4.695  15.605  1.00  0.00     0.010 C 
BRANCH  22  24
HETATM   24  C6  UNL     1      -8.246   4.965  13.277  1.00  0.00     0.008 C 
BRANCH  24  25
HETATM   25  C5  UNL     1      -7.577   3.626  12.927  1.00  0.00     0.028 C 
BRANCH  25  26
HETATM   26  C4  UNL     1      -6.342   3.747  12.080  1.00  0.00    -0.025 C 
HETATM   27  C2  UNL     1      -5.700   2.778  11.395  1.00  0.00    -0.091 C 
HETATM   28  C1  UNL     1      -4.465   3.097  10.598  1.00  0.00     0.042 C 
HETATM   29  C3  UNL     1      -6.094   1.322  11.359  1.00  0.00     0.042 C 
ENDBRANCH  25  26
ENDBRANCH  24  25
ENDBRANCH  22  24
ENDBRANCH   1  22
BRANCH  14  30
HETATM   30  O4  UNL     1      -0.466   6.698  11.610  1.00  0.00    -0.395 OA
HETATM   31  H39 UNL     1       0.002   6.072  11.030  1.00  0.00     0.210 HD
ENDBRANCH  14  30
BRANCH  10  32
HETATM   32  C20 UNL     1       1.948  10.117  14.562  1.00  0.00     0.151 C 
HETATM   33  O1  UNL     1       2.236  10.940  15.416  1.00  0.00    -0.649 OA
BRANCH  32  34
HETATM   34  O2  UNL     1       2.206  10.391  13.269  1.00  0.00    -0.776 OA
HETATM   35  H33 UNL     1       2.565  11.304  13.282  1.00  0.00     0.167 HD
ENDBRANCH  32  34
ENDBRANCH  10  32
BRANCH  12  36
HETATM   36  O3  UNL     1       2.453   6.511  14.772  1.00  0.00    -0.394 OA
HETATM   37  H35 UNL     1       3.148   6.716  15.427  1.00  0.00     0.210 HD
ENDBRANCH  12  36
TORSDOF 8
ENDMDL
MODEL 8
REMARK minimizedAffinity -8.82609463
REMARK  8 active torsions:
REMARK  status: ('A' for Active; 'I' for Inactive)
REMARK    1  A    between atoms: C4_4  and  C5_5 
REMARK    2  A    between atoms: C5_5  and  C6_6 
REMARK    3  A    between atoms: C6_6  and  C7_7 
REMARK    4  A    between atoms: C7_7  and  C9_9 
REMARK    5  A    between atoms: C18_18  and  C20_20 
REMARK    6  A    between atoms: C20_20  and  O2_22 
REMARK    7  A    between atoms: C21_23  and  O3_24 
REMARK    8  A    between atoms: C23_26  and  O4_27 
ROOT
HETATM    1  C9  UNL     1      -5.652   6.220  14.453  1.00  0.00    -0.002 C 
HETATM    2  C10 UNL     1      -5.909   5.181  13.324  1.00  0.00     0.006 C 
HETATM    3  C11 UNL     1      -4.625   5.103  12.485  1.00  0.00     0.011 C 
HETATM    4  C12 UNL     1      -3.536   5.747  13.362  1.00  0.00    -0.032 C 
HETATM    5  C13 UNL     1      -3.061   4.643  14.360  1.00  0.00     0.016 C 
HETATM    6  C14 UNL     1      -2.333   6.318  12.568  1.00  0.00     0.004 C 
HETATM    7  C15 UNL     1      -1.459   5.243  11.904  1.00  0.00     0.007 C 
HETATM    8  C16 UNL     1      -0.369   5.906  11.070  1.00  0.00     0.007 C 
HETATM    9  C17 UNL     1       0.657   6.587  11.988  1.00  0.00     0.018 C 
HETATM   10  C18 UNL     1       1.823   7.316  11.227  1.00  0.00     0.072 C 
HETATM   11  C19 UNL     1       1.318   8.208  10.072  1.00  0.00     0.030 C 
HETATM   12  C21 UNL     1       2.719   8.138  12.211  1.00  0.00     0.139 C 
HETATM   13  C22 UNL     1       2.504   7.737  13.663  1.00  0.00     0.065 C 
HETATM   14  C23 UNL     1       1.048   7.925  14.118  1.00  0.00     0.130 C 
HETATM   15  C24 UNL     1       0.024   7.490  13.059  1.00  0.00    -0.001 A 
HETATM   16  C25 UNL     1      -0.992   8.533  12.643  1.00  0.00     0.024 A 
HETATM   17  C26 UNL     1      -1.496   7.323  13.404  1.00  0.00    -0.025 A 
HETATM   18  C27 UNL     1      -1.960   7.580  14.848  1.00  0.00     0.011 C 
HETATM   19  C28 UNL     1      -3.474   7.532  15.143  1.00  0.00     0.011 C 
HETATM   20  C29 UNL     1      -4.333   6.937  14.016  1.00  0.00    -0.032 C 
HETATM   21  C30 UNL     1      -4.653   8.097  13.033  1.00  0.00     0.016 C 
ENDROOT
BRANCH   1  22
HETATM   22  C7  UNL     1      -6.942   6.988  14.878  1.00  0.00    -0.014 C 
HETATM   23  C8  UNL     1      -6.808   7.882  16.119  1.00  0.00     0.010 C 
BRANCH  22  24
HETATM   24  C6  UNL     1      -8.161   6.038  14.975  1.00  0.00     0.008 C 
BRANCH  24  25
HETATM   25  C5  UNL     1      -9.488   6.711  15.362  1.00  0.00     0.028 C 
BRANCH  25  26
HETATM   26  C4  UNL     1     -10.117   7.527  14.270  1.00  0.00    -0.025 C 
HETATM   27  C2  UNL     1     -11.380   7.461  13.800  1.00  0.00    -0.091 C 
HETATM   28  C1  UNL     1     -11.829   8.369  12.687  1.00  0.00     0.042 C 
HETATM   29  C3  UNL     1     -12.446   6.507  14.280  1.00  0.00     0.042 C 
ENDBRANCH  25  26
ENDBRANCH  24  25
ENDBRANCH  22  24
ENDBRANCH   1  22
BRANCH  14  30
HETATM   30  O4  UNL     1       0.883   7.135  15.299  1.00  0.00    -0.395 OA
HETATM   31  H39 UNL     1       1.403   7.565  16.000  1.00  0.00     0.210 HD
ENDBRANCH  14  30
BRANCH  10  32
HETATM   32  C20 UNL     1       2.719   6.244  10.601  1.00  0.00     0.151 C 
HETATM   33  O1  UNL     1       3.841   5.929  10.961  1.00  0.00    -0.649 OA
BRANCH  32  34
HETATM   34  O2  UNL     1       2.157   5.599   9.561  1.00  0.00    -0.776 OA
HETATM   35  H33 UNL     1       2.854   4.981   9.253  1.00  0.00     0.167 HD
ENDBRANCH  32  34
ENDBRANCH  10  32
BRANCH  12  36
HETATM   36  O3  UNL     1       2.496   9.552  12.120  1.00  0.00    -0.394 OA
HETATM   37  H35 UNL     1       2.956   9.874  11.320  1.00  0.00     0.210 HD
ENDBRANCH  12  36
TORSDOF 8
ENDMDL
MODEL 9
REMARK minimizedAffinity -8.6528492
REMARK  8 active torsions:
REMARK  status: ('A' for Active; 'I' for Inactive)
REMARK    1  A    between atoms: C4_4  and  C5_5 
REMARK    2  A    between atoms: C5_5  and  C6_6 
REMARK    3  A    between atoms: C6_6  and  C7_7 
REMARK    4  A    between atoms: C7_7  and  C9_9 
REMARK    5  A    between atoms: C18_18  and  C20_20 
REMARK    6  A    between atoms: C20_20  and  O2_22 
REMARK    7  A    between atoms: C21_23  and  O3_24 
REMARK    8  A    between atoms: C23_26  and  O4_27 
ROOT
HETATM    1  C9  UNL     1      -1.794   5.753  12.122  1.00  0.00    -0.002 C 
HETATM    2  C10 UNL     1      -2.267   6.682  13.276  1.00  0.00     0.006 C 
HETATM    3  C11 UNL     1      -1.109   7.640  13.586  1.00  0.00     0.011 C 
HETATM    4  C12 UNL     1      -0.175   7.545  12.365  1.00  0.00    -0.032 C 
HETATM    5  C13 UNL     1      -0.780   8.484  11.272  1.00  0.00     0.016 C 
HETATM    6  C14 UNL     1       1.298   7.928  12.656  1.00  0.00     0.004 C 
HETATM    7  C15 UNL     1       1.505   9.420  12.963  1.00  0.00     0.007 C 
HETATM    8  C16 UNL     1       2.961   9.675  13.333  1.00  0.00     0.007 C 
HETATM    9  C17 UNL     1       3.857   9.506  12.095  1.00  0.00     0.018 C 
HETATM   10  C18 UNL     1       5.387   9.734  12.369  1.00  0.00     0.072 C 
HETATM   11  C19 UNL     1       5.891   8.983  13.621  1.00  0.00     0.030 C 
HETATM   12  C21 UNL     1       6.250   9.367  11.118  1.00  0.00     0.139 C 
HETATM   13  C22 UNL     1       5.416   9.259   9.850  1.00  0.00     0.065 C 
HETATM   14  C23 UNL     1       4.310   8.198   9.959  1.00  0.00     0.130 C 
HETATM   15  C24 UNL     1       3.605   8.200  11.324  1.00  0.00    -0.001 A 
HETATM   16  C25 UNL     1       3.597   6.886  12.075  1.00  0.00     0.024 A 
HETATM   17  C26 UNL     1       2.271   7.412  11.562  1.00  0.00    -0.025 A 
HETATM   18  C27 UNL     1       1.647   6.640  10.388  1.00  0.00     0.011 C 
HETATM   19  C28 UNL     1       0.404   5.770  10.670  1.00  0.00     0.011 C 
HETATM   20  C29 UNL     1      -0.253   6.007  12.039  1.00  0.00    -0.032 C 
HETATM   21  C30 UNL     1       0.496   5.108  13.059  1.00  0.00     0.016 C 
ENDROOT
BRANCH   1  22
HETATM   22  C7  UNL     1      -2.421   4.326  12.193  1.00  0.00    -0.014 C 
HETATM   23  C8  UNL     1      -2.747   3.672  10.843  1.00  0.00     0.010 C 
BRANCH  22  24
HETATM   24  C6  UNL     1      -3.626   4.285  13.165  1.00  0.00     0.008 C 
BRANCH  24  25
HETATM   25  C5  UNL     1      -4.917   3.685  12.586  1.00  0.00     0.028 C 
BRANCH  25  26
HETATM   26  C4  UNL     1      -6.126   4.568  12.705  1.00  0.00    -0.025 C 
HETATM   27  C2  UNL     1      -7.413   4.204  12.882  1.00  0.00    -0.091 C 
HETATM   28  C1  UNL     1      -8.494   5.245  12.975  1.00  0.00     0.042 C 
HETATM   29  C3  UNL     1      -7.917   2.786  12.978  1.00  0.00     0.042 C 
ENDBRANCH  25  26
ENDBRANCH  24  25
ENDBRANCH  22  24
ENDBRANCH   1  22
BRANCH  14  30
HETATM   30  O4  UNL     1       3.362   8.489   8.929  1.00  0.00    -0.395 OA
HETATM   31  H39 UNL     1       3.796   8.286   8.082  1.00  0.00     0.210 HD
ENDBRANCH  14  30
BRANCH  10  32
HETATM   32  C20 UNL     1       5.601  11.228  12.632  1.00  0.00     0.151 C 
HETATM   33  O1  UNL     1       5.492  12.134  11.823  1.00  0.00    -0.649 OA
BRANCH  32  34
HETATM   34  O2  UNL     1       5.922  11.519  13.907  1.00  0.00    -0.776 OA
HETATM   35  H33 UNL     1       6.058  12.491  13.907  1.00  0.00     0.167 HD
ENDBRANCH  32  34
ENDBRANCH  10  32
BRANCH  12  36
HETATM   36  O3  UNL     1       6.957   8.128  11.272  1.00  0.00    -0.394 OA
HETATM   37  H35 UNL     1       7.731   8.296  11.843  1.00  0.00     0.210 HD
ENDBRANCH  12  36
TORSDOF 8
ENDMDL
