MODEL 1
REMARK minimizedAffinity -7.86573601
REMARK CNNscore 0.664814949
REMARK CNNaffinity 6.985394
REMARK  6 active torsions:
REMARK  status: ('A' for Active; 'I' for Inactive)
REMARK    1  A    between atoms: C2_2  and  C4_4 
REMARK    2  A    between atoms: C4_4  and  O1_5 
REMARK    3  A    between atoms: C4_4  and  C5_6 
REMARK    4  A    between atoms: C5_6  and  C6_7 
REMARK    5  A    between atoms: C6_7  and  C7_8 
REMARK    6  A    between atoms: C7_8  and  C9_10 
ROOT
HETATM    1  C9  UNL     1      -1.729  52.659  -9.519  1.00  0.00    -0.001 C 
HETATM    2  C10 UNL     1      -1.342  51.495  -8.561  1.00  0.00     0.007 C 
HETATM    3  C11 UNL     1       0.176  51.580  -8.317  1.00  0.00     0.024 C 
HETATM    4  C12 UNL     1       0.583  52.896  -8.939  1.00  0.00     0.092 C 
HETATM    5  C13 UNL     1       0.417  54.077  -7.945  1.00  0.00     0.272 C 
HETATM    6  O2  UNL     1      -0.343  54.155  -6.995  1.00  0.00    -0.264 OA
HETATM    7  O3  UNL     1       1.296  55.082  -8.308  1.00  0.00    -0.305 OA
HETATM    8  C14 UNL     1       2.048  54.647  -9.467  1.00  0.00     0.113 C 
HETATM    9  C15 UNL     1       1.201  55.048 -10.717  1.00  0.00     0.043 C 
HETATM   10  C16 UNL     1      -0.272  54.553 -10.650  1.00  0.00     0.014 C 
HETATM   11  C17 UNL     1      -0.372  53.081 -10.168  1.00  0.00    -0.020 C 
HETATM   12  C18 UNL     1      -0.011  52.165 -11.358  1.00  0.00     0.017 C 
HETATM   13  C19 UNL     1       1.992  53.157  -9.303  1.00  0.00     0.137 A 
HETATM   14  O4  UNL     1       2.731  52.292 -10.145  1.00  0.00    -0.364 OA
HETATM   15  C20 UNL     1       3.159  52.353  -8.771  1.00  0.00     0.162 A 
HETATM   16  C21 UNL     1       4.480  53.024  -8.542  1.00  0.00     0.042 C 
HETATM   17  C22 UNL     1       4.269  54.519  -8.220  1.00  0.00     0.014 C 
HETATM   18  C23 UNL     1       5.521  55.264  -7.645  1.00  0.00     0.018 C 
HETATM   19  C24 UNL     1       5.977  54.596  -6.327  1.00  0.00     0.023 C 
HETATM   20  C25 UNL     1       6.725  55.328  -8.593  1.00  0.00     0.023 C 
HETATM   21  C26 UNL     1       5.124  56.708  -7.295  1.00  0.00     0.135 C 
HETATM   22  O5  UNL     1       5.894  57.470  -6.708  1.00  0.00    -0.297 OA
HETATM   23  C27 UNL     1       3.737  57.167  -7.682  1.00  0.00     0.080 C 
HETATM   24  C28 UNL     1       3.471  56.784  -9.131  1.00  0.00     0.020 C 
HETATM   25  C29 UNL     1       3.508  55.247  -9.404  1.00  0.00    -0.004 C 
HETATM   26  C30 UNL     1       4.192  55.050 -10.783  1.00  0.00     0.019 C 
ENDROOT
BRANCH   1  27
HETATM   27  C7  UNL     1      -3.019  52.372 -10.346  1.00  0.00    -0.014 C 
HETATM   28  C8  UNL     1      -3.934  53.567 -10.640  1.00  0.00     0.010 C 
BRANCH  27  29
HETATM   29  C6  UNL     1      -3.821  51.195  -9.750  1.00  0.00     0.007 C 
BRANCH  29  30
HETATM   30  C5  UNL     1      -4.835  50.522 -10.692  1.00  0.00     0.036 C 
BRANCH  30  31
HETATM   31  C4  UNL     1      -5.407  49.192 -10.176  1.00  0.00     0.146 C 
BRANCH  31  32
HETATM   32  C2  UNL     1      -6.916  49.109 -10.305  1.00  0.00    -0.065 C 
HETATM   33  C1  UNL     1      -7.723  49.847  -9.522  1.00  0.00     0.016 C 
HETATM   34  C3  UNL     1      -7.495  48.184 -11.340  1.00  0.00     0.045 C 
ENDBRANCH  31  32
BRANCH  31  35
HETATM   35  O1  UNL     1      -5.044  48.985  -8.816  1.00  0.00    -0.391 OA
HETATM   36  H7  UNL     1      -5.289  49.781  -8.319  1.00  0.00     0.210 HD
ENDBRANCH  31  35
ENDBRANCH  30  31
ENDBRANCH  29  30
ENDBRANCH  27  29
ENDBRANCH   1  27
TORSDOF 6
ENDMDL
MODEL 2
REMARK minimizedAffinity -6.99860716
REMARK CNNscore 0.505130827
REMARK CNNaffinity 6.44800568
REMARK  6 active torsions:
REMARK  status: ('A' for Active; 'I' for Inactive)
REMARK    1  A    between atoms: C2_2  and  C4_4 
REMARK    2  A    between atoms: C4_4  and  O1_5 
REMARK    3  A    between atoms: C4_4  and  C5_6 
REMARK    4  A    between atoms: C5_6  and  C6_7 
REMARK    5  A    between atoms: C6_7  and  C7_8 
REMARK    6  A    between atoms: C7_8  and  C9_10 
ROOT
HETATM    1  C9  UNL     1       1.572  54.104 -10.051  1.00  0.00    -0.001 C 
HETATM    2  C10 UNL     1       2.500  52.978 -10.591  1.00  0.00     0.007 C 
HETATM    3  C11 UNL     1       3.889  53.178  -9.958  1.00  0.00     0.024 C 
HETATM    4  C12 UNL     1       3.676  54.250  -8.915  1.00  0.00     0.092 C 
HETATM    5  C13 UNL     1       3.211  53.649  -7.560  1.00  0.00     0.272 C 
HETATM    6  O2  UNL     1       2.617  52.602  -7.371  1.00  0.00    -0.264 OA
HETATM    7  O3  UNL     1       3.584  54.515  -6.547  1.00  0.00    -0.305 OA
HETATM    8  C14 UNL     1       4.278  55.644  -7.130  1.00  0.00     0.113 C 
HETATM    9  C15 UNL     1       3.179  56.689  -7.508  1.00  0.00     0.043 C 
HETATM   10  C16 UNL     1       2.029  56.092  -8.369  1.00  0.00     0.014 C 
HETATM   11  C17 UNL     1       2.563  55.182  -9.507  1.00  0.00    -0.020 C 
HETATM   12  C18 UNL     1       3.078  56.093 -10.642  1.00  0.00     0.017 C 
HETATM   13  C19 UNL     1       4.815  55.032  -8.390  1.00  0.00     0.137 A 
HETATM   14  O4  UNL     1       5.705  55.739  -9.234  1.00  0.00    -0.364 OA
HETATM   15  C20 UNL     1       6.262  54.609  -8.535  1.00  0.00     0.162 A 
HETATM   16  C21 UNL     1       7.247  54.947  -7.457  1.00  0.00     0.042 C 
HETATM   17  C22 UNL     1       6.529  55.045  -6.093  1.00  0.00     0.014 C 
HETATM   18  C23 UNL     1       7.470  55.069  -4.841  1.00  0.00     0.018 C 
HETATM   19  C24 UNL     1       8.322  53.781  -4.792  1.00  0.00     0.023 C 
HETATM   20  C25 UNL     1       8.417  56.274  -4.769  1.00  0.00     0.023 C 
HETATM   21  C26 UNL     1       6.605  55.078  -3.569  1.00  0.00     0.135 C 
HETATM   22  O5  UNL     1       7.101  54.971  -2.446  1.00  0.00    -0.297 OA
HETATM   23  C27 UNL     1       5.109  55.207  -3.738  1.00  0.00     0.080 C 
HETATM   24  C28 UNL     1       4.813  56.351  -4.697  1.00  0.00     0.020 C 
HETATM   25  C29 UNL     1       5.394  56.150  -6.133  1.00  0.00    -0.004 C 
HETATM   26  C30 UNL     1       5.905  57.535  -6.611  1.00  0.00     0.019 C 
ENDROOT
BRANCH   1  27
HETATM   27  C7  UNL     1       0.387  54.438 -11.008  1.00  0.00    -0.014 C 
HETATM   28  C8  UNL     1      -0.830  55.134 -10.387  1.00  0.00     0.010 C 
BRANCH  27  29
HETATM   29  C6  UNL     1      -0.041  53.202 -11.828  1.00  0.00     0.007 C 
BRANCH  29  30
HETATM   30  C5  UNL     1      -1.160  52.340 -11.215  1.00  0.00     0.036 C 
BRANCH  30  31
HETATM   31  C4  UNL     1      -2.481  52.351 -11.999  1.00  0.00     0.146 C 
BRANCH  31  32
HETATM   32  C2  UNL     1      -3.696  52.508 -11.105  1.00  0.00    -0.065 C 
HETATM   33  C1  UNL     1      -4.122  53.722 -10.714  1.00  0.00     0.016 C 
HETATM   34  C3  UNL     1      -4.427  51.267 -10.668  1.00  0.00     0.045 C 
ENDBRANCH  31  32
BRANCH  31  35
HETATM   35  O1  UNL     1      -2.619  51.159 -12.765  1.00  0.00    -0.391 OA
HETATM   36  H7  UNL     1      -2.476  50.406 -12.171  1.00  0.00     0.210 HD
ENDBRANCH  31  35
ENDBRANCH  30  31
ENDBRANCH  29  30
ENDBRANCH  27  29
ENDBRANCH   1  27
TORSDOF 6
ENDMDL
MODEL 3
REMARK minimizedAffinity -7.71472883
REMARK CNNscore 0.400878251
REMARK CNNaffinity 6.61475897
REMARK  6 active torsions:
REMARK  status: ('A' for Active; 'I' for Inactive)
REMARK    1  A    between atoms: C2_2  and  C4_4 
REMARK    2  A    between atoms: C4_4  and  O1_5 
REMARK    3  A    between atoms: C4_4  and  C5_6 
REMARK    4  A    between atoms: C5_6  and  C6_7 
REMARK    5  A    between atoms: C6_7  and  C7_8 
REMARK    6  A    between atoms: C7_8  and  C9_10 
ROOT
HETATM    1  C9  UNL     1      -1.756  53.267  -9.428  1.00  0.00    -0.001 C 
HETATM    2  C10 UNL     1      -1.601  52.258  -8.253  1.00  0.00     0.007 C 
HETATM    3  C11 UNL     1      -0.121  52.261  -7.831  1.00  0.00     0.024 C 
HETATM    4  C12 UNL     1       0.486  53.413  -8.598  1.00  0.00     0.092 C 
HETATM    5  C13 UNL     1       0.328  54.757  -7.836  1.00  0.00     0.272 C 
HETATM    6  O2  UNL     1      -0.524  55.058  -7.019  1.00  0.00    -0.264 OA
HETATM    7  O3  UNL     1       1.341  55.610  -8.239  1.00  0.00    -0.305 OA
HETATM    8  C14 UNL     1       2.172  54.923  -9.205  1.00  0.00     0.113 C 
HETATM    9  C15 UNL     1       1.519  55.170 -10.603  1.00  0.00     0.043 C 
HETATM   10  C16 UNL     1       0.006  54.815 -10.649  1.00  0.00     0.014 C 
HETATM   11  C17 UNL     1      -0.298  53.460  -9.954  1.00  0.00    -0.020 C 
HETATM   12  C18 UNL     1       0.103  52.327 -10.924  1.00  0.00     0.017 C 
HETATM   13  C19 UNL     1       1.946  53.493  -8.813  1.00  0.00     0.137 A 
HETATM   14  O4  UNL     1       2.686  52.439  -9.401  1.00  0.00    -0.364 OA
HETATM   15  C20 UNL     1       2.958  52.701  -8.011  1.00  0.00     0.162 A 
HETATM   16  C21 UNL     1       4.305  53.292  -7.723  1.00  0.00     0.042 C 
HETATM   17  C22 UNL     1       4.211  54.832  -7.676  1.00  0.00     0.014 C 
HETATM   18  C23 UNL     1       5.457  55.562  -7.070  1.00  0.00     0.018 C 
HETATM   19  C24 UNL     1       5.689  55.095  -5.614  1.00  0.00     0.023 C 
HETATM   20  C25 UNL     1       6.763  55.364  -7.851  1.00  0.00     0.023 C 
HETATM   21  C26 UNL     1       5.171  57.072  -7.011  1.00  0.00     0.135 C 
HETATM   22  O5  UNL     1       5.942  57.858  -6.459  1.00  0.00    -0.297 OA
HETATM   23  C27 UNL     1       3.891  57.568  -7.644  1.00  0.00     0.080 C 
HETATM   24  C28 UNL     1       3.757  56.964  -9.035  1.00  0.00     0.020 C 
HETATM   25  C29 UNL     1       3.669  55.405  -9.050  1.00  0.00    -0.004 C 
HETATM   26  C30 UNL     1       4.482  54.919 -10.279  1.00  0.00     0.019 C 
ENDROOT
BRANCH   1  27
HETATM   27  C7  UNL     1      -2.965  52.947 -10.359  1.00  0.00    -0.014 C 
HETATM   28  C8  UNL     1      -4.084  53.994 -10.425  1.00  0.00     0.010 C 
BRANCH  27  29
HETATM   29  C6  UNL     1      -3.539  51.542 -10.076  1.00  0.00     0.007 C 
BRANCH  29  30
HETATM   30  C5  UNL     1      -4.351  50.902 -11.216  1.00  0.00     0.036 C 
BRANCH  30  31
HETATM   31  C4  UNL     1      -3.602  49.819 -12.009  1.00  0.00     0.146 C 
BRANCH  31  32
HETATM   32  C2  UNL     1      -2.942  50.357 -13.264  1.00  0.00    -0.065 C 
HETATM   33  C1  UNL     1      -2.153  49.579 -14.025  1.00  0.00     0.016 C 
HETATM   34  C3  UNL     1      -3.199  51.790 -13.648  1.00  0.00     0.045 C 
ENDBRANCH  31  32
BRANCH  31  35
HETATM   35  O1  UNL     1      -4.484  48.760 -12.366  1.00  0.00    -0.391 OA
HETATM   36  H7  UNL     1      -5.259  49.151 -12.796  1.00  0.00     0.210 HD
ENDBRANCH  31  35
ENDBRANCH  30  31
ENDBRANCH  29  30
ENDBRANCH  27  29
ENDBRANCH   1  27
TORSDOF 6
ENDMDL
MODEL 4
REMARK minimizedAffinity -7.19869089
REMARK CNNscore 0.338586241
REMARK CNNaffinity 6.39788675
REMARK  6 active torsions:
REMARK  status: ('A' for Active; 'I' for Inactive)
REMARK    1  A    between atoms: C2_2  and  C4_4 
REMARK    2  A    between atoms: C4_4  and  O1_5 
REMARK    3  A    between atoms: C4_4  and  C5_6 
REMARK    4  A    between atoms: C5_6  and  C6_7 
REMARK    5  A    between atoms: C6_7  and  C7_8 
REMARK    6  A    between atoms: C7_8  and  C9_10 
ROOT
HETATM    1  C9  UNL     1      -2.279  50.852  -9.768  1.00  0.00    -0.001 C 
HETATM    2  C10 UNL     1      -1.755  50.768 -11.232  1.00  0.00     0.007 C 
HETATM    3  C11 UNL     1      -0.733  51.903 -11.425  1.00  0.00     0.024 C 
HETATM    4  C12 UNL     1      -0.522  52.459 -10.035  1.00  0.00     0.092 C 
HETATM    5  C13 UNL     1       0.578  51.679  -9.265  1.00  0.00     0.272 C 
HETATM    6  O2  UNL     1       0.932  50.524  -9.432  1.00  0.00    -0.264 OA
HETATM    7  O3  UNL     1       1.126  52.520  -8.314  1.00  0.00    -0.305 OA
HETATM    8  C14 UNL     1       0.479  53.812  -8.405  1.00  0.00     0.113 C 
HETATM    9  C15 UNL     1      -0.786  53.736  -7.491  1.00  0.00     0.043 C 
HETATM   10  C16 UNL     1      -1.694  52.509  -7.793  1.00  0.00     0.014 C 
HETATM   11  C17 UNL     1      -1.906  52.300  -9.317  1.00  0.00    -0.020 C 
HETATM   12  C18 UNL     1      -2.957  53.325  -9.796  1.00  0.00     0.017 C 
HETATM   13  C19 UNL     1       0.039  53.812  -9.839  1.00  0.00     0.137 A 
HETATM   14  O4  UNL     1      -0.526  54.963 -10.439  1.00  0.00    -0.364 OA
HETATM   15  C20 UNL     1       0.778  54.579 -10.916  1.00  0.00     0.162 A 
HETATM   16  C21 UNL     1       1.895  55.504 -10.535  1.00  0.00     0.042 C 
HETATM   17  C22 UNL     1       2.567  55.017  -9.233  1.00  0.00     0.014 C 
HETATM   18  C23 UNL     1       3.941  55.691  -8.896  1.00  0.00     0.018 C 
HETATM   19  C24 UNL     1       4.954  55.428 -10.034  1.00  0.00     0.023 C 
HETATM   20  C25 UNL     1       3.874  57.205  -8.653  1.00  0.00     0.023 C 
HETATM   21  C26 UNL     1       4.518  55.039  -7.628  1.00  0.00     0.135 C 
HETATM   22  O5  UNL     1       5.651  55.301  -7.221  1.00  0.00    -0.297 OA
HETATM   23  C27 UNL     1       3.650  54.042  -6.896  1.00  0.00     0.080 C 
HETATM   24  C28 UNL     1       2.259  54.632  -6.712  1.00  0.00     0.020 C 
HETATM   25  C29 UNL     1       1.517  54.948  -8.049  1.00  0.00    -0.004 C 
HETATM   26  C30 UNL     1       0.749  56.280  -7.834  1.00  0.00     0.019 C 
ENDROOT
BRANCH   1  27
HETATM   27  C7  UNL     1      -3.701  50.240  -9.587  1.00  0.00    -0.014 C 
HETATM   28  C8  UNL     1      -3.790  48.907  -8.833  1.00  0.00     0.010 C 
BRANCH  27  29
HETATM   29  C6  UNL     1      -4.459  50.167 -10.930  1.00  0.00     0.007 C 
BRANCH  29  30
HETATM   30  C5  UNL     1      -5.330  48.917 -11.147  1.00  0.00     0.036 C 
BRANCH  30  31
HETATM   31  C4  UNL     1      -6.718  48.979 -10.489  1.00  0.00     0.146 C 
BRANCH  31  32
HETATM   32  C2  UNL     1      -7.798  48.323 -11.328  1.00  0.00    -0.065 C 
HETATM   33  C1  UNL     1      -9.061  48.787 -11.325  1.00  0.00     0.016 C 
HETATM   34  C3  UNL     1      -7.423  47.139 -12.178  1.00  0.00     0.045 C 
ENDBRANCH  31  32
BRANCH  31  35
HETATM   35  O1  UNL     1      -7.088  50.328 -10.227  1.00  0.00    -0.391 OA
HETATM   36  H7  UNL     1      -6.977  50.831 -11.049  1.00  0.00     0.210 HD
ENDBRANCH  31  35
ENDBRANCH  30  31
ENDBRANCH  29  30
ENDBRANCH  27  29
ENDBRANCH   1  27
TORSDOF 6
ENDMDL
MODEL 5
REMARK minimizedAffinity -7.21051455
REMARK CNNscore 0.285608768
REMARK CNNaffinity 6.50333929
REMARK  6 active torsions:
REMARK  status: ('A' for Active; 'I' for Inactive)
REMARK    1  A    between atoms: C2_2  and  C4_4 
REMARK    2  A    between atoms: C4_4  and  O1_5 
REMARK    3  A    between atoms: C4_4  and  C5_6 
REMARK    4  A    between atoms: C5_6  and  C6_7 
REMARK    5  A    between atoms: C6_7  and  C7_8 
REMARK    6  A    between atoms: C7_8  and  C9_10 
ROOT
HETATM    1  C9  UNL     1       2.499  54.538  -9.625  1.00  0.00    -0.001 C 
HETATM    2  C10 UNL     1       2.906  53.555  -8.489  1.00  0.00     0.007 C 
HETATM    3  C11 UNL     1       1.686  52.667  -8.184  1.00  0.00     0.024 C 
HETATM    4  C12 UNL     1       0.701  52.992  -9.283  1.00  0.00     0.092 C 
HETATM    5  C13 UNL     1       0.943  52.124 -10.547  1.00  0.00     0.272 C 
HETATM    6  O2  UNL     1       1.984  51.602 -10.908  1.00  0.00    -0.264 OA
HETATM    7  O3  UNL     1      -0.249  52.022 -11.243  1.00  0.00    -0.305 OA
HETATM    8  C14 UNL     1      -1.272  52.750 -10.523  1.00  0.00     0.113 C 
HETATM    9  C15 UNL     1      -1.199  54.227 -11.026  1.00  0.00     0.043 C 
HETATM   10  C16 UNL     1       0.231  54.834 -10.952  1.00  0.00     0.014 C 
HETATM   11  C17 UNL     1       0.937  54.507  -9.609  1.00  0.00    -0.020 C 
HETATM   12  C18 UNL     1       0.369  55.454  -8.530  1.00  0.00     0.017 C 
HETATM   13  C19 UNL     1      -0.737  52.690  -9.123  1.00  0.00     0.137 A 
HETATM   14  O4  UNL     1      -1.494  53.156  -8.021  1.00  0.00    -0.364 OA
HETATM   15  C20 UNL     1      -1.283  51.732  -8.085  1.00  0.00     0.162 A 
HETATM   16  C21 UNL     1      -2.505  50.919  -8.393  1.00  0.00     0.042 C 
HETATM   17  C22 UNL     1      -2.602  50.661  -9.912  1.00  0.00     0.014 C 
HETATM   18  C23 UNL     1      -3.634  49.564 -10.341  1.00  0.00     0.018 C 
HETATM   19  C24 UNL     1      -3.270  48.209  -9.692  1.00  0.00     0.023 C 
HETATM   20  C25 UNL     1      -5.095  49.884  -9.997  1.00  0.00     0.023 C 
HETATM   21  C26 UNL     1      -3.546  49.365 -11.864  1.00  0.00     0.135 C 
HETATM   22  O5  UNL     1      -4.166  48.469 -12.439  1.00  0.00    -0.297 OA
HETATM   23  C27 UNL     1      -2.653  50.303 -12.643  1.00  0.00     0.080 C 
HETATM   24  C28 UNL     1      -2.945  51.735 -12.220  1.00  0.00     0.020 C 
HETATM   25  C29 UNL     1      -2.665  52.028 -10.712  1.00  0.00    -0.004 C 
HETATM   26  C30 UNL     1      -3.792  52.973 -10.219  1.00  0.00     0.019 C 
ENDROOT
BRANCH   1  27
HETATM   27  C7  UNL     1       3.327  55.858  -9.624  1.00  0.00    -0.014 C 
HETATM   28  C8  UNL     1       3.479  56.582 -10.968  1.00  0.00     0.010 C 
BRANCH  27  29
HETATM   29  C6  UNL     1       4.700  55.662  -8.944  1.00  0.00     0.007 C 
BRANCH  29  30
HETATM   30  C5  UNL     1       5.839  55.165  -9.852  1.00  0.00     0.036 C 
BRANCH  30  31
HETATM   31  C4  UNL     1       7.013  54.509  -9.108  1.00  0.00     0.146 C 
BRANCH  31  32
HETATM   32  C2  UNL     1       6.657  53.157  -8.520  1.00  0.00    -0.065 C 
HETATM   33  C1  UNL     1       6.383  52.103  -9.309  1.00  0.00     0.016 C 
HETATM   34  C3  UNL     1       6.626  53.016  -7.022  1.00  0.00     0.045 C 
ENDBRANCH  31  32
BRANCH  31  35
HETATM   35  O1  UNL     1       7.485  55.359  -8.069  1.00  0.00    -0.391 OA
HETATM   36  H7  UNL     1       6.722  55.618  -7.528  1.00  0.00     0.210 HD
ENDBRANCH  31  35
ENDBRANCH  30  31
ENDBRANCH  29  30
ENDBRANCH  27  29
ENDBRANCH   1  27
TORSDOF 6
ENDMDL
MODEL 6
REMARK minimizedAffinity -8.61261272
REMARK CNNscore 0.241696045
REMARK CNNaffinity 6.80650282
REMARK  6 active torsions:
REMARK  status: ('A' for Active; 'I' for Inactive)
REMARK    1  A    between atoms: C2_2  and  C4_4 
REMARK    2  A    between atoms: C4_4  and  O1_5 
REMARK    3  A    between atoms: C4_4  and  C5_6 
REMARK    4  A    between atoms: C5_6  and  C6_7 
REMARK    5  A    between atoms: C6_7  and  C7_8 
REMARK    6  A    between atoms: C7_8  and  C9_10 
ROOT
HETATM    1  C9  UNL     1      -3.449  51.078 -23.664  1.00  0.00    -0.001 C 
HETATM    2  C10 UNL     1      -4.946  51.498 -23.733  1.00  0.00     0.007 C 
HETATM    3  C11 UNL     1      -5.762  50.437 -22.973  1.00  0.00     0.024 C 
HETATM    4  C12 UNL     1      -4.720  49.572 -22.301  1.00  0.00     0.092 C 
HETATM    5  C13 UNL     1      -4.298  50.148 -20.923  1.00  0.00     0.272 C 
HETATM    6  O2  UNL     1      -4.340  51.308 -20.552  1.00  0.00    -0.264 OA
HETATM    7  O3  UNL     1      -3.841  49.106 -20.135  1.00  0.00    -0.305 OA
HETATM    8  C14 UNL     1      -3.943  47.874 -20.887  1.00  0.00     0.113 C 
HETATM    9  C15 UNL     1      -2.612  47.738 -21.695  1.00  0.00     0.043 C 
HETATM   10  C16 UNL     1      -2.265  49.005 -22.529  1.00  0.00     0.014 C 
HETATM   11  C17 UNL     1      -3.500  49.563 -23.285  1.00  0.00    -0.020 C 
HETATM   12  C18 UNL     1      -3.734  48.681 -24.531  1.00  0.00     0.017 C 
HETATM   13  C19 UNL     1      -5.053  48.208 -21.839  1.00  0.00     0.137 A 
HETATM   14  O4  UNL     1      -5.613  47.231 -22.695  1.00  0.00    -0.364 OA
HETATM   15  C20 UNL     1      -6.470  47.711 -21.641  1.00  0.00     0.162 A 
HETATM   16  C21 UNL     1      -6.765  46.719 -20.557  1.00  0.00     0.042 C 
HETATM   17  C22 UNL     1      -5.761  46.887 -19.396  1.00  0.00     0.014 C 
HETATM   18  C23 UNL     1      -6.143  46.149 -18.068  1.00  0.00     0.018 C 
HETATM   19  C24 UNL     1      -7.502  46.667 -17.545  1.00  0.00     0.023 C 
HETATM   20  C25 UNL     1      -6.221  44.621 -18.179  1.00  0.00     0.023 C 
HETATM   21  C26 UNL     1      -5.096  46.486 -16.992  1.00  0.00     0.135 C 
HETATM   22  O5  UNL     1      -5.233  46.133 -15.819  1.00  0.00    -0.297 OA
HETATM   23  C27 UNL     1      -3.888  47.289 -17.417  1.00  0.00     0.080 C 
HETATM   24  C28 UNL     1      -3.303  46.677 -18.681  1.00  0.00     0.020 C 
HETATM   25  C29 UNL     1      -4.274  46.682 -19.904  1.00  0.00    -0.004 C 
HETATM   26  C30 UNL     1      -4.064  45.339 -20.653  1.00  0.00     0.019 C 
ENDROOT
BRANCH   1  27
HETATM   27  C7  UNL     1      -2.598  51.636 -24.845  1.00  0.00    -0.014 C 
HETATM   28  C8  UNL     1      -3.202  51.521 -26.250  1.00  0.00     0.010 C 
BRANCH  27  29
HETATM   29  C6  UNL     1      -1.159  51.077 -24.815  1.00  0.00     0.007 C 
BRANCH  29  30
HETATM   30  C5  UNL     1      -0.028  52.120 -24.864  1.00  0.00     0.036 C 
BRANCH  30  31
HETATM   31  C4  UNL     1       0.196  52.759 -26.244  1.00  0.00     0.146 C 
BRANCH  31  32
HETATM   32  C2  UNL     1       1.170  51.977 -27.104  1.00  0.00    -0.065 C 
HETATM   33  C1  UNL     1       0.931  51.764 -28.411  1.00  0.00     0.016 C 
HETATM   34  C3  UNL     1       2.424  51.447 -26.463  1.00  0.00     0.045 C 
ENDBRANCH  31  32
BRANCH  31  35
HETATM   35  O1  UNL     1       0.667  54.095 -26.107  1.00  0.00    -0.391 OA
HETATM   36  H7  UNL     1       1.430  54.081 -25.509  1.00  0.00     0.210 HD
ENDBRANCH  31  35
ENDBRANCH  30  31
ENDBRANCH  29  30
ENDBRANCH  27  29
ENDBRANCH   1  27
TORSDOF 6
ENDMDL
MODEL 7
REMARK minimizedAffinity -8.79145622
REMARK CNNscore 0.228465587
REMARK CNNaffinity 6.9145565
REMARK  6 active torsions:
REMARK  status: ('A' for Active; 'I' for Inactive)
REMARK    1  A    between atoms: C2_2  and  C4_4 
REMARK    2  A    between atoms: C4_4  and  O1_5 
REMARK    3  A    between atoms: C4_4  and  C5_6 
REMARK    4  A    between atoms: C5_6  and  C6_7 
REMARK    5  A    between atoms: C6_7  and  C7_8 
REMARK    6  A    between atoms: C7_8  and  C9_10 
ROOT
HETATM    1  C9  UNL     1      -3.415  50.901 -25.166  1.00  0.00    -0.001 C 
HETATM    2  C10 UNL     1      -4.325  52.063 -24.672  1.00  0.00     0.007 C 
HETATM    3  C11 UNL     1      -4.672  51.788 -23.198  1.00  0.00     0.024 C 
HETATM    4  C12 UNL     1      -3.787  50.624 -22.815  1.00  0.00     0.092 C 
HETATM    5  C13 UNL     1      -2.388  51.098 -22.336  1.00  0.00     0.272 C 
HETATM    6  O2  UNL     1      -1.808  52.130 -22.628  1.00  0.00    -0.264 OA
HETATM    7  O3  UNL     1      -1.866  50.136 -21.490  1.00  0.00    -0.305 OA
HETATM    8  C14 UNL     1      -2.824  49.060 -21.360  1.00  0.00     0.113 C 
HETATM    9  C15 UNL     1      -2.536  48.068 -22.533  1.00  0.00     0.043 C 
HETATM   10  C16 UNL     1      -2.488  48.757 -23.926  1.00  0.00     0.014 C 
HETATM   11  C17 UNL     1      -3.653  49.766 -24.120  1.00  0.00    -0.020 C 
HETATM   12  C18 UNL     1      -4.929  48.960 -24.448  1.00  0.00     0.017 C 
HETATM   13  C19 UNL     1      -4.108  49.782 -21.643  1.00  0.00     0.137 A 
HETATM   14  O4  UNL     1      -5.364  49.149 -21.485  1.00  0.00    -0.364 OA
HETATM   15  C20 UNL     1      -5.065  50.200 -20.546  1.00  0.00     0.162 A 
HETATM   16  C21 UNL     1      -4.822  49.749 -19.137  1.00  0.00     0.042 C 
HETATM   17  C22 UNL     1      -3.312  49.531 -18.902  1.00  0.00     0.014 C 
HETATM   18  C23 UNL     1      -2.883  49.377 -17.403  1.00  0.00     0.018 C 
HETATM   19  C24 UNL     1      -3.268  50.645 -16.608  1.00  0.00     0.023 C 
HETATM   20  C25 UNL     1      -3.479  48.160 -16.684  1.00  0.00     0.023 C 
HETATM   21  C26 UNL     1      -1.351  49.257 -17.333  1.00  0.00     0.135 C 
HETATM   22  O5  UNL     1      -0.748  49.252 -16.259  1.00  0.00    -0.297 OA
HETATM   23  C27 UNL     1      -0.595  49.163 -18.639  1.00  0.00     0.080 C 
HETATM   24  C28 UNL     1      -1.259  48.118 -19.524  1.00  0.00     0.020 C 
HETATM   25  C29 UNL     1      -2.737  48.449 -19.906  1.00  0.00    -0.004 C 
HETATM   26  C30 UNL     1      -3.520  47.109 -19.876  1.00  0.00     0.019 C 
ENDROOT
BRANCH   1  27
HETATM   27  C7  UNL     1      -3.487  50.674 -26.706  1.00  0.00    -0.014 C 
HETATM   28  C8  UNL     1      -3.139  49.270 -27.217  1.00  0.00     0.010 C 
BRANCH  27  29
HETATM   29  C6  UNL     1      -2.694  51.754 -27.473  1.00  0.00     0.007 C 
BRANCH  29  30
HETATM   30  C5  UNL     1      -1.402  52.249 -26.799  1.00  0.00     0.036 C 
BRANCH  30  31
HETATM   31  C4  UNL     1      -0.104  51.730 -27.438  1.00  0.00     0.146 C 
BRANCH  31  32
HETATM   32  C2  UNL     1       1.088  51.814 -26.504  1.00  0.00    -0.065 C 
HETATM   33  C1  UNL     1       2.334  51.555 -26.940  1.00  0.00     0.016 C 
HETATM   34  C3  UNL     1       0.847  52.205 -25.072  1.00  0.00     0.045 C 
ENDBRANCH  31  32
BRANCH  31  35
HETATM   35  O1  UNL     1       0.189  52.448 -28.632  1.00  0.00    -0.391 OA
HETATM   36  H7  UNL     1       0.159  53.395 -28.423  1.00  0.00     0.210 HD
ENDBRANCH  31  35
ENDBRANCH  30  31
ENDBRANCH  29  30
ENDBRANCH  27  29
ENDBRANCH   1  27
TORSDOF 6
ENDMDL
MODEL 8
REMARK minimizedAffinity -7.13909864
REMARK CNNscore 0.214264274
REMARK CNNaffinity 6.0733223
REMARK  6 active torsions:
REMARK  status: ('A' for Active; 'I' for Inactive)
REMARK    1  A    between atoms: C2_2  and  C4_4 
REMARK    2  A    between atoms: C4_4  and  O1_5 
REMARK    3  A    between atoms: C4_4  and  C5_6 
REMARK    4  A    between atoms: C5_6  and  C6_7 
REMARK    5  A    between atoms: C6_7  and  C7_8 
REMARK    6  A    between atoms: C7_8  and  C9_10 
ROOT
HETATM    1  C9  UNL     1      -7.976  46.368 -25.237  1.00  0.00    -0.001 C 
HETATM    2  C10 UNL     1      -9.297  45.588 -24.976  1.00  0.00     0.007 C 
HETATM    3  C11 UNL     1     -10.058  45.504 -26.311  1.00  0.00     0.024 C 
HETATM    4  C12 UNL     1      -9.077  46.021 -27.336  1.00  0.00     0.092 C 
HETATM    5  C13 UNL     1      -8.148  44.894 -27.863  1.00  0.00     0.272 C 
HETATM    6  O2  UNL     1      -7.826  43.864 -27.296  1.00  0.00    -0.264 OA
HETATM    7  O3  UNL     1      -7.713  45.241 -29.130  1.00  0.00    -0.305 OA
HETATM    8  C14 UNL     1      -8.299  46.514 -29.491  1.00  0.00     0.113 C 
HETATM    9  C15 UNL     1      -7.332  47.614 -28.947  1.00  0.00     0.043 C 
HETATM   10  C16 UNL     1      -6.984  47.441 -27.441  1.00  0.00     0.014 C 
HETATM   11  C17 UNL     1      -8.237  47.111 -26.585  1.00  0.00    -0.020 C 
HETATM   12  C18 UNL     1      -9.017  48.425 -26.359  1.00  0.00     0.017 C 
HETATM   13  C19 UNL     1      -9.543  46.507 -28.652  1.00  0.00     0.137 A 
HETATM   14  O4  UNL     1     -10.530  47.512 -28.785  1.00  0.00    -0.364 OA
HETATM   15  C20 UNL     1     -10.909  46.194 -29.227  1.00  0.00     0.162 A 
HETATM   16  C21 UNL     1     -11.074  46.041 -30.709  1.00  0.00     0.042 C 
HETATM   17  C22 UNL     1      -9.758  45.538 -31.341  1.00  0.00     0.014 C 
HETATM   18  C23 UNL     1      -9.876  45.026 -32.817  1.00  0.00     0.018 C 
HETATM   19  C24 UNL     1     -10.872  43.846 -32.891  1.00  0.00     0.023 C 
HETATM   20  C25 UNL     1     -10.313  46.088 -33.835  1.00  0.00     0.023 C 
HETATM   21  C26 UNL     1      -8.509  44.482 -33.266  1.00  0.00     0.135 C 
HETATM   22  O5  UNL     1      -8.363  43.904 -34.344  1.00  0.00    -0.297 OA
HETATM   23  C27 UNL     1      -7.339  44.664 -32.327  1.00  0.00     0.080 C 
HETATM   24  C28 UNL     1      -7.305  46.108 -31.848  1.00  0.00     0.020 C 
HETATM   25  C29 UNL     1      -8.572  46.547 -31.047  1.00  0.00    -0.004 C 
HETATM   26  C30 UNL     1      -8.890  48.005 -31.470  1.00  0.00     0.019 C 
ENDROOT
BRANCH   1  27
HETATM   27  C7  UNL     1      -7.416  47.075 -23.965  1.00  0.00    -0.014 C 
HETATM   28  C8  UNL     1      -8.373  48.007 -23.212  1.00  0.00     0.010 C 
BRANCH  27  29
HETATM   29  C6  UNL     1      -6.074  47.781 -24.258  1.00  0.00     0.007 C 
BRANCH  29  30
HETATM   30  C5  UNL     1      -6.054  49.306 -24.052  1.00  0.00     0.036 C 
BRANCH  30  31
HETATM   31  C4  UNL     1      -4.694  49.972 -24.316  1.00  0.00     0.146 C 
BRANCH  31  32
HETATM   32  C2  UNL     1      -3.576  48.968 -24.522  1.00  0.00    -0.065 C 
HETATM   33  C1  UNL     1      -3.255  48.524 -25.750  1.00  0.00     0.016 C 
HETATM   34  C3  UNL     1      -2.820  48.484 -23.315  1.00  0.00     0.045 C 
ENDBRANCH  31  32
BRANCH  31  35
HETATM   35  O1  UNL     1      -4.346  50.843 -23.245  1.00  0.00    -0.391 OA
HETATM   36  H7  UNL     1      -4.428  50.343 -22.418  1.00  0.00     0.210 HD
ENDBRANCH  31  35
ENDBRANCH  30  31
ENDBRANCH  29  30
ENDBRANCH  27  29
ENDBRANCH   1  27
TORSDOF 6
ENDMDL
MODEL 9
REMARK minimizedAffinity -7.37055063
REMARK CNNscore 0.192316324
REMARK CNNaffinity 6.82356119
REMARK  6 active torsions:
REMARK  status: ('A' for Active; 'I' for Inactive)
REMARK    1  A    between atoms: C2_2  and  C4_4 
REMARK    2  A    between atoms: C4_4  and  O1_5 
REMARK    3  A    between atoms: C4_4  and  C5_6 
REMARK    4  A    between atoms: C5_6  and  C6_7 
REMARK    5  A    between atoms: C6_7  and  C7_8 
REMARK    6  A    between atoms: C7_8  and  C9_10 
ROOT
HETATM    1  C9  UNL     1      -1.606  50.168 -17.365  1.00  0.00    -0.001 C 
HETATM    2  C10 UNL     1      -0.384  49.296 -17.777  1.00  0.00     0.007 C 
HETATM    3  C11 UNL     1      -0.565  48.914 -19.257  1.00  0.00     0.024 C 
HETATM    4  C12 UNL     1      -1.739  49.745 -19.719  1.00  0.00     0.092 C 
HETATM    5  C13 UNL     1      -1.293  51.153 -20.199  1.00  0.00     0.272 C 
HETATM    6  O2  UNL     1      -0.302  51.778 -19.863  1.00  0.00    -0.264 OA
HETATM    7  O3  UNL     1      -2.226  51.622 -21.106  1.00  0.00    -0.305 OA
HETATM    8  C14 UNL     1      -3.256  50.620 -21.276  1.00  0.00     0.113 C 
HETATM    9  C15 UNL     1      -4.322  50.888 -20.165  1.00  0.00     0.043 C 
HETATM   10  C16 UNL     1      -3.712  50.987 -18.737  1.00  0.00     0.014 C 
HETATM   11  C17 UNL     1      -2.672  49.867 -18.466  1.00  0.00    -0.020 C 
HETATM   12  C18 UNL     1      -3.444  48.566 -18.158  1.00  0.00     0.017 C 
HETATM   13  C19 UNL     1      -2.502  49.370 -20.929  1.00  0.00     0.137 A 
HETATM   14  O4  UNL     1      -3.076  48.088 -21.097  1.00  0.00    -0.364 OA
HETATM   15  C20 UNL     1      -1.987  48.413 -21.983  1.00  0.00     0.162 A 
HETATM   16  C21 UNL     1      -2.369  48.612 -23.419  1.00  0.00     0.042 C 
HETATM   17  C22 UNL     1      -2.632  50.108 -23.695  1.00  0.00     0.014 C 
HETATM   18  C23 UNL     1      -2.720  50.505 -25.208  1.00  0.00     0.018 C 
HETATM   19  C24 UNL     1      -1.396  50.157 -25.926  1.00  0.00     0.023 C 
HETATM   20  C25 UNL     1      -3.872  49.850 -25.981  1.00  0.00     0.023 C 
HETATM   21  C26 UNL     1      -2.894  52.030 -25.314  1.00  0.00     0.135 C 
HETATM   22  O5  UNL     1      -2.864  52.614 -26.398  1.00  0.00    -0.297 OA
HETATM   23  C27 UNL     1      -3.090  52.804 -24.030  1.00  0.00     0.080 C 
HETATM   24  C28 UNL     1      -4.155  52.115 -23.190  1.00  0.00     0.020 C 
HETATM   25  C29 UNL     1      -3.789  50.658 -22.763  1.00  0.00    -0.004 C 
HETATM   26  C30 UNL     1      -5.094  49.821 -22.850  1.00  0.00     0.019 C 
ENDROOT
BRANCH   1  27
HETATM   27  C7  UNL     1      -1.915  50.113 -15.838  1.00  0.00    -0.014 C 
HETATM   28  C8  UNL     1      -3.042  51.019 -15.326  1.00  0.00     0.010 C 
BRANCH  27  29
HETATM   29  C6  UNL     1      -0.633  50.296 -14.996  1.00  0.00     0.007 C 
BRANCH  29  30
HETATM   30  C5  UNL     1      -0.446  51.677 -14.343  1.00  0.00     0.036 C 
BRANCH  30  31
HETATM   31  C4  UNL     1       0.960  51.934 -13.778  1.00  0.00     0.146 C 
BRANCH  31  32
HETATM   32  C2  UNL     1       2.059  51.669 -14.788  1.00  0.00    -0.065 C 
HETATM   33  C1  UNL     1       3.068  50.823 -14.515  1.00  0.00     0.016 C 
HETATM   34  C3  UNL     1       1.992  52.371 -16.118  1.00  0.00     0.045 C 
ENDBRANCH  31  32
BRANCH  31  35
HETATM   35  O1  UNL     1       1.189  51.136 -12.622  1.00  0.00    -0.391 OA
HETATM   36  H7  UNL     1       0.977  50.217 -12.849  1.00  0.00     0.210 HD
ENDBRANCH  31  35
ENDBRANCH  30  31
ENDBRANCH  29  30
ENDBRANCH  27  29
ENDBRANCH   1  27
TORSDOF 6
ENDMDL
