MODEL 1
REMARK minimizedAffinity -7.9669385
REMARK CNNscore 0.770833313
REMARK CNNaffinity 7.18615294
REMARK  9 active torsions:
REMARK  status: ('A' for Active; 'I' for Inactive)
REMARK    1  A    between atoms: O1_2  and  C2_3 
REMARK    2  A    between atoms: C2_3  and  C3_4 
REMARK    3  A    between atoms: C3_4  and  C4_5 
REMARK    4  A    between atoms: C4_5  and  O2_6 
REMARK    5  A    between atoms: O2_6  and  C5_7 
REMARK    6  A    between atoms: C31_35  and  O5_36 
REMARK    7  A    between atoms: C32_38  and  O6_39 
REMARK    8  A    between atoms: C33_40  and  O7_42 
REMARK    9  A    between atoms: C39_47  and  O8_48 
ROOT
HETATM    1  C5  UNL     1       4.537  57.571  -6.382  1.00  0.00     0.122 C 
HETATM    2  C6  UNL     1       4.400  57.499  -7.902  1.00  0.00     0.033 C 
HETATM    3  C7  UNL     1       4.522  56.090  -8.488  1.00  0.00     0.013 C 
HETATM    4  C8  UNL     1       3.841  54.943  -7.661  1.00  0.00    -0.026 C 
HETATM    5  C9  UNL     1       4.981  54.099  -7.035  1.00  0.00     0.016 C 
HETATM    6  C10 UNL     1       2.953  55.544  -6.542  1.00  0.00     0.071 C 
HETATM    7  C11 UNL     1       3.760  56.481  -5.627  1.00  0.00     0.045 C 
HETATM    8  C12 UNL     1       1.729  56.275  -7.106  1.00  0.00     0.161 C 
HETATM    9  O3  UNL     1       1.263  57.284  -6.572  1.00  0.00    -0.292 OA
HETATM   10  C13 UNL     1       1.047  55.697  -8.294  1.00  0.00    -0.006 C 
HETATM   11  C14 UNL     1       1.614  54.653  -8.920  1.00  0.00    -0.030 C 
HETATM   12  C15 UNL     1       2.984  54.046  -8.626  1.00  0.00     0.027 C 
HETATM   13  C16 UNL     1       2.822  52.543  -8.256  1.00  0.00     0.011 C 
HETATM   14  C17 UNL     1       1.960  51.751  -9.284  1.00  0.00     0.015 C 
HETATM   15  C18 UNL     1       0.587  52.432  -9.516  1.00  0.00     0.013 C 
HETATM   16  C19 UNL     1      -0.134  52.402  -8.131  1.00  0.00     0.020 C 
HETATM   17  C20 UNL     1      -0.355  51.906 -10.702  1.00  0.00     0.067 C 
HETATM   18  C21 UNL     1       0.502  51.744 -11.936  1.00  0.00    -0.092 C 
HETATM   19  C22 UNL     1       1.161  51.577 -12.931  1.00  0.00    -0.103 C 
HETATM   20  C23 UNL     1       1.937  51.337 -14.164  1.00  0.00     0.129 C 
HETATM   21  C24 UNL     1       1.191  50.548 -15.280  1.00  0.00     0.235 C 
HETATM   22  C25 UNL     1      -0.025  51.302 -15.859  1.00  0.00     0.044 C 
HETATM   23  C26 UNL     1      -1.420  50.821 -15.435  1.00  0.00     0.027 C 
HETATM   24  C27 UNL     1      -1.878  51.337 -14.066  1.00  0.00     0.020 C 
HETATM   25  C28 UNL     1      -3.368  51.713 -14.125  1.00  0.00     0.013 C 
HETATM   26  C29 UNL     1      -1.596  50.134 -13.161  1.00  0.00     0.158 C 
HETATM   27  O4  UNL     1      -2.054  49.023 -13.977  1.00  0.00    -0.373 OA
HETATM   28  C30 UNL     1      -1.546  49.294 -15.315  1.00  0.00     0.185 C 
HETATM   29  C31 UNL     1      -0.210  48.552 -15.591  1.00  0.00     0.384 C 
HETATM   30  N1  UNL     1       0.967  49.128 -14.954  1.00  0.00     0.120 N 
HETATM   31  C32 UNL     1      -2.182  50.133 -11.738  1.00  0.00     0.183 C 
HETATM   32  C33 UNL     1      -1.204  50.537 -10.536  1.00  0.00     0.102 C 
HETATM   33  C34 UNL     1      -2.082  50.452  -9.261  1.00  0.00     0.050 C 
HETATM   34  C35 UNL     1      -1.290  53.158 -10.885  1.00  0.00     0.034 C 
HETATM   35  C36 UNL     1      -0.500  54.432 -10.450  1.00  0.00     0.027 C 
HETATM   36  C37 UNL     1      -1.219  55.266  -9.383  1.00  0.00     0.013 C 
HETATM   37  C38 UNL     1      -0.289  56.271  -8.691  1.00  0.00     0.043 C 
HETATM   38  C39 UNL     1       0.866  53.912  -9.986  1.00  0.00     0.095 C 
HETATM   39  H43 UNL     1       0.915  49.000 -13.944  1.00  0.00     0.319 HD
ENDROOT
BRANCH  32  40
HETATM   40  O7  UNL     1      -0.260  49.445 -10.395  1.00  0.00    -0.386 OA
HETATM   41  H49 UNL     1      -0.801  48.636 -10.515  1.00  0.00     0.210 HD
ENDBRANCH  32  40
BRANCH  38  42
HETATM   42  O8  UNL     1       1.724  53.987 -11.129  1.00  0.00    -0.384 OA
HETATM   43  H57 UNL     1       1.902  54.924 -11.315  1.00  0.00     0.211 HD
ENDBRANCH  38  42
BRANCH  31  44
HETATM   44  O6  UNL     1      -2.600  48.760 -11.478  1.00  0.00    -0.390 OA
HETATM   45  H45 UNL     1      -2.725  48.356 -12.363  1.00  0.00     0.210 HD
ENDBRANCH  31  44
BRANCH  29  46
HETATM   46  O5  UNL     1       0.018  48.490 -16.990  1.00  0.00    -0.366 OA
HETATM   47  H42 UNL     1       0.109  47.540 -17.194  1.00  0.00     0.212 HD
ENDBRANCH  29  46
BRANCH   1  48
HETATM   48  O2  UNL     1       5.934  57.461  -6.079  1.00  0.00    -0.386 OA
BRANCH  48  49
HETATM   49  C4  UNL     1       6.327  58.177  -4.908  1.00  0.00     0.170 C 
BRANCH  49  50
HETATM   50  C3  UNL     1       7.577  59.009  -5.182  1.00  0.00     0.052 C 
BRANCH  50  51
HETATM   51  C2  UNL     1       8.830  58.310  -4.668  1.00  0.00     0.169 C 
BRANCH  51  52
HETATM   52  O1  UNL     1      10.005  58.787  -5.329  1.00  0.00    -0.396 OA
HETATM   53  C1  UNL     1      11.205  58.521  -4.610  1.00  0.00     0.201 C 
ENDBRANCH  51  52
ENDBRANCH  50  51
ENDBRANCH  49  50
ENDBRANCH  48  49
ENDBRANCH   1  48
TORSDOF 9
ENDMDL
MODEL 2
REMARK minimizedAffinity -8.42361164
REMARK CNNscore 0.69578582
REMARK CNNaffinity 7.51318693
REMARK  9 active torsions:
REMARK  status: ('A' for Active; 'I' for Inactive)
REMARK    1  A    between atoms: O1_2  and  C2_3 
REMARK    2  A    between atoms: C2_3  and  C3_4 
REMARK    3  A    between atoms: C3_4  and  C4_5 
REMARK    4  A    between atoms: C4_5  and  O2_6 
REMARK    5  A    between atoms: O2_6  and  C5_7 
REMARK    6  A    between atoms: C31_35  and  O5_36 
REMARK    7  A    between atoms: C32_38  and  O6_39 
REMARK    8  A    between atoms: C33_40  and  O7_42 
REMARK    9  A    between atoms: C39_47  and  O8_48 
ROOT
HETATM    1  C5  UNL     1      -3.256  48.779 -21.023  1.00  0.00     0.122 C 
HETATM    2  C6  UNL     1      -3.704  49.886 -20.070  1.00  0.00     0.033 C 
HETATM    3  C7  UNL     1      -3.847  49.453 -18.609  1.00  0.00     0.013 C 
HETATM    4  C8  UNL     1      -2.750  48.464 -18.079  1.00  0.00    -0.026 C 
HETATM    5  C9  UNL     1      -3.434  47.085 -17.896  1.00  0.00     0.016 C 
HETATM    6  C10 UNL     1      -1.592  48.347 -19.103  1.00  0.00     0.071 C 
HETATM    7  C11 UNL     1      -2.108  47.911 -20.485  1.00  0.00     0.045 C 
HETATM    8  C12 UNL     1      -0.791  49.649 -19.219  1.00  0.00     0.161 C 
HETATM    9  O3  UNL     1      -0.300  50.025 -20.286  1.00  0.00    -0.292 OA
HETATM   10  C13 UNL     1      -0.545  50.439 -17.985  1.00  0.00    -0.006 C 
HETATM   11  C14 UNL     1      -1.158  50.071 -16.848  1.00  0.00    -0.030 C 
HETATM   12  C15 UNL     1      -2.213  48.977 -16.694  1.00  0.00     0.027 C 
HETATM   13  C16 UNL     1      -1.717  47.911 -15.675  1.00  0.00     0.011 C 
HETATM   14  C17 UNL     1      -1.215  48.534 -14.337  1.00  0.00     0.015 C 
HETATM   15  C18 UNL     1      -0.143  49.625 -14.587  1.00  0.00     0.013 C 
HETATM   16  C19 UNL     1       1.051  48.890 -15.276  1.00  0.00     0.020 C 
HETATM   17  C20 UNL     1       0.335  50.544 -13.363  1.00  0.00     0.067 C 
HETATM   18  C21 UNL     1      -0.898  51.007 -12.624  1.00  0.00    -0.092 C 
HETATM   19  C22 UNL     1      -1.858  51.373 -11.993  1.00  0.00    -0.103 C 
HETATM   20  C23 UNL     1      -3.007  51.821 -11.181  1.00  0.00     0.129 C 
HETATM   21  C24 UNL     1      -2.645  52.463  -9.810  1.00  0.00     0.235 C 
HETATM   22  C25 UNL     1      -1.859  53.786  -9.937  1.00  0.00     0.044 C 
HETATM   23  C26 UNL     1      -0.356  53.747  -9.625  1.00  0.00     0.027 C 
HETATM   24  C27 UNL     1       0.515  53.234 -10.777  1.00  0.00     0.020 C 
HETATM   25  C28 UNL     1       1.802  54.072 -10.867  1.00  0.00     0.013 C 
HETATM   26  C29 UNL     1       0.770  51.782 -10.363  1.00  0.00     0.158 C 
HETATM   27  O4  UNL     1       1.029  51.911  -8.939  1.00  0.00    -0.373 OA
HETATM   28  C30 UNL     1       0.014  52.833  -8.447  1.00  0.00     0.185 C 
HETATM   29  C31 UNL     1      -1.210  52.087  -7.849  1.00  0.00     0.384 C 
HETATM   30  N1  UNL     1      -2.119  51.500  -8.824  1.00  0.00     0.120 N 
HETATM   31  C32 UNL     1       1.851  50.984 -11.113  1.00  0.00     0.183 C 
HETATM   32  C33 UNL     1       1.363  49.969 -12.252  1.00  0.00     0.102 C 
HETATM   33  C34 UNL     1       2.665  49.343 -12.814  1.00  0.00     0.050 C 
HETATM   34  C35 UNL     1       0.947  51.758 -14.156  1.00  0.00     0.034 C 
HETATM   35  C36 UNL     1       0.217  51.868 -15.531  1.00  0.00     0.027 C 
HETATM   36  C37 UNL     1       1.168  51.858 -16.734  1.00  0.00     0.013 C 
HETATM   37  C38 UNL     1       0.446  51.574 -18.057  1.00  0.00     0.043 C 
HETATM   38  C39 UNL     1      -0.782  50.704 -15.544  1.00  0.00     0.095 C 
HETATM   39  H43 UNL     1      -1.667  50.720  -9.299  1.00  0.00     0.319 HD
ENDROOT
BRANCH  32  40
HETATM   40  O7  UNL     1       0.705  48.874 -11.566  1.00  0.00    -0.386 OA
HETATM   41  H49 UNL     1       1.264  48.706 -10.777  1.00  0.00     0.210 HD
ENDBRANCH  32  40
BRANCH  38  42
HETATM   42  O8  UNL     1      -2.014  51.237 -15.048  1.00  0.00    -0.384 OA
HETATM   43  H57 UNL     1      -2.376  51.840 -15.718  1.00  0.00     0.211 HD
ENDBRANCH  38  42
BRANCH  31  44
HETATM   44  O6  UNL     1       2.521  50.171 -10.105  1.00  0.00    -0.390 OA
HETATM   45  H45 UNL     1       2.352  50.625  -9.252  1.00  0.00     0.210 HD
ENDBRANCH  31  44
BRANCH  29  46
HETATM   46  O5  UNL     1      -1.945  52.971  -7.019  1.00  0.00    -0.366 OA
HETATM   47  H42 UNL     1      -1.976  52.538  -6.145  1.00  0.00     0.212 HD
ENDBRANCH  29  46
BRANCH   1  48
HETATM   48  O2  UNL     1      -4.402  47.955 -21.278  1.00  0.00    -0.386 OA
BRANCH  48  49
HETATM   49  C4  UNL     1      -4.808  47.941 -22.647  1.00  0.00     0.170 C 
BRANCH  49  50
HETATM   50  C3  UNL     1      -3.691  48.469 -23.543  1.00  0.00     0.052 C 
BRANCH  50  51
HETATM   51  C2  UNL     1      -4.198  48.747 -24.953  1.00  0.00     0.169 C 
BRANCH  51  52
HETATM   52  O1  UNL     1      -3.200  48.459 -25.936  1.00  0.00    -0.396 OA
HETATM   53  C1  UNL     1      -3.697  48.483 -27.270  1.00  0.00     0.201 C 
ENDBRANCH  51  52
ENDBRANCH  50  51
ENDBRANCH  49  50
ENDBRANCH  48  49
ENDBRANCH   1  48
TORSDOF 9
ENDMDL
MODEL 3
REMARK minimizedAffinity -7.75708342
REMARK CNNscore 0.604367256
REMARK CNNaffinity 7.06103897
REMARK  9 active torsions:
REMARK  status: ('A' for Active; 'I' for Inactive)
REMARK    1  A    between atoms: O1_2  and  C2_3 
REMARK    2  A    between atoms: C2_3  and  C3_4 
REMARK    3  A    between atoms: C3_4  and  C4_5 
REMARK    4  A    between atoms: C4_5  and  O2_6 
REMARK    5  A    between atoms: O2_6  and  C5_7 
REMARK    6  A    between atoms: C31_35  and  O5_36 
REMARK    7  A    between atoms: C32_38  and  O6_39 
REMARK    8  A    between atoms: C33_40  and  O7_42 
REMARK    9  A    between atoms: C39_47  and  O8_48 
ROOT
HETATM    1  C5  UNL     1      -2.908  49.091 -20.895  1.00  0.00     0.122 C 
HETATM    2  C6  UNL     1      -3.394  50.167 -19.926  1.00  0.00     0.033 C 
HETATM    3  C7  UNL     1      -3.556  49.697 -18.478  1.00  0.00     0.013 C 
HETATM    4  C8  UNL     1      -2.453  48.714 -17.950  1.00  0.00    -0.026 C 
HETATM    5  C9  UNL     1      -3.115  47.320 -17.814  1.00  0.00     0.016 C 
HETATM    6  C10 UNL     1      -1.274  48.642 -18.954  1.00  0.00     0.071 C 
HETATM    7  C11 UNL     1      -1.755  48.231 -20.356  1.00  0.00     0.045 C 
HETATM    8  C12 UNL     1      -0.493  49.960 -19.024  1.00  0.00     0.161 C 
HETATM    9  O3  UNL     1       0.011  50.370 -20.072  1.00  0.00    -0.292 OA
HETATM   10  C13 UNL     1      -0.285  50.725 -17.766  1.00  0.00    -0.006 C 
HETATM   11  C14 UNL     1      -0.913  50.318 -16.651  1.00  0.00    -0.030 C 
HETATM   12  C15 UNL     1      -1.952  49.204 -16.543  1.00  0.00     0.027 C 
HETATM   13  C16 UNL     1      -1.456  48.122 -15.540  1.00  0.00     0.011 C 
HETATM   14  C17 UNL     1      -0.990  48.721 -14.179  1.00  0.00     0.015 C 
HETATM   15  C18 UNL     1       0.066  49.836 -14.382  1.00  0.00     0.013 C 
HETATM   16  C19 UNL     1       1.286  49.140 -15.064  1.00  0.00     0.020 C 
HETATM   17  C20 UNL     1       0.504  50.734 -13.128  1.00  0.00     0.067 C 
HETATM   18  C21 UNL     1      -0.751  51.158 -12.402  1.00  0.00    -0.092 C 
HETATM   19  C22 UNL     1      -1.729  51.492 -11.781  1.00  0.00    -0.103 C 
HETATM   20  C23 UNL     1      -2.901  51.901 -10.982  1.00  0.00     0.129 C 
HETATM   21  C24 UNL     1      -2.576  52.516  -9.589  1.00  0.00     0.235 C 
HETATM   22  C25 UNL     1      -1.813  53.855  -9.669  1.00  0.00     0.044 C 
HETATM   23  C26 UNL     1      -0.315  53.835  -9.329  1.00  0.00     0.027 C 
HETATM   24  C27 UNL     1       0.587  53.365 -10.476  1.00  0.00     0.020 C 
HETATM   25  C28 UNL     1       1.860  54.227 -10.521  1.00  0.00     0.013 C 
HETATM   26  C29 UNL     1       0.860  51.908 -10.091  1.00  0.00     0.158 C 
HETATM   27  O4  UNL     1       1.089  52.007  -8.660  1.00  0.00    -0.373 OA
HETATM   28  C30 UNL     1       0.049  52.899  -8.166  1.00  0.00     0.185 C 
HETATM   29  C31 UNL     1      -1.172  52.118  -7.610  1.00  0.00     0.384 C 
HETATM   30  N1  UNL     1      -2.053  51.539  -8.616  1.00  0.00     0.120 N 
HETATM   31  C32 UNL     1       1.969  51.147 -10.838  1.00  0.00     0.183 C 
HETATM   32  C33 UNL     1       1.521  50.151 -12.010  1.00  0.00     0.102 C 
HETATM   33  C34 UNL     1       2.844  49.562 -12.561  1.00  0.00     0.050 C 
HETATM   34  C35 UNL     1       1.110  51.978 -13.879  1.00  0.00     0.034 C 
HETATM   35  C36 UNL     1       0.404  52.108 -15.266  1.00  0.00     0.027 C 
HETATM   36  C37 UNL     1       1.378  52.143 -16.449  1.00  0.00     0.013 C 
HETATM   37  C38 UNL     1       0.686  51.878 -17.793  1.00  0.00     0.043 C 
HETATM   38  C39 UNL     1      -0.573  50.927 -15.326  1.00  0.00     0.095 C 
HETATM   39  H43 UNL     1      -1.577  50.778  -9.100  1.00  0.00     0.319 HD
ENDROOT
BRANCH  32  40
HETATM   40  O7  UNL     1       0.870  49.028 -11.363  1.00  0.00    -0.386 OA
HETATM   41  H49 UNL     1       1.417  48.852 -10.568  1.00  0.00     0.210 HD
ENDBRANCH  32  40
BRANCH  38  42
HETATM   42  O8  UNL     1      -1.824  51.427 -14.841  1.00  0.00    -0.384 OA
HETATM   43  H57 UNL     1      -2.184  52.039 -15.504  1.00  0.00     0.211 HD
ENDBRANCH  38  42
BRANCH  31  44
HETATM   44  O6  UNL     1       2.635  50.322  -9.837  1.00  0.00    -0.390 OA
HETATM   45  H45 UNL     1       2.441  50.753  -8.977  1.00  0.00     0.210 HD
ENDBRANCH  31  44
BRANCH  29  46
HETATM   46  O5  UNL     1      -1.939  52.969  -6.774  1.00  0.00    -0.366 OA
HETATM   47  H42 UNL     1      -1.979  52.514  -5.911  1.00  0.00     0.212 HD
ENDBRANCH  29  46
BRANCH   1  48
HETATM   48  O2  UNL     1      -4.033  48.253 -21.192  1.00  0.00    -0.386 OA
BRANCH  48  49
HETATM   49  C4  UNL     1      -5.113  48.942 -21.824  1.00  0.00     0.170 C 
BRANCH  49  50
HETATM   50  C3  UNL     1      -6.449  48.310 -21.442  1.00  0.00     0.052 C 
BRANCH  50  51
HETATM   51  C2  UNL     1      -6.530  48.049 -19.943  1.00  0.00     0.169 C 
BRANCH  51  52
HETATM   52  O1  UNL     1      -7.868  48.181 -19.458  1.00  0.00    -0.396 OA
HETATM   53  C1  UNL     1      -7.950  48.844 -18.201  1.00  0.00     0.201 C 
ENDBRANCH  51  52
ENDBRANCH  50  51
ENDBRANCH  49  50
ENDBRANCH  48  49
ENDBRANCH   1  48
TORSDOF 9
ENDMDL
MODEL 4
REMARK minimizedAffinity -8.19671249
REMARK CNNscore 0.58173281
REMARK CNNaffinity 6.57199144
REMARK  9 active torsions:
REMARK  status: ('A' for Active; 'I' for Inactive)
REMARK    1  A    between atoms: O1_2  and  C2_3 
REMARK    2  A    between atoms: C2_3  and  C3_4 
REMARK    3  A    between atoms: C3_4  and  C4_5 
REMARK    4  A    between atoms: C4_5  and  O2_6 
REMARK    5  A    between atoms: O2_6  and  C5_7 
REMARK    6  A    between atoms: C31_35  and  O5_36 
REMARK    7  A    between atoms: C32_38  and  O6_39 
REMARK    8  A    between atoms: C33_40  and  O7_42 
REMARK    9  A    between atoms: C39_47  and  O8_48 
ROOT
HETATM    1  C5  UNL     1     -16.087  45.375 -21.673  1.00  0.00     0.122 C 
HETATM    2  C6  UNL     1     -14.958  45.774 -22.621  1.00  0.00     0.033 C 
HETATM    3  C7  UNL     1     -14.130  46.976 -22.158  1.00  0.00     0.013 C 
HETATM    4  C8  UNL     1     -13.821  47.043 -20.621  1.00  0.00    -0.026 C 
HETATM    5  C9  UNL     1     -14.669  48.202 -20.039  1.00  0.00     0.016 C 
HETATM    6  C10 UNL     1     -14.212  45.708 -19.937  1.00  0.00     0.071 C 
HETATM    7  C11 UNL     1     -15.689  45.360 -20.189  1.00  0.00     0.045 C 
HETATM    8  C12 UNL     1     -13.309  44.548 -20.374  1.00  0.00     0.161 C 
HETATM    9  O3  UNL     1     -13.733  43.397 -20.498  1.00  0.00    -0.292 OA
HETATM   10  C13 UNL     1     -11.863  44.820 -20.583  1.00  0.00    -0.006 C 
HETATM   11  C14 UNL     1     -11.430  46.090 -20.533  1.00  0.00    -0.030 C 
HETATM   12  C15 UNL     1     -12.293  47.345 -20.411  1.00  0.00     0.027 C 
HETATM   13  C16 UNL     1     -11.886  48.137 -19.136  1.00  0.00     0.011 C 
HETATM   14  C17 UNL     1     -10.350  48.384 -19.035  1.00  0.00     0.015 C 
HETATM   15  C18 UNL     1      -9.554  47.060 -19.162  1.00  0.00     0.013 C 
HETATM   16  C19 UNL     1     -10.000  46.185 -17.947  1.00  0.00     0.020 C 
HETATM   17  C20 UNL     1      -7.959  47.120 -19.313  1.00  0.00     0.067 C 
HETATM   18  C21 UNL     1      -7.632  48.171 -20.347  1.00  0.00    -0.092 C 
HETATM   19  C22 UNL     1      -7.333  49.022 -21.147  1.00  0.00    -0.103 C 
HETATM   20  C23 UNL     1      -6.926  50.071 -22.102  1.00  0.00     0.129 C 
HETATM   21  C24 UNL     1      -5.408  50.420 -22.104  1.00  0.00     0.235 C 
HETATM   22  C25 UNL     1      -4.509  49.255 -22.569  1.00  0.00     0.044 C 
HETATM   23  C26 UNL     1      -3.711  48.506 -21.491  1.00  0.00     0.027 C 
HETATM   24  C27 UNL     1      -4.517  47.448 -20.729  1.00  0.00     0.020 C 
HETATM   25  C28 UNL     1      -3.650  46.199 -20.501  1.00  0.00     0.013 C 
HETATM   26  C29 UNL     1      -4.864  48.185 -19.432  1.00  0.00     0.158 C 
HETATM   27  O4  UNL     1      -3.616  48.858 -19.120  1.00  0.00    -0.373 OA
HETATM   28  C30 UNL     1      -3.152  49.412 -20.385  1.00  0.00     0.185 C 
HETATM   29  C31 UNL     1      -3.562  50.901 -20.554  1.00  0.00     0.384 C 
HETATM   30  N1  UNL     1      -4.961  51.128 -20.891  1.00  0.00     0.120 N 
HETATM   31  C32 UNL     1      -5.434  47.372 -18.256  1.00  0.00     0.183 C 
HETATM   32  C33 UNL     1      -7.018  47.414 -18.028  1.00  0.00     0.102 C 
HETATM   33  C34 UNL     1      -7.270  46.502 -16.800  1.00  0.00     0.050 C 
HETATM   34  C35 UNL     1      -7.689  45.695 -19.923  1.00  0.00     0.034 C 
HETATM   35  C36 UNL     1      -8.958  45.247 -20.715  1.00  0.00     0.027 C 
HETATM   36  C37 UNL     1      -9.509  43.887 -20.275  1.00  0.00     0.013 C 
HETATM   37  C38 UNL     1     -10.941  43.641 -20.766  1.00  0.00     0.043 C 
HETATM   38  C39 UNL     1      -9.963  46.392 -20.531  1.00  0.00     0.095 C 
HETATM   39  H43 UNL     1      -5.555  50.883 -20.099  1.00  0.00     0.319 HD
ENDROOT
BRANCH  32  40
HETATM   40  O7  UNL     1      -7.326  48.749 -17.552  1.00  0.00    -0.386 OA
HETATM   41  H49 UNL     1      -6.598  48.961 -16.929  1.00  0.00     0.210 HD
ENDBRANCH  32  40
BRANCH  38  42
HETATM   42  O8  UNL     1      -9.784  47.258 -21.655  1.00  0.00    -0.384 OA
HETATM   43  H57 UNL     1     -10.117  46.803 -22.447  1.00  0.00     0.211 HD
ENDBRANCH  38  42
BRANCH  31  44
HETATM   44  O6  UNL     1      -4.835  47.935 -17.052  1.00  0.00    -0.390 OA
HETATM   45  H45 UNL     1      -4.015  48.380 -17.355  1.00  0.00     0.210 HD
ENDBRANCH  31  44
BRANCH  29  46
HETATM   46  O5  UNL     1      -2.753  51.505 -21.549  1.00  0.00    -0.366 OA
HETATM   47  H42 UNL     1      -2.328  52.266 -21.110  1.00  0.00     0.212 HD
ENDBRANCH  29  46
BRANCH   1  48
HETATM   48  O2  UNL     1     -17.155  46.311 -21.874  1.00  0.00    -0.386 OA
BRANCH  48  49
HETATM   49  C4  UNL     1     -18.353  45.718 -22.378  1.00  0.00     0.170 C 
BRANCH  49  50
HETATM   50  C3  UNL     1     -18.961  46.587 -23.475  1.00  0.00     0.052 C 
BRANCH  50  51
HETATM   51  C2  UNL     1     -18.150  46.501 -24.762  1.00  0.00     0.169 C 
BRANCH  51  52
HETATM   52  O1  UNL     1     -18.982  46.207 -25.888  1.00  0.00    -0.396 OA
HETATM   53  C1  UNL     1     -19.530  44.893 -25.856  1.00  0.00     0.201 C 
ENDBRANCH  51  52
ENDBRANCH  50  51
ENDBRANCH  49  50
ENDBRANCH  48  49
ENDBRANCH   1  48
TORSDOF 9
ENDMDL
MODEL 5
REMARK minimizedAffinity -8.37176132
REMARK CNNscore 0.525099218
REMARK CNNaffinity 6.52035904
REMARK  9 active torsions:
REMARK  status: ('A' for Active; 'I' for Inactive)
REMARK    1  A    between atoms: O1_2  and  C2_3 
REMARK    2  A    between atoms: C2_3  and  C3_4 
REMARK    3  A    between atoms: C3_4  and  C4_5 
REMARK    4  A    between atoms: C4_5  and  O2_6 
REMARK    5  A    between atoms: O2_6  and  C5_7 
REMARK    6  A    between atoms: C31_35  and  O5_36 
REMARK    7  A    between atoms: C32_38  and  O6_39 
REMARK    8  A    between atoms: C33_40  and  O7_42 
REMARK    9  A    between atoms: C39_47  and  O8_48 
ROOT
HETATM    1  C5  UNL     1     -13.249  42.434 -26.709  1.00  0.00     0.122 C 
HETATM    2  C6  UNL     1     -11.787  42.514 -27.145  1.00  0.00     0.033 C 
HETATM    3  C7  UNL     1     -11.264  43.935 -27.370  1.00  0.00     0.013 C 
HETATM    4  C8  UNL     1     -11.757  45.016 -26.344  1.00  0.00    -0.026 C 
HETATM    5  C9  UNL     1     -12.748  45.938 -27.098  1.00  0.00     0.016 C 
HETATM    6  C10 UNL     1     -12.473  44.334 -25.150  1.00  0.00     0.071 C 
HETATM    7  C11 UNL     1     -13.640  43.452 -25.626  1.00  0.00     0.045 C 
HETATM    8  C12 UNL     1     -11.506  43.518 -24.285  1.00  0.00     0.161 C 
HETATM    9  O3  UNL     1     -11.844  42.469 -23.732  1.00  0.00    -0.292 OA
HETATM   10  C13 UNL     1     -10.139  44.056 -24.056  1.00  0.00    -0.006 C 
HETATM   11  C14 UNL     1      -9.752  45.149 -24.733  1.00  0.00    -0.030 C 
HETATM   12  C15 UNL     1     -10.526  45.856 -25.844  1.00  0.00     0.027 C 
HETATM   13  C16 UNL     1     -10.782  47.337 -25.441  1.00  0.00     0.011 C 
HETATM   14  C17 UNL     1      -9.492  48.072 -24.968  1.00  0.00     0.015 C 
HETATM   15  C18 UNL     1      -8.777  47.290 -23.838  1.00  0.00     0.013 C 
HETATM   16  C19 UNL     1      -9.790  47.247 -22.651  1.00  0.00     0.020 C 
HETATM   17  C20 UNL     1      -7.315  47.757 -23.371  1.00  0.00     0.067 C 
HETATM   18  C21 UNL     1      -6.489  48.000 -24.611  1.00  0.00    -0.092 C 
HETATM   19  C22 UNL     1      -5.809  48.229 -25.580  1.00  0.00    -0.103 C 
HETATM   20  C23 UNL     1      -4.952  48.544 -26.740  1.00  0.00     0.129 C 
HETATM   21  C24 UNL     1      -3.624  49.286 -26.408  1.00  0.00     0.235 C 
HETATM   22  C25 UNL     1      -2.645  48.447 -25.558  1.00  0.00     0.044 C 
HETATM   23  C26 UNL     1      -2.508  48.814 -24.073  1.00  0.00     0.027 C 
HETATM   24  C27 UNL     1      -3.616  48.247 -23.177  1.00  0.00     0.020 C 
HETATM   25  C28 UNL     1      -3.011  47.758 -21.851  1.00  0.00     0.013 C 
HETATM   26  C29 UNL     1      -4.540  49.457 -23.007  1.00  0.00     0.158 C 
HETATM   27  O4  UNL     1      -3.592  50.539 -22.804  1.00  0.00    -0.373 OA
HETATM   28  C30 UNL     1      -2.546  50.325 -23.795  1.00  0.00     0.185 C 
HETATM   29  C31 UNL     1      -2.776  51.171 -25.077  1.00  0.00     0.384 C 
HETATM   30  N1  UNL     1      -3.817  50.681 -25.970  1.00  0.00     0.120 N 
HETATM   31  C32 UNL     1      -5.640  49.396 -21.933  1.00  0.00     0.183 C 
HETATM   32  C33 UNL     1      -7.127  49.053 -22.419  1.00  0.00     0.102 C 
HETATM   33  C34 UNL     1      -7.980  49.054 -21.124  1.00  0.00     0.050 C 
HETATM   34  C35 UNL     1      -6.818  46.438 -22.670  1.00  0.00     0.034 C 
HETATM   35  C36 UNL     1      -7.539  45.224 -23.334  1.00  0.00     0.027 C 
HETATM   36  C37 UNL     1      -8.275  44.324 -22.335  1.00  0.00     0.013 C 
HETATM   37  C38 UNL     1      -9.282  43.385 -23.012  1.00  0.00     0.043 C 
HETATM   38  C39 UNL     1      -8.471  45.843 -24.385  1.00  0.00     0.095 C 
HETATM   39  H43 UNL     1      -4.732  50.791 -25.534  1.00  0.00     0.319 HD
ENDROOT
BRANCH  32  40
HETATM   40  O7  UNL     1      -7.592  50.213 -23.155  1.00  0.00    -0.386 OA
HETATM   41  H49 UNL     1      -7.264  50.980 -22.639  1.00  0.00     0.210 HD
ENDBRANCH  32  40
BRANCH  38  42
HETATM   42  O8  UNL     1      -7.733  45.848 -25.611  1.00  0.00    -0.384 OA
HETATM   43  H57 UNL     1      -7.643  44.930 -25.916  1.00  0.00     0.211 HD
ENDBRANCH  38  42
BRANCH  31  44
HETATM   44  O6  UNL     1      -5.701  50.728 -21.345  1.00  0.00    -0.390 OA
HETATM   45  H45 UNL     1      -4.827  51.133 -21.529  1.00  0.00     0.210 HD
ENDBRANCH  31  44
BRANCH  29  46
HETATM   46  O5  UNL     1      -1.564  51.268 -25.805  1.00  0.00    -0.366 OA
HETATM   47  H42 UNL     1      -1.391  52.224 -25.894  1.00  0.00     0.212 HD
ENDBRANCH  29  46
BRANCH   1  48
HETATM   48  O2  UNL     1     -14.050  42.648 -27.879  1.00  0.00    -0.386 OA
BRANCH  48  49
HETATM   49  C4  UNL     1     -15.455  42.650 -27.622  1.00  0.00     0.170 C 
BRANCH  49  50
HETATM   50  C3  UNL     1     -16.176  43.585 -28.589  1.00  0.00     0.052 C 
BRANCH  50  51
HETATM   51  C2  UNL     1     -17.496  42.985 -29.058  1.00  0.00     0.169 C 
BRANCH  51  52
HETATM   52  O1  UNL     1     -17.998  43.660 -30.214  1.00  0.00    -0.396 OA
HETATM   53  C1  UNL     1     -19.291  43.215 -30.611  1.00  0.00     0.201 C 
ENDBRANCH  51  52
ENDBRANCH  50  51
ENDBRANCH  49  50
ENDBRANCH  48  49
ENDBRANCH   1  48
TORSDOF 9
ENDMDL
MODEL 6
REMARK minimizedAffinity -7.93706989
REMARK CNNscore 0.501336277
REMARK CNNaffinity 6.56687021
REMARK  9 active torsions:
REMARK  status: ('A' for Active; 'I' for Inactive)
REMARK    1  A    between atoms: O1_2  and  C2_3 
REMARK    2  A    between atoms: C2_3  and  C3_4 
REMARK    3  A    between atoms: C3_4  and  C4_5 
REMARK    4  A    between atoms: C4_5  and  O2_6 
REMARK    5  A    between atoms: O2_6  and  C5_7 
REMARK    6  A    between atoms: C31_35  and  O5_36 
REMARK    7  A    between atoms: C32_38  and  O6_39 
REMARK    8  A    between atoms: C33_40  and  O7_42 
REMARK    9  A    between atoms: C39_47  and  O8_48 
ROOT
HETATM    1  C5  UNL     1       0.030  53.242 -11.316  1.00  0.00     0.122 C 
HETATM    2  C6  UNL     1      -0.560  54.586 -10.893  1.00  0.00     0.033 C 
HETATM    3  C7  UNL     1      -1.202  54.593  -9.503  1.00  0.00     0.013 C 
HETATM    4  C8  UNL     1      -0.450  53.771  -8.398  1.00  0.00    -0.026 C 
HETATM    5  C9  UNL     1      -1.313  52.519  -8.099  1.00  0.00     0.016 C 
HETATM    6  C10 UNL     1       0.948  53.338  -8.910  1.00  0.00     0.071 C 
HETATM    7  C11 UNL     1       0.843  52.537 -10.220  1.00  0.00     0.045 C 
HETATM    8  C12 UNL     1       1.892  54.532  -9.090  1.00  0.00     0.161 C 
HETATM    9  O3  UNL     1       2.732  54.575  -9.992  1.00  0.00    -0.292 OA
HETATM   10  C13 UNL     1       1.831  55.637  -8.097  1.00  0.00    -0.006 C 
HETATM   11  C14 UNL     1       0.855  55.624  -7.175  1.00  0.00    -0.030 C 
HETATM   12  C15 UNL     1      -0.317  54.646  -7.100  1.00  0.00     0.027 C 
HETATM   13  C16 UNL     1      -0.292  53.905  -5.732  1.00  0.00     0.011 C 
HETATM   14  C17 UNL     1      -0.163  54.872  -4.517  1.00  0.00     0.015 C 
HETATM   15  C18 UNL     1       1.052  55.820  -4.673  1.00  0.00     0.013 C 
HETATM   16  C19 UNL     1       2.307  54.890  -4.707  1.00  0.00     0.020 C 
HETATM   17  C20 UNL     1       1.228  57.039  -3.647  1.00  0.00     0.067 C 
HETATM   18  C21 UNL     1      -0.111  57.724  -3.508  1.00  0.00    -0.092 C 
HETATM   19  C22 UNL     1      -1.170  58.278  -3.353  1.00  0.00    -0.103 C 
HETATM   20  C23 UNL     1      -2.454  58.968  -3.117  1.00  0.00     0.129 C 
HETATM   21  C24 UNL     1      -2.466  59.967  -1.924  1.00  0.00     0.235 C 
HETATM   22  C25 UNL     1      -1.531  61.179  -2.124  1.00  0.00     0.044 C 
HETATM   23  C26 UNL     1      -0.216  61.194  -1.331  1.00  0.00     0.027 C 
HETATM   24  C27 UNL     1       0.905  60.352  -1.950  1.00  0.00     0.020 C 
HETATM   25  C28 UNL     1       2.244  61.098  -1.823  1.00  0.00     0.013 C 
HETATM   26  C29 UNL     1       0.846  59.074  -1.109  1.00  0.00     0.158 C 
HETATM   27  O4  UNL     1       0.660  59.599   0.233  1.00  0.00    -0.373 OA
HETATM   28  C30 UNL     1      -0.342  60.647   0.099  1.00  0.00     0.185 C 
HETATM   29  C31 UNL     1      -1.770  60.133   0.429  1.00  0.00     0.384 C 
HETATM   30  N1  UNL     1      -2.392  59.314  -0.603  1.00  0.00     0.120 N 
HETATM   31  C32 UNL     1       2.006  58.069  -1.219  1.00  0.00     0.183 C 
HETATM   32  C33 UNL     1       1.782  56.782  -2.147  1.00  0.00     0.102 C 
HETATM   33  C34 UNL     1       3.112  55.990  -2.058  1.00  0.00     0.050 C 
HETATM   34  C35 UNL     1       2.195  57.960  -4.479  1.00  0.00     0.034 C 
HETATM   35  C36 UNL     1       1.950  57.690  -5.997  1.00  0.00     0.027 C 
HETATM   36  C37 UNL     1       3.221  57.312  -6.767  1.00  0.00     0.013 C 
HETATM   37  C38 UNL     1       2.920  56.679  -8.131  1.00  0.00     0.043 C 
HETATM   38  C39 UNL     1       0.876  56.595  -6.035  1.00  0.00     0.095 C 
HETATM   39  H43 UNL     1      -1.909  58.419  -0.677  1.00  0.00     0.319 HD
ENDROOT
BRANCH  32  40
HETATM   40  O7  UNL     1       0.820  55.945  -1.457  1.00  0.00    -0.386 OA
HETATM   41  H49 UNL     1       1.081  55.997  -0.513  1.00  0.00     0.210 HD
ENDBRANCH  32  40
BRANCH  38  42
HETATM   42  O8  UNL     1      -0.378  57.277  -6.136  1.00  0.00    -0.384 OA
HETATM   43  H57 UNL     1      -0.440  57.672  -7.022  1.00  0.00     0.211 HD
ENDBRANCH  38  42
BRANCH  31  44
HETATM   44  O6  UNL     1       2.227  57.563   0.131  1.00  0.00    -0.390 OA
HETATM   45  H45 UNL     1       1.855  58.246   0.727  1.00  0.00     0.210 HD
ENDBRANCH  31  44
BRANCH  29  46
HETATM   46  O5  UNL     1      -2.619  61.235   0.704  1.00  0.00    -0.366 OA
HETATM   47  H42 UNL     1      -2.973  61.071   1.599  1.00  0.00     0.212 HD
ENDBRANCH  29  46
BRANCH   1  48
HETATM   48  O2  UNL     1      -1.067  52.407 -11.712  1.00  0.00    -0.386 OA
BRANCH  48  49
HETATM   49  C4  UNL     1      -1.080  52.097 -13.106  1.00  0.00     0.170 C 
BRANCH  49  50
HETATM   50  C3  UNL     1       0.342  51.930 -13.633  1.00  0.00     0.052 C 
BRANCH  50  51
HETATM   51  C2  UNL     1       0.351  51.679 -15.136  1.00  0.00     0.169 C 
BRANCH  51  52
HETATM   52  O1  UNL     1       1.048  52.712 -15.836  1.00  0.00    -0.396 OA
HETATM   53  C1  UNL     1       1.332  52.382 -17.192  1.00  0.00     0.201 C 
ENDBRANCH  51  52
ENDBRANCH  50  51
ENDBRANCH  49  50
ENDBRANCH  48  49
ENDBRANCH   1  48
TORSDOF 9
ENDMDL
MODEL 7
REMARK minimizedAffinity -8.10067844
REMARK CNNscore 0.495207936
REMARK CNNaffinity 6.78982544
REMARK  9 active torsions:
REMARK  status: ('A' for Active; 'I' for Inactive)
REMARK    1  A    between atoms: O1_2  and  C2_3 
REMARK    2  A    between atoms: C2_3  and  C3_4 
REMARK    3  A    between atoms: C3_4  and  C4_5 
REMARK    4  A    between atoms: C4_5  and  O2_6 
REMARK    5  A    between atoms: O2_6  and  C5_7 
REMARK    6  A    between atoms: C31_35  and  O5_36 
REMARK    7  A    between atoms: C32_38  and  O6_39 
REMARK    8  A    between atoms: C33_40  and  O7_42 
REMARK    9  A    between atoms: C39_47  and  O8_48 
ROOT
HETATM    1  C5  UNL     1       0.150  53.215 -11.340  1.00  0.00     0.122 C 
HETATM    2  C6  UNL     1      -0.494  54.527 -10.898  1.00  0.00     0.033 C 
HETATM    3  C7  UNL     1      -1.077  54.508  -9.483  1.00  0.00     0.013 C 
HETATM    4  C8  UNL     1      -0.235  53.736  -8.407  1.00  0.00    -0.026 C 
HETATM    5  C9  UNL     1      -1.016  52.440  -8.066  1.00  0.00     0.016 C 
HETATM    6  C10 UNL     1       1.161  53.376  -8.975  1.00  0.00     0.071 C 
HETATM    7  C11 UNL     1       1.045  52.562 -10.276  1.00  0.00     0.045 C 
HETATM    8  C12 UNL     1       2.031  54.619  -9.200  1.00  0.00     0.161 C 
HETATM    9  O3  UNL     1       2.829  54.701 -10.137  1.00  0.00    -0.292 OA
HETATM   10  C13 UNL     1       1.951  55.725  -8.210  1.00  0.00    -0.006 C 
HETATM   11  C14 UNL     1       1.016  55.665  -7.248  1.00  0.00    -0.030 C 
HETATM   12  C15 UNL     1      -0.096  54.625  -7.119  1.00  0.00     0.027 C 
HETATM   13  C16 UNL     1       0.027  53.896  -5.750  1.00  0.00     0.011 C 
HETATM   14  C17 UNL     1       0.153  54.876  -4.545  1.00  0.00     0.015 C 
HETATM   15  C18 UNL     1       1.307  55.888  -4.757  1.00  0.00     0.013 C 
HETATM   16  C19 UNL     1       2.608  55.028  -4.839  1.00  0.00     0.020 C 
HETATM   17  C20 UNL     1       1.460  57.121  -3.744  1.00  0.00     0.067 C 
HETATM   18  C21 UNL     1       0.092  57.733  -3.552  1.00  0.00    -0.092 C 
HETATM   19  C22 UNL     1      -0.989  58.230  -3.355  1.00  0.00    -0.103 C 
HETATM   20  C23 UNL     1      -2.298  58.850  -3.068  1.00  0.00     0.129 C 
HETATM   21  C24 UNL     1      -2.314  59.855  -1.879  1.00  0.00     0.235 C 
HETATM   22  C25 UNL     1      -1.456  61.115  -2.124  1.00  0.00     0.044 C 
HETATM   23  C26 UNL     1      -0.112  61.207  -1.387  1.00  0.00     0.027 C 
HETATM   24  C27 UNL     1       1.027  60.423  -2.049  1.00  0.00     0.020 C 
HETATM   25  C28 UNL     1       2.327  61.242  -1.982  1.00  0.00     0.013 C 
HETATM   26  C29 UNL     1       1.073  59.149  -1.201  1.00  0.00     0.158 C 
HETATM   27  O4  UNL     1       0.915  59.672   0.145  1.00  0.00    -0.373 OA
HETATM   28  C30 UNL     1      -0.148  60.663   0.049  1.00  0.00     0.185 C 
HETATM   29  C31 UNL     1      -1.530  60.075   0.441  1.00  0.00     0.384 C 
HETATM   30  N1  UNL     1      -2.149  59.216  -0.560  1.00  0.00     0.120 N 
HETATM   31  C32 UNL     1       2.280  58.208  -1.356  1.00  0.00     0.183 C 
HETATM   32  C33 UNL     1       2.089  56.905  -2.268  1.00  0.00     0.102 C 
HETATM   33  C34 UNL     1       3.463  56.187  -2.232  1.00  0.00     0.050 C 
HETATM   34  C35 UNL     1       2.339  58.088  -4.620  1.00  0.00     0.034 C 
HETATM   35  C36 UNL     1       2.045  57.795  -6.125  1.00  0.00     0.027 C 
HETATM   36  C37 UNL     1       3.301  57.482  -6.946  1.00  0.00     0.013 C 
HETATM   37  C38 UNL     1       2.979  56.824  -8.295  1.00  0.00     0.043 C 
HETATM   38  C39 UNL     1       1.032  56.643  -6.114  1.00  0.00     0.095 C 
HETATM   39  H43 UNL     1      -1.621  58.348  -0.651  1.00  0.00     0.319 HD
ENDROOT
BRANCH  32  40
HETATM   40  O7  UNL     1       1.204  56.021  -1.534  1.00  0.00    -0.386 OA
HETATM   41  H49 UNL     1       1.501  56.093  -0.602  1.00  0.00     0.210 HD
ENDBRANCH  32  40
BRANCH  38  42
HETATM   42  O8  UNL     1      -0.261  57.255  -6.164  1.00  0.00    -0.384 OA
HETATM   43  H57 UNL     1      -0.381  57.640  -7.049  1.00  0.00     0.211 HD
ENDBRANCH  38  42
BRANCH  31  44
HETATM   44  O6  UNL     1       2.586  57.723  -0.015  1.00  0.00    -0.390 OA
HETATM   45  H45 UNL     1       2.202  58.389   0.594  1.00  0.00     0.210 HD
ENDBRANCH  31  44
BRANCH  29  46
HETATM   46  O5  UNL     1      -2.426  61.130   0.748  1.00  0.00    -0.366 OA
HETATM   47  H42 UNL     1      -2.732  60.953   1.657  1.00  0.00     0.212 HD
ENDBRANCH  29  46
BRANCH   1  48
HETATM   48  O2  UNL     1      -0.915  52.318 -11.686  1.00  0.00    -0.386 OA
BRANCH  48  49
HETATM   49  C4  UNL     1      -1.117  52.180 -13.093  1.00  0.00     0.170 C 
BRANCH  49  50
HETATM   50  C3  UNL     1      -2.599  51.999 -13.407  1.00  0.00     0.052 C 
BRANCH  50  51
HETATM   51  C2  UNL     1      -3.444  52.048 -12.140  1.00  0.00     0.169 C 
BRANCH  51  52
HETATM   52  O1  UNL     1      -4.134  53.294 -12.016  1.00  0.00    -0.396 OA
HETATM   53  C1  UNL     1      -4.231  53.755 -10.672  1.00  0.00     0.201 C 
ENDBRANCH  51  52
ENDBRANCH  50  51
ENDBRANCH  49  50
ENDBRANCH  48  49
ENDBRANCH   1  48
TORSDOF 9
ENDMDL
MODEL 8
REMARK minimizedAffinity -8.42638206
REMARK CNNscore 0.485694289
REMARK CNNaffinity 6.48169327
REMARK  9 active torsions:
REMARK  status: ('A' for Active; 'I' for Inactive)
REMARK    1  A    between atoms: O1_2  and  C2_3 
REMARK    2  A    between atoms: C2_3  and  C3_4 
REMARK    3  A    between atoms: C3_4  and  C4_5 
REMARK    4  A    between atoms: C4_5  and  O2_6 
REMARK    5  A    between atoms: O2_6  and  C5_7 
REMARK    6  A    between atoms: C31_35  and  O5_36 
REMARK    7  A    between atoms: C32_38  and  O6_39 
REMARK    8  A    between atoms: C33_40  and  O7_42 
REMARK    9  A    between atoms: C39_47  and  O8_48 
ROOT
HETATM    1  C5  UNL     1     -16.649  45.582 -21.829  1.00  0.00     0.122 C 
HETATM    2  C6  UNL     1     -16.044  46.742 -22.617  1.00  0.00     0.033 C 
HETATM    3  C7  UNL     1     -14.547  46.607 -22.907  1.00  0.00     0.013 C 
HETATM    4  C8  UNL     1     -14.049  45.165 -23.275  1.00  0.00    -0.026 C 
HETATM    5  C9  UNL     1     -13.221  44.650 -22.070  1.00  0.00     0.016 C 
HETATM    6  C10 UNL     1     -15.258  44.227 -23.524  1.00  0.00     0.071 C 
HETATM    7  C11 UNL     1     -16.201  44.193 -22.308  1.00  0.00     0.045 C 
HETATM    8  C12 UNL     1     -16.035  44.609 -24.789  1.00  0.00     0.161 C 
HETATM    9  O3  UNL     1     -17.259  44.485 -24.872  1.00  0.00    -0.292 OA
HETATM   10  C13 UNL     1     -15.268  45.078 -25.974  1.00  0.00    -0.006 C 
HETATM   11  C14 UNL     1     -13.949  45.295 -25.845  1.00  0.00    -0.030 C 
HETATM   12  C15 UNL     1     -13.137  45.241 -24.552  1.00  0.00     0.027 C 
HETATM   13  C16 UNL     1     -12.004  44.184 -24.691  1.00  0.00     0.011 C 
HETATM   14  C17 UNL     1     -11.161  44.360 -25.990  1.00  0.00     0.015 C 
HETATM   15  C18 UNL     1     -12.063  44.397 -27.250  1.00  0.00     0.013 C 
HETATM   16  C19 UNL     1     -12.772  43.006 -27.299  1.00  0.00     0.020 C 
HETATM   17  C20 UNL     1     -11.416  44.798 -28.661  1.00  0.00     0.067 C 
HETATM   18  C21 UNL     1     -10.558  46.022 -28.446  1.00  0.00    -0.092 C 
HETATM   19  C22 UNL     1      -9.843  46.982 -28.305  1.00  0.00    -0.103 C 
HETATM   20  C23 UNL     1      -8.939  48.142 -28.168  1.00  0.00     0.129 C 
HETATM   21  C24 UNL     1      -8.033  48.430 -29.401  1.00  0.00     0.235 C 
HETATM   22  C25 UNL     1      -8.822  48.839 -30.664  1.00  0.00     0.044 C 
HETATM   23  C26 UNL     1      -8.959  47.791 -31.779  1.00  0.00     0.027 C 
HETATM   24  C27 UNL     1     -10.066  46.758 -31.542  1.00  0.00     0.020 C 
HETATM   25  C28 UNL     1     -10.800  46.471 -32.863  1.00  0.00     0.013 C 
HETATM   26  C29 UNL     1      -9.274  45.555 -31.021  1.00  0.00     0.158 C 
HETATM   27  O4  UNL     1      -8.117  45.547 -31.898  1.00  0.00    -0.373 OA
HETATM   28  C30 UNL     1      -7.699  46.939 -31.995  1.00  0.00     0.185 C 
HETATM   29  C31 UNL     1      -6.560  47.276 -30.995  1.00  0.00     0.384 C 
HETATM   30  N1  UNL     1      -6.973  47.426 -29.606  1.00  0.00     0.120 N 
HETATM   31  C32 UNL     1      -9.984  44.193 -30.929  1.00  0.00     0.183 C 
HETATM   32  C33 UNL     1     -10.519  43.734 -29.490  1.00  0.00     0.102 C 
HETATM   33  C34 UNL     1     -11.182  42.354 -29.732  1.00  0.00     0.050 C 
HETATM   34  C35 UNL     1     -12.714  45.210 -29.450  1.00  0.00     0.034 C 
HETATM   35  C36 UNL     1     -13.775  45.718 -28.423  1.00  0.00     0.027 C 
HETATM   36  C37 UNL     1     -15.121  44.990 -28.519  1.00  0.00     0.013 C 
HETATM   37  C38 UNL     1     -16.003  45.211 -27.283  1.00  0.00     0.043 C 
HETATM   38  C39 UNL     1     -13.104  45.564 -27.052  1.00  0.00     0.095 C 
HETATM   39  H43 UNL     1      -7.262  46.524 -29.228  1.00  0.00     0.319 HD
ENDROOT
BRANCH  32  40
HETATM   40  O7  UNL     1      -9.344  43.433 -28.696  1.00  0.00    -0.386 OA
HETATM   41  H49 UNL     1      -8.741  42.969 -29.315  1.00  0.00     0.210 HD
ENDBRANCH  32  40
BRANCH  38  42
HETATM   42  O8  UNL     1     -12.489  46.826 -26.772  1.00  0.00    -0.384 OA
HETATM   43  H57 UNL     1     -13.190  47.475 -26.597  1.00  0.00     0.211 HD
ENDBRANCH  38  42
BRANCH  31  44
HETATM   44  O6  UNL     1      -8.996  43.198 -31.331  1.00  0.00    -0.390 OA
HETATM   45  H45 UNL     1      -8.339  43.689 -31.868  1.00  0.00     0.210 HD
ENDBRANCH  31  44
BRANCH  29  46
HETATM   46  O5  UNL     1      -5.906  48.466 -31.404  1.00  0.00    -0.366 OA
HETATM   47  H42 UNL     1      -4.967  48.222 -31.508  1.00  0.00     0.212 HD
ENDBRANCH  29  46
BRANCH   1  48
HETATM   48  O2  UNL     1     -16.269  45.762 -20.458  1.00  0.00    -0.386 OA
BRANCH  48  49
HETATM   49  C4  UNL     1     -16.653  47.026 -19.915  1.00  0.00     0.170 C 
BRANCH  49  50
HETATM   50  C3  UNL     1     -15.428  47.800 -19.437  1.00  0.00     0.052 C 
BRANCH  50  51
HETATM   51  C2  UNL     1     -15.267  47.702 -17.925  1.00  0.00     0.169 C 
BRANCH  51  52
HETATM   52  O1  UNL     1     -14.991  48.979 -17.343  1.00  0.00    -0.396 OA
HETATM   53  C1  UNL     1     -15.934  49.981 -17.709  1.00  0.00     0.201 C 
ENDBRANCH  51  52
ENDBRANCH  50  51
ENDBRANCH  49  50
ENDBRANCH  48  49
ENDBRANCH   1  48
TORSDOF 9
ENDMDL
MODEL 9
REMARK minimizedAffinity -7.60927629
REMARK CNNscore 0.483174503
REMARK CNNaffinity 6.64276171
REMARK  9 active torsions:
REMARK  status: ('A' for Active; 'I' for Inactive)
REMARK    1  A    between atoms: O1_2  and  C2_3 
REMARK    2  A    between atoms: C2_3  and  C3_4 
REMARK    3  A    between atoms: C3_4  and  C4_5 
REMARK    4  A    between atoms: C4_5  and  O2_6 
REMARK    5  A    between atoms: O2_6  and  C5_7 
REMARK    6  A    between atoms: C31_35  and  O5_36 
REMARK    7  A    between atoms: C32_38  and  O6_39 
REMARK    8  A    between atoms: C33_40  and  O7_42 
REMARK    9  A    between atoms: C39_47  and  O8_48 
ROOT
HETATM    1  C5  UNL     1      -4.935  49.800 -11.129  1.00  0.00     0.122 C 
HETATM    2  C6  UNL     1      -4.690  50.379  -9.737  1.00  0.00     0.033 C 
HETATM    3  C7  UNL     1      -3.289  50.124  -9.176  1.00  0.00     0.013 C 
HETATM    4  C8  UNL     1      -2.109  50.234 -10.205  1.00  0.00    -0.026 C 
HETATM    5  C9  UNL     1      -1.587  48.795 -10.450  1.00  0.00     0.016 C 
HETATM    6  C10 UNL     1      -2.615  50.846 -11.537  1.00  0.00     0.071 C 
HETATM    7  C11 UNL     1      -3.784  50.033 -12.120  1.00  0.00     0.045 C 
HETATM    8  C12 UNL     1      -3.015  52.317 -11.381  1.00  0.00     0.161 C 
HETATM    9  O3  UNL     1      -3.951  52.814 -12.012  1.00  0.00    -0.292 OA
HETATM   10  C13 UNL     1      -2.197  53.181 -10.490  1.00  0.00    -0.006 C 
HETATM   11  C14 UNL     1      -1.239  52.612  -9.740  1.00  0.00    -0.030 C 
HETATM   12  C15 UNL     1      -0.964  51.117  -9.590  1.00  0.00     0.027 C 
HETATM   13  C16 UNL     1       0.496  50.807 -10.028  1.00  0.00     0.011 C 
HETATM   14  C17 UNL     1       1.546  51.740  -9.352  1.00  0.00     0.015 C 
HETATM   15  C18 UNL     1       1.194  53.234  -9.559  1.00  0.00     0.013 C 
HETATM   16  C19 UNL     1       1.242  53.465 -11.103  1.00  0.00     0.020 C 
HETATM   17  C20 UNL     1       2.018  54.349  -8.754  1.00  0.00     0.067 C 
HETATM   18  C21 UNL     1       2.114  53.903  -7.314  1.00  0.00    -0.092 C 
HETATM   19  C22 UNL     1       2.234  53.564  -6.163  1.00  0.00    -0.103 C 
HETATM   20  C23 UNL     1       2.422  53.173  -4.752  1.00  0.00     0.129 C 
HETATM   21  C24 UNL     1       3.453  54.026  -3.955  1.00  0.00     0.235 C 
HETATM   22  C25 UNL     1       3.030  55.500  -3.782  1.00  0.00     0.044 C 
HETATM   23  C26 UNL     1       3.751  56.547  -4.645  1.00  0.00     0.027 C 
HETATM   24  C27 UNL     1       3.213  56.664  -6.075  1.00  0.00     0.020 C 
HETATM   25  C28 UNL     1       3.165  58.144  -6.492  1.00  0.00     0.013 C 
HETATM   26  C29 UNL     1       4.238  55.849  -6.869  1.00  0.00     0.158 C 
HETATM   27  O4  UNL     1       5.493  56.269  -6.271  1.00  0.00    -0.373 OA
HETATM   28  C30 UNL     1       5.251  56.275  -4.835  1.00  0.00     0.185 C 
HETATM   29  C31 UNL     1       5.719  54.957  -4.160  1.00  0.00     0.384 C 
HETATM   30  N1  UNL     1       4.851  53.806  -4.369  1.00  0.00     0.120 N 
HETATM   31  C32 UNL     1       4.226  55.950  -8.405  1.00  0.00     0.183 C 
HETATM   32  C33 UNL     1       3.512  54.768  -9.217  1.00  0.00     0.102 C 
HETATM   33  C34 UNL     1       3.656  55.165 -10.709  1.00  0.00     0.050 C 
HETATM   34  C35 UNL     1       1.013  55.556  -8.853  1.00  0.00     0.034 C 
HETATM   35  C36 UNL     1      -0.434  54.985  -8.980  1.00  0.00     0.027 C 
HETATM   36  C37 UNL     1      -1.197  55.511 -10.201  1.00  0.00     0.013 C 
HETATM   37  C38 UNL     1      -2.436  54.669 -10.533  1.00  0.00     0.043 C 
HETATM   38  C39 UNL     1      -0.259  53.461  -8.990  1.00  0.00     0.095 C 
HETATM   39  H43 UNL     1       4.889  53.513  -5.345  1.00  0.00     0.319 HD
ENDROOT
BRANCH  32  40
HETATM   40  O7  UNL     1       4.363  53.603  -9.072  1.00  0.00    -0.386 OA
HETATM   41  H49 UNL     1       5.275  53.953  -9.152  1.00  0.00     0.210 HD
ENDBRANCH  32  40
BRANCH  38  42
HETATM   42  O8  UNL     1      -0.402  53.040  -7.630  1.00  0.00    -0.384 OA
HETATM   43  H57 UNL     1      -1.334  53.148  -7.374  1.00  0.00     0.211 HD
ENDBRANCH  38  42
BRANCH  31  44
HETATM   44  O6  UNL     1       5.624  55.940  -8.818  1.00  0.00    -0.390 OA
HETATM   45  H45 UNL     1       6.128  56.236  -8.031  1.00  0.00     0.210 HD
ENDBRANCH  31  44
BRANCH  29  46
HETATM   46  O5  UNL     1       5.866  55.165  -2.765  1.00  0.00    -0.366 OA
HETATM   47  H42 UNL     1       6.790  54.926  -2.564  1.00  0.00     0.212 HD
ENDBRANCH  29  46
BRANCH   1  48
HETATM   48  O2  UNL     1      -5.150  48.391 -10.967  1.00  0.00    -0.386 OA
BRANCH  48  49
HETATM   49  C4  UNL     1      -6.386  47.931 -11.515  1.00  0.00     0.170 C 
BRANCH  49  50
HETATM   50  C3  UNL     1      -7.506  48.050 -10.485  1.00  0.00     0.052 C 
BRANCH  50  51
HETATM   51  C2  UNL     1      -8.281  49.351 -10.659  1.00  0.00     0.169 C 
BRANCH  51  52
HETATM   52  O1  UNL     1      -8.215  50.162  -9.483  1.00  0.00    -0.396 OA
HETATM   53  C1  UNL     1      -8.386  49.424  -8.278  1.00  0.00     0.201 C 
ENDBRANCH  51  52
ENDBRANCH  50  51
ENDBRANCH  49  50
ENDBRANCH  48  49
ENDBRANCH   1  48
TORSDOF 9
ENDMDL
