MODEL 1
REMARK minimizedAffinity -8.56582546
REMARK  10 active torsions:
REMARK  status: ('A' for Active; 'I' for Inactive)
REMARK    1  A    between atoms: C14_14  and  C15_15 
REMARK    2  A    between atoms: C15_15  and  C17_17 
REMARK    3  A    between atoms: C17_17  and  C18_18 
REMARK    4  A    between atoms: C18_18  and  C19_19 
REMARK    5  A    between atoms: C20_20  and  C22_22 
REMARK    6  A    between atoms: C22_22  and  O2_24 
REMARK    7  A    between atoms: C27_29  and  C28_30 
REMARK    8  A    between atoms: C28_30  and  C29_31 
REMARK    9  A    between atoms: C29_31  and  C30_32 
REMARK   10  A    between atoms: C30_32  and  O3_33 
ROOT
HETATM    1  C1  UNL     1      -8.289   3.909  12.649  1.00  0.00     0.043 C 
HETATM    2  C2  UNL     1      -8.162   5.371  13.019  1.00  0.00    -0.085 C 
HETATM    3  C3  UNL     1      -9.000   6.251  12.121  1.00  0.00     0.043 C 
HETATM    4  C4  UNL     1      -7.392   5.823  14.047  1.00  0.00    -0.073 C 
HETATM    5  C5  UNL     1      -6.575   4.869  14.890  1.00  0.00     0.035 C 
HETATM    6  C6  UNL     1      -5.465   5.485  15.740  1.00  0.00     0.010 C 
HETATM    7  C7  UNL     1      -4.763   6.737  15.178  1.00  0.00     0.003 C 
HETATM    8  C8  UNL     1      -5.747   7.791  14.493  1.00  0.00    -0.032 C 
HETATM    9  C9  UNL     1      -5.733   9.153  15.245  1.00  0.00     0.016 C 
HETATM   10  C10 UNL     1      -5.292   8.131  13.024  1.00  0.00     0.011 C 
HETATM   11  C11 UNL     1      -3.791   8.360  12.748  1.00  0.00     0.011 C 
HETATM   12  C12 UNL     1      -2.834   7.707  13.755  1.00  0.00    -0.032 C 
HETATM   13  C13 UNL     1      -2.466   8.724  14.877  1.00  0.00     0.016 C 
HETATM   14  C14 UNL     1      -1.507   7.155  13.142  1.00  0.00    -0.002 C 
HETATM   15  C23 UNL     1      -1.053   6.093  14.178  1.00  0.00     0.006 C 
HETATM   16  C24 UNL     1      -2.280   5.803  15.082  1.00  0.00     0.011 C 
HETATM   17  C25 UNL     1      -3.491   6.389  14.312  1.00  0.00    -0.032 C 
HETATM   18  C26 UNL     1      -3.854   5.315  13.234  1.00  0.00     0.016 C 
HETATM   19  C27 UNL     1      -7.258   7.297  14.418  1.00  0.00     0.023 C 
ENDROOT
BRANCH  14  20
HETATM   20  C15 UNL     1      -0.430   8.088  12.515  1.00  0.00    -0.014 C 
HETATM   21  C16 UNL     1      -1.066   8.916  11.381  1.00  0.00     0.010 C 
BRANCH  20  22
HETATM   22  C17 UNL     1       0.946   7.554  12.059  1.00  0.00     0.008 C 
BRANCH  22  23
HETATM   23  C18 UNL     1       0.970   6.468  10.978  1.00  0.00     0.028 C 
BRANCH  23  24
HETATM   24  C19 UNL     1       1.224   7.079   9.626  1.00  0.00    -0.013 C 
HETATM   25  C20 UNL     1       2.150   6.722   8.713  1.00  0.00     0.008 C 
HETATM   26  C21 UNL     1       3.164   5.629   8.863  1.00  0.00     0.055 C 
BRANCH  25  27
HETATM   27  C22 UNL     1       2.162   7.501   7.448  1.00  0.00     0.171 C 
HETATM   28  O1  UNL     1       1.623   7.196   6.399  1.00  0.00    -0.646 OA
BRANCH  27  29
HETATM   29  O2  UNL     1       2.863   8.643   7.555  1.00  0.00    -0.773 OA
HETATM   30  H35 UNL     1       2.779   9.043   6.665  1.00  0.00     0.167 HD
ENDBRANCH  27  29
ENDBRANCH  25  27
ENDBRANCH  23  24
ENDBRANCH  22  23
ENDBRANCH  20  22
ENDBRANCH  14  20
BRANCH  19  31
HETATM   31  C28 UNL     1      -8.264   7.696  15.543  1.00  0.00     0.012 C 
BRANCH  31  32
HETATM   32  C29 UNL     1      -9.374   8.696  15.225  1.00  0.00     0.027 C 
BRANCH  32  33
HETATM   33  C30 UNL     1     -10.691   8.014  14.861  1.00  0.00     0.164 C 
BRANCH  33  34
HETATM   34  O3  UNL     1     -10.674   6.639  15.217  1.00  0.00    -0.401 OA
HETATM   35  H50 UNL     1     -10.119   6.175  14.566  1.00  0.00     0.209 HD
ENDBRANCH  33  34
ENDBRANCH  32  33
ENDBRANCH  31  32
ENDBRANCH  19  31
TORSDOF 10
ENDMDL
MODEL 2
REMARK minimizedAffinity -8.45766068
REMARK  10 active torsions:
REMARK  status: ('A' for Active; 'I' for Inactive)
REMARK    1  A    between atoms: C14_14  and  C15_15 
REMARK    2  A    between atoms: C15_15  and  C17_17 
REMARK    3  A    between atoms: C17_17  and  C18_18 
REMARK    4  A    between atoms: C18_18  and  C19_19 
REMARK    5  A    between atoms: C20_20  and  C22_22 
REMARK    6  A    between atoms: C22_22  and  O2_24 
REMARK    7  A    between atoms: C27_29  and  C28_30 
REMARK    8  A    between atoms: C28_30  and  C29_31 
REMARK    9  A    between atoms: C29_31  and  C30_32 
REMARK   10  A    between atoms: C30_32  and  O3_33 
ROOT
HETATM    1  C1  UNL     1      -0.093   8.836  10.059  1.00  0.00     0.043 C 
HETATM    2  C2  UNL     1      -0.097   7.630  10.974  1.00  0.00    -0.085 C 
HETATM    3  C3  UNL     1       0.327   6.374  10.247  1.00  0.00     0.043 C 
HETATM    4  C4  UNL     1      -0.431   7.686  12.292  1.00  0.00    -0.073 C 
HETATM    5  C5  UNL     1      -0.854   8.988  12.936  1.00  0.00     0.035 C 
HETATM    6  C6  UNL     1      -1.573   8.885  14.280  1.00  0.00     0.010 C 
HETATM    7  C7  UNL     1      -2.456   7.643  14.510  1.00  0.00     0.003 C 
HETATM    8  C8  UNL     1      -1.821   6.278  13.983  1.00  0.00    -0.032 C 
HETATM    9  C9  UNL     1      -1.575   5.278  15.149  1.00  0.00     0.016 C 
HETATM   10  C10 UNL     1      -2.802   5.529  13.004  1.00  0.00     0.011 C 
HETATM   11  C11 UNL     1      -4.300   5.458  13.366  1.00  0.00     0.011 C 
HETATM   12  C12 UNL     1      -4.795   6.560  14.314  1.00  0.00    -0.032 C 
HETATM   13  C13 UNL     1      -4.732   6.062  15.789  1.00  0.00     0.016 C 
HETATM   14  C14 UNL     1      -6.246   7.068  14.032  1.00  0.00    -0.002 C 
HETATM   15  C23 UNL     1      -6.258   8.480  14.677  1.00  0.00     0.006 C 
HETATM   16  C24 UNL     1      -4.776   8.866  14.925  1.00  0.00     0.011 C 
HETATM   17  C25 UNL     1      -3.954   7.868  14.070  1.00  0.00    -0.032 C 
HETATM   18  C26 UNL     1      -4.006   8.434  12.612  1.00  0.00     0.016 C 
HETATM   19  C27 UNL     1      -0.441   6.471  13.214  1.00  0.00     0.023 C 
ENDROOT
BRANCH  14  20
HETATM   20  C15 UNL     1      -7.496   6.159  14.214  1.00  0.00    -0.014 C 
HETATM   21  C16 UNL     1      -7.329   5.306  15.487  1.00  0.00     0.010 C 
BRANCH  20  22
HETATM   22  C17 UNL     1      -8.038   5.278  13.066  1.00  0.00     0.008 C 
BRANCH  22  23
HETATM   23  C18 UNL     1      -7.655   3.794  13.061  1.00  0.00     0.028 C 
BRANCH  23  24
HETATM   24  C19 UNL     1      -6.300   3.604  12.433  1.00  0.00    -0.013 C 
HETATM   25  C20 UNL     1      -5.834   2.523  11.775  1.00  0.00     0.008 C 
HETATM   26  C21 UNL     1      -6.575   1.241  11.541  1.00  0.00     0.055 C 
BRANCH  25  27
HETATM   27  C22 UNL     1      -4.449   2.622  11.245  1.00  0.00     0.171 C 
HETATM   28  O1  UNL     1      -3.432   2.224  11.785  1.00  0.00    -0.646 OA
BRANCH  27  29
HETATM   29  O2  UNL     1      -4.400   3.229  10.046  1.00  0.00    -0.773 OA
HETATM   30  H35 UNL     1      -3.445   3.218   9.828  1.00  0.00     0.167 HD
ENDBRANCH  27  29
ENDBRANCH  25  27
ENDBRANCH  23  24
ENDBRANCH  22  23
ENDBRANCH  20  22
ENDBRANCH  14  20
BRANCH  19  31
HETATM   31  C28 UNL     1       0.907   6.331  13.989  1.00  0.00     0.012 C 
BRANCH  31  32
HETATM   32  C29 UNL     1       1.816   7.553  14.121  1.00  0.00     0.027 C 
BRANCH  32  33
HETATM   33  C30 UNL     1       2.438   7.672  15.510  1.00  0.00     0.164 C 
BRANCH  33  34
HETATM   34  O3  UNL     1       3.267   6.555  15.801  1.00  0.00    -0.401 OA
HETATM   35  H50 UNL     1       2.683   5.802  16.000  1.00  0.00     0.209 HD
ENDBRANCH  33  34
ENDBRANCH  32  33
ENDBRANCH  31  32
ENDBRANCH  19  31
TORSDOF 10
ENDMDL
MODEL 3
REMARK minimizedAffinity -8.42095089
REMARK  10 active torsions:
REMARK  status: ('A' for Active; 'I' for Inactive)
REMARK    1  A    between atoms: C14_14  and  C15_15 
REMARK    2  A    between atoms: C15_15  and  C17_17 
REMARK    3  A    between atoms: C17_17  and  C18_18 
REMARK    4  A    between atoms: C18_18  and  C19_19 
REMARK    5  A    between atoms: C20_20  and  C22_22 
REMARK    6  A    between atoms: C22_22  and  O2_24 
REMARK    7  A    between atoms: C27_29  and  C28_30 
REMARK    8  A    between atoms: C28_30  and  C29_31 
REMARK    9  A    between atoms: C29_31  and  C30_32 
REMARK   10  A    between atoms: C30_32  and  O3_33 
ROOT
HETATM    1  C1  UNL     1      -7.582   7.434  16.579  1.00  0.00     0.043 C 
HETATM    2  C2  UNL     1      -6.958   6.362  15.711  1.00  0.00    -0.085 C 
HETATM    3  C3  UNL     1      -7.180   4.980  16.282  1.00  0.00     0.043 C 
HETATM    4  C4  UNL     1      -6.292   6.624  14.554  1.00  0.00    -0.073 C 
HETATM    5  C5  UNL     1      -6.109   8.043  14.062  1.00  0.00     0.035 C 
HETATM    6  C6  UNL     1      -5.038   8.265  12.995  1.00  0.00     0.010 C 
HETATM    7  C7  UNL     1      -3.799   7.350  13.044  1.00  0.00     0.003 C 
HETATM    8  C8  UNL     1      -4.123   5.820  13.361  1.00  0.00    -0.032 C 
HETATM    9  C9  UNL     1      -3.716   4.896  12.177  1.00  0.00     0.016 C 
HETATM   10  C10 UNL     1      -3.289   5.299  14.591  1.00  0.00     0.011 C 
HETATM   11  C11 UNL     1      -1.799   5.688  14.694  1.00  0.00     0.011 C 
HETATM   12  C12 UNL     1      -1.403   6.962  13.935  1.00  0.00    -0.032 C 
HETATM   13  C13 UNL     1      -0.890   6.596  12.510  1.00  0.00     0.016 C 
HETATM   14  C14 UNL     1      -0.313   7.836  14.637  1.00  0.00    -0.002 C 
HETATM   15  C23 UNL     1      -0.536   9.243  14.021  1.00  0.00     0.006 C 
HETATM   16  C24 UNL     1      -1.929   9.211  13.340  1.00  0.00     0.011 C 
HETATM   17  C25 UNL     1      -2.627   7.952  13.912  1.00  0.00    -0.032 C 
HETATM   18  C26 UNL     1      -3.167   8.381  15.317  1.00  0.00     0.016 C 
HETATM   19  C27 UNL     1      -5.658   5.546  13.681  1.00  0.00     0.023 C 
ENDROOT
BRANCH  14  20
HETATM   20  C15 UNL     1       1.147   7.338  14.841  1.00  0.00    -0.014 C 
HETATM   21  C16 UNL     1       2.006   8.485  15.408  1.00  0.00     0.010 C 
BRANCH  20  22
HETATM   22  C17 UNL     1       1.926   6.612  13.721  1.00  0.00     0.008 C 
BRANCH  22  23
HETATM   23  C18 UNL     1       2.369   7.435  12.507  1.00  0.00     0.028 C 
BRANCH  23  24
HETATM   24  C19 UNL     1       2.977   6.540  11.460  1.00  0.00    -0.013 C 
HETATM   25  C20 UNL     1       2.679   6.480  10.146  1.00  0.00     0.008 C 
HETATM   26  C21 UNL     1       1.641   7.293   9.435  1.00  0.00     0.055 C 
BRANCH  25  27
HETATM   27  C22 UNL     1       3.456   5.501   9.341  1.00  0.00     0.171 C 
HETATM   28  O1  UNL     1       3.173   5.083   8.232  1.00  0.00    -0.646 OA
BRANCH  27  29
HETATM   29  O2  UNL     1       4.565   5.082   9.973  1.00  0.00    -0.773 OA
HETATM   30  H35 UNL     1       4.967   4.459   9.333  1.00  0.00     0.167 HD
ENDBRANCH  27  29
ENDBRANCH  25  27
ENDBRANCH  23  24
ENDBRANCH  22  23
ENDBRANCH  20  22
ENDBRANCH  14  20
BRANCH  19  31
HETATM   31  C28 UNL     1      -6.622   5.096  12.538  1.00  0.00     0.012 C 
BRANCH  31  32
HETATM   32  C29 UNL     1      -7.726   4.088  12.854  1.00  0.00     0.027 C 
BRANCH  32  33
HETATM   33  C30 UNL     1      -7.196   2.662  12.988  1.00  0.00     0.164 C 
BRANCH  33  34
HETATM   34  O3  UNL     1      -8.169   1.711  12.577  1.00  0.00    -0.401 OA
HETATM   35  H50 UNL     1      -8.836   1.652  13.283  1.00  0.00     0.209 HD
ENDBRANCH  33  34
ENDBRANCH  32  33
ENDBRANCH  31  32
ENDBRANCH  19  31
TORSDOF 10
ENDMDL
MODEL 4
REMARK minimizedAffinity -8.32397556
REMARK  10 active torsions:
REMARK  status: ('A' for Active; 'I' for Inactive)
REMARK    1  A    between atoms: C14_14  and  C15_15 
REMARK    2  A    between atoms: C15_15  and  C17_17 
REMARK    3  A    between atoms: C17_17  and  C18_18 
REMARK    4  A    between atoms: C18_18  and  C19_19 
REMARK    5  A    between atoms: C20_20  and  C22_22 
REMARK    6  A    between atoms: C22_22  and  O2_24 
REMARK    7  A    between atoms: C27_29  and  C28_30 
REMARK    8  A    between atoms: C28_30  and  C29_31 
REMARK    9  A    between atoms: C29_31  and  C30_32 
REMARK   10  A    between atoms: C30_32  and  O3_33 
ROOT
HETATM    1  C1  UNL     1      -7.195   7.655  16.354  1.00  0.00     0.043 C 
HETATM    2  C2  UNL     1      -6.540   6.516  15.602  1.00  0.00    -0.085 C 
HETATM    3  C3  UNL     1      -6.755   5.190  16.297  1.00  0.00     0.043 C 
HETATM    4  C4  UNL     1      -5.855   6.677  14.437  1.00  0.00    -0.073 C 
HETATM    5  C5  UNL     1      -5.681   8.045  13.816  1.00  0.00     0.035 C 
HETATM    6  C6  UNL     1      -4.593   8.181  12.753  1.00  0.00     0.010 C 
HETATM    7  C7  UNL     1      -3.343   7.293  12.910  1.00  0.00     0.003 C 
HETATM    8  C8  UNL     1      -3.654   5.795  13.365  1.00  0.00    -0.032 C 
HETATM    9  C9  UNL     1      -3.212   4.769  12.282  1.00  0.00     0.016 C 
HETATM   10  C10 UNL     1      -2.836   5.405  14.654  1.00  0.00     0.011 C 
HETATM   11  C11 UNL     1      -1.354   5.824  14.746  1.00  0.00     0.011 C 
HETATM   12  C12 UNL     1      -0.960   7.027  13.877  1.00  0.00    -0.032 C 
HETATM   13  C13 UNL     1      -0.415   6.535  12.503  1.00  0.00     0.016 C 
HETATM   14  C14 UNL     1       0.105   7.978  14.512  1.00  0.00    -0.002 C 
HETATM   15  C23 UNL     1      -0.125   9.317  13.762  1.00  0.00     0.006 C 
HETATM   16  C24 UNL     1      -1.504   9.201  13.062  1.00  0.00     0.011 C 
HETATM   17  C25 UNL     1      -2.196   7.991  13.738  1.00  0.00    -0.032 C 
HETATM   18  C26 UNL     1      -2.768   8.544  15.086  1.00  0.00     0.016 C 
HETATM   19  C27 UNL     1      -5.191   5.530  13.682  1.00  0.00     0.023 C 
ENDROOT
BRANCH  14  20
HETATM   20  C15 UNL     1       1.567   7.524  14.788  1.00  0.00    -0.014 C 
HETATM   21  C16 UNL     1       1.891   7.717  16.282  1.00  0.00     0.010 C 
BRANCH  20  22
HETATM   22  C17 UNL     1       2.752   8.022  13.932  1.00  0.00     0.008 C 
BRANCH  22  23
HETATM   23  C18 UNL     1       2.841   7.536  12.481  1.00  0.00     0.028 C 
BRANCH  23  24
HETATM   24  C19 UNL     1       4.280   7.371  12.070  1.00  0.00    -0.013 C 
HETATM   25  C20 UNL     1       4.848   7.692  10.890  1.00  0.00     0.008 C 
HETATM   26  C21 UNL     1       4.149   8.274   9.699  1.00  0.00     0.055 C 
BRANCH  25  27
HETATM   27  C22 UNL     1       6.306   7.428  10.769  1.00  0.00     0.171 C 
HETATM   28  O1  UNL     1       6.838   6.348  10.580  1.00  0.00    -0.646 OA
BRANCH  27  29
HETATM   29  O2  UNL     1       7.042   8.545  10.897  1.00  0.00    -0.773 OA
HETATM   30  H35 UNL     1       7.961   8.221  10.793  1.00  0.00     0.167 HD
ENDBRANCH  27  29
ENDBRANCH  25  27
ENDBRANCH  23  24
ENDBRANCH  22  23
ENDBRANCH  20  22
ENDBRANCH  14  20
BRANCH  19  31
HETATM   31  C28 UNL     1      -6.127   4.960  12.570  1.00  0.00     0.012 C 
BRANCH  31  32
HETATM   32  C29 UNL     1      -6.407   3.458  12.535  1.00  0.00     0.027 C 
BRANCH  32  33
HETATM   33  C30 UNL     1      -7.756   3.100  13.153  1.00  0.00     0.164 C 
BRANCH  33  34
HETATM   34  O3  UNL     1      -8.271   1.895  12.603  1.00  0.00    -0.401 OA
HETATM   35  H50 UNL     1      -8.604   2.100  11.712  1.00  0.00     0.209 HD
ENDBRANCH  33  34
ENDBRANCH  32  33
ENDBRANCH  31  32
ENDBRANCH  19  31
TORSDOF 10
ENDMDL
MODEL 5
REMARK minimizedAffinity -8.08543205
REMARK  10 active torsions:
REMARK  status: ('A' for Active; 'I' for Inactive)
REMARK    1  A    between atoms: C14_14  and  C15_15 
REMARK    2  A    between atoms: C15_15  and  C17_17 
REMARK    3  A    between atoms: C17_17  and  C18_18 
REMARK    4  A    between atoms: C18_18  and  C19_19 
REMARK    5  A    between atoms: C20_20  and  C22_22 
REMARK    6  A    between atoms: C22_22  and  O2_24 
REMARK    7  A    between atoms: C27_29  and  C28_30 
REMARK    8  A    between atoms: C28_30  and  C29_31 
REMARK    9  A    between atoms: C29_31  and  C30_32 
REMARK   10  A    between atoms: C30_32  and  O3_33 
ROOT
HETATM    1  C1  UNL     1      -8.265   3.869  12.610  1.00  0.00     0.043 C 
HETATM    2  C2  UNL     1      -8.160   5.334  12.977  1.00  0.00    -0.085 C 
HETATM    3  C3  UNL     1      -8.985   6.202  12.053  1.00  0.00     0.043 C 
HETATM    4  C4  UNL     1      -7.421   5.798  14.020  1.00  0.00    -0.073 C 
HETATM    5  C5  UNL     1      -6.616   4.856  14.888  1.00  0.00     0.035 C 
HETATM    6  C6  UNL     1      -5.534   5.486  15.763  1.00  0.00     0.010 C 
HETATM    7  C7  UNL     1      -4.830   6.742  15.212  1.00  0.00     0.003 C 
HETATM    8  C8  UNL     1      -5.806   7.783  14.498  1.00  0.00    -0.032 C 
HETATM    9  C9  UNL     1      -5.823   9.149  15.244  1.00  0.00     0.016 C 
HETATM   10  C10 UNL     1      -5.317   8.120  13.039  1.00  0.00     0.011 C 
HETATM   11  C11 UNL     1      -3.812   8.362  12.799  1.00  0.00     0.011 C 
HETATM   12  C12 UNL     1      -2.875   7.723  13.833  1.00  0.00    -0.032 C 
HETATM   13  C13 UNL     1      -2.544   8.749  14.959  1.00  0.00     0.016 C 
HETATM   14  C14 UNL     1      -1.528   7.181  13.256  1.00  0.00    -0.002 C 
HETATM   15  C23 UNL     1      -1.090   6.127  14.308  1.00  0.00     0.006 C 
HETATM   16  C24 UNL     1      -2.336   5.831  15.182  1.00  0.00     0.011 C 
HETATM   17  C25 UNL     1      -3.533   6.402  14.380  1.00  0.00    -0.032 C 
HETATM   18  C26 UNL     1      -3.859   5.319  13.298  1.00  0.00     0.016 C 
HETATM   19  C27 UNL     1      -7.310   7.275  14.387  1.00  0.00     0.023 C 
ENDROOT
BRANCH  14  20
HETATM   20  C15 UNL     1      -0.444   8.120  12.651  1.00  0.00    -0.014 C 
HETATM   21  C16 UNL     1      -1.010   8.815  11.398  1.00  0.00     0.010 C 
BRANCH  20  22
HETATM   22  C17 UNL     1       0.994   7.632  12.370  1.00  0.00     0.008 C 
BRANCH  22  23
HETATM   23  C18 UNL     1       1.794   8.351  11.279  1.00  0.00     0.028 C 
BRANCH  23  24
HETATM   24  C19 UNL     1       1.963   7.460  10.077  1.00  0.00    -0.013 C 
HETATM   25  C20 UNL     1       3.059   6.769   9.704  1.00  0.00     0.008 C 
HETATM   26  C21 UNL     1       4.381   6.758  10.408  1.00  0.00     0.055 C 
BRANCH  25  27
HETATM   27  C22 UNL     1       2.932   5.953   8.468  1.00  0.00     0.171 C 
HETATM   28  O1  UNL     1       3.404   4.847   8.273  1.00  0.00    -0.646 OA
BRANCH  27  29
HETATM   29  O2  UNL     1       2.212   6.572   7.516  1.00  0.00    -0.773 OA
HETATM   30  H35 UNL     1       2.212   5.926   6.780  1.00  0.00     0.167 HD
ENDBRANCH  27  29
ENDBRANCH  25  27
ENDBRANCH  23  24
ENDBRANCH  22  23
ENDBRANCH  20  22
ENDBRANCH  14  20
BRANCH  19  31
HETATM   31  C28 UNL     1      -8.347   7.670  15.486  1.00  0.00     0.012 C 
BRANCH  31  32
HETATM   32  C29 UNL     1      -9.727   8.168  15.058  1.00  0.00     0.027 C 
BRANCH  32  33
HETATM   33  C30 UNL     1     -10.015   9.586  15.547  1.00  0.00     0.164 C 
BRANCH  33  34
HETATM   34  O3  UNL     1      -8.937  10.462  15.249  1.00  0.00    -0.401 OA
HETATM   35  H50 UNL     1      -8.220  10.267  15.877  1.00  0.00     0.209 HD
ENDBRANCH  33  34
ENDBRANCH  32  33
ENDBRANCH  31  32
ENDBRANCH  19  31
TORSDOF 10
ENDMDL
MODEL 6
REMARK minimizedAffinity -8.05677509
REMARK  10 active torsions:
REMARK  status: ('A' for Active; 'I' for Inactive)
REMARK    1  A    between atoms: C14_14  and  C15_15 
REMARK    2  A    between atoms: C15_15  and  C17_17 
REMARK    3  A    between atoms: C17_17  and  C18_18 
REMARK    4  A    between atoms: C18_18  and  C19_19 
REMARK    5  A    between atoms: C20_20  and  C22_22 
REMARK    6  A    between atoms: C22_22  and  O2_24 
REMARK    7  A    between atoms: C27_29  and  C28_30 
REMARK    8  A    between atoms: C28_30  and  C29_31 
REMARK    9  A    between atoms: C29_31  and  C30_32 
REMARK   10  A    between atoms: C30_32  and  O3_33 
ROOT
HETATM    1  C1  UNL     1      -5.487   4.994  13.406  1.00  0.00     0.043 C 
HETATM    2  C2  UNL     1      -4.856   6.324  13.759  1.00  0.00    -0.085 C 
HETATM    3  C3  UNL     1      -5.821   7.471  13.563  1.00  0.00     0.043 C 
HETATM    4  C4  UNL     1      -3.578   6.455  14.209  1.00  0.00    -0.073 C 
HETATM    5  C5  UNL     1      -2.677   5.250  14.366  1.00  0.00     0.035 C 
HETATM    6  C6  UNL     1      -1.180   5.526  14.493  1.00  0.00     0.010 C 
HETATM    7  C7  UNL     1      -0.626   6.750  13.738  1.00  0.00     0.003 C 
HETATM    8  C8  UNL     1      -1.556   8.045  13.814  1.00  0.00    -0.032 C 
HETATM    9  C9  UNL     1      -0.836   9.220  14.536  1.00  0.00     0.016 C 
HETATM   10  C10 UNL     1      -1.892   8.595  12.376  1.00  0.00     0.011 C 
HETATM   11  C11 UNL     1      -0.765   8.658  11.324  1.00  0.00     0.011 C 
HETATM   12  C12 UNL     1       0.405   7.693  11.563  1.00  0.00    -0.032 C 
HETATM   13  C13 UNL     1       1.533   8.412  12.363  1.00  0.00     0.016 C 
HETATM   14  C14 UNL     1       1.036   7.088  10.267  1.00  0.00    -0.002 C 
HETATM   15  C23 UNL     1       1.719   5.792  10.778  1.00  0.00     0.006 C 
HETATM   16  C24 UNL     1       1.136   5.510  12.187  1.00  0.00     0.011 C 
HETATM   17  C25 UNL     1      -0.130   6.399  12.282  1.00  0.00    -0.032 C 
HETATM   18  C26 UNL     1      -1.243   5.617  11.510  1.00  0.00     0.016 C 
HETATM   19  C27 UNL     1      -2.939   7.795  14.560  1.00  0.00     0.023 C 
ENDROOT
BRANCH  14  20
HETATM   20  C15 UNL     1       1.788   7.962   9.222  1.00  0.00    -0.014 C 
HETATM   21  C16 UNL     1       0.959   8.038   7.925  1.00  0.00     0.010 C 
BRANCH  20  22
HETATM   22  C17 UNL     1       3.274   7.720   8.875  1.00  0.00     0.008 C 
BRANCH  22  23
HETATM   23  C18 UNL     1       4.252   7.490  10.032  1.00  0.00     0.028 C 
BRANCH  23  24
HETATM   24  C19 UNL     1       5.005   8.756  10.343  1.00  0.00    -0.013 C 
HETATM   25  C20 UNL     1       6.067   8.911  11.160  1.00  0.00     0.008 C 
HETATM   26  C21 UNL     1       6.725   7.836  11.970  1.00  0.00     0.055 C 
BRANCH  25  27
HETATM   27  C22 UNL     1       6.619  10.286  11.265  1.00  0.00     0.171 C 
HETATM   28  O1  UNL     1       6.001  11.330  11.158  1.00  0.00    -0.646 OA
BRANCH  27  29
HETATM   29  O2  UNL     1       7.943  10.291  11.499  1.00  0.00    -0.773 OA
HETATM   30  H35 UNL     1       8.159  11.246  11.546  1.00  0.00     0.167 HD
ENDBRANCH  27  29
ENDBRANCH  25  27
ENDBRANCH  23  24
ENDBRANCH  22  23
ENDBRANCH  20  22
ENDBRANCH  14  20
BRANCH  19  31
HETATM   31  C28 UNL     1      -3.068   8.107  16.084  1.00  0.00     0.012 C 
BRANCH  31  32
HETATM   32  C29 UNL     1      -2.084   9.085  16.726  1.00  0.00     0.027 C 
BRANCH  32  33
HETATM   33  C30 UNL     1      -2.785  10.168  17.543  1.00  0.00     0.164 C 
BRANCH  33  34
HETATM   34  O3  UNL     1      -3.126   9.696  18.839  1.00  0.00    -0.401 OA
HETATM   35  H50 UNL     1      -3.896   9.108  18.741  1.00  0.00     0.209 HD
ENDBRANCH  33  34
ENDBRANCH  32  33
ENDBRANCH  31  32
ENDBRANCH  19  31
TORSDOF 10
ENDMDL
MODEL 7
REMARK minimizedAffinity -8.05603123
REMARK  10 active torsions:
REMARK  status: ('A' for Active; 'I' for Inactive)
REMARK    1  A    between atoms: C14_14  and  C15_15 
REMARK    2  A    between atoms: C15_15  and  C17_17 
REMARK    3  A    between atoms: C17_17  and  C18_18 
REMARK    4  A    between atoms: C18_18  and  C19_19 
REMARK    5  A    between atoms: C20_20  and  C22_22 
REMARK    6  A    between atoms: C22_22  and  O2_24 
REMARK    7  A    between atoms: C27_29  and  C28_30 
REMARK    8  A    between atoms: C28_30  and  C29_31 
REMARK    9  A    between atoms: C29_31  and  C30_32 
REMARK   10  A    between atoms: C30_32  and  O3_33 
ROOT
HETATM    1  C1  UNL     1       5.789   6.995  11.913  1.00  0.00     0.043 C 
HETATM    2  C2  UNL     1       4.734   7.804  11.188  1.00  0.00    -0.085 C 
HETATM    3  C3  UNL     1       5.125   9.260  11.074  1.00  0.00     0.043 C 
HETATM    4  C4  UNL     1       3.584   7.270  10.693  1.00  0.00    -0.073 C 
HETATM    5  C5  UNL     1       3.269   5.801  10.862  1.00  0.00     0.035 C 
HETATM    6  C6  UNL     1       1.818   5.381  10.632  1.00  0.00     0.010 C 
HETATM    7  C7  UNL     1       0.725   6.403  11.002  1.00  0.00     0.003 C 
HETATM    8  C8  UNL     1       1.062   7.906  10.585  1.00  0.00    -0.032 C 
HETATM    9  C9  UNL     1       0.039   8.451   9.548  1.00  0.00     0.016 C 
HETATM   10  C10 UNL     1       0.953   8.881  11.818  1.00  0.00     0.011 C 
HETATM   11  C11 UNL     1      -0.237   8.721  12.787  1.00  0.00     0.011 C 
HETATM   12  C12 UNL     1      -0.882   7.328  12.804  1.00  0.00    -0.032 C 
HETATM   13  C13 UNL     1      -2.083   7.284  11.812  1.00  0.00     0.016 C 
HETATM   14  C14 UNL     1      -1.388   6.853  14.204  1.00  0.00    -0.002 C 
HETATM   15  C23 UNL     1      -1.422   5.308  14.064  1.00  0.00     0.006 C 
HETATM   16  C24 UNL     1      -0.590   4.960  12.802  1.00  0.00     0.011 C 
HETATM   17  C25 UNL     1       0.217   6.246  12.487  1.00  0.00    -0.032 C 
HETATM   18  C26 UNL     1       1.434   6.221  13.470  1.00  0.00     0.016 C 
HETATM   19  C27 UNL     1       2.518   8.085   9.967  1.00  0.00     0.023 C 
ENDROOT
BRANCH  14  20
HETATM   20  C15 UNL     1      -2.561   7.557  14.947  1.00  0.00    -0.014 C 
HETATM   21  C16 UNL     1      -2.089   8.003  16.344  1.00  0.00     0.010 C 
BRANCH  20  22
HETATM   22  C17 UNL     1      -3.962   6.915  15.053  1.00  0.00     0.008 C 
BRANCH  22  23
HETATM   23  C18 UNL     1      -4.813   6.839  13.781  1.00  0.00     0.028 C 
BRANCH  23  24
HETATM   24  C19 UNL     1      -5.968   5.893  13.978  1.00  0.00    -0.013 C 
HETATM   25  C20 UNL     1      -6.160   4.687  13.408  1.00  0.00     0.008 C 
HETATM   26  C21 UNL     1      -5.255   4.023  12.415  1.00  0.00     0.055 C 
BRANCH  25  27
HETATM   27  C22 UNL     1      -7.397   3.963  13.802  1.00  0.00     0.171 C 
HETATM   28  O1  UNL     1      -7.720   2.837  13.466  1.00  0.00    -0.646 OA
BRANCH  27  29
HETATM   29  O2  UNL     1      -8.186   4.694  14.607  1.00  0.00    -0.773 OA
HETATM   30  H35 UNL     1      -8.943   4.098  14.783  1.00  0.00     0.167 HD
ENDBRANCH  27  29
ENDBRANCH  25  27
ENDBRANCH  23  24
ENDBRANCH  22  23
ENDBRANCH  20  22
ENDBRANCH  14  20
BRANCH  19  31
HETATM   31  C28 UNL     1       2.717   8.037   8.420  1.00  0.00     0.012 C 
BRANCH  31  32
HETATM   32  C29 UNL     1       1.686   7.303   7.563  1.00  0.00     0.027 C 
BRANCH  32  33
HETATM   33  C30 UNL     1       2.315   6.220   6.689  1.00  0.00     0.164 C 
BRANCH  33  34
HETATM   34  O3  UNL     1       2.957   5.230   7.480  1.00  0.00    -0.401 OA
HETATM   35  H50 UNL     1       3.790   5.612   7.806  1.00  0.00     0.209 HD
ENDBRANCH  33  34
ENDBRANCH  32  33
ENDBRANCH  31  32
ENDBRANCH  19  31
TORSDOF 10
ENDMDL
MODEL 8
REMARK minimizedAffinity -8.02471828
REMARK  10 active torsions:
REMARK  status: ('A' for Active; 'I' for Inactive)
REMARK    1  A    between atoms: C14_14  and  C15_15 
REMARK    2  A    between atoms: C15_15  and  C17_17 
REMARK    3  A    between atoms: C17_17  and  C18_18 
REMARK    4  A    between atoms: C18_18  and  C19_19 
REMARK    5  A    between atoms: C20_20  and  C22_22 
REMARK    6  A    between atoms: C22_22  and  O2_24 
REMARK    7  A    between atoms: C27_29  and  C28_30 
REMARK    8  A    between atoms: C28_30  and  C29_31 
REMARK    9  A    between atoms: C29_31  and  C30_32 
REMARK   10  A    between atoms: C30_32  and  O3_33 
ROOT
HETATM    1  C1  UNL     1       2.649   5.990   7.733  1.00  0.00     0.043 C 
HETATM    2  C2  UNL     1       2.979   5.776   9.195  1.00  0.00    -0.085 C 
HETATM    3  C3  UNL     1       3.587   4.413   9.438  1.00  0.00     0.043 C 
HETATM    4  C4  UNL     1       2.761   6.710  10.160  1.00  0.00    -0.073 C 
HETATM    5  C5  UNL     1       2.137   8.047   9.827  1.00  0.00     0.035 C 
HETATM    6  C6  UNL     1       1.579   8.853  10.999  1.00  0.00     0.010 C 
HETATM    7  C7  UNL     1       0.997   8.058  12.184  1.00  0.00     0.003 C 
HETATM    8  C8  UNL     1       1.853   6.776  12.599  1.00  0.00    -0.032 C 
HETATM    9  C9  UNL     1       2.406   6.906  14.047  1.00  0.00     0.016 C 
HETATM   10  C10 UNL     1       0.965   5.475  12.616  1.00  0.00     0.011 C 
HETATM   11  C11 UNL     1      -0.447   5.549  13.235  1.00  0.00     0.011 C 
HETATM   12  C12 UNL     1      -1.073   6.951  13.266  1.00  0.00    -0.032 C 
HETATM   13  C13 UNL     1      -0.775   7.637  14.633  1.00  0.00     0.016 C 
HETATM   14  C14 UNL     1      -2.617   6.989  13.028  1.00  0.00    -0.002 C 
HETATM   15  C23 UNL     1      -2.864   8.439  12.535  1.00  0.00     0.006 C 
HETATM   16  C24 UNL     1      -1.479   9.014  12.140  1.00  0.00     0.011 C 
HETATM   17  C25 UNL     1      -0.548   7.779  12.035  1.00  0.00    -0.032 C 
HETATM   18  C26 UNL     1      -0.847   7.155  10.632  1.00  0.00     0.016 C 
HETATM   19  C27 UNL     1       3.087   6.494  11.635  1.00  0.00     0.023 C 
ENDROOT
BRANCH  14  20
HETATM   20  C15 UNL     1      -3.629   6.363  14.032  1.00  0.00    -0.014 C 
HETATM   21  C16 UNL     1      -3.322   6.873  15.454  1.00  0.00     0.010 C 
BRANCH  20  22
HETATM   22  C17 UNL     1      -3.904   4.844  14.074  1.00  0.00     0.008 C 
BRANCH  22  23
HETATM   23  C18 UNL     1      -4.223   4.138  12.752  1.00  0.00     0.028 C 
BRANCH  23  24
HETATM   24  C19 UNL     1      -3.115   3.186  12.385  1.00  0.00    -0.013 C 
HETATM   25  C20 UNL     1      -2.506   3.043  11.190  1.00  0.00     0.008 C 
HETATM   26  C21 UNL     1      -2.823   3.801   9.938  1.00  0.00     0.055 C 
BRANCH  25  27
HETATM   27  C22 UNL     1      -1.426   2.025  11.121  1.00  0.00     0.171 C 
HETATM   28  O1  UNL     1      -0.234   2.214  11.292  1.00  0.00    -0.646 OA
BRANCH  27  29
HETATM   29  O2  UNL     1      -1.894   0.798  10.833  1.00  0.00    -0.773 OA
HETATM   30  H35 UNL     1      -1.085   0.245  10.826  1.00  0.00     0.167 HD
ENDBRANCH  27  29
ENDBRANCH  25  27
ENDBRANCH  23  24
ENDBRANCH  22  23
ENDBRANCH  20  22
ENDBRANCH  14  20
BRANCH  19  31
HETATM   31  C28 UNL     1       4.499   7.054  11.995  1.00  0.00     0.012 C 
BRANCH  31  32
HETATM   32  C29 UNL     1       5.549   7.183  10.892  1.00  0.00     0.027 C 
BRANCH  32  33
HETATM   33  C30 UNL     1       6.795   6.344  11.167  1.00  0.00     0.164 C 
BRANCH  33  34
HETATM   34  O3  UNL     1       6.650   5.025  10.659  1.00  0.00    -0.401 OA
HETATM   35  H50 UNL     1       6.052   4.545  11.259  1.00  0.00     0.209 HD
ENDBRANCH  33  34
ENDBRANCH  32  33
ENDBRANCH  31  32
ENDBRANCH  19  31
TORSDOF 10
ENDMDL
MODEL 9
REMARK minimizedAffinity -7.99417353
REMARK  10 active torsions:
REMARK  status: ('A' for Active; 'I' for Inactive)
REMARK    1  A    between atoms: C14_14  and  C15_15 
REMARK    2  A    between atoms: C15_15  and  C17_17 
REMARK    3  A    between atoms: C17_17  and  C18_18 
REMARK    4  A    between atoms: C18_18  and  C19_19 
REMARK    5  A    between atoms: C20_20  and  C22_22 
REMARK    6  A    between atoms: C22_22  and  O2_24 
REMARK    7  A    between atoms: C27_29  and  C28_30 
REMARK    8  A    between atoms: C28_30  and  C29_31 
REMARK    9  A    between atoms: C29_31  and  C30_32 
REMARK   10  A    between atoms: C30_32  and  O3_33 
ROOT
HETATM    1  C1  UNL     1       2.696   5.849   7.511  1.00  0.00     0.043 C 
HETATM    2  C2  UNL     1       3.082   5.707   8.967  1.00  0.00    -0.085 C 
HETATM    3  C3  UNL     1       3.710   4.362   9.252  1.00  0.00     0.043 C 
HETATM    4  C4  UNL     1       2.893   6.685   9.895  1.00  0.00    -0.073 C 
HETATM    5  C5  UNL     1       2.246   8.000   9.523  1.00  0.00     0.035 C 
HETATM    6  C6  UNL     1       1.727   8.858  10.676  1.00  0.00     0.010 C 
HETATM    7  C7  UNL     1       1.198   8.117  11.919  1.00  0.00     0.003 C 
HETATM    8  C8  UNL     1       2.079   6.862  12.361  1.00  0.00    -0.032 C 
HETATM    9  C9  UNL     1       2.685   7.064  13.779  1.00  0.00     0.016 C 
HETATM   10  C10 UNL     1       1.202   5.558  12.474  1.00  0.00     0.011 C 
HETATM   11  C11 UNL     1      -0.185   5.652  13.142  1.00  0.00     0.011 C 
HETATM   12  C12 UNL     1      -0.821   7.050  13.131  1.00  0.00    -0.032 C 
HETATM   13  C13 UNL     1      -0.476   7.802  14.452  1.00  0.00     0.016 C 
HETATM   14  C14 UNL     1      -2.373   7.066  12.951  1.00  0.00    -0.002 C 
HETATM   15  C23 UNL     1      -2.651   8.490  12.400  1.00  0.00     0.006 C 
HETATM   16  C24 UNL     1      -1.286   9.054  11.925  1.00  0.00     0.011 C 
HETATM   17  C25 UNL     1      -0.350   7.822  11.843  1.00  0.00    -0.032 C 
HETATM   18  C26 UNL     1      -0.698   7.129  10.483  1.00  0.00     0.016 C 
HETATM   19  C27 UNL     1       3.278   6.541  11.364  1.00  0.00     0.023 C 
ENDROOT
BRANCH  14  20
HETATM   20  C15 UNL     1      -3.341   6.483  14.022  1.00  0.00    -0.014 C 
HETATM   21  C16 UNL     1      -2.871   6.912  15.426  1.00  0.00     0.010 C 
BRANCH  20  22
HETATM   22  C17 UNL     1      -3.734   4.990  14.039  1.00  0.00     0.008 C 
BRANCH  22  23
HETATM   23  C18 UNL     1      -4.084   4.326  12.703  1.00  0.00     0.028 C 
BRANCH  23  24
HETATM   24  C19 UNL     1      -5.407   3.612  12.802  1.00  0.00    -0.013 C 
HETATM   25  C20 UNL     1      -6.634   4.154  12.944  1.00  0.00     0.008 C 
HETATM   26  C21 UNL     1      -6.949   5.615  13.057  1.00  0.00     0.055 C 
BRANCH  25  27
HETATM   27  C22 UNL     1      -7.771   3.199  13.001  1.00  0.00     0.171 C 
HETATM   28  O1  UNL     1      -7.716   1.991  12.857  1.00  0.00    -0.646 OA
BRANCH  27  29
HETATM   29  O2  UNL     1      -8.944   3.812  13.234  1.00  0.00    -0.773 OA
HETATM   30  H35 UNL     1      -9.585   3.071  13.248  1.00  0.00     0.167 HD
ENDBRANCH  27  29
ENDBRANCH  25  27
ENDBRANCH  23  24
ENDBRANCH  22  23
ENDBRANCH  20  22
ENDBRANCH  14  20
BRANCH  19  31
HETATM   31  C28 UNL     1       4.698   7.127  11.643  1.00  0.00     0.012 C 
BRANCH  31  32
HETATM   32  C29 UNL     1       5.919   6.225  11.466  1.00  0.00     0.027 C 
BRANCH  32  33
HETATM   33  C30 UNL     1       7.181   6.820  12.087  1.00  0.00     0.164 C 
BRANCH  33  34
HETATM   34  O3  UNL     1       7.285   8.210  11.809  1.00  0.00    -0.401 OA
HETATM   35  H50 UNL     1       7.559   8.302  10.880  1.00  0.00     0.209 HD
ENDBRANCH  33  34
ENDBRANCH  32  33
ENDBRANCH  31  32
ENDBRANCH  19  31
TORSDOF 10
ENDMDL
