MODEL 1
REMARK minimizedAffinity -9.53347778
REMARK  4 active torsions:
REMARK  status: ('A' for Active; 'I' for Inactive)
REMARK    1  A    between atoms: C2_2  and  C4_4 
REMARK    2  A    between atoms: C4_4  and  C5_5 
REMARK    3  A    between atoms: C5_5  and  O1_6 
REMARK    4  A    between atoms: C8_9  and  C9_10 
ROOT
HETATM    1  C9  UNL     1      -3.287   7.805  13.309  1.00  0.00     0.001 C 
HETATM    2  C10 UNL     1      -3.208   9.340  13.404  1.00  0.00     0.007 C 
HETATM    3  C11 UNL     1      -2.043   9.660  14.347  1.00  0.00     0.011 C 
HETATM    4  C12 UNL     1      -1.277   8.336  14.575  1.00  0.00    -0.032 C 
HETATM    5  C13 UNL     1      -0.591   8.387  15.965  1.00  0.00     0.016 C 
HETATM    6  C14 UNL     1      -0.119   8.116  13.516  1.00  0.00     0.004 C 
HETATM    7  C15 UNL     1      -0.243   8.727  12.104  1.00  0.00     0.007 C 
HETATM    8  C16 UNL     1       1.087   8.662  11.319  1.00  0.00     0.007 C 
HETATM    9  C17 UNL     1       2.162   7.706  11.904  1.00  0.00     0.010 C 
HETATM   10  C18 UNL     1       3.349   7.430  10.933  1.00  0.00     0.018 C 
HETATM   11  C19 UNL     1       4.523   6.759  11.671  1.00  0.00     0.023 C 
HETATM   12  C20 UNL     1       3.884   8.739  10.319  1.00  0.00     0.023 C 
HETATM   13  C21 UNL     1       2.901   6.501   9.799  1.00  0.00     0.135 C 
HETATM   14  O2  UNL     1       3.480   6.477   8.712  1.00  0.00    -0.297 OA
HETATM   15  C22 UNL     1       1.701   5.617  10.031  1.00  0.00     0.080 C 
HETATM   16  C23 UNL     1       1.587   5.218  11.490  1.00  0.00     0.018 C 
HETATM   17  C24 UNL     1       1.490   6.420  12.416  1.00  0.00    -0.026 A 
HETATM   18  C25 UNL     1       1.554   6.134  13.905  1.00  0.00     0.021 A 
HETATM   19  C26 UNL     1       0.259   6.640  13.323  1.00  0.00    -0.027 A 
HETATM   20  C27 UNL     1      -0.909   5.690  13.197  1.00  0.00     0.011 C 
HETATM   21  C28 UNL     1      -1.906   5.852  14.329  1.00  0.00     0.011 C 
HETATM   22  C29 UNL     1      -2.446   7.282  14.518  1.00  0.00    -0.032 C 
HETATM   23  C30 UNL     1      -3.284   7.246  15.821  1.00  0.00     0.016 C 
ENDROOT
BRANCH   1  24
HETATM   24  C8  UNL     1      -4.705   7.219  13.058  1.00  0.00     0.014 C 
HETATM   25  C7  UNL     1      -5.710   7.886  14.021  1.00  0.00     0.010 C 
HETATM   26  C6  UNL     1      -7.032   7.129  14.031  1.00  0.00     0.041 C 
HETATM   27  C4  UNL     1      -6.859   5.649  14.467  1.00  0.00     0.085 C 
HETATM   28  O3  UNL     1      -5.473   5.251  14.325  1.00  0.00    -0.377 OA
HETATM   29  C31 UNL     1      -4.845   5.688  13.122  1.00  0.00     0.174 C 
BRANCH  27  30
HETATM   30  C2  UNL     1      -7.786   4.711  13.621  1.00  0.00     0.014 C 
HETATM   31  C1  UNL     1      -8.350   5.386  12.364  1.00  0.00     0.012 C 
HETATM   32  C3  UNL     1      -7.122   3.384  13.232  1.00  0.00     0.012 C 
ENDBRANCH  27  30
BRANCH  27  33
HETATM   33  C5  UNL     1      -7.147   5.500  15.987  1.00  0.00     0.202 C 
BRANCH  33  34
HETATM   34  O1  UNL     1      -8.297   4.679  16.206  1.00  0.00    -0.398 OA
HETATM   35  H10 UNL     1      -8.974   5.048  15.606  1.00  0.00     0.209 HD
ENDBRANCH  33  34
ENDBRANCH  27  33
ENDBRANCH   1  24
TORSDOF 4
ENDMDL
MODEL 2
REMARK minimizedAffinity -9.4833746
REMARK  4 active torsions:
REMARK  status: ('A' for Active; 'I' for Inactive)
REMARK    1  A    between atoms: C2_2  and  C4_4 
REMARK    2  A    between atoms: C4_4  and  C5_5 
REMARK    3  A    between atoms: C5_5  and  O1_6 
REMARK    4  A    between atoms: C8_9  and  C9_10 
ROOT
HETATM    1  C9  UNL     1      -2.713   7.344  13.624  1.00  0.00     0.001 C 
HETATM    2  C10 UNL     1      -3.212   8.694  13.078  1.00  0.00     0.007 C 
HETATM    3  C11 UNL     1      -2.099   9.713  13.349  1.00  0.00     0.011 C 
HETATM    4  C12 UNL     1      -0.855   8.907  13.791  1.00  0.00    -0.032 C 
HETATM    5  C13 UNL     1       0.016   9.797  14.715  1.00  0.00     0.016 C 
HETATM    6  C14 UNL     1       0.067   8.498  12.569  1.00  0.00     0.004 C 
HETATM    7  C15 UNL     1      -0.555   8.291  11.172  1.00  0.00     0.007 C 
HETATM    8  C16 UNL     1       0.516   8.188  10.063  1.00  0.00     0.007 C 
HETATM    9  C17 UNL     1       1.968   7.941  10.558  1.00  0.00     0.010 C 
HETATM   10  C18 UNL     1       2.955   7.535   9.422  1.00  0.00     0.018 C 
HETATM   11  C19 UNL     1       4.416   7.627   9.902  1.00  0.00     0.023 C 
HETATM   12  C20 UNL     1       2.816   8.466   8.202  1.00  0.00     0.023 C 
HETATM   13  C21 UNL     1       2.685   6.094   8.976  1.00  0.00     0.135 C 
HETATM   14  O2  UNL     1       3.004   5.690   7.857  1.00  0.00    -0.297 OA
HETATM   15  C22 UNL     1       1.986   5.166   9.938  1.00  0.00     0.080 C 
HETATM   16  C23 UNL     1       2.322   5.513  11.376  1.00  0.00     0.018 C 
HETATM   17  C24 UNL     1       1.954   6.946  11.731  1.00  0.00    -0.026 A 
HETATM   18  C25 UNL     1       2.414   7.447  13.088  1.00  0.00     0.021 A 
HETATM   19  C26 UNL     1       0.937   7.263  12.848  1.00  0.00    -0.027 A 
HETATM   20  C27 UNL     1       0.222   6.114  13.521  1.00  0.00     0.011 C 
HETATM   21  C28 UNL     1      -0.519   6.551  14.770  1.00  0.00     0.011 C 
HETATM   22  C29 UNL     1      -1.517   7.705  14.563  1.00  0.00    -0.032 C 
HETATM   23  C30 UNL     1      -2.005   8.098  15.980  1.00  0.00     0.016 C 
ENDROOT
BRANCH   1  24
HETATM   24  C8  UNL     1      -3.818   6.376  14.136  1.00  0.00     0.014 C 
HETATM   25  C7  UNL     1      -4.269   5.461  12.979  1.00  0.00     0.010 C 
HETATM   26  C6  UNL     1      -5.552   4.723  13.343  1.00  0.00     0.041 C 
HETATM   27  C4  UNL     1      -6.717   5.695  13.670  1.00  0.00     0.085 C 
HETATM   28  O3  UNL     1      -6.192   7.011  13.975  1.00  0.00    -0.377 OA
HETATM   29  C31 UNL     1      -5.040   7.016  14.816  1.00  0.00     0.174 C 
BRANCH  27  30
HETATM   30  C2  UNL     1      -7.569   5.156  14.869  1.00  0.00     0.014 C 
HETATM   31  C1  UNL     1      -7.415   3.646  15.094  1.00  0.00     0.012 C 
HETATM   32  C3  UNL     1      -7.307   5.895  16.188  1.00  0.00     0.012 C 
ENDBRANCH  27  30
BRANCH  27  33
HETATM   33  C5  UNL     1      -7.600   5.918  12.410  1.00  0.00     0.202 C 
BRANCH  33  34
HETATM   34  O1  UNL     1      -8.987   5.921  12.758  1.00  0.00    -0.398 OA
HETATM   35  H10 UNL     1      -9.099   5.120  13.309  1.00  0.00     0.209 HD
ENDBRANCH  33  34
ENDBRANCH  27  33
ENDBRANCH   1  24
TORSDOF 4
ENDMDL
MODEL 3
REMARK minimizedAffinity -9.28258514
REMARK  4 active torsions:
REMARK  status: ('A' for Active; 'I' for Inactive)
REMARK    1  A    between atoms: C2_2  and  C4_4 
REMARK    2  A    between atoms: C4_4  and  C5_5 
REMARK    3  A    between atoms: C5_5  and  O1_6 
REMARK    4  A    between atoms: C8_9  and  C9_10 
ROOT
HETATM    1  C9  UNL     1      -0.190   6.773  12.616  1.00  0.00     0.001 C 
HETATM    2  C10 UNL     1       0.394   5.964  13.790  1.00  0.00     0.007 C 
HETATM    3  C11 UNL     1       0.137   6.786  15.058  1.00  0.00     0.011 C 
HETATM    4  C12 UNL     1      -0.835   7.923  14.662  1.00  0.00    -0.032 C 
HETATM    5  C13 UNL     1      -0.598   9.133  15.603  1.00  0.00     0.016 C 
HETATM    6  C14 UNL     1      -2.354   7.512  14.840  1.00  0.00     0.004 C 
HETATM    7  C15 UNL     1      -2.771   6.032  14.705  1.00  0.00     0.007 C 
HETATM    8  C16 UNL     1      -4.215   5.783  15.194  1.00  0.00     0.007 C 
HETATM    9  C17 UNL     1      -5.089   7.055  15.373  1.00  0.00     0.010 C 
HETATM   10  C18 UNL     1      -6.605   6.751  15.560  1.00  0.00     0.018 C 
HETATM   11  C19 UNL     1      -7.361   7.998  16.057  1.00  0.00     0.023 C 
HETATM   12  C20 UNL     1      -6.828   5.638  16.603  1.00  0.00     0.023 C 
HETATM   13  C21 UNL     1      -7.226   6.312  14.230  1.00  0.00     0.135 C 
HETATM   14  O2  UNL     1      -8.246   5.625  14.184  1.00  0.00    -0.297 OA
HETATM   15  C22 UNL     1      -6.538   6.721  12.951  1.00  0.00     0.080 C 
HETATM   16  C23 UNL     1      -5.836   8.056  13.108  1.00  0.00     0.018 C 
HETATM   17  C24 UNL     1      -4.807   8.044  14.229  1.00  0.00    -0.026 A 
HETATM   18  C25 UNL     1      -4.179   9.379  14.586  1.00  0.00     0.021 A 
HETATM   19  C26 UNL     1      -3.313   8.320  13.953  1.00  0.00    -0.027 A 
HETATM   20  C27 UNL     1      -2.864   8.498  12.521  1.00  0.00     0.011 C 
HETATM   21  C28 UNL     1      -1.450   9.038  12.425  1.00  0.00     0.011 C 
HETATM   22  C29 UNL     1      -0.389   8.217  13.181  1.00  0.00    -0.032 C 
HETATM   23  C30 UNL     1       0.919   9.044  13.100  1.00  0.00     0.016 C 
ENDROOT
BRANCH   1  24
HETATM   24  C8  UNL     1       0.522   6.581  11.248  1.00  0.00     0.014 C 
HETATM   25  C7  UNL     1       1.668   5.560  11.407  1.00  0.00     0.010 C 
HETATM   26  C6  UNL     1       2.581   5.578  10.188  1.00  0.00     0.041 C 
HETATM   27  C4  UNL     1       3.213   6.975   9.947  1.00  0.00     0.085 C 
HETATM   28  O3  UNL     1       2.453   7.989  10.649  1.00  0.00    -0.377 OA
HETATM   29  C31 UNL     1       1.037   7.852  10.550  1.00  0.00     0.174 C 
BRANCH  27  30
HETATM   30  C2  UNL     1       3.272   7.300   8.416  1.00  0.00     0.014 C 
HETATM   31  C1  UNL     1       2.207   6.558   7.596  1.00  0.00     0.012 C 
HETATM   32  C3  UNL     1       3.199   8.800   8.104  1.00  0.00     0.012 C 
ENDBRANCH  27  30
BRANCH  27  33
HETATM   33  C5  UNL     1       4.627   7.043  10.590  1.00  0.00     0.202 C 
BRANCH  33  34
HETATM   34  O1  UNL     1       5.242   5.752  10.596  1.00  0.00    -0.398 OA
HETATM   35  H10 UNL     1       4.556   5.160  10.963  1.00  0.00     0.209 HD
ENDBRANCH  33  34
ENDBRANCH  27  33
ENDBRANCH   1  24
TORSDOF 4
ENDMDL
MODEL 4
REMARK minimizedAffinity -8.90815926
REMARK  4 active torsions:
REMARK  status: ('A' for Active; 'I' for Inactive)
REMARK    1  A    between atoms: C2_2  and  C4_4 
REMARK    2  A    between atoms: C4_4  and  C5_5 
REMARK    3  A    between atoms: C5_5  and  O1_6 
REMARK    4  A    between atoms: C8_9  and  C9_10 
ROOT
HETATM    1  C9  UNL     1      -5.648   6.763  13.464  1.00  0.00     0.001 C 
HETATM    2  C10 UNL     1      -5.866   5.340  12.918  1.00  0.00     0.007 C 
HETATM    3  C11 UNL     1      -6.708   4.596  13.961  1.00  0.00     0.011 C 
HETATM    4  C12 UNL     1      -7.211   5.658  14.968  1.00  0.00    -0.032 C 
HETATM    5  C13 UNL     1      -7.431   4.978  16.344  1.00  0.00     0.016 C 
HETATM    6  C14 UNL     1      -8.608   6.277  14.548  1.00  0.00     0.004 C 
HETATM    7  C15 UNL     1      -8.999   6.351  13.057  1.00  0.00     0.007 C 
HETATM    8  C16 UNL     1     -10.491   6.703  12.860  1.00  0.00     0.007 C 
HETATM    9  C17 UNL     1     -11.216   7.267  14.114  1.00  0.00     0.010 C 
HETATM   10  C18 UNL     1     -12.606   7.896  13.802  1.00  0.00     0.018 C 
HETATM   11  C19 UNL     1     -13.409   8.132  15.096  1.00  0.00     0.023 C 
HETATM   12  C20 UNL     1     -13.450   6.969  12.905  1.00  0.00     0.023 C 
HETATM   13  C21 UNL     1     -12.432   9.243  13.092  1.00  0.00     0.135 C 
HETATM   14  O2  UNL     1     -13.313   9.719  12.376  1.00  0.00    -0.297 OA
HETATM   15  C22 UNL     1     -11.127   9.980  13.268  1.00  0.00     0.080 C 
HETATM   16  C23 UNL     1     -10.521   9.704  14.631  1.00  0.00     0.018 C 
HETATM   17  C24 UNL     1     -10.276   8.222  14.871  1.00  0.00    -0.026 A 
HETATM   18  C25 UNL     1      -9.842   7.825  16.269  1.00  0.00     0.021 A 
HETATM   19  C26 UNL     1      -8.858   7.673  15.137  1.00  0.00    -0.027 A 
HETATM   20  C27 UNL     1      -7.687   8.624  15.050  1.00  0.00     0.011 C 
HETATM   21  C28 UNL     1      -6.413   8.020  15.607  1.00  0.00     0.011 C 
HETATM   22  C29 UNL     1      -6.006   6.672  14.983  1.00  0.00    -0.032 C 
HETATM   23  C30 UNL     1      -4.806   6.165  15.821  1.00  0.00     0.016 C 
ENDROOT
BRANCH   1  24
HETATM   24  C8  UNL     1      -4.321   7.452  13.035  1.00  0.00     0.014 C 
HETATM   25  C7  UNL     1      -3.163   6.438  13.142  1.00  0.00     0.010 C 
HETATM   26  C6  UNL     1      -1.816   7.143  13.038  1.00  0.00     0.041 C 
HETATM   27  C4  UNL     1      -1.624   8.211  14.148  1.00  0.00     0.085 C 
HETATM   28  O3  UNL     1      -2.909   8.573  14.713  1.00  0.00    -0.377 OA
HETATM   29  C31 UNL     1      -3.952   8.758  13.758  1.00  0.00     0.174 C 
BRANCH  27  30
HETATM   30  C2  UNL     1      -0.902   9.478  13.579  1.00  0.00     0.014 C 
HETATM   31  C1  UNL     1      -1.209  10.759  14.367  1.00  0.00     0.012 C 
HETATM   32  C3  UNL     1       0.618   9.312  13.452  1.00  0.00     0.012 C 
ENDBRANCH  27  30
BRANCH  27  33
HETATM   33  C5  UNL     1      -0.838   7.606  15.344  1.00  0.00     0.202 C 
BRANCH  33  34
HETATM   34  O1  UNL     1      -0.726   6.186  15.210  1.00  0.00    -0.398 OA
HETATM   35  H10 UNL     1      -1.637   5.891  15.013  1.00  0.00     0.209 HD
ENDBRANCH  33  34
ENDBRANCH  27  33
ENDBRANCH   1  24
TORSDOF 4
ENDMDL
MODEL 5
REMARK minimizedAffinity -8.75177193
REMARK  4 active torsions:
REMARK  status: ('A' for Active; 'I' for Inactive)
REMARK    1  A    between atoms: C2_2  and  C4_4 
REMARK    2  A    between atoms: C4_4  and  C5_5 
REMARK    3  A    between atoms: C5_5  and  O1_6 
REMARK    4  A    between atoms: C8_9  and  C9_10 
ROOT
HETATM    1  C9  UNL     1       1.820   8.081  11.479  1.00  0.00     0.001 C 
HETATM    2  C10 UNL     1       1.124   8.334  10.128  1.00  0.00     0.007 C 
HETATM    3  C11 UNL     1       0.146   7.173   9.917  1.00  0.00     0.011 C 
HETATM    4  C12 UNL     1       0.069   6.405  11.258  1.00  0.00    -0.032 C 
HETATM    5  C13 UNL     1      -0.283   4.923  10.967  1.00  0.00     0.016 C 
HETATM    6  C14 UNL     1      -1.074   6.956  12.207  1.00  0.00     0.004 C 
HETATM    7  C15 UNL     1      -1.502   8.436  12.116  1.00  0.00     0.007 C 
HETATM    8  C16 UNL     1      -2.808   8.717  12.893  1.00  0.00     0.007 C 
HETATM    9  C17 UNL     1      -3.242   7.610  13.893  1.00  0.00     0.010 C 
HETATM   10  C18 UNL     1      -4.370   8.058  14.870  1.00  0.00     0.018 C 
HETATM   11  C19 UNL     1      -4.980   6.847  15.601  1.00  0.00     0.023 C 
HETATM   12  C20 UNL     1      -5.516   8.761  14.116  1.00  0.00     0.023 C 
HETATM   13  C21 UNL     1      -3.809   9.020  15.922  1.00  0.00     0.135 C 
HETATM   14  O2  UNL     1      -4.527   9.828  16.513  1.00  0.00    -0.297 OA
HETATM   15  C22 UNL     1      -2.328   8.981  16.211  1.00  0.00     0.080 C 
HETATM   16  C23 UNL     1      -1.770   7.583  16.020  1.00  0.00     0.018 C 
HETATM   17  C24 UNL     1      -2.004   7.049  14.615  1.00  0.00    -0.026 A 
HETATM   18  C25 UNL     1      -1.645   5.594  14.375  1.00  0.00     0.021 A 
HETATM   19  C26 UNL     1      -0.827   6.662  13.694  1.00  0.00    -0.027 A 
HETATM   20  C27 UNL     1       0.582   6.924  14.173  1.00  0.00     0.011 C 
HETATM   21  C28 UNL     1       1.621   6.242  13.305  1.00  0.00     0.011 C 
HETATM   22  C29 UNL     1       1.535   6.579  11.805  1.00  0.00    -0.032 C 
HETATM   23  C30 UNL     1       2.552   5.643  11.105  1.00  0.00     0.016 C 
ENDROOT
BRANCH   1  24
HETATM   24  C8  UNL     1       3.272   8.624  11.598  1.00  0.00     0.014 C 
HETATM   25  C7  UNL     1       4.069   8.230  10.337  1.00  0.00     0.010 C 
HETATM   26  C6  UNL     1       5.561   8.462  10.546  1.00  0.00     0.041 C 
HETATM   27  C4  UNL     1       6.120   7.647  11.743  1.00  0.00     0.085 C 
HETATM   28  O3  UNL     1       5.035   7.232  12.609  1.00  0.00    -0.377 OA
HETATM   29  C31 UNL     1       4.056   8.237  12.864  1.00  0.00     0.174 C 
BRANCH  27  30
HETATM   30  C2  UNL     1       7.168   8.489  12.546  1.00  0.00     0.014 C 
HETATM   31  C1  UNL     1       6.885   9.998  12.519  1.00  0.00     0.012 C 
HETATM   32  C3  UNL     1       7.340   8.030  13.999  1.00  0.00     0.012 C 
ENDBRANCH  27  30
BRANCH  27  33
HETATM   33  C5  UNL     1       6.739   6.312  11.240  1.00  0.00     0.202 C 
BRANCH  33  34
HETATM   34  O1  UNL     1       5.747   5.503  10.604  1.00  0.00    -0.398 OA
HETATM   35  H10 UNL     1       4.999   5.498  11.235  1.00  0.00     0.209 HD
ENDBRANCH  33  34
ENDBRANCH  27  33
ENDBRANCH   1  24
TORSDOF 4
ENDMDL
MODEL 6
REMARK minimizedAffinity -8.69997311
REMARK  4 active torsions:
REMARK  status: ('A' for Active; 'I' for Inactive)
REMARK    1  A    between atoms: C2_2  and  C4_4 
REMARK    2  A    between atoms: C4_4  and  C5_5 
REMARK    3  A    between atoms: C5_5  and  O1_6 
REMARK    4  A    between atoms: C8_9  and  C9_10 
ROOT
HETATM    1  C9  UNL     1       1.746   6.399  11.357  1.00  0.00     0.001 C 
HETATM    2  C10 UNL     1       2.442   5.344  10.476  1.00  0.00     0.007 C 
HETATM    3  C11 UNL     1       3.373   6.110   9.530  1.00  0.00     0.011 C 
HETATM    4  C12 UNL     1       3.431   7.568  10.045  1.00  0.00    -0.032 C 
HETATM    5  C13 UNL     1       3.723   8.510   8.848  1.00  0.00     0.016 C 
HETATM    6  C14 UNL     1       4.601   7.797  11.088  1.00  0.00     0.004 C 
HETATM    7  C15 UNL     1       5.084   6.627  11.970  1.00  0.00     0.007 C 
HETATM    8  C16 UNL     1       6.405   6.952  12.702  1.00  0.00     0.007 C 
HETATM    9  C17 UNL     1       6.804   8.453  12.727  1.00  0.00     0.010 C 
HETATM   10  C18 UNL     1       7.955   8.778  13.725  1.00  0.00     0.018 C 
HETATM   11  C19 UNL     1       8.524  10.188  13.471  1.00  0.00     0.023 C 
HETATM   12  C20 UNL     1       9.122   7.782  13.576  1.00  0.00     0.023 C 
HETATM   13  C21 UNL     1       7.439   8.721  15.166  1.00  0.00     0.135 C 
HETATM   14  O2  UNL     1       8.192   8.512  16.118  1.00  0.00    -0.297 OA
HETATM   15  C22 UNL     1       5.960   8.903  15.404  1.00  0.00     0.080 C 
HETATM   16  C23 UNL     1       5.347   9.824  14.367  1.00  0.00     0.018 C 
HETATM   17  C24 UNL     1       5.551   9.319  12.946  1.00  0.00    -0.026 A 
HETATM   18  C25 UNL     1       5.135  10.256  11.828  1.00  0.00     0.021 A 
HETATM   19  C26 UNL     1       4.353   8.984  12.031  1.00  0.00    -0.027 A 
HETATM   20  C27 UNL     1       2.959   9.063  12.609  1.00  0.00     0.011 C 
HETATM   21  C28 UNL     1       1.888   8.988  11.538  1.00  0.00     0.011 C 
HETATM   22  C29 UNL     1       1.976   7.757  10.617  1.00  0.00    -0.032 C 
HETATM   23  C30 UNL     1       0.919   7.985   9.507  1.00  0.00     0.016 C 
ENDROOT
BRANCH   1  24
HETATM   24  C8  UNL     1       0.317   6.030  11.845  1.00  0.00     0.014 C 
HETATM   25  C7  UNL     1      -0.525   7.316  11.976  1.00  0.00     0.010 C 
HETATM   26  C6  UNL     1      -1.813   7.044  12.743  1.00  0.00     0.041 C 
HETATM   27  C4  UNL     1      -1.543   6.498  14.171  1.00  0.00     0.085 C 
HETATM   28  O3  UNL     1      -0.193   5.978  14.254  1.00  0.00    -0.377 OA
HETATM   29  C31 UNL     1       0.218   5.197  13.134  1.00  0.00     0.174 C 
BRANCH  27  30
HETATM   30  C2  UNL     1      -2.581   5.386  14.544  1.00  0.00     0.014 C 
HETATM   31  C1  UNL     1      -3.672   5.871  15.509  1.00  0.00     0.012 C 
HETATM   32  C3  UNL     1      -3.237   4.726  13.325  1.00  0.00     0.012 C 
ENDBRANCH  27  30
BRANCH  27  33
HETATM   33  C5  UNL     1      -1.570   7.661  15.203  1.00  0.00     0.202 C 
BRANCH  33  34
HETATM   34  O1  UNL     1      -0.655   7.408  16.272  1.00  0.00    -0.398 OA
HETATM   35  H10 UNL     1      -0.855   6.492  16.549  1.00  0.00     0.209 HD
ENDBRANCH  33  34
ENDBRANCH  27  33
ENDBRANCH   1  24
TORSDOF 4
ENDMDL
MODEL 7
REMARK minimizedAffinity -8.68138599
REMARK  4 active torsions:
REMARK  status: ('A' for Active; 'I' for Inactive)
REMARK    1  A    between atoms: C2_2  and  C4_4 
REMARK    2  A    between atoms: C4_4  and  C5_5 
REMARK    3  A    between atoms: C5_5  and  O1_6 
REMARK    4  A    between atoms: C8_9  and  C9_10 
ROOT
HETATM    1  C9  UNL     1       1.903   6.494  11.435  1.00  0.00     0.001 C 
HETATM    2  C10 UNL     1       2.576   5.462  10.512  1.00  0.00     0.007 C 
HETATM    3  C11 UNL     1       3.498   6.249   9.574  1.00  0.00     0.011 C 
HETATM    4  C12 UNL     1       3.575   7.690  10.131  1.00  0.00    -0.032 C 
HETATM    5  C13 UNL     1       3.855   8.666   8.959  1.00  0.00     0.016 C 
HETATM    6  C14 UNL     1       4.764   7.879  11.161  1.00  0.00     0.004 C 
HETATM    7  C15 UNL     1       5.252   6.679  11.999  1.00  0.00     0.007 C 
HETATM    8  C16 UNL     1       6.588   6.972  12.719  1.00  0.00     0.007 C 
HETATM    9  C17 UNL     1       6.999   8.469  12.782  1.00  0.00     0.010 C 
HETATM   10  C18 UNL     1       8.169   8.755  13.770  1.00  0.00     0.018 C 
HETATM   11  C19 UNL     1       8.744  10.167  13.550  1.00  0.00     0.023 C 
HETATM   12  C20 UNL     1       9.325   7.755  13.572  1.00  0.00     0.023 C 
HETATM   13  C21 UNL     1       7.676   8.658  15.218  1.00  0.00     0.135 C 
HETATM   14  O2  UNL     1       8.442   8.415  16.150  1.00  0.00    -0.297 OA
HETATM   15  C22 UNL     1       6.202   8.844  15.486  1.00  0.00     0.080 C 
HETATM   16  C23 UNL     1       5.580   9.800  14.486  1.00  0.00     0.018 C 
HETATM   17  C24 UNL     1       5.756   9.337  13.048  1.00  0.00    -0.026 A 
HETATM   18  C25 UNL     1       5.329  10.311  11.966  1.00  0.00     0.021 A 
HETATM   19  C26 UNL     1       4.541   9.038  12.144  1.00  0.00    -0.027 A 
HETATM   20  C27 UNL     1       3.157   9.110  12.747  1.00  0.00     0.011 C 
HETATM   21  C28 UNL     1       2.068   9.075  11.692  1.00  0.00     0.011 C 
HETATM   22  C29 UNL     1       2.131   7.872  10.733  1.00  0.00    -0.032 C 
HETATM   23  C30 UNL     1       1.058   8.142   9.648  1.00  0.00     0.016 C 
ENDROOT
BRANCH   1  24
HETATM   24  C8  UNL     1       0.479   6.121  11.936  1.00  0.00     0.014 C 
HETATM   25  C7  UNL     1       0.561   4.846  12.800  1.00  0.00     0.010 C 
HETATM   26  C6  UNL     1      -0.828   4.271  13.047  1.00  0.00     0.041 C 
HETATM   27  C4  UNL     1      -1.559   3.910  11.726  1.00  0.00     0.085 C 
HETATM   28  O3  UNL     1      -0.940   4.603  10.614  1.00  0.00    -0.377 OA
HETATM   29  C31 UNL     1      -0.615   5.968  10.866  1.00  0.00     0.174 C 
BRANCH  27  30
HETATM   30  C2  UNL     1      -3.080   4.274  11.817  1.00  0.00     0.014 C 
HETATM   31  C1  UNL     1      -3.978   3.063  12.108  1.00  0.00     0.012 C 
HETATM   32  C3  UNL     1      -3.385   5.387  12.827  1.00  0.00     0.012 C 
ENDBRANCH  27  30
BRANCH  27  33
HETATM   33  C5  UNL     1      -1.360   2.404  11.397  1.00  0.00     0.202 C 
BRANCH  33  34
HETATM   34  O1  UNL     1      -1.528   2.166   9.996  1.00  0.00    -0.398 OA
HETATM   35  H10 UNL     1      -2.366   2.618   9.773  1.00  0.00     0.209 HD
ENDBRANCH  33  34
ENDBRANCH  27  33
ENDBRANCH   1  24
TORSDOF 4
ENDMDL
MODEL 8
REMARK minimizedAffinity -8.58617496
REMARK  4 active torsions:
REMARK  status: ('A' for Active; 'I' for Inactive)
REMARK    1  A    between atoms: C2_2  and  C4_4 
REMARK    2  A    between atoms: C4_4  and  C5_5 
REMARK    3  A    between atoms: C5_5  and  O1_6 
REMARK    4  A    between atoms: C8_9  and  C9_10 
ROOT
HETATM    1  C9  UNL     1      -1.263   7.817  13.329  1.00  0.00     0.001 C 
HETATM    2  C10 UNL     1      -2.590   7.736  12.552  1.00  0.00     0.007 C 
HETATM    3  C11 UNL     1      -3.670   7.356  13.571  1.00  0.00     0.011 C 
HETATM    4  C12 UNL     1      -3.028   7.490  14.973  1.00  0.00    -0.032 C 
HETATM    5  C13 UNL     1      -3.735   6.509  15.943  1.00  0.00     0.016 C 
HETATM    6  C14 UNL     1      -3.215   8.938  15.589  1.00  0.00     0.004 C 
HETATM    7  C15 UNL     1      -3.341  10.160  14.655  1.00  0.00     0.007 C 
HETATM    8  C16 UNL     1      -3.806  11.427  15.408  1.00  0.00     0.007 C 
HETATM    9  C17 UNL     1      -3.707  11.357  16.957  1.00  0.00     0.010 C 
HETATM   10  C18 UNL     1      -3.883  12.738  17.657  1.00  0.00     0.018 C 
HETATM   11  C19 UNL     1      -4.105  12.565  19.171  1.00  0.00     0.023 C 
HETATM   12  C20 UNL     1      -5.105  13.496  17.100  1.00  0.00     0.023 C 
HETATM   13  C21 UNL     1      -2.633  13.600  17.450  1.00  0.00     0.135 C 
HETATM   14  O2  UNL     1      -2.673  14.829  17.514  1.00  0.00    -0.297 OA
HETATM   15  C22 UNL     1      -1.330  12.907  17.136  1.00  0.00     0.080 C 
HETATM   16  C23 UNL     1      -1.265  11.539  17.790  1.00  0.00     0.018 C 
HETATM   17  C24 UNL     1      -2.411  10.635  17.362  1.00  0.00    -0.026 A 
HETATM   18  C25 UNL     1      -2.538   9.312  18.095  1.00  0.00     0.021 A 
HETATM   19  C26 UNL     1      -2.152   9.295  16.638  1.00  0.00    -0.027 A 
HETATM   20  C27 UNL     1      -0.733   8.942  16.259  1.00  0.00     0.011 C 
HETATM   21  C28 UNL     1      -0.598   7.496  15.821  1.00  0.00     0.011 C 
HETATM   22  C29 UNL     1      -1.538   7.075  14.677  1.00  0.00    -0.032 C 
HETATM   23  C30 UNL     1      -1.360   5.542  14.529  1.00  0.00     0.016 C 
ENDROOT
BRANCH   1  24
HETATM   24  C8  UNL     1       0.015   7.466  12.514  1.00  0.00     0.014 C 
HETATM   25  C7  UNL     1       0.576   8.751  11.869  1.00  0.00     0.010 C 
HETATM   26  C6  UNL     1       1.627   8.413  10.819  1.00  0.00     0.041 C 
HETATM   27  C4  UNL     1       1.061   7.514   9.687  1.00  0.00     0.085 C 
HETATM   28  O3  UNL     1      -0.161   6.873  10.130  1.00  0.00    -0.377 OA
HETATM   29  C31 UNL     1      -0.118   6.356  11.458  1.00  0.00     0.174 C 
BRANCH  27  30
HETATM   30  C2  UNL     1       2.115   6.440   9.254  1.00  0.00     0.014 C 
HETATM   31  C1  UNL     1       2.401   6.443   7.746  1.00  0.00     0.012 C 
HETATM   32  C3  UNL     1       3.439   6.534  10.022  1.00  0.00     0.012 C 
ENDBRANCH  27  30
BRANCH  27  33
HETATM   33  C5  UNL     1       0.619   8.387   8.479  1.00  0.00     0.202 C 
BRANCH  33  34
HETATM   34  O1  UNL     1      -0.509   9.195   8.825  1.00  0.00    -0.398 OA
HETATM   35  H10 UNL     1      -1.134   8.570   9.243  1.00  0.00     0.209 HD
ENDBRANCH  33  34
ENDBRANCH  27  33
ENDBRANCH   1  24
TORSDOF 4
ENDMDL
MODEL 9
REMARK minimizedAffinity -8.2505827
REMARK  4 active torsions:
REMARK  status: ('A' for Active; 'I' for Inactive)
REMARK    1  A    between atoms: C2_2  and  C4_4 
REMARK    2  A    between atoms: C4_4  and  C5_5 
REMARK    3  A    between atoms: C5_5  and  O1_6 
REMARK    4  A    between atoms: C8_9  and  C9_10 
ROOT
HETATM    1  C9  UNL     1      -1.779   9.865  14.940  1.00  0.00     0.001 C 
HETATM    2  C10 UNL     1      -1.793  10.405  13.498  1.00  0.00     0.007 C 
HETATM    3  C11 UNL     1      -1.634   9.193  12.575  1.00  0.00     0.011 C 
HETATM    4  C12 UNL     1      -1.810   7.934  13.458  1.00  0.00    -0.032 C 
HETATM    5  C13 UNL     1      -1.008   6.765  12.829  1.00  0.00     0.016 C 
HETATM    6  C14 UNL     1      -3.317   7.451  13.531  1.00  0.00     0.004 C 
HETATM    7  C15 UNL     1      -4.461   8.476  13.375  1.00  0.00     0.007 C 
HETATM    8  C16 UNL     1      -5.834   7.795  13.180  1.00  0.00     0.007 C 
HETATM    9  C17 UNL     1      -5.887   6.284  13.534  1.00  0.00     0.010 C 
HETATM   10  C18 UNL     1      -7.334   5.713  13.626  1.00  0.00     0.018 C 
HETATM   11  C19 UNL     1      -7.320   4.173  13.649  1.00  0.00     0.023 C 
HETATM   12  C20 UNL     1      -8.182   6.143  12.413  1.00  0.00     0.023 C 
HETATM   13  C21 UNL     1      -8.019   6.206  14.905  1.00  0.00     0.135 C 
HETATM   14  O2  UNL     1      -9.244   6.266  15.004  1.00  0.00    -0.297 OA
HETATM   15  C22 UNL     1      -7.149   6.650  16.055  1.00  0.00     0.080 C 
HETATM   16  C23 UNL     1      -5.845   5.876  16.088  1.00  0.00     0.018 C 
HETATM   17  C24 UNL     1      -5.052   6.017  14.799  1.00  0.00    -0.026 A 
HETATM   18  C25 UNL     1      -3.822   5.139  14.661  1.00  0.00     0.021 A 
HETATM   19  C26 UNL     1      -3.634   6.629  14.788  1.00  0.00    -0.027 A 
HETATM   20  C27 UNL     1      -3.081   7.191  16.077  1.00  0.00     0.011 C 
HETATM   21  C28 UNL     1      -1.597   7.491  15.984  1.00  0.00     0.011 C 
HETATM   22  C29 UNL     1      -1.195   8.420  14.823  1.00  0.00    -0.032 C 
HETATM   23  C30 UNL     1       0.355   8.432  14.813  1.00  0.00     0.016 C 
ENDROOT
BRANCH   1  24
HETATM   24  C8  UNL     1      -1.209  10.832  16.016  1.00  0.00     0.014 C 
HETATM   25  C7  UNL     1       0.136  11.405  15.524  1.00  0.00     0.010 C 
HETATM   26  C6  UNL     1       0.875  12.101  16.661  1.00  0.00     0.041 C 
HETATM   27  C4  UNL     1       1.166  11.142  17.846  1.00  0.00     0.085 C 
HETATM   28  O3  UNL     1       0.298   9.984  17.769  1.00  0.00    -0.377 OA
HETATM   29  C31 UNL     1      -1.059  10.274  17.441  1.00  0.00     0.174 C 
BRANCH  27  30
HETATM   30  C2  UNL     1       0.974  11.878  19.215  1.00  0.00     0.014 C 
HETATM   31  C1  UNL     1      -0.188  12.881  19.208  1.00  0.00     0.012 C 
HETATM   32  C3  UNL     1       0.816  10.925  20.407  1.00  0.00     0.012 C 
ENDBRANCH  27  30
BRANCH  27  33
HETATM   33  C5  UNL     1       2.600  10.554  17.721  1.00  0.00     0.202 C 
BRANCH  33  34
HETATM   34  O1  UNL     1       2.550   9.141  17.505  1.00  0.00    -0.398 OA
HETATM   35  H10 UNL     1       1.936   8.813  18.192  1.00  0.00     0.209 HD
ENDBRANCH  33  34
ENDBRANCH  27  33
ENDBRANCH   1  24
TORSDOF 4
ENDMDL
