MODEL 1
REMARK minimizedAffinity -6.76688671
REMARK CNNscore 0.769819736
REMARK CNNaffinity 6.62722731
REMARK  4 active torsions:
REMARK  status: ('A' for Active; 'I' for Inactive)
REMARK    1  A    between atoms: C2_2  and  C4_4 
REMARK    2  A    between atoms: C7_7  and  C8_8 
REMARK    3  A    between atoms: C8_8  and  O1_9 
REMARK    4  A    between atoms: C10_11  and  O2_12 
ROOT
HETATM    1  C4  UNL     1       1.823  54.860  -9.199  1.00  0.00     0.018 C 
HETATM    2  C5  UNL     1       0.333  55.163  -9.516  1.00  0.00     0.010 C 
HETATM    3  C6  UNL     1      -0.163  56.122  -8.421  1.00  0.00     0.013 C 
HETATM    4  C7  UNL     1       0.816  55.907  -7.257  1.00  0.00    -0.012 C 
HETATM    5  C9  UNL     1       0.895  57.092  -6.286  1.00  0.00     0.044 C 
HETATM    6  C10 UNL     1       2.077  56.942  -5.302  1.00  0.00     0.128 C 
HETATM    7  C11 UNL     1       3.482  56.702  -5.996  1.00  0.00    -0.006 C 
HETATM    8  C12 UNL     1       3.859  58.051  -6.707  1.00  0.00     0.019 C 
HETATM    9  C13 UNL     1       3.334  55.547  -7.083  1.00  0.00     0.002 C 
HETATM   10  C14 UNL     1       4.657  55.265  -7.804  1.00  0.00     0.006 C 
HETATM   11  C15 UNL     1       5.800  54.944  -6.839  1.00  0.00     0.006 C 
HETATM   12  C16 UNL     1       5.995  56.018  -5.746  1.00  0.00     0.003 C 
HETATM   13  C17 UNL     1       7.348  55.853  -4.933  1.00  0.00    -0.035 C 
HETATM   14  C18 UNL     1       7.496  54.438  -4.305  1.00  0.00     0.016 C 
HETATM   15  C19 UNL     1       8.543  55.994  -5.933  1.00  0.00     0.017 C 
HETATM   16  C20 UNL     1       9.825  56.469  -5.273  1.00  0.00     0.080 C 
HETATM   17  C21 UNL     1       9.639  57.868  -4.744  1.00  0.00     0.135 C 
HETATM   18  O3  UNL     1      10.575  58.671  -4.793  1.00  0.00    -0.297 OA
HETATM   19  C22 UNL     1       8.272  58.238  -4.138  1.00  0.00     0.017 C 
HETATM   20  C23 UNL     1       8.572  59.053  -2.856  1.00  0.00     0.023 C 
HETATM   21  C24 UNL     1       7.573  59.175  -5.131  1.00  0.00     0.023 C 
HETATM   22  C25 UNL     1       7.491  56.916  -3.775  1.00  0.00     0.009 C 
HETATM   23  C26 UNL     1       6.168  57.112  -3.009  1.00  0.00     0.007 C 
HETATM   24  C27 UNL     1       4.931  57.352  -3.871  1.00  0.00     0.011 C 
HETATM   25  C28 UNL     1       4.661  56.261  -4.939  1.00  0.00    -0.030 C 
HETATM   26  C29 UNL     1       4.212  54.982  -4.169  1.00  0.00     0.016 C 
HETATM   27  C30 UNL     1       2.153  55.829  -8.038  1.00  0.00     0.009 C 
ENDROOT
BRANCH   1  28
HETATM   28  C2  UNL     1       2.691  54.949 -10.442  1.00  0.00    -0.089 C 
HETATM   29  C1  UNL     1       3.050  56.141 -10.951  1.00  0.00     0.014 C 
HETATM   30  C3  UNL     1       3.168  53.672 -11.086  1.00  0.00     0.043 C 
ENDBRANCH   1  28
BRANCH   4  31
HETATM   31  C8  UNL     1       0.423  54.605  -6.497  1.00  0.00     0.174 C 
BRANCH  31  32
HETATM   32  O1  UNL     1      -0.903  54.719  -5.990  1.00  0.00    -0.400 OA
HETATM   33  H13 UNL     1      -1.136  53.860  -5.597  1.00  0.00     0.209 HD
ENDBRANCH  31  32
ENDBRANCH   4  31
BRANCH   6  34
HETATM   34  O2  UNL     1       2.110  58.112  -4.485  1.00  0.00    -0.395 OA
HETATM   35  H17 UNL     1       1.231  58.213  -4.082  1.00  0.00     0.210 HD
ENDBRANCH   6  34
TORSDOF 4
ENDMDL
MODEL 2
REMARK minimizedAffinity -7.06779671
REMARK CNNscore 0.766288221
REMARK CNNaffinity 6.65462637
REMARK  4 active torsions:
REMARK  status: ('A' for Active; 'I' for Inactive)
REMARK    1  A    between atoms: C2_2  and  C4_4 
REMARK    2  A    between atoms: C7_7  and  C8_8 
REMARK    3  A    between atoms: C8_8  and  O1_9 
REMARK    4  A    between atoms: C10_11  and  O2_12 
ROOT
HETATM    1  C4  UNL     1      -7.051  45.178 -31.848  1.00  0.00     0.018 C 
HETATM    2  C5  UNL     1      -5.767  45.910 -32.327  1.00  0.00     0.010 C 
HETATM    3  C6  UNL     1      -5.716  47.247 -31.570  1.00  0.00     0.013 C 
HETATM    4  C7  UNL     1      -7.169  47.493 -31.135  1.00  0.00    -0.012 C 
HETATM    5  C9  UNL     1      -7.305  48.431 -29.930  1.00  0.00     0.044 C 
HETATM    6  C10 UNL     1      -8.746  48.428 -29.368  1.00  0.00     0.128 C 
HETATM    7  C11 UNL     1      -9.309  46.989 -29.016  1.00  0.00    -0.006 C 
HETATM    8  C12 UNL     1      -8.503  46.494 -27.762  1.00  0.00     0.019 C 
HETATM    9  C13 UNL     1      -9.043  46.011 -30.245  1.00  0.00     0.002 C 
HETATM   10  C14 UNL     1      -9.556  44.593 -29.971  1.00  0.00     0.006 C 
HETATM   11  C15 UNL     1     -11.035  44.565 -29.581  1.00  0.00     0.006 C 
HETATM   12  C16 UNL     1     -11.372  45.501 -28.399  1.00  0.00     0.003 C 
HETATM   13  C17 UNL     1     -12.820  45.261 -27.795  1.00  0.00    -0.035 C 
HETATM   14  C18 UNL     1     -13.937  45.358 -28.872  1.00  0.00     0.016 C 
HETATM   15  C19 UNL     1     -12.888  43.795 -27.252  1.00  0.00     0.017 C 
HETATM   16  C20 UNL     1     -13.911  43.613 -26.144  1.00  0.00     0.080 C 
HETATM   17  C21 UNL     1     -13.504  44.420 -24.937  1.00  0.00     0.135 C 
HETATM   18  O3  UNL     1     -13.714  43.976 -23.805  1.00  0.00    -0.297 OA
HETATM   19  C22 UNL     1     -12.851  45.795 -25.171  1.00  0.00     0.017 C 
HETATM   20  C23 UNL     1     -13.489  46.760 -24.140  1.00  0.00     0.023 C 
HETATM   21  C24 UNL     1     -11.365  45.658 -24.820  1.00  0.00     0.023 C 
HETATM   22  C25 UNL     1     -13.169  46.278 -26.639  1.00  0.00     0.009 C 
HETATM   23  C26 UNL     1     -12.722  47.713 -26.982  1.00  0.00     0.007 C 
HETATM   24  C27 UNL     1     -11.284  47.860 -27.473  1.00  0.00     0.011 C 
HETATM   25  C28 UNL     1     -10.923  46.985 -28.700  1.00  0.00    -0.030 C 
HETATM   26  C29 UNL     1     -11.689  47.583 -29.918  1.00  0.00     0.016 C 
HETATM   27  C30 UNL     1      -7.563  46.063 -30.686  1.00  0.00     0.009 C 
ENDROOT
BRANCH   1  28
HETATM   28  C2  UNL     1      -6.781  43.715 -31.537  1.00  0.00    -0.089 C 
HETATM   29  C1  UNL     1      -7.571  43.032 -30.689  1.00  0.00     0.014 C 
HETATM   30  C3  UNL     1      -5.624  43.031 -32.217  1.00  0.00     0.043 C 
ENDBRANCH   1  28
BRANCH   4  31
HETATM   31  C8  UNL     1      -7.975  48.045 -32.349  1.00  0.00     0.174 C 
BRANCH  31  32
HETATM   32  O1  UNL     1      -9.132  47.243 -32.569  1.00  0.00    -0.400 OA
HETATM   33  H13 UNL     1      -9.646  47.669 -33.278  1.00  0.00     0.209 HD
ENDBRANCH  31  32
ENDBRANCH   4  31
BRANCH   6  34
HETATM   34  O2  UNL     1      -8.762  49.274 -28.218  1.00  0.00    -0.395 OA
HETATM   35  H17 UNL     1      -8.411  50.140 -28.486  1.00  0.00     0.210 HD
ENDBRANCH   6  34
TORSDOF 4
ENDMDL
MODEL 3
REMARK minimizedAffinity -6.94415808
REMARK CNNscore 0.75277257
REMARK CNNaffinity 7.06409597
REMARK  4 active torsions:
REMARK  status: ('A' for Active; 'I' for Inactive)
REMARK    1  A    between atoms: C2_2  and  C4_4 
REMARK    2  A    between atoms: C7_7  and  C8_8 
REMARK    3  A    between atoms: C8_8  and  O1_9 
REMARK    4  A    between atoms: C10_11  and  O2_12 
ROOT
HETATM    1  C4  UNL     1      -2.029  51.647 -11.538  1.00  0.00     0.018 C 
HETATM    2  C5  UNL     1      -2.616  50.228 -11.770  1.00  0.00     0.010 C 
HETATM    3  C6  UNL     1      -1.494  49.229 -11.442  1.00  0.00     0.013 C 
HETATM    4  C7  UNL     1      -0.203  50.051 -11.578  1.00  0.00    -0.012 C 
HETATM    5  C9  UNL     1       0.983  49.478 -10.791  1.00  0.00     0.044 C 
HETATM    6  C10 UNL     1       2.163  50.475 -10.738  1.00  0.00     0.128 C 
HETATM    7  C11 UNL     1       1.783  51.914 -10.194  1.00  0.00    -0.006 C 
HETATM    8  C12 UNL     1       1.474  51.741  -8.664  1.00  0.00     0.019 C 
HETATM    9  C13 UNL     1       0.477  52.427 -10.949  1.00  0.00     0.002 C 
HETATM   10  C14 UNL     1       0.043  53.815 -10.467  1.00  0.00     0.006 C 
HETATM   11  C15 UNL     1       1.161  54.854 -10.574  1.00  0.00     0.006 C 
HETATM   12  C16 UNL     1       2.467  54.420  -9.872  1.00  0.00     0.003 C 
HETATM   13  C17 UNL     1       3.522  55.595  -9.717  1.00  0.00    -0.035 C 
HETATM   14  C18 UNL     1       3.861  56.274 -11.074  1.00  0.00     0.016 C 
HETATM   15  C19 UNL     1       2.880  56.718  -8.836  1.00  0.00     0.017 C 
HETATM   16  C20 UNL     1       3.906  57.566  -8.105  1.00  0.00     0.080 C 
HETATM   17  C21 UNL     1       4.653  56.717  -7.108  1.00  0.00     0.135 C 
HETATM   18  O3  UNL     1       4.991  57.201  -6.024  1.00  0.00    -0.297 OA
HETATM   19  C22 UNL     1       4.985  55.265  -7.498  1.00  0.00     0.017 C 
HETATM   20  C23 UNL     1       6.443  55.014  -7.036  1.00  0.00     0.023 C 
HETATM   21  C24 UNL     1       4.072  54.352  -6.670  1.00  0.00     0.023 C 
HETATM   22  C25 UNL     1       4.875  55.110  -9.064  1.00  0.00     0.009 C 
HETATM   23  C26 UNL     1       5.334  53.753  -9.635  1.00  0.00     0.007 C 
HETATM   24  C27 UNL     1       4.275  52.654  -9.666  1.00  0.00     0.011 C 
HETATM   25  C28 UNL     1       2.972  53.027 -10.418  1.00  0.00    -0.030 C 
HETATM   26  C29 UNL     1       3.334  53.098 -11.933  1.00  0.00     0.016 C 
HETATM   27  C30 UNL     1      -0.648  51.369 -10.895  1.00  0.00     0.009 C 
ENDROOT
BRANCH   1  28
HETATM   28  C2  UNL     1      -2.989  52.532 -10.761  1.00  0.00    -0.089 C 
HETATM   29  C1  UNL     1      -3.074  52.450  -9.421  1.00  0.00     0.014 C 
HETATM   30  C3  UNL     1      -3.831  53.527 -11.518  1.00  0.00     0.043 C 
ENDBRANCH   1  28
BRANCH   4  31
HETATM   31  C8  UNL     1       0.158  50.184 -13.087  1.00  0.00     0.174 C 
BRANCH  31  32
HETATM   32  O1  UNL     1       0.282  51.558 -13.439  1.00  0.00    -0.400 OA
HETATM   33  H13 UNL     1       0.587  51.593 -14.363  1.00  0.00     0.209 HD
ENDBRANCH  31  32
ENDBRANCH   4  31
BRANCH   6  34
HETATM   34  O2  UNL     1       3.189  49.887  -9.938  1.00  0.00    -0.395 OA
HETATM   35  H17 UNL     1       3.386  49.011 -10.312  1.00  0.00     0.210 HD
ENDBRANCH   6  34
TORSDOF 4
ENDMDL
MODEL 4
REMARK minimizedAffinity -6.62619638
REMARK CNNscore 0.611952007
REMARK CNNaffinity 6.84482813
REMARK  4 active torsions:
REMARK  status: ('A' for Active; 'I' for Inactive)
REMARK    1  A    between atoms: C2_2  and  C4_4 
REMARK    2  A    between atoms: C7_7  and  C8_8 
REMARK    3  A    between atoms: C8_8  and  O1_9 
REMARK    4  A    between atoms: C10_11  and  O2_12 
ROOT
HETATM    1  C4  UNL     1       4.639  55.974  -7.061  1.00  0.00     0.018 C 
HETATM    2  C5  UNL     1       6.185  56.125  -7.087  1.00  0.00     0.010 C 
HETATM    3  C6  UNL     1       6.722  54.996  -7.982  1.00  0.00     0.013 C 
HETATM    4  C7  UNL     1       5.599  53.947  -7.983  1.00  0.00    -0.012 C 
HETATM    5  C9  UNL     1       5.628  53.009  -9.196  1.00  0.00     0.044 C 
HETATM    6  C10 UNL     1       4.337  52.163  -9.290  1.00  0.00     0.128 C 
HETATM    7  C11 UNL     1       2.997  53.007  -9.276  1.00  0.00    -0.006 C 
HETATM    8  C12 UNL     1       2.945  53.777 -10.644  1.00  0.00     0.019 C 
HETATM    9  C13 UNL     1       3.053  54.054  -8.075  1.00  0.00     0.002 C 
HETATM   10  C14 UNL     1       1.788  54.915  -8.004  1.00  0.00     0.006 C 
HETATM   11  C15 UNL     1       0.508  54.081  -7.922  1.00  0.00     0.006 C 
HETATM   12  C16 UNL     1       0.389  53.033  -9.052  1.00  0.00     0.003 C 
HETATM   13  C17 UNL     1      -1.051  52.375  -9.154  1.00  0.00    -0.035 C 
HETATM   14  C18 UNL     1      -1.516  51.747  -7.809  1.00  0.00     0.016 C 
HETATM   15  C19 UNL     1      -2.087  53.507  -9.467  1.00  0.00     0.017 C 
HETATM   16  C20 UNL     1      -3.328  53.002 -10.182  1.00  0.00     0.080 C 
HETATM   17  C21 UNL     1      -2.954  52.477 -11.545  1.00  0.00     0.135 C 
HETATM   18  O3  UNL     1      -3.721  52.644 -12.497  1.00  0.00    -0.297 OA
HETATM   19  C22 UNL     1      -1.617  51.726 -11.690  1.00  0.00     0.017 C 
HETATM   20  C23 UNL     1      -1.904  50.498 -12.589  1.00  0.00     0.023 C 
HETATM   21  C24 UNL     1      -0.659  52.647 -12.456  1.00  0.00     0.023 C 
HETATM   22  C25 UNL     1      -1.128  51.257 -10.265  1.00  0.00     0.009 C 
HETATM   23  C26 UNL     1       0.118  50.349 -10.253  1.00  0.00     0.007 C 
HETATM   24  C27 UNL     1       1.464  51.069 -10.242  1.00  0.00     0.011 C 
HETATM   25  C28 UNL     1       1.651  52.084  -9.085  1.00  0.00    -0.030 C 
HETATM   26  C29 UNL     1       1.779  51.249  -7.775  1.00  0.00     0.016 C 
HETATM   27  C30 UNL     1       4.363  54.873  -8.113  1.00  0.00     0.009 C 
ENDROOT
BRANCH   1  28
HETATM   28  C2  UNL     1       3.940  57.309  -7.257  1.00  0.00    -0.089 C 
HETATM   29  C1  UNL     1       3.899  57.896  -8.467  1.00  0.00     0.014 C 
HETATM   30  C3  UNL     1       3.270  57.957  -6.074  1.00  0.00     0.043 C 
ENDBRANCH   1  28
BRANCH   4  31
HETATM   31  C8  UNL     1       5.669  53.128  -6.660  1.00  0.00     0.174 C 
BRANCH  31  32
HETATM   32  O1  UNL     1       6.987  52.623  -6.469  1.00  0.00    -0.400 OA
HETATM   33  H13 UNL     1       7.007  52.191  -5.597  1.00  0.00     0.209 HD
ENDBRANCH  31  32
ENDBRANCH   4  31
BRANCH   6  34
HETATM   34  O2  UNL     1       4.425  51.372 -10.475  1.00  0.00    -0.395 OA
HETATM   35  H17 UNL     1       5.259  50.875 -10.434  1.00  0.00     0.210 HD
ENDBRANCH   6  34
TORSDOF 4
ENDMDL
MODEL 5
REMARK minimizedAffinity -6.56289864
REMARK CNNscore 0.560266137
REMARK CNNaffinity 6.80266619
REMARK  4 active torsions:
REMARK  status: ('A' for Active; 'I' for Inactive)
REMARK    1  A    between atoms: C2_2  and  C4_4 
REMARK    2  A    between atoms: C7_7  and  C8_8 
REMARK    3  A    between atoms: C8_8  and  O1_9 
REMARK    4  A    between atoms: C10_11  and  O2_12 
ROOT
HETATM    1  C4  UNL     1       3.620  53.893  -9.186  1.00  0.00     0.018 C 
HETATM    2  C5  UNL     1       5.104  53.915  -8.728  1.00  0.00     0.010 C 
HETATM    3  C6  UNL     1       5.790  52.712  -9.397  1.00  0.00     0.013 C 
HETATM    4  C7  UNL     1       4.633  51.759  -9.739  1.00  0.00    -0.012 C 
HETATM    5  C9  UNL     1       4.954  50.777 -10.872  1.00  0.00     0.044 C 
HETATM    6  C10 UNL     1       3.686  50.037 -11.357  1.00  0.00     0.128 C 
HETATM    7  C11 UNL     1       2.490  50.989 -11.774  1.00  0.00    -0.006 C 
HETATM    8  C12 UNL     1       2.936  51.708 -13.097  1.00  0.00     0.019 C 
HETATM    9  C13 UNL     1       2.263  52.072 -10.627  1.00  0.00     0.002 C 
HETATM   10  C14 UNL     1       1.122  53.037 -10.965  1.00  0.00     0.006 C 
HETATM   11  C15 UNL     1      -0.189  52.314 -11.280  1.00  0.00     0.006 C 
HETATM   12  C16 UNL     1      -0.044  51.237 -12.379  1.00  0.00     0.003 C 
HETATM   13  C17 UNL     1      -1.434  50.697 -12.921  1.00  0.00    -0.035 C 
HETATM   14  C18 UNL     1      -2.349  50.161 -11.783  1.00  0.00     0.016 C 
HETATM   15  C19 UNL     1      -2.214  51.897 -13.555  1.00  0.00     0.017 C 
HETATM   16  C20 UNL     1      -3.211  51.470 -14.618  1.00  0.00     0.080 C 
HETATM   17  C21 UNL     1      -2.480  50.864 -15.789  1.00  0.00     0.135 C 
HETATM   18  O3  UNL     1      -2.894  51.057 -16.935  1.00  0.00    -0.297 OA
HETATM   19  C22 UNL     1      -1.238  50.001 -15.500  1.00  0.00     0.017 C 
HETATM   20  C23 UNL     1      -1.340  48.767 -16.431  1.00  0.00     0.023 C 
HETATM   21  C24 UNL     1      -0.010  50.811 -15.936  1.00  0.00     0.023 C 
HETATM   22  C25 UNL     1      -1.261  49.547 -13.989  1.00  0.00     0.009 C 
HETATM   23  C26 UNL     1      -0.168  48.541 -13.577  1.00  0.00     0.007 C 
HETATM   24  C27 UNL     1       1.167  49.148 -13.152  1.00  0.00     0.011 C 
HETATM   25  C28 UNL     1       1.073  50.187 -12.005  1.00  0.00    -0.030 C 
HETATM   26  C29 UNL     1       0.711  49.395 -10.712  1.00  0.00     0.016 C 
HETATM   27  C30 UNL     1       3.587  52.778 -10.260  1.00  0.00     0.009 C 
ENDROOT
BRANCH   1  28
HETATM   28  C2  UNL     1       3.141  55.272  -9.605  1.00  0.00    -0.089 C 
HETATM   29  C1  UNL     1       2.284  55.968  -8.837  1.00  0.00     0.014 C 
HETATM   30  C3  UNL     1       3.662  55.861 -10.890  1.00  0.00     0.043 C 
ENDBRANCH   1  28
BRANCH   4  31
HETATM   31  C8  UNL     1       4.214  50.989  -8.452  1.00  0.00     0.174 C 
BRANCH  31  32
HETATM   32  O1  UNL     1       2.818  51.153  -8.220  1.00  0.00    -0.400 OA
HETATM   33  H13 UNL     1       2.585  50.592  -7.460  1.00  0.00     0.209 HD
ENDBRANCH  31  32
ENDBRANCH   4  31
BRANCH   6  34
HETATM   34  O2  UNL     1       4.067  49.198 -12.447  1.00  0.00    -0.395 OA
HETATM   35  H17 UNL     1       4.799  48.635 -12.142  1.00  0.00     0.210 HD
ENDBRANCH   6  34
TORSDOF 4
ENDMDL
MODEL 6
REMARK minimizedAffinity -7.22031069
REMARK CNNscore 0.55908668
REMARK CNNaffinity 6.5560708
REMARK  4 active torsions:
REMARK  status: ('A' for Active; 'I' for Inactive)
REMARK    1  A    between atoms: C2_2  and  C4_4 
REMARK    2  A    between atoms: C7_7  and  C8_8 
REMARK    3  A    between atoms: C8_8  and  O1_9 
REMARK    4  A    between atoms: C10_11  and  O2_12 
ROOT
HETATM    1  C4  UNL     1       5.405  53.626  -8.685  1.00  0.00     0.018 C 
HETATM    2  C5  UNL     1       6.861  53.118  -8.870  1.00  0.00     0.010 C 
HETATM    3  C6  UNL     1       6.766  51.764  -9.593  1.00  0.00     0.013 C 
HETATM    4  C7  UNL     1       5.333  51.284  -9.310  1.00  0.00    -0.012 C 
HETATM    5  C9  UNL     1       4.805  50.273 -10.336  1.00  0.00     0.044 C 
HETATM    6  C10 UNL     1       3.287  50.035 -10.167  1.00  0.00     0.128 C 
HETATM    7  C11 UNL     1       2.409  51.354 -10.188  1.00  0.00    -0.006 C 
HETATM    8  C12 UNL     1       2.460  51.895 -11.661  1.00  0.00     0.019 C 
HETATM    9  C13 UNL     1       3.056  52.425  -9.201  1.00  0.00     0.002 C 
HETATM   10  C14 UNL     1       2.261  53.735  -9.176  1.00  0.00     0.006 C 
HETATM   11  C15 UNL     1       0.785  53.525  -8.838  1.00  0.00     0.006 C 
HETATM   12  C16 UNL     1       0.091  52.487  -9.749  1.00  0.00     0.003 C 
HETATM   13  C17 UNL     1      -1.490  52.479  -9.609  1.00  0.00    -0.035 C 
HETATM   14  C18 UNL     1      -1.956  52.276  -8.139  1.00  0.00     0.016 C 
HETATM   15  C19 UNL     1      -2.027  53.888 -10.028  1.00  0.00     0.017 C 
HETATM   16  C20 UNL     1      -3.458  53.858 -10.533  1.00  0.00     0.080 C 
HETATM   17  C21 UNL     1      -3.533  53.057 -11.808  1.00  0.00     0.135 C 
HETATM   18  O3  UNL     1      -4.306  53.405 -12.704  1.00  0.00    -0.297 OA
HETATM   19  C22 UNL     1      -2.641  51.807 -11.931  1.00  0.00     0.017 C 
HETATM   20  C23 UNL     1      -3.524  50.706 -12.570  1.00  0.00     0.023 C 
HETATM   21  C24 UNL     1      -1.525  52.143 -12.928  1.00  0.00     0.023 C 
HETATM   22  C25 UNL     1      -2.169  51.362 -10.493  1.00  0.00     0.009 C 
HETATM   23  C26 UNL     1      -1.398  50.029 -10.427  1.00  0.00     0.007 C 
HETATM   24  C27 UNL     1       0.108  50.121 -10.660  1.00  0.00     0.011 C 
HETATM   25  C28 UNL     1       0.853  51.104  -9.721  1.00  0.00    -0.030 C 
HETATM   26  C29 UNL     1       0.836  50.465  -8.299  1.00  0.00     0.016 C 
HETATM   27  C30 UNL     1       4.560  52.615  -9.496  1.00  0.00     0.009 C 
ENDROOT
BRANCH   1  28
HETATM   28  C2  UNL     1       5.271  55.094  -9.054  1.00  0.00    -0.089 C 
HETATM   29  C1  UNL     1       5.175  55.477 -10.340  1.00  0.00     0.014 C 
HETATM   30  C3  UNL     1       5.224  56.118  -7.949  1.00  0.00     0.043 C 
ENDBRANCH   1  28
BRANCH   4  31
HETATM   31  C8  UNL     1       5.273  50.685  -7.874  1.00  0.00     0.174 C 
BRANCH  31  32
HETATM   32  O1  UNL     1       5.434  51.720  -6.908  1.00  0.00    -0.400 OA
HETATM   33  H13 UNL     1       5.308  51.317  -6.031  1.00  0.00     0.209 HD
ENDBRANCH  31  32
ENDBRANCH   4  31
BRANCH   6  34
HETATM   34  O2  UNL     1       2.875  49.136 -11.196  1.00  0.00    -0.395 OA
HETATM   35  H17 UNL     1       3.439  48.346 -11.139  1.00  0.00     0.210 HD
ENDBRANCH   6  34
TORSDOF 4
ENDMDL
MODEL 7
REMARK minimizedAffinity -6.84834957
REMARK CNNscore 0.512972116
REMARK CNNaffinity 6.06345892
REMARK  4 active torsions:
REMARK  status: ('A' for Active; 'I' for Inactive)
REMARK    1  A    between atoms: C2_2  and  C4_4 
REMARK    2  A    between atoms: C7_7  and  C8_8 
REMARK    3  A    between atoms: C8_8  and  O1_9 
REMARK    4  A    between atoms: C10_11  and  O2_12 
ROOT
HETATM    1  C4  UNL     1     -14.823  43.743 -26.794  1.00  0.00     0.018 C 
HETATM    2  C5  UNL     1     -16.083  44.267 -26.052  1.00  0.00     0.010 C 
HETATM    3  C6  UNL     1     -15.867  45.773 -25.827  1.00  0.00     0.013 C 
HETATM    4  C7  UNL     1     -14.344  45.955 -25.920  1.00  0.00    -0.012 C 
HETATM    5  C9  UNL     1     -13.911  47.381 -26.281  1.00  0.00     0.044 C 
HETATM    6  C10 UNL     1     -12.406  47.447 -26.628  1.00  0.00     0.128 C 
HETATM    7  C11 UNL     1     -11.947  46.429 -27.752  1.00  0.00    -0.006 C 
HETATM    8  C12 UNL     1     -12.581  46.939 -29.095  1.00  0.00     0.019 C 
HETATM    9  C13 UNL     1     -12.516  44.981 -27.407  1.00  0.00     0.002 C 
HETATM   10  C14 UNL     1     -12.117  43.942 -28.460  1.00  0.00     0.006 C 
HETATM   11  C15 UNL     1     -10.605  43.879 -28.686  1.00  0.00     0.006 C 
HETATM   12  C16 UNL     1      -9.979  45.252 -29.015  1.00  0.00     0.003 C 
HETATM   13  C17 UNL     1      -8.485  45.157 -29.541  1.00  0.00    -0.035 C 
HETATM   14  C18 UNL     1      -7.558  44.383 -28.561  1.00  0.00     0.016 C 
HETATM   15  C19 UNL     1      -8.483  44.323 -30.865  1.00  0.00     0.017 C 
HETATM   16  C20 UNL     1      -7.316  44.652 -31.779  1.00  0.00     0.080 C 
HETATM   17  C21 UNL     1      -7.428  46.077 -32.258  1.00  0.00     0.135 C 
HETATM   18  O3  UNL     1      -7.082  46.366 -33.406  1.00  0.00    -0.297 OA
HETATM   19  C22 UNL     1      -7.962  47.133 -31.271  1.00  0.00     0.017 C 
HETATM   20  C23 UNL     1      -7.064  48.383 -31.445  1.00  0.00     0.023 C 
HETATM   21  C24 UNL     1      -9.376  47.510 -31.731  1.00  0.00     0.023 C 
HETATM   22  C25 UNL     1      -7.843  46.575 -29.800  1.00  0.00     0.009 C 
HETATM   23  C26 UNL     1      -8.187  47.575 -28.678  1.00  0.00     0.007 C 
HETATM   24  C27 UNL     1      -9.662  47.663 -28.297  1.00  0.00     0.011 C 
HETATM   25  C28 UNL     1     -10.313  46.315 -27.896  1.00  0.00    -0.030 C 
HETATM   26  C29 UNL     1      -9.701  45.914 -26.520  1.00  0.00     0.016 C 
HETATM   27  C30 UNL     1     -14.034  45.033 -27.127  1.00  0.00     0.009 C 
ENDROOT
BRANCH   1  28
HETATM   28  C2  UNL     1     -15.190  42.836 -27.955  1.00  0.00    -0.089 C 
HETATM   29  C1  UNL     1     -14.569  41.656 -28.134  1.00  0.00     0.014 C 
HETATM   30  C3  UNL     1     -16.284  43.270 -28.896  1.00  0.00     0.043 C 
ENDBRANCH   1  28
BRANCH   4  31
HETATM   31  C8  UNL     1     -13.697  45.513 -24.574  1.00  0.00     0.174 C 
BRANCH  31  32
HETATM   32  O1  UNL     1     -14.075  46.410 -23.535  1.00  0.00    -0.400 OA
HETATM   33  H13 UNL     1     -13.720  46.052 -22.702  1.00  0.00     0.209 HD
ENDBRANCH  31  32
ENDBRANCH   4  31
BRANCH   6  34
HETATM   34  O2  UNL     1     -12.109  48.790 -27.009  1.00  0.00    -0.395 OA
HETATM   35  H17 UNL     1     -12.406  49.372 -26.289  1.00  0.00     0.210 HD
ENDBRANCH   6  34
TORSDOF 4
ENDMDL
MODEL 8
REMARK minimizedAffinity -7.72695208
REMARK CNNscore 0.512274444
REMARK CNNaffinity 6.76235342
REMARK  4 active torsions:
REMARK  status: ('A' for Active; 'I' for Inactive)
REMARK    1  A    between atoms: C2_2  and  C4_4 
REMARK    2  A    between atoms: C7_7  and  C8_8 
REMARK    3  A    between atoms: C8_8  and  O1_9 
REMARK    4  A    between atoms: C10_11  and  O2_12 
ROOT
HETATM    1  C4  UNL     1      -3.379  50.548  -9.440  1.00  0.00     0.018 C 
HETATM    2  C5  UNL     1      -4.296  49.913 -10.521  1.00  0.00     0.010 C 
HETATM    3  C6  UNL     1      -3.747  50.363 -11.884  1.00  0.00     0.013 C 
HETATM    4  C7  UNL     1      -2.932  51.627 -11.566  1.00  0.00    -0.012 C 
HETATM    5  C9  UNL     1      -1.856  51.950 -12.609  1.00  0.00     0.044 C 
HETATM    6  C10 UNL     1      -0.897  53.055 -12.112  1.00  0.00     0.128 C 
HETATM    7  C11 UNL     1      -0.232  52.762 -10.704  1.00  0.00    -0.006 C 
HETATM    8  C12 UNL     1       0.775  51.578 -10.929  1.00  0.00     0.019 C 
HETATM    9  C13 UNL     1      -1.364  52.314  -9.677  1.00  0.00     0.002 C 
HETATM   10  C14 UNL     1      -0.791  52.004  -8.289  1.00  0.00     0.006 C 
HETATM   11  C15 UNL     1       0.020  53.165  -7.712  1.00  0.00     0.006 C 
HETATM   12  C16 UNL     1       1.134  53.663  -8.661  1.00  0.00     0.003 C 
HETATM   13  C17 UNL     1       2.162  54.651  -7.965  1.00  0.00    -0.035 C 
HETATM   14  C18 UNL     1       1.460  55.869  -7.300  1.00  0.00     0.016 C 
HETATM   15  C19 UNL     1       2.865  53.884  -6.795  1.00  0.00     0.017 C 
HETATM   16  C20 UNL     1       4.239  54.435  -6.457  1.00  0.00     0.080 C 
HETATM   17  C21 UNL     1       5.171  54.233  -7.625  1.00  0.00     0.135 C 
HETATM   18  O3  UNL     1       6.357  53.961  -7.421  1.00  0.00    -0.297 OA
HETATM   19  C22 UNL     1       4.599  54.395  -9.045  1.00  0.00     0.017 C 
HETATM   20  C23 UNL     1       5.656  55.193  -9.850  1.00  0.00     0.023 C 
HETATM   21  C24 UNL     1       4.508  52.994  -9.661  1.00  0.00     0.023 C 
HETATM   22  C25 UNL     1       3.246  55.203  -8.971  1.00  0.00     0.009 C 
HETATM   23  C26 UNL     1       2.625  55.592 -10.327  1.00  0.00     0.007 C 
HETATM   24  C27 UNL     1       1.717  54.544 -10.966  1.00  0.00     0.011 C 
HETATM   25  C28 UNL     1       0.545  54.065 -10.070  1.00  0.00    -0.030 C 
HETATM   26  C29 UNL     1      -0.451  55.258  -9.960  1.00  0.00     0.016 C 
HETATM   27  C30 UNL     1      -2.226  51.174 -10.263  1.00  0.00     0.009 C 
ENDROOT
BRANCH   1  28
HETATM   28  C2  UNL     1      -2.997  49.544  -8.366  1.00  0.00    -0.089 C 
HETATM   29  C1  UNL     1      -2.046  49.831  -7.458  1.00  0.00     0.014 C 
HETATM   30  C3  UNL     1      -3.722  48.224  -8.317  1.00  0.00     0.043 C 
ENDBRANCH   1  28
BRANCH   4  31
HETATM   31  C8  UNL     1      -3.908  52.830 -11.399  1.00  0.00     0.174 C 
BRANCH  31  32
HETATM   32  O1  UNL     1      -4.142  53.445 -12.662  1.00  0.00    -0.400 OA
HETATM   33  H13 UNL     1      -4.816  54.134 -12.526  1.00  0.00     0.209 HD
ENDBRANCH  31  32
ENDBRANCH   4  31
BRANCH   6  34
HETATM   34  O2  UNL     1       0.102  53.243 -13.114  1.00  0.00    -0.395 OA
HETATM   35  H17 UNL     1      -0.355  53.421 -13.954  1.00  0.00     0.210 HD
ENDBRANCH   6  34
TORSDOF 4
ENDMDL
MODEL 9
REMARK minimizedAffinity -7.97356749
REMARK CNNscore 0.494603664
REMARK CNNaffinity 6.00920916
REMARK  4 active torsions:
REMARK  status: ('A' for Active; 'I' for Inactive)
REMARK    1  A    between atoms: C2_2  and  C4_4 
REMARK    2  A    between atoms: C7_7  and  C8_8 
REMARK    3  A    between atoms: C8_8  and  O1_9 
REMARK    4  A    between atoms: C10_11  and  O2_12 
ROOT
HETATM    1  C4  UNL     1       5.509  63.786 -34.348  1.00  0.00     0.018 C 
HETATM    2  C5  UNL     1       6.956  63.437 -33.903  1.00  0.00     0.010 C 
HETATM    3  C6  UNL     1       7.854  64.589 -34.386  1.00  0.00     0.013 C 
HETATM    4  C7  UNL     1       7.051  65.244 -35.521  1.00  0.00    -0.012 C 
HETATM    5  C9  UNL     1       7.441  66.702 -35.794  1.00  0.00     0.044 C 
HETATM    6  C10 UNL     1       6.433  67.391 -36.742  1.00  0.00     0.128 C 
HETATM    7  C11 UNL     1       4.923  67.302 -36.272  1.00  0.00    -0.006 C 
HETATM    8  C12 UNL     1       4.801  68.214 -35.000  1.00  0.00     0.019 C 
HETATM    9  C13 UNL     1       4.588  65.793 -35.882  1.00  0.00     0.002 C 
HETATM   10  C14 UNL     1       3.140  65.631 -35.408  1.00  0.00     0.006 C 
HETATM   11  C15 UNL     1       2.123  66.156 -36.423  1.00  0.00     0.006 C 
HETATM   12  C16 UNL     1       2.391  67.614 -36.857  1.00  0.00     0.003 C 
HETATM   13  C17 UNL     1       1.191  68.264 -37.667  1.00  0.00    -0.035 C 
HETATM   14  C18 UNL     1       0.782  67.418 -38.906  1.00  0.00     0.016 C 
HETATM   15  C19 UNL     1      -0.071  68.287 -36.740  1.00  0.00     0.017 C 
HETATM   16  C20 UNL     1      -1.061  69.378 -37.103  1.00  0.00     0.080 C 
HETATM   17  C21 UNL     1      -0.434  70.731 -36.882  1.00  0.00     0.135 C 
HETATM   18  O3  UNL     1      -1.124  71.664 -36.461  1.00  0.00    -0.297 OA
HETATM   19  C22 UNL     1       1.061  70.900 -37.212  1.00  0.00     0.017 C 
HETATM   20  C23 UNL     1       1.193  72.261 -37.940  1.00  0.00     0.023 C 
HETATM   21  C24 UNL     1       1.811  71.012 -35.880  1.00  0.00     0.023 C 
HETATM   22  C25 UNL     1       1.517  69.726 -38.163  1.00  0.00     0.009 C 
HETATM   23  C26 UNL     1       2.951  69.837 -38.719  1.00  0.00     0.007 C 
HETATM   24  C27 UNL     1       4.053  69.263 -37.832  1.00  0.00     0.011 C 
HETATM   25  C28 UNL     1       3.855  67.780 -37.426  1.00  0.00    -0.030 C 
HETATM   26  C29 UNL     1       4.072  66.930 -38.715  1.00  0.00     0.016 C 
HETATM   27  C30 UNL     1       5.633  65.228 -34.895  1.00  0.00     0.009 C 
ENDROOT
BRANCH   1  28
HETATM   28  C2  UNL     1       4.506  63.554 -33.231  1.00  0.00    -0.089 C 
HETATM   29  C1  UNL     1       3.833  62.393 -33.137  1.00  0.00     0.014 C 
HETATM   30  C3  UNL     1       4.295  64.641 -32.209  1.00  0.00     0.043 C 
ENDBRANCH   1  28
BRANCH   4  31
HETATM   31  C8  UNL     1       7.208  64.388 -36.813  1.00  0.00     0.174 C 
BRANCH  31  32
HETATM   32  O1  UNL     1       5.934  63.911 -37.238  1.00  0.00    -0.400 OA
HETATM   33  H13 UNL     1       6.067  63.454 -38.087  1.00  0.00     0.209 HD
ENDBRANCH  31  32
ENDBRANCH   4  31
BRANCH   6  34
HETATM   34  O2  UNL     1       6.839  68.752 -36.887  1.00  0.00    -0.395 OA
HETATM   35  H17 UNL     1       7.766  68.752 -37.178  1.00  0.00     0.210 HD
ENDBRANCH   6  34
TORSDOF 4
ENDMDL
