MODEL 1
REMARK minimizedAffinity -6.06215096
REMARK CNNscore 0.706863582
REMARK CNNaffinity 7.31091261
REMARK  12 active torsions:
REMARK  status: ('A' for Active; 'I' for Inactive)
REMARK    1  A    between atoms: C2_2  and  O2_4 
REMARK    2  A    between atoms: O2_4  and  C3_5 
REMARK    3  A    between atoms: C4_6  and  O3_7 
REMARK    4  A    between atoms: O3_7  and  C5_8 
REMARK    5  A    between atoms: C5_8  and  C6_10 
REMARK    6  A    between atoms: C12_16  and  C13_17 
REMARK    7  A    between atoms: C13_17  and  O5_18 
REMARK    8  A    between atoms: O5_18  and  C14_19 
REMARK    9  A    between atoms: C14_19  and  C15_21 
REMARK   10  A    between atoms: C20_28  and  O7_29 
REMARK   11  A    between atoms: O7_29  and  C21_30 
REMARK   12  A    between atoms: C21_30  and  C22_32 
ROOT
HETATM    1  C3  UNL     1       0.816  54.582  -6.841  1.00  0.00     0.169 C 
HETATM    2  C4  UNL     1       1.640  53.531  -7.650  1.00  0.00     0.178 C 
HETATM    3  C12 UNL     1       3.061  54.012  -8.140  1.00  0.00     0.069 C 
HETATM    4  C20 UNL     1       3.455  53.287  -9.467  1.00  0.00     0.148 C 
HETATM    5  C25 UNL     1       4.859  53.671  -9.960  1.00  0.00     0.034 C 
HETATM    6  C26 UNL     1       5.231  55.131  -9.708  1.00  0.00     0.010 C 
HETATM    7  C27 UNL     1       4.016  56.056  -9.564  1.00  0.00     0.017 C 
HETATM    8  C28 UNL     1       3.356  56.271 -10.938  1.00  0.00     0.013 C 
HETATM    9  C29 UNL     1       3.059  55.577  -8.426  1.00  0.00     0.080 C 
HETATM   10  C30 UNL     1       1.630  56.120  -8.587  1.00  0.00     0.050 C 
HETATM   11  C31 UNL     1       1.171  56.063  -7.139  1.00  0.00     0.054 C 
HETATM   12  C32 UNL     1       2.393  56.702  -6.447  1.00  0.00     0.061 C 
HETATM   13  C33 UNL     1       2.387  58.242  -6.596  1.00  0.00     0.046 C 
HETATM   14  C34 UNL     1       2.604  56.421  -4.960  1.00  0.00     0.046 C 
HETATM   15  O9  UNL     1       3.527  56.216  -7.197  1.00  0.00    -0.368 OA
ENDROOT
BRANCH   3  16
HETATM   16  C13 UNL     1       4.078  53.626  -7.009  1.00  0.00     0.197 C 
BRANCH  16  17
HETATM   17  O5  UNL     1       5.049  54.672  -6.815  1.00  0.00    -0.316 OA
BRANCH  17  18
HETATM   18  C14 UNL     1       6.297  54.278  -6.476  1.00  0.00     0.294 C 
HETATM   19  O6  UNL     1       6.754  53.153  -6.583  1.00  0.00    -0.259 OA
BRANCH  18  20
HETATM   20  C15 UNL     1       7.046  55.426  -5.924  1.00  0.00     0.054 A 
HETATM   21  C16 UNL     1       6.587  56.746  -5.976  1.00  0.00     0.020 A 
HETATM   22  C17 UNL     1       7.360  57.763  -5.417  1.00  0.00     0.018 A 
HETATM   23  C18 UNL     1       8.568  57.423  -4.828  1.00  0.00     0.087 A 
HETATM   24  N1  UNL     1       9.046  56.159  -4.769  1.00  0.00    -0.374 N 
HETATM   25  C19 UNL     1       8.274  55.189  -5.323  1.00  0.00     0.105 A 
ATOM     26  H1  UNL     1       9.942  55.945  -4.331  1.00  0.00     0.164 HD
ENDBRANCH  18  20
ENDBRANCH  17  18
ENDBRANCH  16  17
ENDBRANCH   3  16
BRANCH   2  27
HETATM   27  O3  UNL     1       0.840  53.156  -8.812  1.00  0.00    -0.308 OA
BRANCH  27  28
HETATM   28  C5  UNL     1      -0.210  52.327  -8.577  1.00  0.00     0.293 C 
HETATM   29  O4  UNL     1      -0.182  51.325  -7.880  1.00  0.00    -0.259 OA
BRANCH  28  30
HETATM   30  C6  UNL     1      -1.423  52.791  -9.300  1.00  0.00     0.039 A 
HETATM   31  C7  UNL     1      -1.562  54.101  -9.777  1.00  0.00     0.017 A 
HETATM   32  C8  UNL     1      -2.712  54.473 -10.478  1.00  0.00     0.001 A 
HETATM   33  C9  UNL     1      -3.727  53.543 -10.701  1.00  0.00     0.000 A 
HETATM   34  C10 UNL     1      -3.597  52.239 -10.229  1.00  0.00     0.001 A 
HETATM   35  C11 UNL     1      -2.448  51.862  -9.531  1.00  0.00     0.017 A 
ENDBRANCH  28  30
ENDBRANCH  27  28
ENDBRANCH   2  27
BRANCH   4  36
HETATM   36  O7  UNL     1       3.384  51.853  -9.326  1.00  0.00    -0.315 OA
BRANCH  36  37
HETATM   37  C21 UNL     1       3.442  51.121 -10.475  1.00  0.00     0.262 C 
HETATM   38  O8  UNL     1       4.283  50.270 -10.723  1.00  0.00    -0.265 OA
BRANCH  37  39
HETATM   39  C22 UNL     1       2.305  51.523 -11.395  1.00  0.00     0.077 C 
HETATM   40  C23 UNL     1       1.207  50.466 -11.342  1.00  0.00     0.020 C 
HETATM   41  C24 UNL     1       2.807  51.723 -12.821  1.00  0.00     0.020 C 
ENDBRANCH  37  39
ENDBRANCH  36  37
ENDBRANCH   4  36
BRANCH   1  42
HETATM   42  O2  UNL     1       0.867  54.240  -5.448  1.00  0.00    -0.313 OA
BRANCH  42  43
HETATM   43  C2  UNL     1      -0.321  54.257  -4.781  1.00  0.00     0.255 C 
HETATM   44  C1  UNL     1      -0.084  54.091  -3.311  1.00  0.00     0.126 C 
HETATM   45  O1  UNL     1      -1.421  54.411  -5.292  1.00  0.00    -0.266 OA
ENDBRANCH  42  43
ENDBRANCH   1  42
TORSDOF 12
ENDMDL
MODEL 2
REMARK minimizedAffinity -6.57539225
REMARK CNNscore 0.68944788
REMARK CNNaffinity 6.90875101
REMARK  12 active torsions:
REMARK  status: ('A' for Active; 'I' for Inactive)
REMARK    1  A    between atoms: C2_2  and  O2_4 
REMARK    2  A    between atoms: O2_4  and  C3_5 
REMARK    3  A    between atoms: C4_6  and  O3_7 
REMARK    4  A    between atoms: O3_7  and  C5_8 
REMARK    5  A    between atoms: C5_8  and  C6_10 
REMARK    6  A    between atoms: C12_16  and  C13_17 
REMARK    7  A    between atoms: C13_17  and  O5_18 
REMARK    8  A    between atoms: O5_18  and  C14_19 
REMARK    9  A    between atoms: C14_19  and  C15_21 
REMARK   10  A    between atoms: C20_28  and  O7_29 
REMARK   11  A    between atoms: O7_29  and  C21_30 
REMARK   12  A    between atoms: C21_30  and  C22_32 
ROOT
HETATM    1  C3  UNL     1       2.929  53.955  -9.269  1.00  0.00     0.169 C 
HETATM    2  C4  UNL     1       3.976  52.896  -9.738  1.00  0.00     0.178 C 
HETATM    3  C12 UNL     1       3.380  51.507 -10.194  1.00  0.00     0.069 C 
HETATM    4  C20 UNL     1       4.403  50.359  -9.921  1.00  0.00     0.148 C 
HETATM    5  C25 UNL     1       3.901  48.988 -10.403  1.00  0.00     0.034 C 
HETATM    6  C26 UNL     1       2.399  48.777 -10.226  1.00  0.00     0.010 C 
HETATM    7  C27 UNL     1       1.782  49.655  -9.131  1.00  0.00     0.017 C 
HETATM    8  C28 UNL     1       2.202  49.135  -7.745  1.00  0.00     0.013 C 
HETATM    9  C29 UNL     1       2.049  51.172  -9.389  1.00  0.00     0.080 C 
HETATM   10  C30 UNL     1       1.933  52.019  -8.112  1.00  0.00     0.050 C 
HETATM   11  C31 UNL     1       1.598  53.368  -8.730  1.00  0.00     0.054 C 
HETATM   12  C32 UNL     1       0.502  52.937  -9.727  1.00  0.00     0.061 C 
HETATM   13  C33 UNL     1      -0.852  52.703  -9.015  1.00  0.00     0.046 C 
HETATM   14  C34 UNL     1       0.205  53.860 -10.909  1.00  0.00     0.046 C 
HETATM   15  O9  UNL     1       0.942  51.652 -10.215  1.00  0.00    -0.368 OA
ENDROOT
BRANCH   3  16
HETATM   16  C13 UNL     1       3.117  51.620 -11.738  1.00  0.00     0.197 C 
BRANCH  16  17
HETATM   17  O5  UNL     1       3.213  50.329 -12.367  1.00  0.00    -0.316 OA
BRANCH  17  18
HETATM   18  C14 UNL     1       3.923  50.272 -13.517  1.00  0.00     0.294 C 
HETATM   19  O6  UNL     1       4.975  49.681 -13.688  1.00  0.00    -0.259 OA
BRANCH  18  20
HETATM   20  C15 UNL     1       3.240  51.064 -14.561  1.00  0.00     0.054 A 
HETATM   21  C16 UNL     1       3.878  52.041 -15.331  1.00  0.00     0.020 A 
HETATM   22  C17 UNL     1       3.151  52.730 -16.301  1.00  0.00     0.018 A 
HETATM   23  C18 UNL     1       1.810  52.419 -16.465  1.00  0.00     0.087 A 
HETATM   24  N1  UNL     1       1.161  51.487 -15.732  1.00  0.00    -0.374 N 
HETATM   25  C19 UNL     1       1.891  50.832 -14.792  1.00  0.00     0.105 A 
ATOM     26  H1  UNL     1       0.172  51.285 -15.876  1.00  0.00     0.164 HD
ENDBRANCH  18  20
ENDBRANCH  17  18
ENDBRANCH  16  17
ENDBRANCH   3  16
BRANCH   2  27
HETATM   27  O3  UNL     1       4.894  52.674  -8.625  1.00  0.00    -0.308 OA
BRANCH  27  28
HETATM   28  C5  UNL     1       5.975  53.495  -8.566  1.00  0.00     0.293 C 
HETATM   29  O4  UNL     1       6.955  53.434  -9.292  1.00  0.00    -0.259 OA
BRANCH  28  30
HETATM   30  C6  UNL     1       5.825  54.491  -7.474  1.00  0.00     0.039 A 
HETATM   31  C7  UNL     1       5.038  54.253  -6.339  1.00  0.00     0.017 A 
HETATM   32  C8  UNL     1       4.958  55.215  -5.328  1.00  0.00     0.001 A 
HETATM   33  C9  UNL     1       5.657  56.415  -5.446  1.00  0.00     0.000 A 
HETATM   34  C10 UNL     1       6.441  56.659  -6.572  1.00  0.00     0.001 A 
HETATM   35  C11 UNL     1       6.527  55.700  -7.583  1.00  0.00     0.017 A 
ENDBRANCH  28  30
ENDBRANCH  27  28
ENDBRANCH   2  27
BRANCH   4  36
HETATM   36  O7  UNL     1       5.680  50.632 -10.534  1.00  0.00    -0.315 OA
BRANCH  36  37
HETATM   37  C21 UNL     1       6.703  49.786 -10.221  1.00  0.00     0.262 C 
HETATM   38  O8  UNL     1       7.450  49.259 -11.033  1.00  0.00    -0.265 OA
BRANCH  37  39
HETATM   39  C22 UNL     1       6.774  49.601  -8.718  1.00  0.00     0.077 C 
HETATM   40  C23 UNL     1       7.959  50.383  -8.162  1.00  0.00     0.020 C 
HETATM   41  C24 UNL     1       6.873  48.123  -8.357  1.00  0.00     0.020 C 
ENDBRANCH  37  39
ENDBRANCH  36  37
ENDBRANCH   4  36
BRANCH   1  42
HETATM   42  O2  UNL     1       2.756  54.930 -10.309  1.00  0.00    -0.313 OA
BRANCH  42  43
HETATM   43  C2  UNL     1       3.293  56.160 -10.075  1.00  0.00     0.255 C 
HETATM   44  C1  UNL     1       3.640  56.821 -11.374  1.00  0.00     0.126 C 
HETATM   45  O1  UNL     1       3.448  56.670  -8.975  1.00  0.00    -0.266 OA
ENDBRANCH  42  43
ENDBRANCH   1  42
TORSDOF 12
ENDMDL
MODEL 3
REMARK minimizedAffinity -6.15300608
REMARK CNNscore 0.556419432
REMARK CNNaffinity 6.72737455
REMARK  12 active torsions:
REMARK  status: ('A' for Active; 'I' for Inactive)
REMARK    1  A    between atoms: C2_2  and  O2_4 
REMARK    2  A    between atoms: O2_4  and  C3_5 
REMARK    3  A    between atoms: C4_6  and  O3_7 
REMARK    4  A    between atoms: O3_7  and  C5_8 
REMARK    5  A    between atoms: C5_8  and  C6_10 
REMARK    6  A    between atoms: C12_16  and  C13_17 
REMARK    7  A    between atoms: C13_17  and  O5_18 
REMARK    8  A    between atoms: O5_18  and  C14_19 
REMARK    9  A    between atoms: C14_19  and  C15_21 
REMARK   10  A    between atoms: C20_28  and  O7_29 
REMARK   11  A    between atoms: O7_29  and  C21_30 
REMARK   12  A    between atoms: C21_30  and  C22_32 
ROOT
HETATM    1  C3  UNL     1       0.854  54.899  -8.568  1.00  0.00     0.169 C 
HETATM    2  C4  UNL     1       1.114  53.404  -8.198  1.00  0.00     0.178 C 
HETATM    3  C12 UNL     1       2.411  52.763  -8.832  1.00  0.00     0.069 C 
HETATM    4  C20 UNL     1       2.210  51.229  -9.051  1.00  0.00     0.148 C 
HETATM    5  C25 UNL     1       3.465  50.539  -9.609  1.00  0.00     0.034 C 
HETATM    6  C26 UNL     1       4.255  51.389 -10.602  1.00  0.00     0.010 C 
HETATM    7  C27 UNL     1       3.411  52.470 -11.288  1.00  0.00     0.017 C 
HETATM    8  C28 UNL     1       2.465  51.824 -12.315  1.00  0.00     0.013 C 
HETATM    9  C29 UNL     1       2.729  53.416 -10.248  1.00  0.00     0.080 C 
HETATM   10  C30 UNL     1       1.503  54.142 -10.823  1.00  0.00     0.050 C 
HETATM   11  C31 UNL     1       1.477  55.359  -9.912  1.00  0.00     0.054 C 
HETATM   12  C32 UNL     1       2.967  55.758  -9.959  1.00  0.00     0.061 C 
HETATM   13  C33 UNL     1       3.314  56.500 -11.271  1.00  0.00     0.046 C 
HETATM   14  C34 UNL     1       3.514  56.624  -8.825  1.00  0.00     0.046 C 
HETATM   15  O9  UNL     1       3.676  54.500  -9.992  1.00  0.00    -0.368 OA
ENDROOT
BRANCH   3  16
HETATM   16  C13 UNL     1       3.574  52.999  -7.805  1.00  0.00     0.197 C 
BRANCH  16  17
HETATM   17  O5  UNL     1       4.795  53.344  -8.486  1.00  0.00    -0.316 OA
BRANCH  17  18
HETATM   18  C14 UNL     1       5.872  53.584  -7.704  1.00  0.00     0.294 C 
HETATM   19  O6  UNL     1       6.158  54.643  -7.173  1.00  0.00    -0.259 OA
BRANCH  18  20
HETATM   20  C15 UNL     1       6.688  52.357  -7.594  1.00  0.00     0.054 A 
HETATM   21  C16 UNL     1       7.099  51.809  -6.375  1.00  0.00     0.020 A 
HETATM   22  C17 UNL     1       7.859  50.640  -6.372  1.00  0.00     0.018 A 
HETATM   23  C18 UNL     1       8.184  50.062  -7.589  1.00  0.00     0.087 A 
HETATM   24  N1  UNL     1       7.811  50.571  -8.785  1.00  0.00    -0.374 N 
HETATM   25  C19 UNL     1       7.073  51.710  -8.759  1.00  0.00     0.105 A 
ATOM     26  H1  UNL     1       8.071  50.121  -9.663  1.00  0.00     0.164 HD
ENDBRANCH  18  20
ENDBRANCH  17  18
ENDBRANCH  16  17
ENDBRANCH   3  16
BRANCH   2  27
HETATM   27  O3  UNL     1      -0.051  52.642  -8.634  1.00  0.00    -0.308 OA
BRANCH  27  28
HETATM   28  C5  UNL     1      -1.254  53.062  -8.163  1.00  0.00     0.293 C 
HETATM   29  O4  UNL     1      -1.488  53.401  -7.013  1.00  0.00    -0.259 OA
BRANCH  28  30
HETATM   30  C6  UNL     1      -2.279  53.045  -9.238  1.00  0.00     0.039 A 
HETATM   31  C7  UNL     1      -2.585  54.176 -10.007  1.00  0.00     0.017 A 
HETATM   32  C8  UNL     1      -3.537  54.093 -11.027  1.00  0.00     0.001 A 
HETATM   33  C9  UNL     1      -4.189  52.887 -11.280  1.00  0.00     0.000 A 
HETATM   34  C10 UNL     1      -3.891  51.759 -10.519  1.00  0.00     0.001 A 
HETATM   35  C11 UNL     1      -2.938  51.836  -9.501  1.00  0.00     0.017 A 
ENDBRANCH  28  30
ENDBRANCH  27  28
ENDBRANCH   2  27
BRANCH   4  36
HETATM   36  O7  UNL     1       1.817  50.569  -7.829  1.00  0.00    -0.315 OA
BRANCH  36  37
HETATM   37  C21 UNL     1       2.315  49.317  -7.622  1.00  0.00     0.262 C 
HETATM   38  O8  UNL     1       2.102  48.349  -8.339  1.00  0.00    -0.265 OA
BRANCH  37  39
HETATM   39  C22 UNL     1       3.174  49.308  -6.372  1.00  0.00     0.077 C 
HETATM   40  C23 UNL     1       4.584  48.847  -6.725  1.00  0.00     0.020 C 
HETATM   41  C24 UNL     1       2.558  48.419  -5.298  1.00  0.00     0.020 C 
ENDBRANCH  37  39
ENDBRANCH  36  37
ENDBRANCH   4  36
BRANCH   1  42
HETATM   42  O2  UNL     1       1.211  55.723  -7.448  1.00  0.00    -0.313 OA
BRANCH  42  43
HETATM   43  C2  UNL     1       0.281  56.637  -7.055  1.00  0.00     0.255 C 
HETATM   44  C1  UNL     1       0.543  57.055  -5.640  1.00  0.00     0.126 C 
HETATM   45  O1  UNL     1      -0.620  57.079  -7.752  1.00  0.00    -0.266 OA
ENDBRANCH  42  43
ENDBRANCH   1  42
TORSDOF 12
ENDMDL
MODEL 4
REMARK minimizedAffinity -6.20953894
REMARK CNNscore 0.541224003
REMARK CNNaffinity 6.67616701
REMARK  12 active torsions:
REMARK  status: ('A' for Active; 'I' for Inactive)
REMARK    1  A    between atoms: C2_2  and  O2_4 
REMARK    2  A    between atoms: O2_4  and  C3_5 
REMARK    3  A    between atoms: C4_6  and  O3_7 
REMARK    4  A    between atoms: O3_7  and  C5_8 
REMARK    5  A    between atoms: C5_8  and  C6_10 
REMARK    6  A    between atoms: C12_16  and  C13_17 
REMARK    7  A    between atoms: C13_17  and  O5_18 
REMARK    8  A    between atoms: O5_18  and  C14_19 
REMARK    9  A    between atoms: C14_19  and  C15_21 
REMARK   10  A    between atoms: C20_28  and  O7_29 
REMARK   11  A    between atoms: O7_29  and  C21_30 
REMARK   12  A    between atoms: C21_30  and  C22_32 
ROOT
HETATM    1  C3  UNL     1       0.934  54.803  -8.451  1.00  0.00     0.169 C 
HETATM    2  C4  UNL     1       1.176  53.291  -8.143  1.00  0.00     0.178 C 
HETATM    3  C12 UNL     1       2.423  52.642  -8.863  1.00  0.00     0.069 C 
HETATM    4  C20 UNL     1       2.175  51.122  -9.120  1.00  0.00     0.148 C 
HETATM    5  C25 UNL     1       3.383  50.423  -9.764  1.00  0.00     0.034 C 
HETATM    6  C26 UNL     1       4.142  51.288 -10.768  1.00  0.00     0.010 C 
HETATM    7  C27 UNL     1       3.291  52.410 -11.374  1.00  0.00     0.017 C 
HETATM    8  C28 UNL     1       2.280  51.820 -12.373  1.00  0.00     0.013 C 
HETATM    9  C29 UNL     1       2.686  53.336 -10.271  1.00  0.00     0.080 C 
HETATM   10  C30 UNL     1       1.450  54.108 -10.759  1.00  0.00     0.050 C 
HETATM   11  C31 UNL     1       1.499  55.294  -9.809  1.00  0.00     0.054 C 
HETATM   12  C32 UNL     1       2.995  55.660  -9.919  1.00  0.00     0.061 C 
HETATM   13  C33 UNL     1       3.293  56.438 -11.222  1.00  0.00     0.046 C 
HETATM   14  C34 UNL     1       3.618  56.476  -8.786  1.00  0.00     0.046 C 
HETATM   15  O9  UNL     1       3.670  54.389 -10.029  1.00  0.00    -0.368 OA
ENDROOT
BRANCH   3  16
HETATM   16  C13 UNL     1       3.642  52.818  -7.889  1.00  0.00     0.197 C 
BRANCH  16  17
HETATM   17  O5  UNL     1       4.255  51.547  -7.603  1.00  0.00    -0.316 OA
BRANCH  17  18
HETATM   18  C14 UNL     1       5.583  51.563  -7.354  1.00  0.00     0.294 C 
HETATM   19  O6  UNL     1       6.266  50.614  -7.011  1.00  0.00    -0.259 OA
BRANCH  18  20
HETATM   20  C15 UNL     1       6.106  52.933  -7.540  1.00  0.00     0.054 A 
HETATM   21  C16 UNL     1       6.167  53.883  -6.516  1.00  0.00     0.020 A 
HETATM   22  C17 UNL     1       6.687  55.149  -6.786  1.00  0.00     0.018 A 
HETATM   23  C18 UNL     1       7.124  55.420  -8.073  1.00  0.00     0.087 A 
HETATM   24  N1  UNL     1       7.070  54.528  -9.088  1.00  0.00    -0.374 N 
HETATM   25  C19 UNL     1       6.558  53.304  -8.799  1.00  0.00     0.105 A 
ATOM     26  H1  UNL     1       7.398  54.763 -10.026  1.00  0.00     0.164 HD
ENDBRANCH  18  20
ENDBRANCH  17  18
ENDBRANCH  16  17
ENDBRANCH   3  16
BRANCH   2  27
HETATM   27  O3  UNL     1      -0.028  52.570  -8.543  1.00  0.00    -0.308 OA
BRANCH  27  28
HETATM   28  C5  UNL     1      -1.207  53.078  -8.100  1.00  0.00     0.293 C 
HETATM   29  O4  UNL     1      -1.413  53.527  -6.984  1.00  0.00    -0.259 OA
BRANCH  28  30
HETATM   30  C6  UNL     1      -2.246  53.007  -9.160  1.00  0.00     0.039 A 
HETATM   31  C7  UNL     1      -2.592  54.109  -9.953  1.00  0.00     0.017 A 
HETATM   32  C8  UNL     1      -3.556  53.976 -10.957  1.00  0.00     0.001 A 
HETATM   33  C9  UNL     1      -4.179  52.747 -11.170  1.00  0.00     0.000 A 
HETATM   34  C10 UNL     1      -3.841  51.647 -10.385  1.00  0.00     0.001 A 
HETATM   35  C11 UNL     1      -2.877  51.774  -9.383  1.00  0.00     0.017 A 
ENDBRANCH  28  30
ENDBRANCH  27  28
ENDBRANCH   2  27
BRANCH   4  36
HETATM   36  O7  UNL     1       1.827  50.430  -7.903  1.00  0.00    -0.315 OA
BRANCH  36  37
HETATM   37  C21 UNL     1       1.280  49.189  -8.039  1.00  0.00     0.262 C 
HETATM   38  O8  UNL     1       1.786  48.151  -7.637  1.00  0.00    -0.265 OA
BRANCH  37  39
HETATM   39  C22 UNL     1      -0.050  49.292  -8.760  1.00  0.00     0.077 C 
HETATM   40  C23 UNL     1      -1.188  49.094  -7.765  1.00  0.00     0.020 C 
HETATM   41  C24 UNL     1      -0.131  48.278  -9.896  1.00  0.00     0.020 C 
ENDBRANCH  37  39
ENDBRANCH  36  37
ENDBRANCH   4  36
BRANCH   1  42
HETATM   42  O2  UNL     1       1.366  55.580  -7.324  1.00  0.00    -0.313 OA
BRANCH  42  43
HETATM   43  C2  UNL     1       0.538  56.592  -6.939  1.00  0.00     0.255 C 
HETATM   44  C1  UNL     1       1.121  57.308  -5.759  1.00  0.00     0.126 C 
HETATM   45  O1  UNL     1      -0.513  56.896  -7.483  1.00  0.00    -0.266 OA
ENDBRANCH  42  43
ENDBRANCH   1  42
TORSDOF 12
ENDMDL
MODEL 5
REMARK minimizedAffinity -6.26177502
REMARK CNNscore 0.537320256
REMARK CNNaffinity 6.92155123
REMARK  12 active torsions:
REMARK  status: ('A' for Active; 'I' for Inactive)
REMARK    1  A    between atoms: C2_2  and  O2_4 
REMARK    2  A    between atoms: O2_4  and  C3_5 
REMARK    3  A    between atoms: C4_6  and  O3_7 
REMARK    4  A    between atoms: O3_7  and  C5_8 
REMARK    5  A    between atoms: C5_8  and  C6_10 
REMARK    6  A    between atoms: C12_16  and  C13_17 
REMARK    7  A    between atoms: C13_17  and  O5_18 
REMARK    8  A    between atoms: O5_18  and  C14_19 
REMARK    9  A    between atoms: C14_19  and  C15_21 
REMARK   10  A    between atoms: C20_28  and  O7_29 
REMARK   11  A    between atoms: O7_29  and  C21_30 
REMARK   12  A    between atoms: C21_30  and  C22_32 
ROOT
HETATM    1  C3  UNL     1       0.711  52.263 -10.967  1.00  0.00     0.169 C 
HETATM    2  C4  UNL     1       2.214  52.156 -10.557  1.00  0.00     0.178 C 
HETATM    3  C12 UNL     1       2.743  53.307  -9.613  1.00  0.00     0.069 C 
HETATM    4  C20 UNL     1       4.265  53.557  -9.860  1.00  0.00     0.148 C 
HETATM    5  C25 UNL     1       4.852  54.625  -8.924  1.00  0.00     0.034 C 
HETATM    6  C26 UNL     1       3.895  55.775  -8.613  1.00  0.00     0.010 C 
HETATM    7  C27 UNL     1       2.810  55.972  -9.678  1.00  0.00     0.017 C 
HETATM    8  C28 UNL     1       3.426  56.589 -10.946  1.00  0.00     0.013 C 
HETATM    9  C29 UNL     1       1.976  54.670  -9.900  1.00  0.00     0.080 C 
HETATM   10  C30 UNL     1       1.271  54.645 -11.266  1.00  0.00     0.050 C 
HETATM   11  C31 UNL     1       0.125  53.699 -10.944  1.00  0.00     0.054 C 
HETATM   12  C32 UNL     1      -0.348  54.302  -9.604  1.00  0.00     0.061 C 
HETATM   13  C33 UNL     1      -1.198  55.576  -9.824  1.00  0.00     0.046 C 
HETATM   14  C34 UNL     1      -1.157  53.410  -8.662  1.00  0.00     0.046 C 
HETATM   15  O9  UNL     1       0.868  54.722  -8.948  1.00  0.00    -0.368 OA
ENDROOT
BRANCH   3  16
HETATM   16  C13 UNL     1       2.525  52.812  -8.139  1.00  0.00     0.197 C 
BRANCH  16  17
HETATM   17  O5  UNL     1       3.198  53.676  -7.205  1.00  0.00    -0.316 OA
BRANCH  17  18
HETATM   18  C14 UNL     1       2.818  53.574  -5.911  1.00  0.00     0.294 C 
HETATM   19  O6  UNL     1       3.199  52.738  -5.110  1.00  0.00    -0.259 OA
BRANCH  18  20
HETATM   20  C15 UNL     1       1.834  54.632  -5.599  1.00  0.00     0.054 A 
HETATM   21  C16 UNL     1       2.139  55.996  -5.604  1.00  0.00     0.020 A 
HETATM   22  C17 UNL     1       1.140  56.922  -5.305  1.00  0.00     0.018 A 
HETATM   23  C18 UNL     1      -0.129  56.449  -5.008  1.00  0.00     0.087 A 
HETATM   24  N1  UNL     1      -0.455  55.137  -4.986  1.00  0.00    -0.374 N 
HETATM   25  C19 UNL     1       0.537  54.257  -5.278  1.00  0.00     0.105 A 
ATOM     26  H1  UNL     1      -1.399  54.823  -4.759  1.00  0.00     0.164 HD
ENDBRANCH  18  20
ENDBRANCH  17  18
ENDBRANCH  16  17
ENDBRANCH   3  16
BRANCH   2  27
HETATM   27  O3  UNL     1       2.999  52.155 -11.787  1.00  0.00    -0.308 OA
BRANCH  27  28
HETATM   28  C5  UNL     1       2.782  51.116 -12.635  1.00  0.00     0.293 C 
HETATM   29  O4  UNL     1       2.724  49.939 -12.318  1.00  0.00    -0.259 OA
BRANCH  28  30
HETATM   30  C6  UNL     1       2.637  51.597 -14.034  1.00  0.00     0.039 A 
HETATM   31  C7  UNL     1       1.389  51.853 -14.617  1.00  0.00     0.017 A 
HETATM   32  C8  UNL     1       1.313  52.333 -15.928  1.00  0.00     0.001 A 
HETATM   33  C9  UNL     1       2.479  52.557 -16.660  1.00  0.00     0.000 A 
HETATM   34  C10 UNL     1       3.723  52.304 -16.086  1.00  0.00     0.001 A 
HETATM   35  C11 UNL     1       3.804  51.826 -14.777  1.00  0.00     0.017 A 
ENDBRANCH  28  30
ENDBRANCH  27  28
ENDBRANCH   2  27
BRANCH   4  36
HETATM   36  O7  UNL     1       5.030  52.341  -9.720  1.00  0.00    -0.315 OA
BRANCH  36  37
HETATM   37  C21 UNL     1       6.253  52.451  -9.128  1.00  0.00     0.262 C 
HETATM   38  O8  UNL     1       7.139  53.214  -9.485  1.00  0.00    -0.265 OA
BRANCH  37  39
HETATM   39  C22 UNL     1       6.346  51.488  -7.960  1.00  0.00     0.077 C 
HETATM   40  C23 UNL     1       6.390  52.272  -6.653  1.00  0.00     0.020 C 
HETATM   41  C24 UNL     1       7.565  50.583  -8.100  1.00  0.00     0.020 C 
ENDBRANCH  37  39
ENDBRANCH  36  37
ENDBRANCH   4  36
BRANCH   1  42
HETATM   42  O2  UNL     1      -0.048  51.312 -10.204  1.00  0.00    -0.313 OA
BRANCH  42  43
HETATM   43  C2  UNL     1      -0.820  50.447 -10.919  1.00  0.00     0.255 C 
HETATM   44  C1  UNL     1      -2.070  50.129 -10.157  1.00  0.00     0.126 C 
HETATM   45  O1  UNL     1      -0.556  50.010 -12.030  1.00  0.00    -0.266 OA
ENDBRANCH  42  43
ENDBRANCH   1  42
TORSDOF 12
ENDMDL
MODEL 6
REMARK minimizedAffinity -7.27088308
REMARK CNNscore 0.511097133
REMARK CNNaffinity 7.3209362
REMARK  12 active torsions:
REMARK  status: ('A' for Active; 'I' for Inactive)
REMARK    1  A    between atoms: C2_2  and  O2_4 
REMARK    2  A    between atoms: O2_4  and  C3_5 
REMARK    3  A    between atoms: C4_6  and  O3_7 
REMARK    4  A    between atoms: O3_7  and  C5_8 
REMARK    5  A    between atoms: C5_8  and  C6_10 
REMARK    6  A    between atoms: C12_16  and  C13_17 
REMARK    7  A    between atoms: C13_17  and  O5_18 
REMARK    8  A    between atoms: O5_18  and  C14_19 
REMARK    9  A    between atoms: C14_19  and  C15_21 
REMARK   10  A    between atoms: C20_28  and  O7_29 
REMARK   11  A    between atoms: O7_29  and  C21_30 
REMARK   12  A    between atoms: C21_30  and  C22_32 
ROOT
HETATM    1  C3  UNL     1      -1.955  52.077 -11.304  1.00  0.00     0.169 C 
HETATM    2  C4  UNL     1      -0.597  52.836 -11.165  1.00  0.00     0.178 C 
HETATM    3  C12 UNL     1       0.692  51.992 -11.510  1.00  0.00     0.069 C 
HETATM    4  C20 UNL     1       1.914  52.499 -10.680  1.00  0.00     0.148 C 
HETATM    5  C25 UNL     1       3.214  51.753 -11.021  1.00  0.00     0.034 C 
HETATM    6  C26 UNL     1       3.021  50.270 -11.330  1.00  0.00     0.010 C 
HETATM    7  C27 UNL     1       1.750  49.678 -10.710  1.00  0.00     0.017 C 
HETATM    8  C28 UNL     1       1.931  49.523  -9.190  1.00  0.00     0.013 C 
HETATM    9  C29 UNL     1       0.471  50.456 -11.159  1.00  0.00     0.080 C 
HETATM   10  C30 UNL     1      -0.709  50.261 -10.195  1.00  0.00     0.050 C 
HETATM   11  C31 UNL     1      -1.863  50.537 -11.146  1.00  0.00     0.054 C 
HETATM   12  C32 UNL     1      -1.425  49.677 -12.351  1.00  0.00     0.061 C 
HETATM   13  C33 UNL     1      -1.718  48.176 -12.113  1.00  0.00     0.046 C 
HETATM   14  C34 UNL     1      -2.012  50.012 -13.721  1.00  0.00     0.046 C 
HETATM   15  O9  UNL     1       0.011  49.818 -12.392  1.00  0.00    -0.368 OA
ENDROOT
BRANCH   3  16
HETATM   16  C13 UNL     1       0.970  52.208 -13.040  1.00  0.00     0.197 C 
BRANCH  16  17
HETATM   17  O5  UNL     1       1.506  51.012 -13.635  1.00  0.00    -0.316 OA
BRANCH  17  18
HETATM   18  C14 UNL     1       2.346  51.185 -14.681  1.00  0.00     0.294 C 
HETATM   19  O6  UNL     1       3.564  51.198 -14.636  1.00  0.00    -0.259 OA
BRANCH  18  20
HETATM   20  C15 UNL     1       1.562  51.383 -15.918  1.00  0.00     0.054 A 
HETATM   21  C16 UNL     1       0.583  50.490 -16.364  1.00  0.00     0.020 A 
HETATM   22  C17 UNL     1      -0.113  50.768 -17.540  1.00  0.00     0.018 A 
HETATM   23  C18 UNL     1       0.198  51.928 -18.231  1.00  0.00     0.087 A 
HETATM   24  N1  UNL     1       1.145  52.808 -17.833  1.00  0.00    -0.374 N 
HETATM   25  C19 UNL     1       1.809  52.512 -16.685  1.00  0.00     0.105 A 
ATOM     26  H1  UNL     1       1.351  53.652 -18.368  1.00  0.00     0.164 HD
ENDBRANCH  18  20
ENDBRANCH  17  18
ENDBRANCH  16  17
ENDBRANCH   3  16
BRANCH   2  27
HETATM   27  O3  UNL     1      -0.501  53.302  -9.785  1.00  0.00    -0.308 OA
BRANCH  27  28
HETATM   28  C5  UNL     1      -0.851  54.596  -9.562  1.00  0.00     0.293 C 
HETATM   29  O4  UNL     1      -1.392  55.335 -10.370  1.00  0.00    -0.259 OA
BRANCH  28  30
HETATM   30  C6  UNL     1      -0.474  55.017  -8.189  1.00  0.00     0.039 A 
HETATM   31  C7  UNL     1      -0.479  54.135  -7.100  1.00  0.00     0.017 A 
HETATM   32  C8  UNL     1      -0.085  54.579  -5.835  1.00  0.00     0.001 A 
HETATM   33  C9  UNL     1       0.311  55.904  -5.651  1.00  0.00     0.000 A 
HETATM   34  C10 UNL     1       0.318  56.787  -6.728  1.00  0.00     0.001 A 
HETATM   35  C11 UNL     1      -0.073  56.347  -7.994  1.00  0.00     0.017 A 
ENDBRANCH  28  30
ENDBRANCH  27  28
ENDBRANCH   2  27
BRANCH   4  36
HETATM   36  O7  UNL     1       2.125  53.915 -10.861  1.00  0.00    -0.315 OA
BRANCH  36  37
HETATM   37  C21 UNL     1       2.989  54.521  -9.998  1.00  0.00     0.262 C 
HETATM   38  O8  UNL     1       2.906  54.482  -8.779  1.00  0.00    -0.265 OA
BRANCH  37  39
HETATM   39  C22 UNL     1       4.069  55.246 -10.779  1.00  0.00     0.077 C 
HETATM   40  C23 UNL     1       5.343  55.314  -9.945  1.00  0.00     0.020 C 
HETATM   41  C24 UNL     1       3.601  56.640 -11.183  1.00  0.00     0.020 C 
ENDBRANCH  37  39
ENDBRANCH  36  37
ENDBRANCH   4  36
BRANCH   1  42
HETATM   42  O2  UNL     1      -2.602  52.501 -12.512  1.00  0.00    -0.313 OA
BRANCH  42  43
HETATM   43  C2  UNL     1      -3.782  53.165 -12.361  1.00  0.00     0.255 C 
HETATM   44  C1  UNL     1      -4.156  53.217 -10.911  1.00  0.00     0.126 C 
HETATM   45  O1  UNL     1      -4.434  53.671 -13.263  1.00  0.00    -0.266 OA
ENDBRANCH  42  43
ENDBRANCH   1  42
TORSDOF 12
ENDMDL
MODEL 7
REMARK minimizedAffinity -6.62044382
REMARK CNNscore 0.467146337
REMARK CNNaffinity 6.80330276
REMARK  12 active torsions:
REMARK  status: ('A' for Active; 'I' for Inactive)
REMARK    1  A    between atoms: C2_2  and  O2_4 
REMARK    2  A    between atoms: O2_4  and  C3_5 
REMARK    3  A    between atoms: C4_6  and  O3_7 
REMARK    4  A    between atoms: O3_7  and  C5_8 
REMARK    5  A    between atoms: C5_8  and  C6_10 
REMARK    6  A    between atoms: C12_16  and  C13_17 
REMARK    7  A    between atoms: C13_17  and  O5_18 
REMARK    8  A    between atoms: O5_18  and  C14_19 
REMARK    9  A    between atoms: C14_19  and  C15_21 
REMARK   10  A    between atoms: C20_28  and  O7_29 
REMARK   11  A    between atoms: O7_29  and  C21_30 
REMARK   12  A    between atoms: C21_30  and  C22_32 
ROOT
HETATM    1  C3  UNL     1       0.540  52.551  -9.700  1.00  0.00     0.169 C 
HETATM    2  C4  UNL     1       2.097  52.676  -9.692  1.00  0.00     0.178 C 
HETATM    3  C12 UNL     1       2.882  51.413 -10.225  1.00  0.00     0.069 C 
HETATM    4  C20 UNL     1       4.274  51.303  -9.526  1.00  0.00     0.148 C 
HETATM    5  C25 UNL     1       5.111  50.126 -10.050  1.00  0.00     0.034 C 
HETATM    6  C26 UNL     1       4.293  48.884 -10.397  1.00  0.00     0.010 C 
HETATM    7  C27 UNL     1       2.952  48.808  -9.656  1.00  0.00     0.017 C 
HETATM    8  C28 UNL     1       3.191  48.460  -8.176  1.00  0.00     0.013 C 
HETATM    9  C29 UNL     1       2.077  50.076  -9.916  1.00  0.00     0.080 C 
HETATM   10  C30 UNL     1       1.015  50.295  -8.827  1.00  0.00     0.050 C 
HETATM   11  C31 UNL     1      -0.002  51.100  -9.621  1.00  0.00     0.054 C 
HETATM   12  C32 UNL     1      -0.071  50.246 -10.905  1.00  0.00     0.061 C 
HETATM   13  C33 UNL     1      -0.937  48.981 -10.698  1.00  0.00     0.046 C 
HETATM   14  C34 UNL     1      -0.589  50.910 -12.180  1.00  0.00     0.046 C 
HETATM   15  O9  UNL     1       1.284  49.793 -11.110  1.00  0.00    -0.368 OA
ENDROOT
BRANCH   3  16
HETATM   16  C13 UNL     1       3.084  51.631 -11.766  1.00  0.00     0.197 C 
BRANCH  16  17
HETATM   17  O5  UNL     1       3.064  50.373 -12.466  1.00  0.00    -0.316 OA
BRANCH  17  18
HETATM   18  C14 UNL     1       3.817  50.297 -13.587  1.00  0.00     0.294 C 
HETATM   19  O6  UNL     1       4.859  49.678 -13.716  1.00  0.00    -0.259 OA
BRANCH  18  20
HETATM   20  C15 UNL     1       3.197  51.106 -14.657  1.00  0.00     0.054 A 
HETATM   21  C16 UNL     1       3.887  52.073 -15.393  1.00  0.00     0.020 A 
HETATM   22  C17 UNL     1       3.219  52.780 -16.392  1.00  0.00     0.018 A 
HETATM   23  C18 UNL     1       1.881  52.496 -16.617  1.00  0.00     0.087 A 
HETATM   24  N1  UNL     1       1.181  51.574 -15.917  1.00  0.00    -0.374 N 
HETATM   25  C19 UNL     1       1.856  50.902 -14.949  1.00  0.00     0.105 A 
ATOM     26  H1  UNL     1       0.195  51.393 -16.106  1.00  0.00     0.164 HD
ENDBRANCH  18  20
ENDBRANCH  17  18
ENDBRANCH  16  17
ENDBRANCH   3  16
BRANCH   2  27
HETATM   27  O3  UNL     1       2.502  52.939  -8.315  1.00  0.00    -0.308 OA
BRANCH  27  28
HETATM   28  C5  UNL     1       1.839  53.936  -7.674  1.00  0.00     0.293 C 
HETATM   29  O4  UNL     1       0.795  53.810  -7.053  1.00  0.00    -0.259 OA
BRANCH  28  30
HETATM   30  C6  UNL     1       2.546  55.232  -7.836  1.00  0.00     0.039 A 
HETATM   31  C7  UNL     1       2.889  55.753  -9.091  1.00  0.00     0.017 A 
HETATM   32  C8  UNL     1       3.527  56.993  -9.184  1.00  0.00     0.001 A 
HETATM   33  C9  UNL     1       3.828  57.714  -8.029  1.00  0.00     0.000 A 
HETATM   34  C10 UNL     1       3.492  57.202  -6.778  1.00  0.00     0.001 A 
HETATM   35  C11 UNL     1       2.852  55.965  -6.680  1.00  0.00     0.017 A 
ENDBRANCH  28  30
ENDBRANCH  27  28
ENDBRANCH   2  27
BRANCH   4  36
HETATM   36  O7  UNL     1       5.036  52.520  -9.670  1.00  0.00    -0.315 OA
BRANCH  36  37
HETATM   37  C21 UNL     1       6.329  52.488  -9.237  1.00  0.00     0.262 C 
HETATM   38  O8  UNL     1       7.090  51.541  -9.369  1.00  0.00    -0.265 OA
BRANCH  37  39
HETATM   39  C22 UNL     1       6.678  53.806  -8.572  1.00  0.00     0.077 C 
HETATM   40  C23 UNL     1       5.881  53.953  -7.281  1.00  0.00     0.020 C 
HETATM   41  C24 UNL     1       6.417  54.975  -9.515  1.00  0.00     0.020 C 
ENDBRANCH  37  39
ENDBRANCH  36  37
ENDBRANCH   4  36
BRANCH   1  42
HETATM   42  O2  UNL     1       0.019  53.307 -10.804  1.00  0.00    -0.313 OA
BRANCH  42  43
HETATM   43  C2  UNL     1      -0.815  54.336 -10.487  1.00  0.00     0.255 C 
HETATM   44  C1  UNL     1      -2.239  53.874 -10.541  1.00  0.00     0.126 C 
HETATM   45  O1  UNL     1      -0.465  55.466 -10.176  1.00  0.00    -0.266 OA
ENDBRANCH  42  43
ENDBRANCH   1  42
TORSDOF 12
ENDMDL
MODEL 8
REMARK minimizedAffinity -7.04405212
REMARK CNNscore 0.405023843
REMARK CNNaffinity 6.80608606
REMARK  12 active torsions:
REMARK  status: ('A' for Active; 'I' for Inactive)
REMARK    1  A    between atoms: C2_2  and  O2_4 
REMARK    2  A    between atoms: O2_4  and  C3_5 
REMARK    3  A    between atoms: C4_6  and  O3_7 
REMARK    4  A    between atoms: O3_7  and  C5_8 
REMARK    5  A    between atoms: C5_8  and  C6_10 
REMARK    6  A    between atoms: C12_16  and  C13_17 
REMARK    7  A    between atoms: C13_17  and  O5_18 
REMARK    8  A    between atoms: O5_18  and  C14_19 
REMARK    9  A    between atoms: C14_19  and  C15_21 
REMARK   10  A    between atoms: C20_28  and  O7_29 
REMARK   11  A    between atoms: O7_29  and  C21_30 
REMARK   12  A    between atoms: C21_30  and  C22_32 
ROOT
HETATM    1  C3  UNL     1       1.998  53.525  -9.136  1.00  0.00     0.169 C 
HETATM    2  C4  UNL     1       2.228  53.244 -10.655  1.00  0.00     0.178 C 
HETATM    3  C12 UNL     1       2.383  51.722 -11.048  1.00  0.00     0.069 C 
HETATM    4  C20 UNL     1       3.300  51.575 -12.304  1.00  0.00     0.148 C 
HETATM    5  C25 UNL     1       3.438  50.117 -12.771  1.00  0.00     0.034 C 
HETATM    6  C26 UNL     1       3.474  49.098 -11.634  1.00  0.00     0.010 C 
HETATM    7  C27 UNL     1       3.939  49.690 -10.298  1.00  0.00     0.017 C 
HETATM    8  C28 UNL     1       5.453  49.962 -10.344  1.00  0.00     0.013 C 
HETATM    9  C29 UNL     1       3.051  50.899  -9.862  1.00  0.00     0.080 C 
HETATM   10  C30 UNL     1       3.761  51.824  -8.861  1.00  0.00     0.050 C 
HETATM   11  C31 UNL     1       2.550  52.438  -8.177  1.00  0.00     0.054 C 
HETATM   12  C32 UNL     1       1.717  51.164  -7.919  1.00  0.00     0.061 C 
HETATM   13  C33 UNL     1       2.254  50.374  -6.701  1.00  0.00     0.046 C 
HETATM   14  C34 UNL     1       0.214  51.324  -7.692  1.00  0.00     0.046 C 
HETATM   15  O9  UNL     1       1.947  50.340  -9.082  1.00  0.00    -0.368 OA
ENDROOT
BRANCH   3  16
HETATM   16  C13 UNL     1       0.942  51.199 -11.385  1.00  0.00     0.197 C 
BRANCH  16  17
HETATM   17  O5  UNL     1       0.051  52.296 -11.659  1.00  0.00    -0.316 OA
BRANCH  17  18
HETATM   18  C14 UNL     1      -0.908  52.074 -12.586  1.00  0.00     0.294 C 
HETATM   19  O6  UNL     1      -0.756  52.058 -13.795  1.00  0.00    -0.259 OA
BRANCH  18  20
HETATM   20  C15 UNL     1      -2.207  51.866 -11.913  1.00  0.00     0.054 A 
HETATM   21  C16 UNL     1      -2.997  52.908 -11.417  1.00  0.00     0.020 A 
HETATM   22  C17 UNL     1      -4.215  52.613 -10.807  1.00  0.00     0.018 A 
HETATM   23  C18 UNL     1      -4.600  51.285 -10.711  1.00  0.00     0.087 A 
HETATM   24  N1  UNL     1      -3.857  50.254 -11.171  1.00  0.00    -0.374 N 
HETATM   25  C19 UNL     1      -2.674  50.568 -11.759  1.00  0.00     0.105 A 
ATOM     26  H1  UNL     1      -4.169  49.286 -11.081  1.00  0.00     0.164 HD
ENDBRANCH  18  20
ENDBRANCH  17  18
ENDBRANCH  16  17
ENDBRANCH   3  16
BRANCH   2  27
HETATM   27  O3  UNL     1       3.436  53.960 -11.050  1.00  0.00    -0.308 OA
BRANCH  27  28
HETATM   28  C5  UNL     1       3.515  55.261 -10.667  1.00  0.00     0.293 C 
HETATM   29  O4  UNL     1       2.834  56.174 -11.107  1.00  0.00    -0.259 OA
BRANCH  28  30
HETATM   30  C6  UNL     1       4.566  55.446  -9.633  1.00  0.00     0.039 A 
HETATM   31  C7  UNL     1       4.376  56.246  -8.499  1.00  0.00     0.017 A 
HETATM   32  C8  UNL     1       5.390  56.359  -7.543  1.00  0.00     0.001 A 
HETATM   33  C9  UNL     1       6.595  55.679  -7.717  1.00  0.00     0.000 A 
HETATM   34  C10 UNL     1       6.791  54.882  -8.843  1.00  0.00     0.001 A 
HETATM   35  C11 UNL     1       5.780  54.764  -9.798  1.00  0.00     0.017 A 
ENDBRANCH  28  30
ENDBRANCH  27  28
ENDBRANCH   2  27
BRANCH   4  36
HETATM   36  O7  UNL     1       2.821  52.376 -13.405  1.00  0.00    -0.315 OA
BRANCH  36  37
HETATM   37  C21 UNL     1       2.624  51.733 -14.591  1.00  0.00     0.262 C 
HETATM   38  O8  UNL     1       2.096  50.637 -14.715  1.00  0.00    -0.265 OA
BRANCH  37  39
HETATM   39  C22 UNL     1       3.156  52.583 -15.729  1.00  0.00     0.077 C 
HETATM   40  C23 UNL     1       2.193  52.516 -16.909  1.00  0.00     0.020 C 
HETATM   41  C24 UNL     1       4.555  52.131 -16.134  1.00  0.00     0.020 C 
ENDBRANCH  37  39
ENDBRANCH  36  37
ENDBRANCH   4  36
BRANCH   1  42
HETATM   42  O2  UNL     1       0.613  53.839  -8.926  1.00  0.00    -0.313 OA
BRANCH  42  43
HETATM   43  C2  UNL     1       0.289  55.162  -8.937  1.00  0.00     0.255 C 
HETATM   44  C1  UNL     1      -0.965  55.374  -9.729  1.00  0.00     0.126 C 
HETATM   45  O1  UNL     1       0.906  56.050  -8.367  1.00  0.00    -0.266 OA
ENDBRANCH  42  43
ENDBRANCH   1  42
TORSDOF 12
ENDMDL
MODEL 9
REMARK minimizedAffinity -6.63537788
REMARK CNNscore 0.352161229
REMARK CNNaffinity 6.40046644
REMARK  12 active torsions:
REMARK  status: ('A' for Active; 'I' for Inactive)
REMARK    1  A    between atoms: C2_2  and  O2_4 
REMARK    2  A    between atoms: O2_4  and  C3_5 
REMARK    3  A    between atoms: C4_6  and  O3_7 
REMARK    4  A    between atoms: O3_7  and  C5_8 
REMARK    5  A    between atoms: C5_8  and  C6_10 
REMARK    6  A    between atoms: C12_16  and  C13_17 
REMARK    7  A    between atoms: C13_17  and  O5_18 
REMARK    8  A    between atoms: O5_18  and  C14_19 
REMARK    9  A    between atoms: C14_19  and  C15_21 
REMARK   10  A    between atoms: C20_28  and  O7_29 
REMARK   11  A    between atoms: O7_29  and  C21_30 
REMARK   12  A    between atoms: C21_30  and  C22_32 
ROOT
HETATM    1  C3  UNL     1      -1.856  52.374 -10.345  1.00  0.00     0.169 C 
HETATM    2  C4  UNL     1      -0.307  52.434 -10.157  1.00  0.00     0.178 C 
HETATM    3  C12 UNL     1       0.371  51.093  -9.671  1.00  0.00     0.069 C 
HETATM    4  C20 UNL     1       1.651  51.402  -8.831  1.00  0.00     0.148 C 
HETATM    5  C25 UNL     1       2.389  50.131  -8.382  1.00  0.00     0.034 C 
HETATM    6  C26 UNL     1       1.467  48.965  -8.031  1.00  0.00     0.010 C 
HETATM    7  C27 UNL     1       0.052  49.404  -7.632  1.00  0.00     0.017 C 
HETATM    8  C28 UNL     1       0.077  50.043  -6.232  1.00  0.00     0.013 C 
HETATM    9  C29 UNL     1      -0.624  50.260  -8.750  1.00  0.00     0.080 C 
HETATM   10  C30 UNL     1      -1.767  51.136  -8.215  1.00  0.00     0.050 C 
HETATM   11  C31 UNL     1      -2.580  51.302  -9.489  1.00  0.00     0.054 C 
HETATM   12  C32 UNL     1      -2.609  49.837  -9.977  1.00  0.00     0.061 C 
HETATM   13  C33 UNL     1      -3.643  48.998  -9.189  1.00  0.00     0.046 C 
HETATM   14  C34 UNL     1      -2.893  49.580 -11.456  1.00  0.00     0.046 C 
HETATM   15  O9  UNL     1      -1.306  49.317  -9.636  1.00  0.00    -0.368 OA
ENDROOT
BRANCH   3  16
HETATM   16  C13 UNL     1       0.771  50.301 -10.966  1.00  0.00     0.197 C 
BRANCH  16  17
HETATM   17  O5  UNL     1       1.009  51.202 -12.063  1.00  0.00    -0.316 OA
BRANCH  17  18
HETATM   18  C14 UNL     1       0.766  50.717 -13.302  1.00  0.00     0.294 C 
HETATM   19  O6  UNL     1      -0.029  49.841 -13.592  1.00  0.00    -0.259 OA
BRANCH  18  20
HETATM   20  C15 UNL     1       1.637  51.401 -14.281  1.00  0.00     0.054 A 
HETATM   21  C16 UNL     1       3.027  51.257 -14.312  1.00  0.00     0.020 A 
HETATM   22  C17 UNL     1       3.764  51.936 -15.281  1.00  0.00     0.018 A 
HETATM   23  C18 UNL     1       3.084  52.738 -16.184  1.00  0.00     0.087 A 
HETATM   24  N1  UNL     1       1.742  52.907 -16.176  1.00  0.00    -0.374 N 
HETATM   25  C19 UNL     1       1.049  52.236 -15.220  1.00  0.00     0.105 A 
ATOM     26  H1  UNL     1       1.274  53.509 -16.854  1.00  0.00     0.164 HD
ENDBRANCH  18  20
ENDBRANCH  17  18
ENDBRANCH  16  17
ENDBRANCH   3  16
BRANCH   2  27
HETATM   27  O3  UNL     1      -0.030  53.484  -9.182  1.00  0.00    -0.308 OA
BRANCH  27  28
HETATM   28  C5  UNL     1      -0.094  54.761  -9.640  1.00  0.00     0.293 C 
HETATM   29  O4  UNL     1      -1.088  55.304 -10.097  1.00  0.00    -0.259 OA
BRANCH  28  30
HETATM   30  C6  UNL     1       1.228  55.430  -9.530  1.00  0.00     0.039 A 
HETATM   31  C7  UNL     1       1.704  55.965  -8.325  1.00  0.00     0.017 A 
HETATM   32  C8  UNL     1       2.969  56.557  -8.273  1.00  0.00     0.001 A 
HETATM   33  C9  UNL     1       3.761  56.619  -9.419  1.00  0.00     0.000 A 
HETATM   34  C10 UNL     1       3.294  56.090 -10.620  1.00  0.00     0.001 A 
HETATM   35  C11 UNL     1       2.032  55.496 -10.677  1.00  0.00     0.017 A 
ENDBRANCH  28  30
ENDBRANCH  27  28
ENDBRANCH   2  27
BRANCH   4  36
HETATM   36  O7  UNL     1       2.569  52.245  -9.558  1.00  0.00    -0.315 OA
BRANCH  36  37
HETATM   37  C21 UNL     1       3.633  52.737  -8.860  1.00  0.00     0.262 C 
HETATM   38  O8  UNL     1       3.589  53.141  -7.707  1.00  0.00    -0.265 OA
BRANCH  37  39
HETATM   39  C22 UNL     1       4.875  52.703  -9.730  1.00  0.00     0.077 C 
HETATM   40  C23 UNL     1       5.456  51.294  -9.735  1.00  0.00     0.020 C 
HETATM   41  C24 UNL     1       5.903  53.720  -9.246  1.00  0.00     0.020 C 
ENDBRANCH  37  39
ENDBRANCH  36  37
ENDBRANCH   4  36
BRANCH   1  42
HETATM   42  O2  UNL     1      -2.150  52.295 -11.748  1.00  0.00    -0.313 OA
BRANCH  42  43
HETATM   43  C2  UNL     1      -3.294  52.912 -12.158  1.00  0.00     0.255 C 
HETATM   44  C1  UNL     1      -3.872  53.715 -11.033  1.00  0.00     0.126 C 
HETATM   45  O1  UNL     1      -3.773  52.848 -13.281  1.00  0.00    -0.266 OA
ENDBRANCH  42  43
ENDBRANCH   1  42
TORSDOF 12
ENDMDL
