MODEL 1
REMARK minimizedAffinity -10.4038706
REMARK CNNscore 0.730590224
REMARK CNNaffinity 7.80462837
REMARK  11 active torsions:
REMARK  status: ('A' for Active; 'I' for Inactive)
REMARK    1  A    between atoms: C2_2  and  C4_4 
REMARK    2  A    between atoms: C5_5  and  C6_6 
REMARK    3  A    between atoms: C6_6  and  C7_7 
REMARK    4  A    between atoms: C7_7  and  C9_9 
REMARK    5  A    between atoms: C27_28  and  O2_29 
REMARK    6  A    between atoms: O2_29  and  C28_30 
REMARK    7  A    between atoms: C29_32  and  C30_33 
REMARK    8  A    between atoms: C30_33  and  O4_34 
REMARK    9  A    between atoms: C31_35  and  O5_36 
REMARK   10  A    between atoms: C32_37  and  O6_38 
REMARK   11  A    between atoms: C33_39  and  O7_40 
ROOT
HETATM    1  C9  UNL     1      -0.464  51.118 -20.678  1.00  0.00    -0.002 C 
HETATM    2  C10 UNL     1      -1.196  51.967 -19.590  1.00  0.00     0.006 C 
HETATM    3  C11 UNL     1      -2.557  51.292 -19.310  1.00  0.00     0.011 C 
HETATM    4  C12 UNL     1      -2.434  49.901 -19.947  1.00  0.00    -0.029 C 
HETATM    5  C13 UNL     1      -1.598  49.042 -18.911  1.00  0.00     0.016 C 
HETATM    6  C14 UNL     1      -3.743  49.071 -20.183  1.00  0.00     0.028 C 
HETATM    7  C15 UNL     1      -5.095  49.641 -19.819  1.00  0.00    -0.021 C 
HETATM    8  C16 UNL     1      -6.211  49.017 -20.248  1.00  0.00     0.008 C 
HETATM    9  C17 UNL     1      -6.137  47.859 -21.247  1.00  0.00     0.092 C 
HETATM   10  O1  UNL     1      -5.517  46.749 -20.549  1.00  0.00    -0.374 OA
HETATM   11  C18 UNL     1      -4.120  46.711 -20.935  1.00  0.00     0.179 C 
HETATM   12  C19 UNL     1      -3.776  48.137 -21.463  1.00  0.00    -0.004 C 
HETATM   13  C20 UNL     1      -2.508  48.104 -22.355  1.00  0.00     0.014 C 
HETATM   14  C21 UNL     1      -1.266  48.904 -21.913  1.00  0.00     0.011 C 
HETATM   15  C22 UNL     1      -1.630  50.240 -21.254  1.00  0.00    -0.032 C 
HETATM   16  C23 UNL     1      -2.391  51.107 -22.285  1.00  0.00     0.016 C 
HETATM   17  C24 UNL     1      -5.092  48.266 -22.298  1.00  0.00     0.036 C 
HETATM   18  C25 UNL     1      -5.508  49.558 -23.017  1.00  0.00     0.011 C 
HETATM   19  C26 UNL     1      -7.022  49.611 -23.279  1.00  0.00     0.033 C 
HETATM   20  C27 UNL     1      -7.672  48.223 -23.295  1.00  0.00     0.136 C 
HETATM   21  C34 UNL     1      -7.480  47.429 -21.948  1.00  0.00     0.014 C 
HETATM   22  C35 UNL     1      -8.699  47.590 -21.009  1.00  0.00     0.021 C 
HETATM   23  C36 UNL     1      -7.439  45.918 -22.313  1.00  0.00     0.021 C 
ENDROOT
BRANCH  20  24
HETATM   24  O2  UNL     1      -9.064  48.390 -23.579  1.00  0.00    -0.352 OA
BRANCH  24  25
HETATM   25  C28 UNL     1      -9.438  47.951 -24.891  1.00  0.00     0.292 C 
HETATM   26  O3  UNL     1      -8.881  46.660 -25.143  1.00  0.00    -0.348 OA
HETATM   27  C29 UNL     1      -9.383  46.075 -26.365  1.00  0.00     0.179 C 
HETATM   28  C31 UNL     1      -9.477  47.104 -27.514  1.00  0.00     0.180 C 
HETATM   29  C32 UNL     1      -8.548  48.296 -27.246  1.00  0.00     0.183 C 
HETATM   30  C33 UNL     1      -8.895  48.976 -25.912  1.00  0.00     0.204 C 
BRANCH  27  31
HETATM   31  C30 UNL     1      -8.445  44.912 -26.727  1.00  0.00     0.198 C 
BRANCH  31  32
HETATM   32  O4  UNL     1      -8.122  44.138 -25.571  1.00  0.00    -0.398 OA
HETATM   33  H44 UNL     1      -7.813  43.267 -25.890  1.00  0.00     0.209 HD
ENDBRANCH  31  32
ENDBRANCH  27  31
BRANCH  28  34
HETATM   34  O5  UNL     1     -10.839  47.571 -27.593  1.00  0.00    -0.390 OA
HETATM   35  H46 UNL     1     -10.801  48.502 -27.895  1.00  0.00     0.210 HD
ENDBRANCH  28  34
BRANCH  29  36
HETATM   36  O6  UNL     1      -8.673  49.271 -28.303  1.00  0.00    -0.390 OA
HETATM   37  H48 UNL     1      -8.177  48.915 -29.065  1.00  0.00     0.210 HD
ENDBRANCH  29  36
BRANCH  30  38
HETATM   38  O7  UNL     1      -9.867  50.017 -26.141  1.00  0.00    -0.388 OA
HETATM   39  H50 UNL     1      -9.553  50.485 -26.942  1.00  0.00     0.210 HD
ENDBRANCH  30  38
ENDBRANCH  24  25
ENDBRANCH  20  24
BRANCH   1  40
HETATM   40  C7  UNL     1       0.392  52.011 -21.627  1.00  0.00    -0.010 C 
HETATM   41  C8  UNL     1       0.754  53.359 -20.992  1.00  0.00     0.010 C 
BRANCH  40  42
HETATM   42  C6  UNL     1      -0.278  52.256 -23.007  1.00  0.00     0.031 C 
BRANCH  42  43
HETATM   43  C5  UNL     1       0.649  52.155 -24.191  1.00  0.00    -0.026 C 
HETATM   44  C4  UNL     1       0.262  51.718 -25.399  1.00  0.00     0.002 C 
BRANCH  44  45
HETATM   45  C2  UNL     1       1.108  51.608 -26.582  1.00  0.00    -0.072 C 
HETATM   46  C1  UNL     1       2.429  51.415 -26.442  1.00  0.00     0.018 C 
HETATM   47  C3  UNL     1       0.485  51.713 -27.948  1.00  0.00     0.047 C 
ENDBRANCH  44  45
ENDBRANCH  42  43
ENDBRANCH  40  42
ENDBRANCH   1  40
TORSDOF 11
ENDMDL
MODEL 2
REMARK minimizedAffinity -8.14467907
REMARK CNNscore 0.524380505
REMARK CNNaffinity 6.88595629
REMARK  11 active torsions:
REMARK  status: ('A' for Active; 'I' for Inactive)
REMARK    1  A    between atoms: C2_2  and  C4_4 
REMARK    2  A    between atoms: C5_5  and  C6_6 
REMARK    3  A    between atoms: C6_6  and  C7_7 
REMARK    4  A    between atoms: C7_7  and  C9_9 
REMARK    5  A    between atoms: C27_28  and  O2_29 
REMARK    6  A    between atoms: O2_29  and  C28_30 
REMARK    7  A    between atoms: C29_32  and  C30_33 
REMARK    8  A    between atoms: C30_33  and  O4_34 
REMARK    9  A    between atoms: C31_35  and  O5_36 
REMARK   10  A    between atoms: C32_37  and  O6_38 
REMARK   11  A    between atoms: C33_39  and  O7_40 
ROOT
HETATM    1  C9  UNL     1      -4.426  49.647 -24.883  1.00  0.00    -0.002 C 
HETATM    2  C10 UNL     1      -5.334  48.562 -25.544  1.00  0.00     0.006 C 
HETATM    3  C11 UNL     1      -6.033  47.783 -24.408  1.00  0.00     0.011 C 
HETATM    4  C12 UNL     1      -5.812  48.647 -23.159  1.00  0.00    -0.029 C 
HETATM    5  C13 UNL     1      -6.887  49.807 -23.260  1.00  0.00     0.016 C 
HETATM    6  C14 UNL     1      -6.060  48.001 -21.752  1.00  0.00     0.028 C 
HETATM    7  C15 UNL     1      -6.477  46.553 -21.631  1.00  0.00    -0.021 C 
HETATM    8  C16 UNL     1      -6.451  45.958 -20.421  1.00  0.00     0.008 C 
HETATM    9  C17 UNL     1      -5.831  46.658 -19.207  1.00  0.00     0.092 C 
HETATM   10  O1  UNL     1      -6.698  47.775 -18.885  1.00  0.00    -0.374 OA
HETATM   11  C18 UNL     1      -6.099  48.972 -19.443  1.00  0.00     0.179 C 
HETATM   12  C19 UNL     1      -5.130  48.491 -20.566  1.00  0.00    -0.004 C 
HETATM   13  C20 UNL     1      -4.076  49.581 -20.890  1.00  0.00     0.014 C 
HETATM   14  C21 UNL     1      -4.043  50.186 -22.308  1.00  0.00     0.011 C 
HETATM   15  C22 UNL     1      -4.343  49.149 -23.397  1.00  0.00    -0.032 C 
HETATM   16  C23 UNL     1      -3.257  48.049 -23.343  1.00  0.00     0.016 C 
HETATM   17  C24 UNL     1      -4.540  47.324 -19.710  1.00  0.00     0.036 C 
HETATM   18  C25 UNL     1      -3.564  46.279 -20.273  1.00  0.00     0.011 C 
HETATM   19  C26 UNL     1      -3.570  44.981 -19.448  1.00  0.00     0.033 C 
HETATM   20  C27 UNL     1      -4.069  45.189 -18.015  1.00  0.00     0.136 C 
HETATM   21  C34 UNL     1      -5.532  45.769 -17.942  1.00  0.00     0.014 C 
HETATM   22  C35 UNL     1      -6.584  44.650 -17.760  1.00  0.00     0.021 C 
HETATM   23  C36 UNL     1      -5.616  46.627 -16.648  1.00  0.00     0.021 C 
ENDROOT
BRANCH  20  24
HETATM   24  O2  UNL     1      -4.000  43.932 -17.336  1.00  0.00    -0.352 OA
BRANCH  24  25
HETATM   25  C28 UNL     1      -2.687  43.609 -16.860  1.00  0.00     0.292 C 
HETATM   26  O3  UNL     1      -2.200  42.451 -17.541  1.00  0.00    -0.348 OA
HETATM   27  C29 UNL     1      -0.809  42.190 -17.254  1.00  0.00     0.179 C 
HETATM   28  C31 UNL     1      -0.468  42.398 -15.760  1.00  0.00     0.180 C 
HETATM   29  C32 UNL     1      -1.736  42.298 -14.901  1.00  0.00     0.183 C 
HETATM   30  C33 UNL     1      -2.783  43.334 -15.342  1.00  0.00     0.204 C 
BRANCH  27  31
HETATM   31  C30 UNL     1      -0.517  40.750 -17.702  1.00  0.00     0.198 C 
BRANCH  31  32
HETATM   32  O4  UNL     1       0.359  40.734 -18.831  1.00  0.00    -0.398 OA
HETATM   33  H44 UNL     1       0.757  39.842 -18.867  1.00  0.00     0.209 HD
ENDBRANCH  31  32
ENDBRANCH  27  31
BRANCH  28  34
HETATM   34  O5  UNL     1       0.110  43.709 -15.605  1.00  0.00    -0.390 OA
HETATM   35  H46 UNL     1      -0.153  44.030 -14.718  1.00  0.00     0.210 HD
ENDBRANCH  28  34
BRANCH  29  36
HETATM   36  O6  UNL     1      -1.415  42.533 -13.513  1.00  0.00    -0.390 OA
HETATM   37  H48 UNL     1      -0.997  41.714 -13.185  1.00  0.00     0.210 HD
ENDBRANCH  29  36
BRANCH  30  38
HETATM   38  O7  UNL     1      -2.593  44.556 -14.599  1.00  0.00    -0.388 OA
HETATM   39  H50 UNL     1      -2.444  44.269 -13.675  1.00  0.00     0.210 HD
ENDBRANCH  30  38
ENDBRANCH  24  25
ENDBRANCH  20  24
BRANCH   1  40
HETATM   40  C7  UNL     1      -3.124  49.889 -25.707  1.00  0.00    -0.010 C 
HETATM   41  C8  UNL     1      -2.678  48.639 -26.476  1.00  0.00     0.010 C 
BRANCH  40  42
HETATM   42  C6  UNL     1      -1.942  50.412 -24.845  1.00  0.00     0.031 C 
BRANCH  42  43
HETATM   43  C5  UNL     1      -0.921  51.228 -25.594  1.00  0.00    -0.026 C 
HETATM   44  C4  UNL     1       0.146  50.696 -26.210  1.00  0.00     0.002 C 
BRANCH  44  45
HETATM   45  C2  UNL     1       1.160  51.431 -26.957  1.00  0.00    -0.072 C 
HETATM   46  C1  UNL     1       2.425  51.463 -26.511  1.00  0.00     0.018 C 
HETATM   47  C3  UNL     1       0.771  52.147 -28.223  1.00  0.00     0.047 C 
ENDBRANCH  44  45
ENDBRANCH  42  43
ENDBRANCH  40  42
ENDBRANCH   1  40
TORSDOF 11
ENDMDL
MODEL 3
REMARK minimizedAffinity -8.33597279
REMARK CNNscore 0.469002992
REMARK CNNaffinity 7.03946447
REMARK  11 active torsions:
REMARK  status: ('A' for Active; 'I' for Inactive)
REMARK    1  A    between atoms: C2_2  and  C4_4 
REMARK    2  A    between atoms: C5_5  and  C6_6 
REMARK    3  A    between atoms: C6_6  and  C7_7 
REMARK    4  A    between atoms: C7_7  and  C9_9 
REMARK    5  A    between atoms: C27_28  and  O2_29 
REMARK    6  A    between atoms: O2_29  and  C28_30 
REMARK    7  A    between atoms: C29_32  and  C30_33 
REMARK    8  A    between atoms: C30_33  and  O4_34 
REMARK    9  A    between atoms: C31_35  and  O5_36 
REMARK   10  A    between atoms: C32_37  and  O6_38 
REMARK   11  A    between atoms: C33_39  and  O7_40 
ROOT
HETATM    1  C9  UNL     1       4.380  56.636  -6.519  1.00  0.00    -0.002 C 
HETATM    2  C10 UNL     1       3.646  57.989  -6.787  1.00  0.00     0.006 C 
HETATM    3  C11 UNL     1       2.191  57.660  -7.189  1.00  0.00     0.011 C 
HETATM    4  C12 UNL     1       2.010  56.187  -6.797  1.00  0.00    -0.029 C 
HETATM    5  C13 UNL     1       1.759  56.201  -5.233  1.00  0.00     0.016 C 
HETATM    6  C14 UNL     1       0.785  55.404  -7.386  1.00  0.00     0.028 C 
HETATM    7  C15 UNL     1      -0.173  56.078  -8.341  1.00  0.00    -0.021 C 
HETATM    8  C16 UNL     1      -1.068  55.327  -9.016  1.00  0.00     0.008 C 
HETATM    9  C17 UNL     1      -1.008  53.797  -8.979  1.00  0.00     0.092 C 
HETATM   10  O1  UNL     1      -1.361  53.402  -7.629  1.00  0.00    -0.374 OA
HETATM   11  C18 UNL     1      -0.130  53.120  -6.916  1.00  0.00     0.179 C 
HETATM   12  C19 UNL     1       1.001  53.864  -7.691  1.00  0.00    -0.004 C 
HETATM   13  C20 UNL     1       2.388  53.258  -7.357  1.00  0.00     0.014 C 
HETATM   14  C21 UNL     1       3.447  54.151  -6.677  1.00  0.00     0.011 C 
HETATM   15  C22 UNL     1       3.412  55.597  -7.188  1.00  0.00    -0.032 C 
HETATM   16  C23 UNL     1       3.722  55.592  -8.704  1.00  0.00     0.016 C 
HETATM   17  C24 UNL     1       0.479  53.425  -9.097  1.00  0.00     0.036 C 
HETATM   18  C25 UNL     1       1.074  53.945 -10.415  1.00  0.00     0.011 C 
HETATM   19  C26 UNL     1       0.084  53.818 -11.585  1.00  0.00     0.033 C 
HETATM   20  C27 UNL     1      -0.990  52.752 -11.343  1.00  0.00     0.136 C 
HETATM   21  C34 UNL     1      -1.855  53.019 -10.054  1.00  0.00     0.014 C 
HETATM   22  C35 UNL     1      -3.175  53.753 -10.391  1.00  0.00     0.021 C 
HETATM   23  C36 UNL     1      -2.286  51.632  -9.500  1.00  0.00     0.021 C 
ENDROOT
BRANCH  20  24
HETATM   24  O2  UNL     1      -1.828  52.699 -12.501  1.00  0.00    -0.352 OA
BRANCH  24  25
HETATM   25  C28 UNL     1      -1.459  51.673 -13.430  1.00  0.00     0.292 C 
HETATM   26  O3  UNL     1      -0.463  52.171 -14.326  1.00  0.00    -0.348 OA
HETATM   27  C29 UNL     1       0.096  51.130 -15.158  1.00  0.00     0.179 C 
HETATM   28  C31 UNL     1      -0.981  50.151 -15.679  1.00  0.00     0.180 C 
HETATM   29  C32 UNL     1      -2.368  50.808 -15.640  1.00  0.00     0.183 C 
HETATM   30  C33 UNL     1      -2.724  51.258 -14.214  1.00  0.00     0.204 C 
BRANCH  27  31
HETATM   31  C30 UNL     1       0.833  51.824 -16.314  1.00  0.00     0.198 C 
BRANCH  31  32
HETATM   32  O4  UNL     1       1.311  53.110 -15.917  1.00  0.00    -0.398 OA
HETATM   33  H44 UNL     1       2.019  53.355 -16.544  1.00  0.00     0.209 HD
ENDBRANCH  31  32
ENDBRANCH  27  31
BRANCH  28  34
HETATM   34  O5  UNL     1      -0.982  48.986 -14.832  1.00  0.00    -0.390 OA
HETATM   35  H46 UNL     1      -1.905  48.656 -14.806  1.00  0.00     0.210 HD
ENDBRANCH  28  34
BRANCH  29  36
HETATM   36  O6  UNL     1      -3.372  49.874 -16.090  1.00  0.00    -0.390 OA
HETATM   37  H48 UNL     1      -3.296  49.836 -17.063  1.00  0.00     0.210 HD
ENDBRANCH  29  36
BRANCH  30  38
HETATM   38  O7  UNL     1      -3.410  50.190 -13.530  1.00  0.00    -0.388 OA
HETATM   39  H50 UNL     1      -4.051  49.841 -14.183  1.00  0.00     0.210 HD
ENDBRANCH  30  38
ENDBRANCH  24  25
ENDBRANCH  20  24
BRANCH   1  40
HETATM   40  C7  UNL     1       5.879  56.700  -6.941  1.00  0.00    -0.010 C 
HETATM   41  C8  UNL     1       6.342  55.423  -7.653  1.00  0.00     0.010 C 
BRANCH  40  42
HETATM   42  C6  UNL     1       6.837  57.002  -5.755  1.00  0.00     0.031 C 
BRANCH  42  43
HETATM   43  C5  UNL     1       6.891  58.448  -5.333  1.00  0.00    -0.026 C 
HETATM   44  C4  UNL     1       8.034  59.106  -5.090  1.00  0.00     0.002 C 
BRANCH  44  45
HETATM   45  C2  UNL     1       8.150  60.503  -4.690  1.00  0.00    -0.072 C 
HETATM   46  C1  UNL     1       7.173  61.075  -3.969  1.00  0.00     0.018 C 
HETATM   47  C3  UNL     1       9.369  61.289  -5.094  1.00  0.00     0.047 C 
ENDBRANCH  44  45
ENDBRANCH  42  43
ENDBRANCH  40  42
ENDBRANCH   1  40
TORSDOF 11
ENDMDL
MODEL 4
REMARK minimizedAffinity -8.91003323
REMARK CNNscore 0.441806704
REMARK CNNaffinity 7.10308838
REMARK  11 active torsions:
REMARK  status: ('A' for Active; 'I' for Inactive)
REMARK    1  A    between atoms: C2_2  and  C4_4 
REMARK    2  A    between atoms: C5_5  and  C6_6 
REMARK    3  A    between atoms: C6_6  and  C7_7 
REMARK    4  A    between atoms: C7_7  and  C9_9 
REMARK    5  A    between atoms: C27_28  and  O2_29 
REMARK    6  A    between atoms: O2_29  and  C28_30 
REMARK    7  A    between atoms: C29_32  and  C30_33 
REMARK    8  A    between atoms: C30_33  and  O4_34 
REMARK    9  A    between atoms: C31_35  and  O5_36 
REMARK   10  A    between atoms: C32_37  and  O6_38 
REMARK   11  A    between atoms: C33_39  and  O7_40 
ROOT
HETATM    1  C9  UNL     1      -1.491  52.043 -22.820  1.00  0.00    -0.002 C 
HETATM    2  C10 UNL     1      -1.832  51.614 -24.283  1.00  0.00     0.006 C 
HETATM    3  C11 UNL     1      -3.032  50.644 -24.217  1.00  0.00     0.011 C 
HETATM    4  C12 UNL     1      -3.585  50.814 -22.795  1.00  0.00    -0.029 C 
HETATM    5  C13 UNL     1      -4.441  52.146 -22.840  1.00  0.00     0.016 C 
HETATM    6  C14 UNL     1      -4.573  49.728 -22.245  1.00  0.00     0.028 C 
HETATM    7  C15 UNL     1      -4.946  48.528 -23.084  1.00  0.00    -0.021 C 
HETATM    8  C16 UNL     1      -5.598  47.497 -22.508  1.00  0.00     0.008 C 
HETATM    9  C17 UNL     1      -5.798  47.435 -20.990  1.00  0.00     0.092 C 
HETATM   10  O1  UNL     1      -6.724  48.499 -20.652  1.00  0.00    -0.374 OA
HETATM   11  C18 UNL     1      -5.946  49.617 -20.152  1.00  0.00     0.179 C 
HETATM   12  C19 UNL     1      -4.498  49.414 -20.693  1.00  0.00    -0.004 C 
HETATM   13  C20 UNL     1      -3.477  50.222 -19.851  1.00  0.00     0.014 C 
HETATM   14  C21 UNL     1      -2.658  51.333 -20.538  1.00  0.00     0.011 C 
HETATM   15  C22 UNL     1      -2.256  50.966 -21.972  1.00  0.00    -0.032 C 
HETATM   16  C23 UNL     1      -1.365  49.702 -21.926  1.00  0.00     0.016 C 
HETATM   17  C24 UNL     1      -4.469  47.886 -20.364  1.00  0.00     0.036 C 
HETATM   18  C25 UNL     1      -3.319  46.958 -20.783  1.00  0.00     0.011 C 
HETATM   19  C26 UNL     1      -3.758  45.485 -20.843  1.00  0.00     0.033 C 
HETATM   20  C27 UNL     1      -4.991  45.197 -19.979  1.00  0.00     0.136 C 
HETATM   21  C34 UNL     1      -6.249  46.055 -20.383  1.00  0.00     0.014 C 
HETATM   22  C35 UNL     1      -7.188  45.281 -21.339  1.00  0.00     0.021 C 
HETATM   23  C36 UNL     1      -7.079  46.281 -19.087  1.00  0.00     0.021 C 
ENDROOT
BRANCH  20  24
HETATM   24  O2  UNL     1      -5.287  43.801 -20.084  1.00  0.00    -0.352 OA
BRANCH  24  25
HETATM   25  C28 UNL     1      -5.122  43.087 -18.853  1.00  0.00     0.292 C 
HETATM   26  O3  UNL     1      -3.749  42.730 -18.684  1.00  0.00    -0.348 OA
HETATM   27  C29 UNL     1      -3.481  42.184 -17.374  1.00  0.00     0.179 C 
HETATM   28  C31 UNL     1      -4.587  41.211 -16.905  1.00  0.00     0.180 C 
HETATM   29  C32 UNL     1      -5.372  40.670 -18.107  1.00  0.00     0.183 C 
HETATM   30  C33 UNL     1      -6.000  41.816 -18.916  1.00  0.00     0.204 C 
BRANCH  27  31
HETATM   31  C30 UNL     1      -2.113  41.488 -17.445  1.00  0.00     0.198 C 
BRANCH  31  32
HETATM   32  O4  UNL     1      -1.768  41.179 -18.796  1.00  0.00    -0.398 OA
HETATM   33  H44 UNL     1      -0.799  41.048 -18.818  1.00  0.00     0.209 HD
ENDBRANCH  31  32
ENDBRANCH  27  31
BRANCH  28  34
HETATM   34  O5  UNL     1      -5.484  41.929 -16.035  1.00  0.00    -0.390 OA
HETATM   35  H46 UNL     1      -6.374  41.540 -16.164  1.00  0.00     0.210 HD
ENDBRANCH  28  34
BRANCH  29  36
HETATM   36  O6  UNL     1      -6.428  39.794 -17.658  1.00  0.00    -0.390 OA
HETATM   37  H48 UNL     1      -6.001  38.949 -17.418  1.00  0.00     0.210 HD
ENDBRANCH  29  36
BRANCH  30  38
HETATM   38  O7  UNL     1      -7.322  42.095 -18.409  1.00  0.00    -0.388 OA
HETATM   39  H50 UNL     1      -7.731  41.216 -18.273  1.00  0.00     0.210 HD
ENDBRANCH  30  38
ENDBRANCH  24  25
ENDBRANCH  20  24
BRANCH   1  40
HETATM   40  C7  UNL     1       0.041  52.257 -22.624  1.00  0.00    -0.010 C 
HETATM   41  C8  UNL     1       0.410  52.531 -21.161  1.00  0.00     0.010 C 
BRANCH  40  42
HETATM   42  C6  UNL     1       0.622  53.384 -23.521  1.00  0.00     0.031 C 
BRANCH  42  43
HETATM   43  C5  UNL     1       0.659  53.070 -24.994  1.00  0.00    -0.026 C 
HETATM   44  C4  UNL     1       1.421  52.102 -25.526  1.00  0.00     0.002 C 
BRANCH  44  45
HETATM   45  C2  UNL     1       1.492  51.745 -26.937  1.00  0.00    -0.072 C 
HETATM   46  C1  UNL     1       2.686  51.654 -27.544  1.00  0.00     0.018 C 
HETATM   47  C3  UNL     1       0.219  51.483 -27.698  1.00  0.00     0.047 C 
ENDBRANCH  44  45
ENDBRANCH  42  43
ENDBRANCH  40  42
ENDBRANCH   1  40
TORSDOF 11
ENDMDL
MODEL 5
REMARK minimizedAffinity -9.87314034
REMARK CNNscore 0.438419402
REMARK CNNaffinity 6.92108154
REMARK  11 active torsions:
REMARK  status: ('A' for Active; 'I' for Inactive)
REMARK    1  A    between atoms: C2_2  and  C4_4 
REMARK    2  A    between atoms: C5_5  and  C6_6 
REMARK    3  A    between atoms: C6_6  and  C7_7 
REMARK    4  A    between atoms: C7_7  and  C9_9 
REMARK    5  A    between atoms: C27_28  and  O2_29 
REMARK    6  A    between atoms: O2_29  and  C28_30 
REMARK    7  A    between atoms: C29_32  and  C30_33 
REMARK    8  A    between atoms: C30_33  and  O4_34 
REMARK    9  A    between atoms: C31_35  and  O5_36 
REMARK   10  A    between atoms: C32_37  and  O6_38 
REMARK   11  A    between atoms: C33_39  and  O7_40 
ROOT
HETATM    1  C9  UNL     1      -1.187  51.335 -20.523  1.00  0.00    -0.002 C 
HETATM    2  C10 UNL     1      -1.971  51.833 -19.267  1.00  0.00     0.006 C 
HETATM    3  C11 UNL     1      -3.212  50.928 -19.102  1.00  0.00     0.011 C 
HETATM    4  C12 UNL     1      -2.933  49.726 -20.016  1.00  0.00    -0.029 C 
HETATM    5  C13 UNL     1      -1.936  48.805 -19.199  1.00  0.00     0.016 C 
HETATM    6  C14 UNL     1      -4.127  48.781 -20.389  1.00  0.00     0.028 C 
HETATM    7  C15 UNL     1      -5.524  49.066 -19.886  1.00  0.00    -0.021 C 
HETATM    8  C16 UNL     1      -6.565  48.388 -20.409  1.00  0.00     0.008 C 
HETATM    9  C17 UNL     1      -6.386  47.477 -21.628  1.00  0.00     0.092 C 
HETATM   10  O1  UNL     1      -5.586  46.350 -21.188  1.00  0.00    -0.374 OA
HETATM   11  C18 UNL     1      -4.218  46.592 -21.604  1.00  0.00     0.179 C 
HETATM   12  C19 UNL     1      -4.099  48.129 -21.834  1.00  0.00    -0.004 C 
HETATM   13  C20 UNL     1      -2.885  48.459 -22.741  1.00  0.00     0.014 C 
HETATM   14  C21 UNL     1      -1.742  49.323 -22.171  1.00  0.00     0.011 C 
HETATM   15  C22 UNL     1      -2.251  50.433 -21.242  1.00  0.00    -0.032 C 
HETATM   16  C23 UNL     1      -3.174  51.371 -22.054  1.00  0.00     0.016 C 
HETATM   17  C24 UNL     1      -5.460  48.234 -22.595  1.00  0.00     0.036 C 
HETATM   18  C25 UNL     1      -6.085  49.571 -23.022  1.00  0.00     0.011 C 
HETATM   19  C26 UNL     1      -7.603  49.457 -23.234  1.00  0.00     0.033 C 
HETATM   20  C27 UNL     1      -8.058  48.023 -23.522  1.00  0.00     0.136 C 
HETATM   21  C34 UNL     1      -7.691  47.010 -22.372  1.00  0.00     0.014 C 
HETATM   22  C35 UNL     1      -8.872  46.801 -21.394  1.00  0.00     0.021 C 
HETATM   23  C36 UNL     1      -7.464  45.625 -23.042  1.00  0.00     0.021 C 
ENDROOT
BRANCH  20  24
HETATM   24  O2  UNL     1      -9.473  48.042 -23.734  1.00  0.00    -0.352 OA
BRANCH  24  25
HETATM   25  C28 UNL     1      -9.850  47.844 -25.102  1.00  0.00     0.292 C 
HETATM   26  O3  UNL     1      -9.575  46.496 -25.487  1.00  0.00    -0.348 OA
HETATM   27  C29 UNL     1     -10.114  46.176 -26.788  1.00  0.00     0.179 C 
HETATM   28  C31 UNL     1      -9.906  47.319 -27.808  1.00  0.00     0.180 C 
HETATM   29  C32 UNL     1      -8.757  48.233 -27.364  1.00  0.00     0.183 C 
HETATM   30  C33 UNL     1      -9.030  48.825 -25.971  1.00  0.00     0.204 C 
BRANCH  27  31
HETATM   31  C30 UNL     1      -9.435  44.878 -27.252  1.00  0.00     0.198 C 
BRANCH  31  32
HETATM   32  O4  UNL     1      -8.084  44.815 -26.790  1.00  0.00    -0.398 OA
HETATM   33  H44 UNL     1      -7.817  43.876 -26.825  1.00  0.00     0.209 HD
ENDBRANCH  31  32
ENDBRANCH  27  31
BRANCH  28  34
HETATM   34  O5  UNL     1     -11.124  48.087 -27.883  1.00  0.00    -0.390 OA
HETATM   35  H46 UNL     1     -10.862  49.013 -28.069  1.00  0.00     0.210 HD
ENDBRANCH  28  34
BRANCH  29  36
HETATM   36  O6  UNL     1      -8.596  49.320 -28.300  1.00  0.00    -0.390 OA
HETATM   37  H48 UNL     1      -8.143  48.946 -29.080  1.00  0.00     0.210 HD
ENDBRANCH  29  36
BRANCH  30  38
HETATM   38  O7  UNL     1      -9.732  50.077 -26.110  1.00  0.00    -0.388 OA
HETATM   39  H50 UNL     1      -9.272  50.546 -26.837  1.00  0.00     0.210 HD
ENDBRANCH  30  38
ENDBRANCH  24  25
ENDBRANCH  20  24
BRANCH   1  40
HETATM   40  C7  UNL     1      -0.510  52.514 -21.285  1.00  0.00    -0.010 C 
HETATM   41  C8  UNL     1       0.307  52.038 -22.493  1.00  0.00     0.010 C 
BRANCH  40  42
HETATM   42  C6  UNL     1       0.387  53.399 -20.375  1.00  0.00     0.031 C 
BRANCH  42  43
HETATM   43  C5  UNL     1       1.143  52.651 -19.308  1.00  0.00    -0.026 C 
HETATM   44  C4  UNL     1       1.064  52.944 -18.001  1.00  0.00     0.002 C 
BRANCH  44  45
HETATM   45  C2  UNL     1       1.761  52.253 -16.923  1.00  0.00    -0.072 C 
HETATM   46  C1  UNL     1       2.973  52.677 -16.533  1.00  0.00     0.018 C 
HETATM   47  C3  UNL     1       1.110  51.068 -16.262  1.00  0.00     0.047 C 
ENDBRANCH  44  45
ENDBRANCH  42  43
ENDBRANCH  40  42
ENDBRANCH   1  40
TORSDOF 11
ENDMDL
MODEL 6
REMARK minimizedAffinity -10.9360771
REMARK CNNscore 0.401965708
REMARK CNNaffinity 7.30307436
REMARK  11 active torsions:
REMARK  status: ('A' for Active; 'I' for Inactive)
REMARK    1  A    between atoms: C2_2  and  C4_4 
REMARK    2  A    between atoms: C5_5  and  C6_6 
REMARK    3  A    between atoms: C6_6  and  C7_7 
REMARK    4  A    between atoms: C7_7  and  C9_9 
REMARK    5  A    between atoms: C27_28  and  O2_29 
REMARK    6  A    between atoms: O2_29  and  C28_30 
REMARK    7  A    between atoms: C29_32  and  C30_33 
REMARK    8  A    between atoms: C30_33  and  O4_34 
REMARK    9  A    between atoms: C31_35  and  O5_36 
REMARK   10  A    between atoms: C32_37  and  O6_38 
REMARK   11  A    between atoms: C33_39  and  O7_40 
ROOT
HETATM    1  C9  UNL     1      -0.080  51.404 -20.389  1.00  0.00    -0.002 C 
HETATM    2  C10 UNL     1      -0.865  52.278 -19.360  1.00  0.00     0.006 C 
HETATM    3  C11 UNL     1      -2.246  51.619 -19.145  1.00  0.00     0.011 C 
HETATM    4  C12 UNL     1      -2.098  50.216 -19.750  1.00  0.00    -0.029 C 
HETATM    5  C13 UNL     1      -1.330  49.369 -18.653  1.00  0.00     0.016 C 
HETATM    6  C14 UNL     1      -3.399  49.390 -20.045  1.00  0.00     0.028 C 
HETATM    7  C15 UNL     1      -4.764  49.977 -19.768  1.00  0.00    -0.021 C 
HETATM    8  C16 UNL     1      -5.859  49.354 -20.248  1.00  0.00     0.008 C 
HETATM    9  C17 UNL     1      -5.739  48.177 -21.221  1.00  0.00     0.092 C 
HETATM   10  O1  UNL     1      -5.169  47.075 -20.470  1.00  0.00    -0.374 OA
HETATM   11  C18 UNL     1      -3.753  47.020 -20.775  1.00  0.00     0.179 C 
HETATM   12  C19 UNL     1      -3.368  48.434 -21.308  1.00  0.00    -0.004 C 
HETATM   13  C20 UNL     1      -2.052  48.375 -22.126  1.00  0.00     0.014 C 
HETATM   14  C21 UNL     1      -0.830  49.174 -21.628  1.00  0.00     0.011 C 
HETATM   15  C22 UNL     1      -1.219  50.524 -21.014  1.00  0.00    -0.032 C 
HETATM   16  C23 UNL     1      -1.913  51.378 -22.102  1.00  0.00     0.016 C 
HETATM   17  C24 UNL     1      -4.632  48.557 -22.218  1.00  0.00     0.036 C 
HETATM   18  C25 UNL     1      -4.996  49.840 -22.983  1.00  0.00     0.011 C 
HETATM   19  C26 UNL     1      -6.493  49.899 -23.331  1.00  0.00     0.033 C 
HETATM   20  C27 UNL     1      -7.152  48.516 -23.359  1.00  0.00     0.136 C 
HETATM   21  C34 UNL     1      -7.044  47.745 -21.989  1.00  0.00     0.014 C 
HETATM   22  C35 UNL     1      -8.313  47.932 -21.124  1.00  0.00     0.021 C 
HETATM   23  C36 UNL     1      -6.995  46.227 -22.324  1.00  0.00     0.021 C 
ENDROOT
BRANCH  20  24
HETATM   24  O2  UNL     1      -8.525  48.688 -23.724  1.00  0.00    -0.352 OA
BRANCH  24  25
HETATM   25  C28 UNL     1      -8.748  48.669 -25.140  1.00  0.00     0.292 C 
HETATM   26  O3  UNL     1     -10.126  48.400 -25.405  1.00  0.00    -0.348 OA
HETATM   27  C29 UNL     1     -10.458  48.564 -26.802  1.00  0.00     0.179 C 
HETATM   28  C31 UNL     1      -9.372  47.984 -27.736  1.00  0.00     0.180 C 
HETATM   29  C32 UNL     1      -8.522  46.944 -26.993  1.00  0.00     0.183 C 
HETATM   30  C33 UNL     1      -7.860  47.561 -25.750  1.00  0.00     0.204 C 
BRANCH  27  31
HETATM   31  C30 UNL     1     -11.816  47.881 -27.026  1.00  0.00     0.198 C 
BRANCH  31  32
HETATM   32  O4  UNL     1     -12.823  48.842 -27.349  1.00  0.00    -0.398 OA
HETATM   33  H44 UNL     1     -13.550  48.355 -27.785  1.00  0.00     0.209 HD
ENDBRANCH  31  32
ENDBRANCH  27  31
BRANCH  28  34
HETATM   34  O5  UNL     1      -8.526  49.066 -28.174  1.00  0.00    -0.390 OA
HETATM   35  H46 UNL     1      -7.627  48.692 -28.291  1.00  0.00     0.210 HD
ENDBRANCH  28  34
BRANCH  29  36
HETATM   36  O6  UNL     1      -7.485  46.438 -27.860  1.00  0.00    -0.390 OA
HETATM   37  H48 UNL     1      -7.919  45.810 -28.469  1.00  0.00     0.210 HD
ENDBRANCH  29  36
BRANCH  30  38
HETATM   38  O7  UNL     1      -6.569  48.095 -26.108  1.00  0.00    -0.388 OA
HETATM   39  H50 UNL     1      -6.161  47.411 -26.678  1.00  0.00     0.210 HD
ENDBRANCH  30  38
ENDBRANCH  24  25
ENDBRANCH  20  24
BRANCH   1  40
HETATM   40  C7  UNL     1       0.836  52.273 -21.304  1.00  0.00    -0.010 C 
HETATM   41  C8  UNL     1       1.384  53.508 -20.577  1.00  0.00     0.010 C 
BRANCH  40  42
HETATM   42  C6  UNL     1       0.142  52.717 -22.621  1.00  0.00     0.031 C 
BRANCH  42  43
HETATM   43  C5  UNL     1       0.490  51.892 -23.833  1.00  0.00    -0.026 C 
HETATM   44  C4  UNL     1       0.786  52.421 -25.030  1.00  0.00     0.002 C 
BRANCH  44  45
HETATM   45  C2  UNL     1       1.139  51.677 -26.232  1.00  0.00    -0.072 C 
HETATM   46  C1  UNL     1       0.174  51.119 -26.979  1.00  0.00     0.018 C 
HETATM   47  C3  UNL     1       2.587  51.543 -26.620  1.00  0.00     0.047 C 
ENDBRANCH  44  45
ENDBRANCH  42  43
ENDBRANCH  40  42
ENDBRANCH   1  40
TORSDOF 11
ENDMDL
MODEL 7
REMARK minimizedAffinity -8.69409847
REMARK CNNscore 0.392508447
REMARK CNNaffinity 6.96900558
REMARK  11 active torsions:
REMARK  status: ('A' for Active; 'I' for Inactive)
REMARK    1  A    between atoms: C2_2  and  C4_4 
REMARK    2  A    between atoms: C5_5  and  C6_6 
REMARK    3  A    between atoms: C6_6  and  C7_7 
REMARK    4  A    between atoms: C7_7  and  C9_9 
REMARK    5  A    between atoms: C27_28  and  O2_29 
REMARK    6  A    between atoms: O2_29  and  C28_30 
REMARK    7  A    between atoms: C29_32  and  C30_33 
REMARK    8  A    between atoms: C30_33  and  O4_34 
REMARK    9  A    between atoms: C31_35  and  O5_36 
REMARK   10  A    between atoms: C32_37  and  O6_38 
REMARK   11  A    between atoms: C33_39  and  O7_40 
ROOT
HETATM    1  C9  UNL     1      -2.983  49.200 -20.551  1.00  0.00    -0.002 C 
HETATM    2  C10 UNL     1      -3.852  50.485 -20.367  1.00  0.00     0.006 C 
HETATM    3  C11 UNL     1      -5.335  50.054 -20.398  1.00  0.00     0.011 C 
HETATM    4  C12 UNL     1      -5.295  48.529 -20.231  1.00  0.00    -0.029 C 
HETATM    5  C13 UNL     1      -5.076  48.286 -18.681  1.00  0.00     0.016 C 
HETATM    6  C14 UNL     1      -6.583  47.705 -20.581  1.00  0.00     0.028 C 
HETATM    7  C15 UNL     1      -7.822  48.397 -21.101  1.00  0.00    -0.021 C 
HETATM    8  C16 UNL     1      -8.823  47.656 -21.618  1.00  0.00     0.008 C 
HETATM    9  C17 UNL     1      -8.652  46.153 -21.863  1.00  0.00     0.092 C 
HETATM   10  O1  UNL     1      -8.565  45.528 -20.557  1.00  0.00    -0.374 OA
HETATM   11  C18 UNL     1      -7.163  45.288 -20.275  1.00  0.00     0.179 C 
HETATM   12  C19 UNL     1      -6.363  46.261 -21.194  1.00  0.00    -0.004 C 
HETATM   13  C20 UNL     1      -4.901  45.775 -21.370  1.00  0.00     0.014 C 
HETATM   14  C21 UNL     1      -3.752  46.674 -20.869  1.00  0.00     0.011 C 
HETATM   15  C22 UNL     1      -4.032  48.165 -21.093  1.00  0.00    -0.032 C 
HETATM   16  C23 UNL     1      -4.182  48.416 -22.612  1.00  0.00     0.016 C 
HETATM   17  C24 UNL     1      -7.243  45.974 -22.453  1.00  0.00     0.036 C 
HETATM   18  C25 UNL     1      -7.098  46.745 -23.775  1.00  0.00     0.011 C 
HETATM   19  C26 UNL     1      -8.377  46.678 -24.626  1.00  0.00     0.033 C 
HETATM   20  C27 UNL     1      -9.258  45.473 -24.282  1.00  0.00     0.136 C 
HETATM   21  C34 UNL     1      -9.722  45.449 -22.777  1.00  0.00     0.014 C 
HETATM   22  C35 UNL     1     -11.129  46.068 -22.601  1.00  0.00     0.021 C 
HETATM   23  C36 UNL     1      -9.877  43.955 -22.373  1.00  0.00     0.021 C 
ENDROOT
BRANCH  20  24
HETATM   24  O2  UNL     1     -10.393  45.493 -25.152  1.00  0.00    -0.352 OA
BRANCH  24  25
HETATM   25  C28 UNL     1     -10.202  46.291 -26.326  1.00  0.00     0.292 C 
HETATM   26  O3  UNL     1      -9.013  45.876 -27.002  1.00  0.00    -0.348 OA
HETATM   27  C29 UNL     1      -8.870  46.503 -28.295  1.00  0.00     0.179 C 
HETATM   28  C31 UNL     1      -9.249  48.002 -28.267  1.00  0.00     0.180 C 
HETATM   29  C32 UNL     1      -9.159  48.552 -26.837  1.00  0.00     0.183 C 
HETATM   30  C33 UNL     1     -10.078  47.767 -25.886  1.00  0.00     0.204 C 
BRANCH  27  31
HETATM   31  C30 UNL     1      -7.412  46.300 -28.736  1.00  0.00     0.198 C 
BRANCH  31  32
HETATM   32  O4  UNL     1      -7.062  44.915 -28.718  1.00  0.00    -0.398 OA
HETATM   33  H44 UNL     1      -6.277  44.814 -29.292  1.00  0.00     0.209 HD
ENDBRANCH  31  32
ENDBRANCH  27  31
BRANCH  28  34
HETATM   34  O5  UNL     1     -10.602  48.136 -28.745  1.00  0.00    -0.390 OA
HETATM   35  H46 UNL     1     -10.995  48.897 -28.268  1.00  0.00     0.210 HD
ENDBRANCH  28  34
BRANCH  29  36
HETATM   36  O6  UNL     1      -9.553  49.941 -26.813  1.00  0.00    -0.390 OA
HETATM   37  H48 UNL     1      -8.799  50.446 -27.173  1.00  0.00     0.210 HD
ENDBRANCH  29  36
BRANCH  30  38
HETATM   38  O7  UNL     1     -11.378  48.391 -25.851  1.00  0.00    -0.388 OA
HETATM   39  H50 UNL     1     -11.197  49.351 -25.789  1.00  0.00     0.210 HD
ENDBRANCH  30  38
ENDBRANCH  24  25
ENDBRANCH  20  24
BRANCH   1  40
HETATM   40  C7  UNL     1      -1.681  49.495 -21.356  1.00  0.00    -0.010 C 
HETATM   41  C8  UNL     1      -0.420  49.377 -20.491  1.00  0.00     0.010 C 
BRANCH  40  42
HETATM   42  C6  UNL     1      -1.695  50.881 -22.058  1.00  0.00     0.031 C 
BRANCH  42  43
HETATM   43  C5  UNL     1      -0.903  51.956 -21.360  1.00  0.00    -0.026 C 
HETATM   44  C4  UNL     1       0.261  52.438 -21.824  1.00  0.00     0.002 C 
BRANCH  44  45
HETATM   45  C2  UNL     1       1.066  53.481 -21.201  1.00  0.00    -0.072 C 
HETATM   46  C1  UNL     1       1.507  54.514 -21.937  1.00  0.00     0.018 C 
HETATM   47  C3  UNL     1       1.393  53.386 -19.735  1.00  0.00     0.047 C 
ENDBRANCH  44  45
ENDBRANCH  42  43
ENDBRANCH  40  42
ENDBRANCH   1  40
TORSDOF 11
ENDMDL
MODEL 8
REMARK minimizedAffinity -8.47850513
REMARK CNNscore 0.391943991
REMARK CNNaffinity 7.10538483
REMARK  11 active torsions:
REMARK  status: ('A' for Active; 'I' for Inactive)
REMARK    1  A    between atoms: C2_2  and  C4_4 
REMARK    2  A    between atoms: C5_5  and  C6_6 
REMARK    3  A    between atoms: C6_6  and  C7_7 
REMARK    4  A    between atoms: C7_7  and  C9_9 
REMARK    5  A    between atoms: C27_28  and  O2_29 
REMARK    6  A    between atoms: O2_29  and  C28_30 
REMARK    7  A    between atoms: C29_32  and  C30_33 
REMARK    8  A    between atoms: C30_33  and  O4_34 
REMARK    9  A    between atoms: C31_35  and  O5_36 
REMARK   10  A    between atoms: C32_37  and  O6_38 
REMARK   11  A    between atoms: C33_39  and  O7_40 
ROOT
HETATM    1  C9  UNL     1      -3.587  50.616 -24.822  1.00  0.00    -0.002 C 
HETATM    2  C10 UNL     1      -4.862  51.426 -24.424  1.00  0.00     0.006 C 
HETATM    3  C11 UNL     1      -5.191  51.085 -22.953  1.00  0.00     0.011 C 
HETATM    4  C12 UNL     1      -3.925  50.394 -22.428  1.00  0.00    -0.029 C 
HETATM    5  C13 UNL     1      -2.911  51.569 -22.111  1.00  0.00     0.016 C 
HETATM    6  C14 UNL     1      -4.019  49.582 -21.089  1.00  0.00     0.028 C 
HETATM    7  C15 UNL     1      -5.334  49.460 -20.353  1.00  0.00    -0.021 C 
HETATM    8  C16 UNL     1      -5.445  48.569 -19.347  1.00  0.00     0.008 C 
HETATM    9  C17 UNL     1      -4.335  47.552 -19.061  1.00  0.00     0.092 C 
HETATM   10  O1  UNL     1      -3.200  48.307 -18.564  1.00  0.00    -0.374 OA
HETATM   11  C18 UNL     1      -2.274  48.487 -19.665  1.00  0.00     0.179 C 
HETATM   12  C19 UNL     1      -3.106  48.293 -20.970  1.00  0.00    -0.004 C 
HETATM   13  C20 UNL     1      -2.182  47.959 -22.169  1.00  0.00     0.014 C 
HETATM   14  C21 UNL     1      -2.136  48.930 -23.366  1.00  0.00     0.011 C 
HETATM   15  C22 UNL     1      -3.506  49.543 -23.680  1.00  0.00    -0.032 C 
HETATM   16  C23 UNL     1      -4.482  48.402 -24.053  1.00  0.00     0.016 C 
HETATM   17  C24 UNL     1      -3.865  47.036 -20.431  1.00  0.00     0.036 C 
HETATM   18  C25 UNL     1      -5.017  46.361 -21.190  1.00  0.00     0.011 C 
HETATM   19  C26 UNL     1      -5.924  45.544 -20.254  1.00  0.00     0.033 C 
HETATM   20  C27 UNL     1      -5.221  45.126 -18.959  1.00  0.00     0.136 C 
HETATM   21  C34 UNL     1      -4.692  46.347 -18.115  1.00  0.00     0.014 C 
HETATM   22  C35 UNL     1      -5.695  46.756 -17.010  1.00  0.00     0.021 C 
HETATM   23  C36 UNL     1      -3.423  45.860 -17.358  1.00  0.00     0.021 C 
ENDROOT
BRANCH  20  24
HETATM   24  O2  UNL     1      -6.141  44.350 -18.187  1.00  0.00    -0.352 OA
BRANCH  24  25
HETATM   25  C28 UNL     1      -5.655  43.042 -17.861  1.00  0.00     0.292 C 
HETATM   26  O3  UNL     1      -5.082  43.054 -16.553  1.00  0.00    -0.348 OA
HETATM   27  C29 UNL     1      -4.755  41.727 -16.085  1.00  0.00     0.179 C 
HETATM   28  C31 UNL     1      -4.117  40.854 -17.190  1.00  0.00     0.180 C 
HETATM   29  C32 UNL     1      -3.517  41.737 -18.293  1.00  0.00     0.183 C 
HETATM   30  C33 UNL     1      -4.587  42.653 -18.909  1.00  0.00     0.204 C 
BRANCH  27  31
HETATM   31  C30 UNL     1      -3.810  41.891 -14.884  1.00  0.00     0.198 C 
BRANCH  31  32
HETATM   32  O4  UNL     1      -4.000  43.160 -14.255  1.00  0.00    -0.398 OA
HETATM   33  H44 UNL     1      -3.635  43.086 -13.351  1.00  0.00     0.209 HD
ENDBRANCH  31  32
ENDBRANCH  27  31
BRANCH  28  34
HETATM   34  O5  UNL     1      -5.146  40.018 -17.757  1.00  0.00    -0.390 OA
HETATM   35  H46 UNL     1      -4.916  39.889 -18.701  1.00  0.00     0.210 HD
ENDBRANCH  28  34
BRANCH  29  36
HETATM   36  O6  UNL     1      -2.960  40.914 -19.340  1.00  0.00    -0.390 OA
HETATM   37  H48 UNL     1      -2.111  40.573 -18.999  1.00  0.00     0.210 HD
ENDBRANCH  29  36
BRANCH  30  38
HETATM   38  O7  UNL     1      -5.204  41.986 -20.029  1.00  0.00    -0.388 OA
HETATM   39  H50 UNL     1      -4.461  41.582 -20.523  1.00  0.00     0.210 HD
ENDBRANCH  30  38
ENDBRANCH  24  25
ENDBRANCH  20  24
BRANCH   1  40
HETATM   40  C7  UNL     1      -3.629  50.174 -26.317  1.00  0.00    -0.010 C 
HETATM   41  C8  UNL     1      -3.693  48.650 -26.474  1.00  0.00     0.010 C 
BRANCH  40  42
HETATM   42  C6  UNL     1      -2.442  50.728 -27.153  1.00  0.00     0.031 C 
BRANCH  42  43
HETATM   43  C5  UNL     1      -1.268  51.217 -26.345  1.00  0.00    -0.026 C 
HETATM   44  C4  UNL     1      -0.012  51.264 -26.816  1.00  0.00     0.002 C 
BRANCH  44  45
HETATM   45  C2  UNL     1       1.159  51.735 -26.087  1.00  0.00    -0.072 C 
HETATM   46  C1  UNL     1       1.003  52.503 -24.997  1.00  0.00     0.018 C 
HETATM   47  C3  UNL     1       2.533  51.355 -26.571  1.00  0.00     0.047 C 
ENDBRANCH  44  45
ENDBRANCH  42  43
ENDBRANCH  40  42
ENDBRANCH   1  40
TORSDOF 11
ENDMDL
MODEL 9
REMARK minimizedAffinity -8.48945904
REMARK CNNscore 0.384567976
REMARK CNNaffinity 7.31740999
REMARK  11 active torsions:
REMARK  status: ('A' for Active; 'I' for Inactive)
REMARK    1  A    between atoms: C2_2  and  C4_4 
REMARK    2  A    between atoms: C5_5  and  C6_6 
REMARK    3  A    between atoms: C6_6  and  C7_7 
REMARK    4  A    between atoms: C7_7  and  C9_9 
REMARK    5  A    between atoms: C27_28  and  O2_29 
REMARK    6  A    between atoms: O2_29  and  C28_30 
REMARK    7  A    between atoms: C29_32  and  C30_33 
REMARK    8  A    between atoms: C30_33  and  O4_34 
REMARK    9  A    between atoms: C31_35  and  O5_36 
REMARK   10  A    between atoms: C32_37  and  O6_38 
REMARK   11  A    between atoms: C33_39  and  O7_40 
ROOT
HETATM    1  C9  UNL     1       3.916  55.282  -7.300  1.00  0.00    -0.002 C 
HETATM    2  C10 UNL     1       3.448  56.699  -7.760  1.00  0.00     0.006 C 
HETATM    3  C11 UNL     1       1.999  56.566  -8.280  1.00  0.00     0.011 C 
HETATM    4  C12 UNL     1       1.538  55.190  -7.782  1.00  0.00    -0.029 C 
HETATM    5  C13 UNL     1       1.157  55.406  -6.259  1.00  0.00     0.016 C 
HETATM    6  C14 UNL     1       0.256  54.555  -8.423  1.00  0.00     0.028 C 
HETATM    7  C15 UNL     1      -0.488  55.270  -9.528  1.00  0.00    -0.021 C 
HETATM    8  C16 UNL     1      -1.434  54.606 -10.223  1.00  0.00     0.008 C 
HETATM    9  C17 UNL     1      -1.636  53.098 -10.045  1.00  0.00     0.092 C 
HETATM   10  O1  UNL     1      -2.167  52.906  -8.709  1.00  0.00    -0.374 OA
HETATM   11  C18 UNL     1      -1.069  52.507  -7.851  1.00  0.00     0.179 C 
HETATM   12  C19 UNL     1       0.235  52.977  -8.567  1.00  0.00    -0.004 C 
HETATM   13  C20 UNL     1       1.466  52.196  -8.039  1.00  0.00     0.014 C 
HETATM   14  C21 UNL     1       2.595  52.975  -7.335  1.00  0.00     0.011 C 
HETATM   15  C22 UNL     1       2.850  54.347  -7.972  1.00  0.00    -0.032 C 
HETATM   16  C23 UNL     1       3.286  54.135  -9.441  1.00  0.00     0.016 C 
HETATM   17  C24 UNL     1      -0.229  52.483  -9.976  1.00  0.00     0.036 C 
HETATM   18  C25 UNL     1       0.559  52.762 -11.265  1.00  0.00     0.011 C 
HETATM   19  C26 UNL     1      -0.332  52.674 -12.516  1.00  0.00     0.033 C 
HETATM   20  C27 UNL     1      -1.587  51.824 -12.294  1.00  0.00     0.136 C 
HETATM   21  C34 UNL     1      -2.504  52.357 -11.129  1.00  0.00     0.014 C 
HETATM   22  C35 UNL     1      -3.647  53.253 -11.664  1.00  0.00     0.021 C 
HETATM   23  C36 UNL     1      -3.210  51.121 -10.503  1.00  0.00     0.021 C 
ENDROOT
BRANCH  20  24
HETATM   24  O2  UNL     1      -2.318  51.785 -13.523  1.00  0.00    -0.352 OA
BRANCH  24  25
HETATM   25  C28 UNL     1      -1.673  51.021 -14.550  1.00  0.00     0.292 C 
HETATM   26  O3  UNL     1      -0.605  51.783 -15.117  1.00  0.00    -0.348 OA
HETATM   27  C29 UNL     1       0.210  51.000 -16.016  1.00  0.00     0.179 C 
HETATM   28  C31 UNL     1      -0.635  50.076 -16.922  1.00  0.00     0.180 C 
HETATM   29  C32 UNL     1      -2.077  50.593 -17.022  1.00  0.00     0.183 C 
HETATM   30  C33 UNL     1      -2.725  50.688 -15.631  1.00  0.00     0.204 C 
BRANCH  27  31
HETATM   31  C30 UNL     1       1.046  51.989 -16.844  1.00  0.00     0.198 C 
BRANCH  31  32
HETATM   32  O4  UNL     1       1.370  53.150 -16.078  1.00  0.00    -0.398 OA
HETATM   33  H44 UNL     1       2.138  53.571 -16.513  1.00  0.00     0.209 HD
ENDBRANCH  31  32
ENDBRANCH  27  31
BRANCH  28  34
HETATM   34  O5  UNL     1      -0.641  48.756 -16.343  1.00  0.00    -0.390 OA
HETATM   35  H46 UNL     1      -1.508  48.356 -16.564  1.00  0.00     0.210 HD
ENDBRANCH  28  34
BRANCH  29  36
HETATM   36  O6  UNL     1      -2.868  49.703 -17.837  1.00  0.00    -0.390 OA
HETATM   37  H48 UNL     1      -2.622  49.886 -18.764  1.00  0.00     0.210 HD
ENDBRANCH  29  36
BRANCH  30  38
HETATM   38  O7  UNL     1      -3.384  49.443 -15.322  1.00  0.00    -0.388 OA
HETATM   39  H50 UNL     1      -3.856  49.196 -16.144  1.00  0.00     0.210 HD
ENDBRANCH  30  38
ENDBRANCH  24  25
ENDBRANCH  20  24
BRANCH   1  40
HETATM   40  C7  UNL     1       5.437  55.063  -7.568  1.00  0.00    -0.010 C 
HETATM   41  C8  UNL     1       6.287  56.259  -7.124  1.00  0.00     0.010 C 
BRANCH  40  42
HETATM   42  C6  UNL     1       5.756  54.727  -9.051  1.00  0.00     0.031 C 
BRANCH  42  43
HETATM   43  C5  UNL     1       6.637  53.521  -9.255  1.00  0.00    -0.026 C 
HETATM   44  C4  UNL     1       6.310  52.287  -8.844  1.00  0.00     0.002 C 
BRANCH  44  45
HETATM   45  C2  UNL     1       7.113  51.083  -9.021  1.00  0.00    -0.072 C 
HETATM   46  C1  UNL     1       7.889  50.645  -8.016  1.00  0.00     0.018 C 
HETATM   47  C3  UNL     1       7.063  50.347 -10.333  1.00  0.00     0.047 C 
ENDBRANCH  44  45
ENDBRANCH  42  43
ENDBRANCH  40  42
ENDBRANCH   1  40
TORSDOF 11
ENDMDL
