MODEL 1
REMARK minimizedAffinity -7.15557098
REMARK CNNscore 0.502387702
REMARK CNNaffinity 6.89754725
REMARK  7 active torsions:
REMARK  status: ('A' for Active; 'I' for Inactive)
REMARK    1  A    between atoms: C3_3  and  C5_5 
REMARK    2  A    between atoms: C24_26  and  O3_27 
REMARK    3  A    between atoms: C30_35  and  O6_36 
REMARK    4  A    between atoms: C31_38  and  O8_39 
REMARK    5  A    between atoms: C32_40  and  O9_41 
REMARK    6  A    between atoms: O9_41  and  C33_42 
REMARK    7  A    between atoms: C33_42  and  C34_44 
ROOT
HETATM    1  C5  UNL     1       2.021  57.147  -1.503  1.00  0.00     0.160 C 
HETATM    2  O1  UNL     1       2.072  56.609  -2.829  1.00  0.00    -0.342 OA
HETATM    3  C6  UNL     1       1.759  57.566  -3.846  1.00  0.00     0.196 C 
HETATM    4  C7  UNL     1       1.330  56.753  -5.090  1.00  0.00     0.104 C 
HETATM    5  C8  UNL     1       1.677  57.480  -6.386  1.00  0.00     0.139 C 
HETATM    6  C9  UNL     1       3.166  57.847  -6.425  1.00  0.00     0.065 C 
HETATM    7  C10 UNL     1       3.813  57.717  -5.046  1.00  0.00     0.131 C 
HETATM    8  C11 UNL     1       5.226  58.323  -4.994  1.00  0.00     0.059 C 
HETATM    9  C12 UNL     1       6.149  57.529  -5.885  1.00  0.00    -0.022 C 
HETATM   10  C13 UNL     1       6.860  56.434  -5.543  1.00  0.00    -0.087 C 
HETATM   11  C14 UNL     1       7.003  55.932  -4.133  1.00  0.00     0.043 C 
HETATM   12  C15 UNL     1       7.527  55.603  -6.631  1.00  0.00     0.041 C 
HETATM   13  C16 UNL     1       6.900  54.211  -6.940  1.00  0.00     0.008 C 
HETATM   14  C17 UNL     1       7.444  53.118  -6.017  1.00  0.00     0.014 C 
HETATM   15  C18 UNL     1       5.386  54.205  -6.903  1.00  0.00    -0.022 C 
HETATM   16  C19 UNL     1       4.589  54.045  -7.972  1.00  0.00    -0.003 C 
HETATM   17  C20 UNL     1       3.146  54.078  -7.857  1.00  0.00     0.008 C 
HETATM   18  C21 UNL     1       2.273  53.986  -8.876  1.00  0.00    -0.019 C 
HETATM   19  C22 UNL     1       2.597  53.709 -10.318  1.00  0.00     0.206 C 
HETATM   20  O2  UNL     1       1.344  53.361 -10.949  1.00  0.00    -0.375 OA
HETATM   21  C23 UNL     1       0.462  52.995  -9.859  1.00  0.00     0.194 C 
HETATM   22  C24 UNL     1      -1.007  52.948 -10.309  1.00  0.00     0.179 C 
HETATM   23  C25 UNL     1      -1.735  54.266 -10.272  1.00  0.00    -0.056 C 
HETATM   24  C26 UNL     1      -3.127  54.280 -10.845  1.00  0.00     0.046 C 
HETATM   25  C27 UNL     1      -1.192  55.372  -9.735  1.00  0.00    -0.004 C 
HETATM   26  C28 UNL     1       0.191  55.429  -9.120  1.00  0.00     0.150 C 
HETATM   27  C29 UNL     1       0.181  56.347  -7.895  1.00  0.00     0.270 C 
HETATM   28  O4  UNL     1      -0.814  56.789  -7.337  1.00  0.00    -0.264 OA
HETATM   29  O5  UNL     1       1.457  56.638  -7.535  1.00  0.00    -0.315 OA
HETATM   30  C30 UNL     1       0.761  54.024  -8.765  1.00  0.00     0.128 C 
HETATM   31  O7  UNL     1       2.940  58.366  -4.119  1.00  0.00    -0.347 OA
HETATM   32  C31 UNL     1       0.640  58.557  -3.393  1.00  0.00     0.210 C 
HETATM   33  C32 UNL     1      -0.269  57.926  -2.328  1.00  0.00     0.172 C 
HETATM   34  C37 UNL     1       0.542  57.388  -1.118  1.00  0.00     0.047 C 
HETATM   35  C38 UNL     1       0.426  58.335   0.080  1.00  0.00     0.015 C 
ENDROOT
BRANCH  32  36
HETATM   36  O8  UNL     1       1.220  59.755  -2.837  1.00  0.00    -0.387 OA
HETATM   37  H42 UNL     1       2.096  59.838  -3.267  1.00  0.00     0.210 HD
ENDBRANCH  32  36
BRANCH   1  38
HETATM   38  C3  UNL     1       2.743  56.171  -0.572  1.00  0.00    -0.059 C 
HETATM   39  C2  UNL     1       3.517  56.608   0.443  1.00  0.00    -0.026 C 
HETATM   40  C1  UNL     1       4.282  55.805   1.446  1.00  0.00     0.036 C 
HETATM   41  C4  UNL     1       2.470  54.713  -0.844  1.00  0.00     0.046 C 
ENDBRANCH   1  38
BRANCH  33  42
HETATM   42  O9  UNL     1      -0.997  56.835  -2.937  1.00  0.00    -0.312 OA
BRANCH  42  43
HETATM   43  C33 UNL     1      -2.327  56.756  -2.646  1.00  0.00     0.262 C 
HETATM   44  O10 UNL     1      -3.091  57.712  -2.607  1.00  0.00    -0.265 OA
BRANCH  43  45
HETATM   45  C34 UNL     1      -2.714  55.319  -2.330  1.00  0.00     0.077 C 
HETATM   46  C35 UNL     1      -3.999  55.281  -1.501  1.00  0.00     0.020 C 
HETATM   47  C36 UNL     1      -2.881  54.500  -3.606  1.00  0.00     0.020 C 
ENDBRANCH  43  45
ENDBRANCH  42  43
ENDBRANCH  33  42
BRANCH  30  48
HETATM   48  O6  UNL     1       0.311  53.557  -7.497  1.00  0.00    -0.381 OA
HETATM   49  H40 UNL     1      -0.663  53.611  -7.481  1.00  0.00     0.211 HD
ENDBRANCH  30  48
BRANCH  22  50
HETATM   50  O3  UNL     1      -1.078  52.416 -11.629  1.00  0.00    -0.389 OA
HETATM   51  H34 UNL     1      -0.279  52.746 -12.086  1.00  0.00     0.210 HD
ENDBRANCH  22  50
TORSDOF 7
ENDMDL
MODEL 2
REMARK minimizedAffinity -8.08598614
REMARK CNNscore 0.485221952
REMARK CNNaffinity 7.02302933
REMARK  7 active torsions:
REMARK  status: ('A' for Active; 'I' for Inactive)
REMARK    1  A    between atoms: C3_3  and  C5_5 
REMARK    2  A    between atoms: C24_26  and  O3_27 
REMARK    3  A    between atoms: C30_35  and  O6_36 
REMARK    4  A    between atoms: C31_38  and  O8_39 
REMARK    5  A    between atoms: C32_40  and  O9_41 
REMARK    6  A    between atoms: O9_41  and  C33_42 
REMARK    7  A    between atoms: C33_42  and  C34_44 
ROOT
HETATM    1  C5  UNL     1       2.823  55.830  -2.772  1.00  0.00     0.160 C 
HETATM    2  O1  UNL     1       2.598  55.373  -4.110  1.00  0.00    -0.342 OA
HETATM    3  C6  UNL     1       2.140  56.402  -4.995  1.00  0.00     0.196 C 
HETATM    4  C7  UNL     1       1.446  55.683  -6.175  1.00  0.00     0.104 C 
HETATM    5  C8  UNL     1       1.573  56.477  -7.472  1.00  0.00     0.139 C 
HETATM    6  C9  UNL     1       3.042  56.796  -7.777  1.00  0.00     0.065 C 
HETATM    7  C10 UNL     1       3.933  56.559  -6.557  1.00  0.00     0.131 C 
HETATM    8  C11 UNL     1       5.355  57.114  -6.744  1.00  0.00     0.059 C 
HETATM    9  C12 UNL     1       6.056  56.347  -7.838  1.00  0.00    -0.022 C 
HETATM   10  C13 UNL     1       6.770  55.210  -7.700  1.00  0.00    -0.087 C 
HETATM   11  C14 UNL     1       7.156  54.616  -6.373  1.00  0.00     0.043 C 
HETATM   12  C15 UNL     1       7.181  54.426  -8.939  1.00  0.00     0.041 C 
HETATM   13  C16 UNL     1       6.446  53.078  -9.197  1.00  0.00     0.008 C 
HETATM   14  C17 UNL     1       7.106  51.912  -8.457  1.00  0.00     0.014 C 
HETATM   15  C18 UNL     1       4.967  53.120  -8.871  1.00  0.00    -0.022 C 
HETATM   16  C19 UNL     1       3.975  53.053  -9.774  1.00  0.00    -0.003 C 
HETATM   17  C20 UNL     1       2.584  53.126  -9.382  1.00  0.00     0.008 C 
HETATM   18  C21 UNL     1       1.530  53.126 -10.218  1.00  0.00    -0.019 C 
HETATM   19  C22 UNL     1       1.561  52.929 -11.708  1.00  0.00     0.206 C 
HETATM   20  O2  UNL     1       0.197  52.663 -12.105  1.00  0.00    -0.375 OA
HETATM   21  C23 UNL     1      -0.477  52.259 -10.887  1.00  0.00     0.194 C 
HETATM   22  C24 UNL     1      -2.006  52.289 -11.048  1.00  0.00     0.179 C 
HETATM   23  C25 UNL     1      -2.654  53.626 -10.800  1.00  0.00    -0.056 C 
HETATM   24  C26 UNL     1      -4.128  53.721 -11.093  1.00  0.00     0.046 C 
HETATM   25  C27 UNL     1      -1.970  54.678 -10.317  1.00  0.00    -0.004 C 
HETATM   26  C28 UNL     1      -0.495  54.650  -9.978  1.00  0.00     0.150 C 
HETATM   27  C29 UNL     1      -0.231  55.490  -8.726  1.00  0.00     0.270 C 
HETATM   28  O4  UNL     1      -1.082  55.929  -7.963  1.00  0.00    -0.264 OA
HETATM   29  O5  UNL     1       1.102  55.716  -8.602  1.00  0.00    -0.315 OA
HETATM   30  C30 UNL     1       0.069  53.208  -9.816  1.00  0.00     0.128 C 
HETATM   31  O7  UNL     1       3.281  57.178  -5.445  1.00  0.00    -0.347 OA
HETATM   32  C31 UNL     1       1.172  57.399  -4.281  1.00  0.00     0.210 C 
HETATM   33  C32 UNL     1       0.455  56.734  -3.098  1.00  0.00     0.172 C 
HETATM   34  C37 UNL     1       1.456  56.095  -2.097  1.00  0.00     0.047 C 
HETATM   35  C38 UNL     1       1.611  56.968  -0.849  1.00  0.00     0.015 C 
ENDROOT
BRANCH  32  36
HETATM   36  O8  UNL     1       1.899  58.541  -3.782  1.00  0.00    -0.387 OA
HETATM   37  H42 UNL     1       2.681  58.621  -4.367  1.00  0.00     0.210 HD
ENDBRANCH  32  36
BRANCH   1  38
HETATM   38  C3  UNL     1       3.664  54.774  -2.052  1.00  0.00    -0.059 C 
HETATM   39  C2  UNL     1       4.868  54.388  -2.528  1.00  0.00    -0.026 C 
HETATM   40  C1  UNL     1       5.819  53.387  -1.956  1.00  0.00     0.036 C 
HETATM   41  C4  UNL     1       3.074  54.261  -0.763  1.00  0.00     0.046 C 
ENDBRANCH   1  38
BRANCH  33  42
HETATM   42  O9  UNL     1      -0.423  55.707  -3.614  1.00  0.00    -0.312 OA
BRANCH  42  43
HETATM   43  C33 UNL     1      -1.756  55.871  -3.374  1.00  0.00     0.262 C 
HETATM   44  O10 UNL     1      -2.625  55.064  -3.681  1.00  0.00    -0.265 OA
BRANCH  43  45
HETATM   45  C34 UNL     1      -2.013  57.218  -2.717  1.00  0.00     0.077 C 
HETATM   46  C35 UNL     1      -1.558  57.197  -1.257  1.00  0.00     0.020 C 
HETATM   47  C36 UNL     1      -1.315  58.344  -3.473  1.00  0.00     0.020 C 
ENDBRANCH  43  45
ENDBRANCH  42  43
ENDBRANCH  33  42
BRANCH  30  48
HETATM   48  O6  UNL     1      -0.151  52.678  -8.513  1.00  0.00    -0.381 OA
HETATM   49  H40 UNL     1      -1.102  52.763  -8.307  1.00  0.00     0.211 HD
ENDBRANCH  30  48
BRANCH  22  50
HETATM   50  O3  UNL     1      -2.350  51.843 -12.357  1.00  0.00    -0.389 OA
HETATM   51  H34 UNL     1      -1.638  52.174 -12.940  1.00  0.00     0.210 HD
ENDBRANCH  22  50
TORSDOF 7
ENDMDL
MODEL 3
REMARK minimizedAffinity -7.08174467
REMARK CNNscore 0.408021837
REMARK CNNaffinity 6.18474579
REMARK  7 active torsions:
REMARK  status: ('A' for Active; 'I' for Inactive)
REMARK    1  A    between atoms: C3_3  and  C5_5 
REMARK    2  A    between atoms: C24_26  and  O3_27 
REMARK    3  A    between atoms: C30_35  and  O6_36 
REMARK    4  A    between atoms: C31_38  and  O8_39 
REMARK    5  A    between atoms: C32_40  and  O9_41 
REMARK    6  A    between atoms: O9_41  and  C33_42 
REMARK    7  A    between atoms: C33_42  and  C34_44 
ROOT
HETATM    1  C5  UNL     1     -13.710  46.099 -22.782  1.00  0.00     0.160 C 
HETATM    2  O1  UNL     1     -14.318  45.125 -23.636  1.00  0.00    -0.342 OA
HETATM    3  C6  UNL     1     -15.313  45.671 -24.508  1.00  0.00     0.196 C 
HETATM    4  C7  UNL     1     -16.214  44.488 -24.934  1.00  0.00     0.104 C 
HETATM    5  C8  UNL     1     -16.792  44.694 -26.331  1.00  0.00     0.139 C 
HETATM    6  C9  UNL     1     -15.677  44.963 -27.350  1.00  0.00     0.065 C 
HETATM    7  C10 UNL     1     -14.355  45.304 -26.660  1.00  0.00     0.131 C 
HETATM    8  C11 UNL     1     -13.293  45.832 -27.639  1.00  0.00     0.059 C 
HETATM    9  C12 UNL     1     -12.907  44.738 -28.603  1.00  0.00    -0.022 C 
HETATM   10  C13 UNL     1     -11.945  43.807 -28.428  1.00  0.00    -0.087 C 
HETATM   11  C14 UNL     1     -10.947  43.832 -27.302  1.00  0.00     0.043 C 
HETATM   12  C15 UNL     1     -11.870  42.618 -29.376  1.00  0.00     0.041 C 
HETATM   13  C16 UNL     1     -12.301  41.234 -28.808  1.00  0.00     0.008 C 
HETATM   14  C17 UNL     1     -11.148  40.518 -28.101  1.00  0.00     0.014 C 
HETATM   15  C18 UNL     1     -13.503  41.302 -27.889  1.00  0.00    -0.022 C 
HETATM   16  C19 UNL     1     -14.718  40.806 -28.169  1.00  0.00    -0.003 C 
HETATM   17  C20 UNL     1     -15.825  40.935 -27.245  1.00  0.00     0.008 C 
HETATM   18  C21 UNL     1     -17.086  40.523 -27.464  1.00  0.00    -0.019 C 
HETATM   19  C22 UNL     1     -17.585  39.740 -28.647  1.00  0.00     0.206 C 
HETATM   20  O2  UNL     1     -18.890  39.242 -28.274  1.00  0.00    -0.375 OA
HETATM   21  C23 UNL     1     -18.925  39.322 -26.828  1.00  0.00     0.194 C 
HETATM   22  C24 UNL     1     -20.356  39.177 -26.285  1.00  0.00     0.179 C 
HETATM   23  C25 UNL     1     -21.158  40.452 -26.236  1.00  0.00    -0.056 C 
HETATM   24  C26 UNL     1     -22.606  40.318 -25.850  1.00  0.00     0.046 C 
HETATM   25  C27 UNL     1     -20.614  41.654 -26.496  1.00  0.00    -0.004 C 
HETATM   26  C28 UNL     1     -19.162  41.868 -26.868  1.00  0.00     0.150 C 
HETATM   27  C29 UNL     1     -18.646  43.161 -26.230  1.00  0.00     0.270 C 
HETATM   28  O4  UNL     1     -19.215  43.812 -25.364  1.00  0.00    -0.264 OA
HETATM   29  O5  UNL     1     -17.465  43.509 -26.801  1.00  0.00    -0.315 OA
HETATM   30  C30 UNL     1     -18.252  40.659 -26.504  1.00  0.00     0.128 C 
HETATM   31  O7  UNL     1     -14.656  46.274 -25.654  1.00  0.00    -0.347 OA
HETATM   32  C31 UNL     1     -16.140  46.802 -23.817  1.00  0.00     0.210 C 
HETATM   33  C32 UNL     1     -16.163  46.627 -22.292  1.00  0.00     0.172 C 
HETATM   34  C37 UNL     1     -14.732  46.521 -21.699  1.00  0.00     0.047 C 
HETATM   35  C38 UNL     1     -14.321  47.834 -21.026  1.00  0.00     0.015 C 
ENDROOT
BRANCH  32  36
HETATM   36  O8  UNL     1     -15.573  48.096 -24.113  1.00  0.00    -0.387 OA
HETATM   37  H42 UNL     1     -15.121  47.985 -24.975  1.00  0.00     0.210 HD
ENDBRANCH  32  36
BRANCH   1  38
HETATM   38  C3  UNL     1     -12.430  45.488 -22.209  1.00  0.00    -0.059 C 
HETATM   39  C2  UNL     1     -12.472  44.496 -21.294  1.00  0.00    -0.026 C 
HETATM   40  C1  UNL     1     -11.333  43.783 -20.640  1.00  0.00     0.036 C 
HETATM   41  C4  UNL     1     -11.150  46.034 -22.788  1.00  0.00     0.046 C 
ENDBRANCH   1  38
BRANCH  33  42
HETATM   42  O9  UNL     1     -16.898  45.421 -21.982  1.00  0.00    -0.312 OA
BRANCH  42  43
HETATM   43  C33 UNL     1     -18.174  45.588 -21.531  1.00  0.00     0.262 C 
HETATM   44  O10 UNL     1     -19.177  45.512 -22.230  1.00  0.00    -0.265 OA
BRANCH  43  45
HETATM   45  C34 UNL     1     -18.172  45.928 -20.049  1.00  0.00     0.077 C 
HETATM   46  C35 UNL     1     -18.773  47.314 -19.816  1.00  0.00     0.020 C 
HETATM   47  C36 UNL     1     -18.928  44.879 -19.241  1.00  0.00     0.020 C 
ENDBRANCH  43  45
ENDBRANCH  42  43
ENDBRANCH  33  42
BRANCH  30  48
HETATM   48  O6  UNL     1     -17.819  40.690 -25.147  1.00  0.00    -0.381 OA
HETATM   49  H40 UNL     1     -18.607  40.786 -24.579  1.00  0.00     0.211 HD
ENDBRANCH  30  48
BRANCH  22  50
HETATM   50  O3  UNL     1     -21.060  38.216 -27.066  1.00  0.00    -0.389 OA
HETATM   51  H34 UNL     1     -20.730  38.331 -27.979  1.00  0.00     0.210 HD
ENDBRANCH  22  50
TORSDOF 7
ENDMDL
MODEL 4
REMARK minimizedAffinity -9.33223057
REMARK CNNscore 0.397430599
REMARK CNNaffinity 6.70865631
REMARK  7 active torsions:
REMARK  status: ('A' for Active; 'I' for Inactive)
REMARK    1  A    between atoms: C3_3  and  C5_5 
REMARK    2  A    between atoms: C24_26  and  O3_27 
REMARK    3  A    between atoms: C30_35  and  O6_36 
REMARK    4  A    between atoms: C31_38  and  O8_39 
REMARK    5  A    between atoms: C32_40  and  O9_41 
REMARK    6  A    between atoms: O9_41  and  C33_42 
REMARK    7  A    between atoms: C33_42  and  C34_44 
ROOT
HETATM    1  C5  UNL     1     -13.453  43.356 -28.448  1.00  0.00     0.160 C 
HETATM    2  O1  UNL     1     -14.566  43.350 -27.549  1.00  0.00    -0.342 OA
HETATM    3  C6  UNL     1     -15.337  44.556 -27.586  1.00  0.00     0.196 C 
HETATM    4  C7  UNL     1     -16.110  44.619 -26.248  1.00  0.00     0.104 C 
HETATM    5  C8  UNL     1     -17.445  45.342 -26.402  1.00  0.00     0.139 C 
HETATM    6  C9  UNL     1     -18.283  44.710 -27.521  1.00  0.00     0.065 C 
HETATM    7  C10 UNL     1     -17.440  43.786 -28.401  1.00  0.00     0.131 C 
HETATM    8  C11 UNL     1     -18.178  43.346 -29.677  1.00  0.00     0.059 C 
HETATM    9  C12 UNL     1     -19.359  42.485 -29.305  1.00  0.00    -0.022 C 
HETATM   10  C13 UNL     1     -19.361  41.147 -29.124  1.00  0.00    -0.087 C 
HETATM   11  C14 UNL     1     -18.201  40.252 -29.464  1.00  0.00     0.043 C 
HETATM   12  C15 UNL     1     -20.573  40.478 -28.491  1.00  0.00     0.041 C 
HETATM   13  C16 UNL     1     -20.407  39.947 -27.037  1.00  0.00     0.008 C 
HETATM   14  C17 UNL     1     -19.828  38.530 -27.004  1.00  0.00     0.014 C 
HETATM   15  C18 UNL     1     -19.585  40.857 -26.148  1.00  0.00    -0.022 C 
HETATM   16  C19 UNL     1     -20.065  41.564 -25.112  1.00  0.00    -0.003 C 
HETATM   17  C20 UNL     1     -19.216  42.434 -24.326  1.00  0.00     0.008 C 
HETATM   18  C21 UNL     1     -19.619  43.221 -23.312  1.00  0.00    -0.019 C 
HETATM   19  C22 UNL     1     -20.993  43.275 -22.704  1.00  0.00     0.206 C 
HETATM   20  O2  UNL     1     -20.850  43.987 -21.455  1.00  0.00    -0.375 OA
HETATM   21  C23 UNL     1     -19.436  43.918 -21.142  1.00  0.00     0.194 C 
HETATM   22  C24 UNL     1     -19.047  44.924 -20.046  1.00  0.00     0.179 C 
HETATM   23  C25 UNL     1     -18.731  46.315 -20.531  1.00  0.00    -0.056 C 
HETATM   24  C26 UNL     1     -18.492  47.356 -19.471  1.00  0.00     0.046 C 
HETATM   25  C27 UNL     1     -18.639  46.617 -21.838  1.00  0.00    -0.004 C 
HETATM   26  C28 UNL     1     -18.843  45.619 -22.958  1.00  0.00     0.150 C 
HETATM   27  C29 UNL     1     -17.864  45.907 -24.099  1.00  0.00     0.270 C 
HETATM   28  O4  UNL     1     -16.902  46.662 -24.046  1.00  0.00    -0.264 OA
HETATM   29  O5  UNL     1     -18.246  45.225 -25.209  1.00  0.00    -0.315 OA
HETATM   30  C30 UNL     1     -18.737  44.139 -22.487  1.00  0.00     0.128 C 
HETATM   31  O7  UNL     1     -16.243  44.501 -28.719  1.00  0.00    -0.347 OA
HETATM   32  C31 UNL     1     -14.439  45.818 -27.790  1.00  0.00     0.210 C 
HETATM   33  C32 UNL     1     -13.014  45.581 -27.270  1.00  0.00     0.172 C 
HETATM   34  C37 UNL     1     -12.370  44.315 -27.897  1.00  0.00     0.047 C 
HETATM   35  C38 UNL     1     -11.359  44.696 -28.983  1.00  0.00     0.015 C 
ENDROOT
BRANCH  32  36
HETATM   36  O8  UNL     1     -14.356  46.159 -29.189  1.00  0.00    -0.387 OA
HETATM   37  H42 UNL     1     -15.185  45.818 -29.585  1.00  0.00     0.210 HD
ENDBRANCH  32  36
BRANCH   1  38
HETATM   38  C3  UNL     1     -12.968  41.913 -28.604  1.00  0.00    -0.059 C 
HETATM   39  C2  UNL     1     -13.704  40.871 -28.160  1.00  0.00    -0.026 C 
HETATM   40  C1  UNL     1     -13.392  39.411 -28.236  1.00  0.00     0.036 C 
HETATM   41  C4  UNL     1     -11.658  41.757 -29.334  1.00  0.00     0.046 C 
ENDBRANCH   1  38
BRANCH  33  42
HETATM   42  O9  UNL     1     -13.071  45.425 -25.834  1.00  0.00    -0.312 OA
BRANCH  42  43
HETATM   43  C33 UNL     1     -12.665  46.494 -25.090  1.00  0.00     0.262 C 
HETATM   44  O10 UNL     1     -12.361  47.588 -25.549  1.00  0.00    -0.265 OA
BRANCH  43  45
HETATM   45  C34 UNL     1     -12.599  46.120 -23.618  1.00  0.00     0.077 C 
HETATM   46  C35 UNL     1     -11.206  46.403 -23.055  1.00  0.00     0.020 C 
HETATM   47  C36 UNL     1     -13.658  46.864 -22.811  1.00  0.00     0.020 C 
ENDBRANCH  43  45
ENDBRANCH  42  43
ENDBRANCH  33  42
BRANCH  30  48
HETATM   48  O6  UNL     1     -17.391  43.676 -22.438  1.00  0.00    -0.381 OA
HETATM   49  H40 UNL     1     -16.873  44.307 -21.903  1.00  0.00     0.211 HD
ENDBRANCH  30  48
BRANCH  22  50
HETATM   50  O3  UNL     1     -20.093  44.995 -19.081  1.00  0.00    -0.389 OA
HETATM   51  H34 UNL     1     -20.923  44.890 -19.589  1.00  0.00     0.210 HD
ENDBRANCH  22  50
TORSDOF 7
ENDMDL
MODEL 5
REMARK minimizedAffinity -6.76062584
REMARK CNNscore 0.303197742
REMARK CNNaffinity 6.15449381
REMARK  7 active torsions:
REMARK  status: ('A' for Active; 'I' for Inactive)
REMARK    1  A    between atoms: C3_3  and  C5_5 
REMARK    2  A    between atoms: C24_26  and  O3_27 
REMARK    3  A    between atoms: C30_35  and  O6_36 
REMARK    4  A    between atoms: C31_38  and  O8_39 
REMARK    5  A    between atoms: C32_40  and  O9_41 
REMARK    6  A    between atoms: O9_41  and  C33_42 
REMARK    7  A    between atoms: C33_42  and  C34_44 
ROOT
HETATM    1  C5  UNL     1       0.388  54.827  -8.617  1.00  0.00     0.160 C 
HETATM    2  O1  UNL     1       1.468  53.940  -8.306  1.00  0.00    -0.342 OA
HETATM    3  C6  UNL     1       2.129  53.419  -9.464  1.00  0.00     0.196 C 
HETATM    4  C7  UNL     1       2.850  52.128  -9.007  1.00  0.00     0.104 C 
HETATM    5  C8  UNL     1       4.120  51.877  -9.815  1.00  0.00     0.139 C 
HETATM    6  C9  UNL     1       5.047  53.099  -9.771  1.00  0.00     0.065 C 
HETATM    7  C10 UNL     1       4.318  54.338  -9.251  1.00  0.00     0.131 C 
HETATM    8  C11 UNL     1       5.133  55.629  -9.440  1.00  0.00     0.059 C 
HETATM    9  C12 UNL     1       6.373  55.573  -8.584  1.00  0.00    -0.022 C 
HETATM   10  C13 UNL     1       6.487  55.968  -7.298  1.00  0.00    -0.087 C 
HETATM   11  C14 UNL     1       5.422  56.727  -6.555  1.00  0.00     0.043 C 
HETATM   12  C15 UNL     1       7.732  55.593  -6.506  1.00  0.00     0.041 C 
HETATM   13  C16 UNL     1       7.566  54.508  -5.401  1.00  0.00     0.008 C 
HETATM   14  C17 UNL     1       7.114  55.109  -4.068  1.00  0.00     0.014 C 
HETATM   15  C18 UNL     1       6.638  53.378  -5.795  1.00  0.00    -0.022 C 
HETATM   16  C19 UNL     1       7.020  52.112  -6.029  1.00  0.00    -0.003 C 
HETATM   17  C20 UNL     1       6.072  51.092  -6.427  1.00  0.00     0.008 C 
HETATM   18  C21 UNL     1       6.371  49.818  -6.738  1.00  0.00    -0.019 C 
HETATM   19  C22 UNL     1       7.714  49.153  -6.621  1.00  0.00     0.206 C 
HETATM   20  O2  UNL     1       7.468  47.733  -6.728  1.00  0.00    -0.375 OA
HETATM   21  C23 UNL     1       6.056  47.573  -6.440  1.00  0.00     0.194 C 
HETATM   22  C24 UNL     1       5.545  46.186  -6.861  1.00  0.00     0.179 C 
HETATM   23  C25 UNL     1       5.123  46.065  -8.302  1.00  0.00    -0.056 C 
HETATM   24  C26 UNL     1       4.758  44.685  -8.780  1.00  0.00     0.046 C 
HETATM   25  C27 UNL     1       5.048  47.129  -9.121  1.00  0.00    -0.004 C 
HETATM   26  C28 UNL     1       5.376  48.547  -8.705  1.00  0.00     0.150 C 
HETATM   27  C29 UNL     1       4.412  49.526  -9.382  1.00  0.00     0.270 C 
HETATM   28  O4  UNL     1       3.386  49.227  -9.978  1.00  0.00    -0.264 OA
HETATM   29  O5  UNL     1       4.889  50.791  -9.259  1.00  0.00    -0.315 OA
HETATM   30  C30 UNL     1       5.385  48.746  -7.161  1.00  0.00     0.128 C 
HETATM   31  O7  UNL     1       3.074  54.407  -9.952  1.00  0.00    -0.347 OA
HETATM   32  C31 UNL     1       1.131  53.136 -10.631  1.00  0.00     0.210 C 
HETATM   33  C32 UNL     1      -0.284  52.859 -10.104  1.00  0.00     0.172 C 
HETATM   34  C37 UNL     1      -0.793  53.999  -9.180  1.00  0.00     0.047 C 
HETATM   35  C38 UNL     1      -1.797  54.891  -9.916  1.00  0.00     0.015 C 
ENDROOT
BRANCH  32  36
HETATM   36  O8  UNL     1       1.064  54.267 -11.525  1.00  0.00    -0.387 OA
HETATM   37  H42 UNL     1       1.932  54.712 -11.438  1.00  0.00     0.210 HD
ENDBRANCH  32  36
BRANCH   1  38
HETATM   38  C3  UNL     1       0.038  55.603  -7.346  1.00  0.00    -0.059 C 
HETATM   39  C2  UNL     1      -0.110  54.979  -6.158  1.00  0.00    -0.026 C 
HETATM   40  C1  UNL     1      -0.439  55.574  -4.827  1.00  0.00     0.036 C 
HETATM   41  C4  UNL     1      -0.064  57.097  -7.521  1.00  0.00     0.046 C 
ENDBRANCH   1  38
BRANCH  33  42
HETATM   42  O9  UNL     1      -0.260  51.619  -9.360  1.00  0.00    -0.312 OA
BRANCH  42  43
HETATM   43  C33 UNL     1      -1.466  51.023  -9.134  1.00  0.00     0.262 C 
HETATM   44  O10 UNL     1      -1.816  50.540  -8.064  1.00  0.00    -0.265 OA
BRANCH  43  45
HETATM   45  C34 UNL     1      -2.292  51.001 -10.411  1.00  0.00     0.077 C 
HETATM   46  C35 UNL     1      -2.267  49.607 -11.040  1.00  0.00     0.020 C 
HETATM   47  C36 UNL     1      -3.728  51.437 -10.146  1.00  0.00     0.020 C 
ENDBRANCH  43  45
ENDBRANCH  42  43
ENDBRANCH  33  42
BRANCH  30  48
HETATM   48  O6  UNL     1       4.084  48.985  -6.633  1.00  0.00    -0.381 OA
HETATM   49  H40 UNL     1       3.495  48.271  -6.942  1.00  0.00     0.211 HD
ENDBRANCH  30  48
BRANCH  22  50
HETATM   50  O3  UNL     1       6.548  45.211  -6.588  1.00  0.00    -0.389 OA
HETATM   51  H34 UNL     1       7.400  45.660  -6.762  1.00  0.00     0.210 HD
ENDBRANCH  22  50
TORSDOF 7
ENDMDL
MODEL 6
REMARK minimizedAffinity -9.46651459
REMARK CNNscore 0.301960051
REMARK CNNaffinity 6.90791464
REMARK  7 active torsions:
REMARK  status: ('A' for Active; 'I' for Inactive)
REMARK    1  A    between atoms: C3_3  and  C5_5 
REMARK    2  A    between atoms: C24_26  and  O3_27 
REMARK    3  A    between atoms: C30_35  and  O6_36 
REMARK    4  A    between atoms: C31_38  and  O8_39 
REMARK    5  A    between atoms: C32_40  and  O9_41 
REMARK    6  A    between atoms: O9_41  and  C33_42 
REMARK    7  A    between atoms: C33_42  and  C34_44 
ROOT
HETATM    1  C5  UNL     1      -2.710  45.683 -15.688  1.00  0.00     0.160 C 
HETATM    2  O1  UNL     1      -2.182  46.849 -16.331  1.00  0.00    -0.342 OA
HETATM    3  C6  UNL     1      -3.184  47.811 -16.679  1.00  0.00     0.196 C 
HETATM    4  C7  UNL     1      -2.571  48.690 -17.795  1.00  0.00     0.104 C 
HETATM    5  C8  UNL     1      -3.121  50.113 -17.757  1.00  0.00     0.139 C 
HETATM    6  C9  UNL     1      -2.933  50.734 -16.367  1.00  0.00     0.065 C 
HETATM    7  C10 UNL     1      -2.587  49.675 -15.320  1.00  0.00     0.131 C 
HETATM    8  C11 UNL     1      -2.650  50.219 -13.883  1.00  0.00     0.059 C 
HETATM    9  C12 UNL     1      -1.576  51.259 -13.689  1.00  0.00    -0.022 C 
HETATM   10  C13 UNL     1      -0.301  51.044 -13.301  1.00  0.00    -0.087 C 
HETATM   11  C14 UNL     1       0.213  49.723 -12.799  1.00  0.00     0.043 C 
HETATM   12  C15 UNL     1       0.718  52.170 -13.417  1.00  0.00     0.041 C 
HETATM   13  C16 UNL     1       1.797  52.033 -14.532  1.00  0.00     0.008 C 
HETATM   14  C17 UNL     1       3.008  51.222 -14.064  1.00  0.00     0.014 C 
HETATM   15  C18 UNL     1       1.263  51.457 -15.826  1.00  0.00    -0.022 C 
HETATM   16  C19 UNL     1       1.134  52.134 -16.978  1.00  0.00    -0.003 C 
HETATM   17  C20 UNL     1       0.589  51.517 -18.168  1.00  0.00     0.008 C 
HETATM   18  C21 UNL     1       0.369  52.131 -19.344  1.00  0.00    -0.019 C 
HETATM   19  C22 UNL     1       0.750  53.538 -19.710  1.00  0.00     0.206 C 
HETATM   20  O2  UNL     1       0.631  53.623 -21.148  1.00  0.00    -0.375 OA
HETATM   21  C23 UNL     1       0.654  52.249 -21.610  1.00  0.00     0.194 C 
HETATM   22  C24 UNL     1       0.177  52.132 -23.066  1.00  0.00     0.179 C 
HETATM   23  C25 UNL     1      -1.315  52.022 -23.249  1.00  0.00    -0.056 C 
HETATM   24  C26 UNL     1      -1.821  52.054 -24.666  1.00  0.00     0.046 C 
HETATM   25  C27 UNL     1      -2.157  51.878 -22.211  1.00  0.00    -0.004 C 
HETATM   26  C28 UNL     1      -1.720  51.814 -20.763  1.00  0.00     0.150 C 
HETATM   27  C29 UNL     1      -2.588  50.810 -19.999  1.00  0.00     0.270 C 
HETATM   28  O4  UNL     1      -3.358  50.001 -20.499  1.00  0.00    -0.264 OA
HETATM   29  O5  UNL     1      -2.407  50.976 -18.664  1.00  0.00    -0.315 OA
HETATM   30  C30 UNL     1      -0.207  51.492 -20.594  1.00  0.00     0.128 C 
HETATM   31  O7  UNL     1      -3.509  48.598 -15.504  1.00  0.00    -0.347 OA
HETATM   32  C31 UNL     1      -4.511  47.131 -17.147  1.00  0.00     0.210 C 
HETATM   33  C32 UNL     1      -4.250  45.734 -17.728  1.00  0.00     0.172 C 
HETATM   34  C37 UNL     1      -3.464  44.832 -16.738  1.00  0.00     0.047 C 
HETATM   35  C38 UNL     1      -4.395  43.817 -16.067  1.00  0.00     0.015 C 
ENDROOT
BRANCH  32  36
HETATM   36  O8  UNL     1      -5.426  46.995 -16.041  1.00  0.00    -0.387 OA
HETATM   37  H42 UNL     1      -5.189  47.717 -15.423  1.00  0.00     0.210 HD
ENDBRANCH  32  36
BRANCH   1  38
HETATM   38  C3  UNL     1      -1.545  44.944 -15.026  1.00  0.00    -0.059 C 
HETATM   39  C2  UNL     1      -1.164  43.716 -15.439  1.00  0.00    -0.026 C 
HETATM   40  C1  UNL     1      -0.055  42.861 -14.919  1.00  0.00     0.036 C 
HETATM   41  C4  UNL     1      -0.837  45.716 -13.942  1.00  0.00     0.046 C 
ENDBRANCH   1  38
BRANCH  33  42
HETATM   42  O9  UNL     1      -3.487  45.881 -18.947  1.00  0.00    -0.312 OA
BRANCH  42  43
HETATM   43  C33 UNL     1      -4.177  45.743 -20.116  1.00  0.00     0.262 C 
HETATM   44  O10 UNL     1      -4.823  44.751 -20.431  1.00  0.00    -0.265 OA
BRANCH  43  45
HETATM   45  C34 UNL     1      -3.990  46.974 -20.989  1.00  0.00     0.077 C 
HETATM   46  C35 UNL     1      -2.606  46.964 -21.639  1.00  0.00     0.020 C 
HETATM   47  C36 UNL     1      -5.077  47.064 -22.055  1.00  0.00     0.020 C 
ENDBRANCH  43  45
ENDBRANCH  42  43
ENDBRANCH  33  42
BRANCH  30  48
HETATM   48  O6  UNL     1       0.064  50.094 -20.646  1.00  0.00    -0.381 OA
HETATM   49  H40 UNL     1      -0.334  49.739 -21.463  1.00  0.00     0.211 HD
ENDBRANCH  30  48
BRANCH  22  50
HETATM   50  O3  UNL     1       0.655  53.249 -23.810  1.00  0.00    -0.389 OA
HETATM   51  H34 UNL     1       0.632  54.004 -23.188  1.00  0.00     0.210 HD
ENDBRANCH  22  50
TORSDOF 7
ENDMDL
MODEL 7
REMARK minimizedAffinity -8.6459322
REMARK CNNscore 0.264468014
REMARK CNNaffinity 6.69700384
REMARK  7 active torsions:
REMARK  status: ('A' for Active; 'I' for Inactive)
REMARK    1  A    between atoms: C3_3  and  C5_5 
REMARK    2  A    between atoms: C24_26  and  O3_27 
REMARK    3  A    between atoms: C30_35  and  O6_36 
REMARK    4  A    between atoms: C31_38  and  O8_39 
REMARK    5  A    between atoms: C32_40  and  O9_41 
REMARK    6  A    between atoms: O9_41  and  C33_42 
REMARK    7  A    between atoms: C33_42  and  C34_44 
ROOT
HETATM    1  C5  UNL     1      -9.366  43.903 -23.770  1.00  0.00     0.160 C 
HETATM    2  O1  UNL     1      -8.749  44.632 -24.836  1.00  0.00    -0.342 OA
HETATM    3  C6  UNL     1      -9.622  45.581 -25.458  1.00  0.00     0.196 C 
HETATM    4  C7  UNL     1      -9.030  45.862 -26.859  1.00  0.00     0.104 C 
HETATM    5  C8  UNL     1      -9.337  47.281 -27.326  1.00  0.00     0.139 C 
HETATM    6  C9  UNL     1      -8.872  48.311 -26.289  1.00  0.00     0.065 C 
HETATM    7  C10 UNL     1      -8.564  47.653 -24.943  1.00  0.00     0.131 C 
HETATM    8  C11 UNL     1      -8.351  48.678 -23.816  1.00  0.00     0.059 C 
HETATM    9  C12 UNL     1      -7.109  49.486 -24.098  1.00  0.00    -0.022 C 
HETATM   10  C13 UNL     1      -5.844  49.179 -23.738  1.00  0.00    -0.087 C 
HETATM   11  C14 UNL     1      -5.486  48.053 -22.808  1.00  0.00     0.043 C 
HETATM   12  C15 UNL     1      -4.683  49.965 -24.334  1.00  0.00     0.041 C 
HETATM   13  C16 UNL     1      -3.796  49.228 -25.380  1.00  0.00     0.008 C 
HETATM   14  C17 UNL     1      -2.678  48.418 -24.718  1.00  0.00     0.014 C 
HETATM   15  C18 UNL     1      -4.580  48.341 -26.325  1.00  0.00    -0.022 C 
HETATM   16  C19 UNL     1      -4.750  48.571 -27.637  1.00  0.00    -0.003 C 
HETATM   17  C20 UNL     1      -5.537  47.687 -28.469  1.00  0.00     0.008 C 
HETATM   18  C21 UNL     1      -5.810  47.868 -29.774  1.00  0.00    -0.019 C 
HETATM   19  C22 UNL     1      -5.262  48.946 -30.667  1.00  0.00     0.206 C 
HETATM   20  O2  UNL     1      -5.553  48.530 -32.020  1.00  0.00    -0.375 OA
HETATM   21  C23 UNL     1      -5.809  47.106 -31.929  1.00  0.00     0.194 C 
HETATM   22  C24 UNL     1      -6.486  46.569 -33.201  1.00  0.00     0.179 C 
HETATM   23  C25 UNL     1      -7.987  46.696 -33.235  1.00  0.00    -0.056 C 
HETATM   24  C26 UNL     1      -8.663  46.315 -34.525  1.00  0.00     0.046 C 
HETATM   25  C27 UNL     1      -8.698  47.103 -32.169  1.00  0.00    -0.004 C 
HETATM   26  C28 UNL     1      -8.090  47.479 -30.834  1.00  0.00     0.150 C 
HETATM   27  C29 UNL     1      -8.998  47.007 -29.695  1.00  0.00     0.270 C 
HETATM   28  O4  UNL     1      -9.946  46.241 -29.803  1.00  0.00    -0.264 OA
HETATM   29  O5  UNL     1      -8.620  47.603 -28.535  1.00  0.00    -0.315 OA
HETATM   30  C30 UNL     1      -6.638  46.949 -30.651  1.00  0.00     0.128 C 
HETATM   31  O7  UNL     1      -9.661  46.786 -24.649  1.00  0.00    -0.347 OA
HETATM   32  C31 UNL     1     -11.090  45.053 -25.551  1.00  0.00     0.210 C 
HETATM   33  C32 UNL     1     -11.133  43.519 -25.576  1.00  0.00     0.172 C 
HETATM   34  C37 UNL     1     -10.377  42.897 -24.370  1.00  0.00     0.047 C 
HETATM   35  C38 UNL     1     -11.361  42.395 -23.310  1.00  0.00     0.015 C 
ENDROOT
BRANCH  32  36
HETATM   36  O8  UNL     1     -11.862  45.506 -24.420  1.00  0.00    -0.387 OA
HETATM   37  H42 UNL     1     -11.434  46.340 -24.137  1.00  0.00     0.210 HD
ENDBRANCH  32  36
BRANCH   1  38
HETATM   38  C3  UNL     1      -8.256  43.238 -22.952  1.00  0.00    -0.059 C 
HETATM   39  C2  UNL     1      -7.963  43.648 -21.700  1.00  0.00    -0.026 C 
HETATM   40  C1  UNL     1      -6.928  43.114 -20.763  1.00  0.00     0.036 C 
HETATM   41  C4  UNL     1      -7.579  42.074 -23.629  1.00  0.00     0.046 C 
ENDBRANCH   1  38
BRANCH  33  42
HETATM   42  O9  UNL     1     -10.522  43.065 -26.807  1.00  0.00    -0.312 OA
BRANCH  42  43
HETATM   43  C33 UNL     1     -11.014  41.908 -27.337  1.00  0.00     0.262 C 
HETATM   44  O10 UNL     1     -10.970  40.814 -26.786  1.00  0.00    -0.265 OA
BRANCH  43  45
HETATM   45  C34 UNL     1     -11.578  42.161 -28.726  1.00  0.00     0.077 C 
HETATM   46  C35 UNL     1     -12.664  41.136 -29.057  1.00  0.00     0.020 C 
HETATM   47  C36 UNL     1     -12.131  43.577 -28.847  1.00  0.00     0.020 C 
ENDBRANCH  43  45
ENDBRANCH  42  43
ENDBRANCH  33  42
BRANCH  30  48
HETATM   48  O6  UNL     1      -6.602  45.602 -30.189  1.00  0.00    -0.381 OA
HETATM   49  H40 UNL     1      -7.155  45.062 -30.785  1.00  0.00     0.211 HD
ENDBRANCH  30  48
BRANCH  22  50
HETATM   50  O3  UNL     1      -5.939  47.227 -34.340  1.00  0.00    -0.389 OA
HETATM   51  H34 UNL     1      -5.759  48.143 -34.048  1.00  0.00     0.210 HD
ENDBRANCH  22  50
TORSDOF 7
ENDMDL
MODEL 8
REMARK minimizedAffinity -9.58084488
REMARK CNNscore 0.259882152
REMARK CNNaffinity 6.12438822
REMARK  7 active torsions:
REMARK  status: ('A' for Active; 'I' for Inactive)
REMARK    1  A    between atoms: C3_3  and  C5_5 
REMARK    2  A    between atoms: C24_26  and  O3_27 
REMARK    3  A    between atoms: C30_35  and  O6_36 
REMARK    4  A    between atoms: C31_38  and  O8_39 
REMARK    5  A    between atoms: C32_40  and  O9_41 
REMARK    6  A    between atoms: O9_41  and  C33_42 
REMARK    7  A    between atoms: C33_42  and  C34_44 
ROOT
HETATM    1  C5  UNL     1      -6.472  46.064 -30.944  1.00  0.00     0.160 C 
HETATM    2  O1  UNL     1      -7.092  45.825 -29.676  1.00  0.00    -0.342 OA
HETATM    3  C6  UNL     1      -7.919  46.906 -29.233  1.00  0.00     0.196 C 
HETATM    4  C7  UNL     1      -8.053  46.749 -27.700  1.00  0.00     0.104 C 
HETATM    5  C8  UNL     1      -9.391  47.282 -27.194  1.00  0.00     0.139 C 
HETATM    6  C9  UNL     1     -10.559  46.627 -27.944  1.00  0.00     0.065 C 
HETATM    7  C10 UNL     1     -10.083  45.908 -29.207  1.00  0.00     0.131 C 
HETATM    8  C11 UNL     1     -11.246  45.470 -30.113  1.00  0.00     0.059 C 
HETATM    9  C12 UNL     1     -12.068  44.421 -29.408  1.00  0.00    -0.022 C 
HETATM   10  C13 UNL     1     -11.863  43.086 -29.423  1.00  0.00    -0.087 C 
HETATM   11  C14 UNL     1     -10.875  42.398 -30.325  1.00  0.00     0.043 C 
HETATM   12  C15 UNL     1     -12.621  42.200 -28.443  1.00  0.00     0.041 C 
HETATM   13  C16 UNL     1     -11.802  41.584 -27.270  1.00  0.00     0.008 C 
HETATM   14  C17 UNL     1     -11.129  40.268 -27.667  1.00  0.00     0.014 C 
HETATM   15  C18 UNL     1     -10.773  42.529 -26.685  1.00  0.00    -0.022 C 
HETATM   16  C19 UNL     1     -10.835  43.074 -25.459  1.00  0.00    -0.003 C 
HETATM   17  C20 UNL     1      -9.822  43.992 -24.982  1.00  0.00     0.008 C 
HETATM   18  C21 UNL     1      -9.831  44.628 -23.797  1.00  0.00    -0.019 C 
HETATM   19  C22 UNL     1     -10.815  44.434 -22.678  1.00  0.00     0.206 C 
HETATM   20  O2  UNL     1     -10.226  45.057 -21.515  1.00  0.00    -0.375 OA
HETATM   21  C23 UNL     1      -8.814  45.168 -21.822  1.00  0.00     0.194 C 
HETATM   22  C24 UNL     1      -8.096  46.128 -20.859  1.00  0.00     0.179 C 
HETATM   23  C25 UNL     1      -8.153  47.584 -21.241  1.00  0.00    -0.056 C 
HETATM   24  C26 UNL     1      -7.589  48.560 -20.243  1.00  0.00     0.046 C 
HETATM   25  C27 UNL     1      -8.654  48.000 -22.417  1.00  0.00    -0.004 C 
HETATM   26  C28 UNL     1      -9.216  47.077 -23.476  1.00  0.00     0.150 C 
HETATM   27  C29 UNL     1      -8.846  47.594 -24.869  1.00  0.00     0.270 C 
HETATM   28  O4  UNL     1      -8.031  48.473 -25.116  1.00  0.00    -0.264 OA
HETATM   29  O5  UNL     1      -9.595  46.956 -25.805  1.00  0.00    -0.315 OA
HETATM   30  C30 UNL     1      -8.777  45.595 -23.293  1.00  0.00     0.128 C 
HETATM   31  O7  UNL     1      -9.210  46.812 -29.889  1.00  0.00    -0.347 OA
HETATM   32  C31 UNL     1      -7.320  48.297 -29.617  1.00  0.00     0.210 C 
HETATM   33  C32 UNL     1      -5.793  48.228 -29.765  1.00  0.00     0.172 C 
HETATM   34  C37 UNL     1      -5.357  47.121 -30.764  1.00  0.00     0.047 C 
HETATM   35  C38 UNL     1      -4.945  47.731 -32.107  1.00  0.00     0.015 C 
ENDROOT
BRANCH  32  36
HETATM   36  O8  UNL     1      -7.872  48.757 -30.867  1.00  0.00    -0.387 OA
HETATM   37  H42 UNL     1      -8.753  48.333 -30.929  1.00  0.00     0.210 HD
ENDBRANCH  32  36
BRANCH   1  38
HETATM   38  C3  UNL     1      -5.961  44.723 -31.476  1.00  0.00    -0.059 C 
HETATM   39  C2  UNL     1      -4.833  44.643 -32.215  1.00  0.00    -0.026 C 
HETATM   40  C1  UNL     1      -4.190  43.429 -32.803  1.00  0.00     0.036 C 
HETATM   41  C4  UNL     1      -6.772  43.523 -31.060  1.00  0.00     0.046 C 
ENDBRANCH   1  38
BRANCH  33  42
HETATM   42  O9  UNL     1      -5.221  47.950 -28.466  1.00  0.00    -0.312 OA
BRANCH  42  43
HETATM   43  C33 UNL     1      -4.207  48.768 -28.062  1.00  0.00     0.262 C 
HETATM   44  O10 UNL     1      -3.763  49.704 -28.716  1.00  0.00    -0.265 OA
BRANCH  43  45
HETATM   45  C34 UNL     1      -3.676  48.324 -26.708  1.00  0.00     0.077 C 
HETATM   46  C35 UNL     1      -2.445  49.145 -26.321  1.00  0.00     0.020 C 
HETATM   47  C36 UNL     1      -4.749  48.436 -25.631  1.00  0.00     0.020 C 
ENDBRANCH  43  45
ENDBRANCH  42  43
ENDBRANCH  33  42
BRANCH  30  48
HETATM   48  O6  UNL     1      -7.499  45.329 -23.863  1.00  0.00    -0.381 OA
HETATM   49  H40 UNL     1      -6.866  45.982 -23.509  1.00  0.00     0.211 HD
ENDBRANCH  30  48
BRANCH  22  50
HETATM   50  O3  UNL     1      -8.636  45.970 -19.549  1.00  0.00    -0.389 OA
HETATM   51  H34 UNL     1      -9.587  45.787 -19.681  1.00  0.00     0.210 HD
ENDBRANCH  22  50
TORSDOF 7
ENDMDL
MODEL 9
REMARK minimizedAffinity -6.75273132
REMARK CNNscore 0.25581634
REMARK CNNaffinity 6.30953455
REMARK  7 active torsions:
REMARK  status: ('A' for Active; 'I' for Inactive)
REMARK    1  A    between atoms: C3_3  and  C5_5 
REMARK    2  A    between atoms: C24_26  and  O3_27 
REMARK    3  A    between atoms: C30_35  and  O6_36 
REMARK    4  A    between atoms: C31_38  and  O8_39 
REMARK    5  A    between atoms: C32_40  and  O9_41 
REMARK    6  A    between atoms: O9_41  and  C33_42 
REMARK    7  A    between atoms: C33_42  and  C34_44 
ROOT
HETATM    1  C5  UNL     1       3.616  53.601  -8.907  1.00  0.00     0.160 C 
HETATM    2  O1  UNL     1       3.158  54.361  -7.783  1.00  0.00    -0.342 OA
HETATM    3  C6  UNL     1       2.737  53.551  -6.680  1.00  0.00     0.196 C 
HETATM    4  C7  UNL     1       1.804  54.437  -5.823  1.00  0.00     0.104 C 
HETATM    5  C8  UNL     1       1.870  54.062  -4.345  1.00  0.00     0.139 C 
HETATM    6  C9  UNL     1       3.318  54.093  -3.838  1.00  0.00     0.065 C 
HETATM    7  C10 UNL     1       4.318  54.135  -4.994  1.00  0.00     0.131 C 
HETATM    8  C11 UNL     1       5.767  53.903  -4.534  1.00  0.00     0.059 C 
HETATM    9  C12 UNL     1       6.207  55.047  -3.656  1.00  0.00    -0.022 C 
HETATM   10  C13 UNL     1       6.768  56.207  -4.058  1.00  0.00    -0.087 C 
HETATM   11  C14 UNL     1       7.236  56.471  -5.462  1.00  0.00     0.043 C 
HETATM   12  C15 UNL     1       6.902  57.358  -3.069  1.00  0.00     0.041 C 
HETATM   13  C16 UNL     1       5.960  58.580  -3.278  1.00  0.00     0.008 C 
HETATM   14  C17 UNL     1       6.542  59.594  -4.266  1.00  0.00     0.014 C 
HETATM   15  C18 UNL     1       4.556  58.200  -3.701  1.00  0.00    -0.022 C 
HETATM   16  C19 UNL     1       3.457  58.342  -2.944  1.00  0.00    -0.003 C 
HETATM   17  C20 UNL     1       2.151  57.929  -3.413  1.00  0.00     0.008 C 
HETATM   18  C21 UNL     1       1.008  57.978  -2.705  1.00  0.00    -0.019 C 
HETATM   19  C22 UNL     1       0.819  58.578  -1.340  1.00  0.00     0.206 C 
HETATM   20  O2  UNL     1      -0.609  58.707  -1.154  1.00  0.00    -0.375 OA
HETATM   21  C23 UNL     1      -1.169  58.641  -2.489  1.00  0.00     0.194 C 
HETATM   22  C24 UNL     1      -2.687  58.398  -2.456  1.00  0.00     0.179 C 
HETATM   23  C25 UNL     1      -3.106  56.954  -2.359  1.00  0.00    -0.056 C 
HETATM   24  C26 UNL     1      -4.577  56.693  -2.177  1.00  0.00     0.046 C 
HETATM   25  C27 UNL     1      -2.226  55.942  -2.455  1.00  0.00    -0.004 C 
HETATM   26  C28 UNL     1      -0.737  56.126  -2.662  1.00  0.00     0.150 C 
HETATM   27  C29 UNL     1      -0.199  55.033  -3.589  1.00  0.00     0.270 C 
HETATM   28  O4  UNL     1      -0.875  54.264  -4.260  1.00  0.00    -0.264 OA
HETATM   29  O5  UNL     1       1.156  55.011  -3.529  1.00  0.00    -0.315 OA
HETATM   30  C30 UNL     1      -0.363  57.543  -3.188  1.00  0.00     0.128 C 
HETATM   31  O7  UNL     1       3.907  53.134  -5.929  1.00  0.00    -0.347 OA
HETATM   32  C31 UNL     1       2.017  52.247  -7.152  1.00  0.00     0.210 C 
HETATM   33  C32 UNL     1       1.374  52.431  -8.534  1.00  0.00     0.172 C 
HETATM   34  C37 UNL     1       2.398  52.932  -9.588  1.00  0.00     0.047 C 
HETATM   35  C38 UNL     1       2.833  51.790 -10.511  1.00  0.00     0.015 C 
ENDROOT
BRANCH  32  36
HETATM   36  O8  UNL     1       2.955  51.154  -7.234  1.00  0.00    -0.387 OA
HETATM   37  H42 UNL     1       3.657  51.371  -6.587  1.00  0.00     0.210 HD
ENDBRANCH  32  36
BRANCH   1  38
HETATM   38  C3  UNL     1       4.388  54.546  -9.829  1.00  0.00    -0.059 C 
HETATM   39  C2  UNL     1       3.750  55.363 -10.694  1.00  0.00    -0.026 C 
HETATM   40  C1  UNL     1       4.338  56.347 -11.653  1.00  0.00     0.036 C 
HETATM   41  C4  UNL     1       5.885  54.531  -9.647  1.00  0.00     0.046 C 
ENDBRANCH   1  38
BRANCH  33  42
HETATM   42  O9  UNL     1       0.303  53.395  -8.414  1.00  0.00    -0.312 OA
BRANCH  42  43
HETATM   43  C33 UNL     1      -0.924  52.998  -8.858  1.00  0.00     0.262 C 
HETATM   44  O10 UNL     1      -1.654  52.205  -8.276  1.00  0.00    -0.265 OA
BRANCH  43  45
HETATM   45  C34 UNL     1      -1.234  53.640 -10.201  1.00  0.00     0.077 C 
HETATM   46  C35 UNL     1      -2.612  53.202 -10.699  1.00  0.00     0.020 C 
HETATM   47  C36 UNL     1      -1.160  55.161 -10.115  1.00  0.00     0.020 C 
ENDBRANCH  43  45
ENDBRANCH  42  43
ENDBRANCH  33  42
BRANCH  30  48
HETATM   48  O6  UNL     1      -0.484  57.650  -4.603  1.00  0.00    -0.381 OA
HETATM   49  H40 UNL     1      -1.379  57.352  -4.854  1.00  0.00     0.211 HD
ENDBRANCH  30  48
BRANCH  22  50
HETATM   50  O3  UNL     1      -3.256  59.120  -1.367  1.00  0.00    -0.389 OA
HETATM   51  H34 UNL     1      -2.586  59.086  -0.655  1.00  0.00     0.210 HD
ENDBRANCH  22  50
TORSDOF 7
ENDMDL
