MODEL 1
REMARK minimizedAffinity -8.48330879
REMARK  13 active torsions:
REMARK  status: ('A' for Active; 'I' for Inactive)
REMARK    1  A    between atoms: C4_4  and  C5_5 
REMARK    2  A    between atoms: C5_5  and  C6_6 
REMARK    3  A    between atoms: C6_6  and  C7_7 
REMARK    4  A    between atoms: C9_9  and  C10_10 
REMARK    5  A    between atoms: C11_11  and  C12_12 
REMARK    6  A    between atoms: C14_14  and  C15_15 
REMARK    7  A    between atoms: C18_18  and  O1_19 
REMARK    8  A    between atoms: C19_21  and  C20_22 
REMARK    9  A    between atoms: C20_22  and  C21_23 
REMARK   10  A    between atoms: C21_23  and  C22_24 
REMARK   11  A    between atoms: C22_24  and  O3_25 
REMARK   12  A    between atoms: C24_27  and  C26_29 
REMARK   13  A    between atoms: C29_33  and  O5_35 
ROOT
HETATM    1  C15 UNL     1      -2.912  48.864 -24.360  1.00  0.00     0.149 C 
HETATM    2  C16 UNL     1      -2.035  49.827 -25.176  1.00  0.00     0.054 C 
HETATM    3  C17 UNL     1      -1.882  51.112 -24.312  1.00  0.00     0.050 C 
HETATM    4  C18 UNL     1      -2.268  50.545 -22.938  1.00  0.00     0.270 C 
HETATM    5  O2  UNL     1      -3.294  49.588 -23.189  1.00  0.00    -0.351 OA
HETATM    6  C19 UNL     1      -0.387  51.625 -24.399  1.00  0.00     0.032 C 
HETATM    7  C23 UNL     1      -0.114  52.130 -25.831  1.00  0.00    -0.066 C 
HETATM    8  C24 UNL     1       0.850  51.663 -26.665  1.00  0.00    -0.021 C 
HETATM    9  C25 UNL     1       1.018  52.134 -28.087  1.00  0.00     0.052 C 
HETATM   10  C27 UNL     1      -1.058  53.249 -26.236  1.00  0.00     0.038 C 
HETATM   11  C28 UNL     1      -2.515  52.813 -26.155  1.00  0.00     0.042 C 
HETATM   12  C29 UNL     1      -2.905  52.229 -24.778  1.00  0.00     0.067 C 
HETATM   13  C30 UNL     1      -4.383  51.808 -24.852  1.00  0.00     0.047 C 
ENDROOT
BRANCH   4  14
HETATM   14  O1  UNL     1      -1.211  49.818 -22.332  1.00  0.00    -0.370 OA
HETATM   15  H26 UNL     1      -1.577  49.542 -21.474  1.00  0.00     0.212 HD
ENDBRANCH   4  14
BRANCH   6  16
HETATM   16  C20 UNL     1       0.099  52.723 -23.409  1.00  0.00     0.012 C 
BRANCH  16  17
HETATM   17  C21 UNL     1       0.985  52.292 -22.234  1.00  0.00     0.027 C 
BRANCH  17  18
HETATM   18  C22 UNL     1       1.048  53.283 -21.074  1.00  0.00     0.164 C 
BRANCH  18  19
HETATM   19  O3  UNL     1       1.793  54.433 -21.452  1.00  0.00    -0.401 OA
HETATM   20  H34 UNL     1       1.747  55.058 -20.707  1.00  0.00     0.209 HD
ENDBRANCH  18  19
ENDBRANCH  17  18
ENDBRANCH  16  17
ENDBRANCH   6  16
BRANCH  12  21
HETATM   21  O5  UNL     1      -2.868  53.299 -23.820  1.00  0.00    -0.389 OA
HETATM   22  H46 UNL     1      -3.487  53.994 -24.109  1.00  0.00     0.210 HD
ENDBRANCH  12  21
BRANCH   1  23
HETATM   23  C14 UNL     1      -4.090  48.327 -25.132  1.00  0.00     0.011 C 
HETATM   24  C12 UNL     1      -4.385  48.403 -26.449  1.00  0.00    -0.063 C 
HETATM   25  C13 UNL     1      -3.573  49.187 -27.448  1.00  0.00     0.048 C 
BRANCH  24  26
HETATM   26  C11 UNL     1      -5.591  47.722 -26.931  1.00  0.00     0.006 C 
HETATM   27  C10 UNL     1      -6.039  47.691 -28.198  1.00  0.00     0.001 C 
BRANCH  27  28
HETATM   28  C9  UNL     1      -7.250  46.995 -28.581  1.00  0.00     0.002 C 
HETATM   29  C7  UNL     1      -8.516  47.320 -28.245  1.00  0.00    -0.084 C 
HETATM   30  C8  UNL     1      -8.920  48.474 -27.363  1.00  0.00     0.043 C 
BRANCH  29  31
HETATM   31  C6  UNL     1      -9.671  46.460 -28.734  1.00  0.00     0.037 C 
BRANCH  31  32
HETATM   32  C5  UNL     1     -10.502  47.140 -29.827  1.00  0.00     0.031 C 
BRANCH  32  33
HETATM   33  C4  UNL     1      -9.794  47.105 -31.156  1.00  0.00    -0.024 C 
HETATM   34  C2  UNL     1      -9.009  48.059 -31.693  1.00  0.00    -0.091 C 
HETATM   35  C1  UNL     1      -8.719  49.395 -31.065  1.00  0.00     0.042 C 
HETATM   36  C3  UNL     1      -8.351  47.849 -33.032  1.00  0.00     0.042 C 
ENDBRANCH  32  33
ENDBRANCH  31  32
ENDBRANCH  29  31
ENDBRANCH  27  28
ENDBRANCH  24  26
ENDBRANCH   1  23
BRANCH   8  37
HETATM   37  C26 UNL     1       1.849  50.638 -26.228  1.00  0.00     0.265 C 
HETATM   38  O4  UNL     1       3.058  50.845 -26.220  1.00  0.00    -0.302 OA
ENDBRANCH   8  37
TORSDOF 13
ENDMDL
MODEL 2
REMARK minimizedAffinity -8.42558002
REMARK  13 active torsions:
REMARK  status: ('A' for Active; 'I' for Inactive)
REMARK    1  A    between atoms: C4_4  and  C5_5 
REMARK    2  A    between atoms: C5_5  and  C6_6 
REMARK    3  A    between atoms: C6_6  and  C7_7 
REMARK    4  A    between atoms: C9_9  and  C10_10 
REMARK    5  A    between atoms: C11_11  and  C12_12 
REMARK    6  A    between atoms: C14_14  and  C15_15 
REMARK    7  A    between atoms: C18_18  and  O1_19 
REMARK    8  A    between atoms: C19_21  and  C20_22 
REMARK    9  A    between atoms: C20_22  and  C21_23 
REMARK   10  A    between atoms: C21_23  and  C22_24 
REMARK   11  A    between atoms: C22_24  and  O3_25 
REMARK   12  A    between atoms: C24_27  and  C26_29 
REMARK   13  A    between atoms: C29_33  and  O5_35 
ROOT
HETATM    1  C15 UNL     1      -2.182  49.389 -22.812  1.00  0.00     0.149 C 
HETATM    2  C16 UNL     1      -3.567  48.967 -22.296  1.00  0.00     0.054 C 
HETATM    3  C17 UNL     1      -4.586  49.388 -23.394  1.00  0.00     0.050 C 
HETATM    4  C18 UNL     1      -3.629  49.543 -24.585  1.00  0.00     0.270 C 
HETATM    5  O2  UNL     1      -2.421  50.071 -24.044  1.00  0.00    -0.351 OA
HETATM    6  C19 UNL     1      -5.660  48.239 -23.577  1.00  0.00     0.032 C 
HETATM    7  C23 UNL     1      -6.528  48.159 -22.305  1.00  0.00    -0.066 C 
HETATM    8  C24 UNL     1      -6.678  47.064 -21.516  1.00  0.00    -0.021 C 
HETATM    9  C25 UNL     1      -7.472  47.064 -20.236  1.00  0.00     0.052 C 
HETATM   10  C27 UNL     1      -7.235  49.469 -22.007  1.00  0.00     0.038 C 
HETATM   11  C28 UNL     1      -6.246  50.615 -21.837  1.00  0.00     0.042 C 
HETATM   12  C29 UNL     1      -5.272  50.768 -23.027  1.00  0.00     0.067 C 
HETATM   13  C30 UNL     1      -4.322  51.934 -22.705  1.00  0.00     0.047 C 
ENDROOT
BRANCH   4  14
HETATM   14  O1  UNL     1      -3.273  48.298 -25.164  1.00  0.00    -0.370 OA
HETATM   15  H26 UNL     1      -2.696  48.542 -25.908  1.00  0.00     0.212 HD
ENDBRANCH   4  14
BRANCH   6  16
HETATM   16  C20 UNL     1      -6.617  48.282 -24.802  1.00  0.00     0.012 C 
BRANCH  16  17
HETATM   17  C21 UNL     1      -8.112  48.509 -24.542  1.00  0.00     0.027 C 
BRANCH  17  18
HETATM   18  C22 UNL     1      -8.967  48.687 -25.794  1.00  0.00     0.164 C 
BRANCH  18  19
HETATM   19  O3  UNL     1      -9.508  50.000 -25.835  1.00  0.00    -0.401 OA
HETATM   20  H34 UNL     1      -9.987  50.083 -26.679  1.00  0.00     0.209 HD
ENDBRANCH  18  19
ENDBRANCH  17  18
ENDBRANCH  16  17
ENDBRANCH   6  16
BRANCH  12  21
HETATM   21  O5  UNL     1      -6.033  51.207 -24.164  1.00  0.00    -0.389 OA
HETATM   22  H46 UNL     1      -6.467  52.050 -23.939  1.00  0.00     0.210 HD
ENDBRANCH  12  21
BRANCH   1  23
HETATM   23  C14 UNL     1      -1.399  50.214 -21.822  1.00  0.00     0.011 C 
HETATM   24  C12 UNL     1      -0.625  51.305 -22.008  1.00  0.00    -0.063 C 
HETATM   25  C13 UNL     1      -0.298  51.884 -23.361  1.00  0.00     0.048 C 
BRANCH  24  26
HETATM   26  C11 UNL     1      -0.026  51.941 -20.830  1.00  0.00     0.006 C 
HETATM   27  C10 UNL     1      -0.062  51.481 -19.567  1.00  0.00     0.001 C 
BRANCH  27  28
HETATM   28  C9  UNL     1       0.555  52.185 -18.462  1.00  0.00     0.002 C 
HETATM   29  C7  UNL     1       0.800  51.702 -17.226  1.00  0.00    -0.084 C 
HETATM   30  C8  UNL     1       0.445  50.321 -16.738  1.00  0.00     0.043 C 
BRANCH  29  31
HETATM   31  C6  UNL     1       1.452  52.597 -16.182  1.00  0.00     0.037 C 
BRANCH  31  32
HETATM   32  C5  UNL     1       2.969  52.716 -16.360  1.00  0.00     0.031 C 
BRANCH  32  33
HETATM   33  C4  UNL     1       3.691  51.579 -15.689  1.00  0.00    -0.024 C 
HETATM   34  C2  UNL     1       3.583  51.180 -14.406  1.00  0.00    -0.091 C 
HETATM   35  C1  UNL     1       2.725  51.844 -13.363  1.00  0.00     0.042 C 
HETATM   36  C3  UNL     1       4.364  49.995 -13.901  1.00  0.00     0.042 C 
ENDBRANCH  32  33
ENDBRANCH  31  32
ENDBRANCH  29  31
ENDBRANCH  27  28
ENDBRANCH  24  26
ENDBRANCH   1  23
BRANCH   8  37
HETATM   37  C26 UNL     1      -6.070  45.742 -21.869  1.00  0.00     0.265 C 
HETATM   38  O4  UNL     1      -6.732  44.783 -22.251  1.00  0.00    -0.302 OA
ENDBRANCH   8  37
TORSDOF 13
ENDMDL
MODEL 3
REMARK minimizedAffinity -8.42135715
REMARK  13 active torsions:
REMARK  status: ('A' for Active; 'I' for Inactive)
REMARK    1  A    between atoms: C4_4  and  C5_5 
REMARK    2  A    between atoms: C5_5  and  C6_6 
REMARK    3  A    between atoms: C6_6  and  C7_7 
REMARK    4  A    between atoms: C9_9  and  C10_10 
REMARK    5  A    between atoms: C11_11  and  C12_12 
REMARK    6  A    between atoms: C14_14  and  C15_15 
REMARK    7  A    between atoms: C18_18  and  O1_19 
REMARK    8  A    between atoms: C19_21  and  C20_22 
REMARK    9  A    between atoms: C20_22  and  C21_23 
REMARK   10  A    between atoms: C21_23  and  C22_24 
REMARK   11  A    between atoms: C22_24  and  O3_25 
REMARK   12  A    between atoms: C24_27  and  C26_29 
REMARK   13  A    between atoms: C29_33  and  O5_35 
ROOT
HETATM    1  C15 UNL     1      -2.951  48.868 -24.407  1.00  0.00     0.149 C 
HETATM    2  C16 UNL     1      -2.059  49.839 -25.196  1.00  0.00     0.054 C 
HETATM    3  C17 UNL     1      -1.901  51.105 -24.306  1.00  0.00     0.050 C 
HETATM    4  C18 UNL     1      -2.303  50.512 -22.947  1.00  0.00     0.270 C 
HETATM    5  O2  UNL     1      -3.335  49.571 -23.225  1.00  0.00    -0.351 OA
HETATM    6  C19 UNL     1      -0.401  51.606 -24.371  1.00  0.00     0.032 C 
HETATM    7  C23 UNL     1      -0.113  52.137 -25.790  1.00  0.00    -0.066 C 
HETATM    8  C24 UNL     1       0.853  51.679 -26.627  1.00  0.00    -0.021 C 
HETATM    9  C25 UNL     1       1.036  52.178 -28.037  1.00  0.00     0.052 C 
HETATM   10  C27 UNL     1      -1.044  53.273 -26.178  1.00  0.00     0.038 C 
HETATM   11  C28 UNL     1      -2.505  52.848 -26.117  1.00  0.00     0.042 C 
HETATM   12  C29 UNL     1      -2.911  52.240 -24.756  1.00  0.00     0.067 C 
HETATM   13  C30 UNL     1      -4.392  51.834 -24.849  1.00  0.00     0.047 C 
ENDROOT
BRANCH   4  14
HETATM   14  O1  UNL     1      -1.257  49.764 -22.348  1.00  0.00    -0.370 OA
HETATM   15  H26 UNL     1      -1.631  49.474 -21.498  1.00  0.00     0.212 HD
ENDBRANCH   4  14
BRANCH   6  16
HETATM   16  C20 UNL     1       0.088  52.678 -23.355  1.00  0.00     0.012 C 
BRANCH  16  17
HETATM   17  C21 UNL     1       1.026  52.229 -22.229  1.00  0.00     0.027 C 
BRANCH  17  18
HETATM   18  C22 UNL     1       1.128  53.191 -21.048  1.00  0.00     0.164 C 
BRANCH  18  19
HETATM   19  O3  UNL     1       1.799  54.381 -21.441  1.00  0.00    -0.401 OA
HETATM   20  H34 UNL     1       1.778  54.984 -20.677  1.00  0.00     0.209 HD
ENDBRANCH  18  19
ENDBRANCH  17  18
ENDBRANCH  16  17
ENDBRANCH   6  16
BRANCH  12  21
HETATM   21  O5  UNL     1      -2.871  53.290 -23.776  1.00  0.00    -0.389 OA
HETATM   22  H46 UNL     1      -3.482  53.996 -24.055  1.00  0.00     0.210 HD
ENDBRANCH  12  21
BRANCH   1  23
HETATM   23  C14 UNL     1      -4.128  48.357 -25.199  1.00  0.00     0.011 C 
HETATM   24  C12 UNL     1      -4.393  48.428 -26.522  1.00  0.00    -0.063 C 
HETATM   25  C13 UNL     1      -3.538  49.177 -27.512  1.00  0.00     0.048 C 
BRANCH  24  26
HETATM   26  C11 UNL     1      -5.608  47.778 -27.023  1.00  0.00     0.006 C 
HETATM   27  C10 UNL     1      -6.051  47.779 -28.293  1.00  0.00     0.001 C 
BRANCH  27  28
HETATM   28  C9  UNL     1      -7.272  47.112 -28.694  1.00  0.00     0.002 C 
HETATM   29  C7  UNL     1      -8.084  47.450 -29.717  1.00  0.00    -0.084 C 
HETATM   30  C8  UNL     1      -7.892  48.628 -30.637  1.00  0.00     0.043 C 
BRANCH  29  31
HETATM   31  C6  UNL     1      -9.339  46.632 -29.985  1.00  0.00     0.037 C 
BRANCH  31  32
HETATM   32  C5  UNL     1     -10.590  47.498 -30.165  1.00  0.00     0.031 C 
BRANCH  32  33
HETATM   33  C4  UNL     1     -11.844  46.717 -29.875  1.00  0.00    -0.024 C 
HETATM   34  C2  UNL     1     -12.741  46.938 -28.894  1.00  0.00    -0.091 C 
HETATM   35  C1  UNL     1     -12.630  48.012 -27.847  1.00  0.00     0.042 C 
HETATM   36  C3  UNL     1     -13.965  46.069 -28.762  1.00  0.00     0.042 C 
ENDBRANCH  32  33
ENDBRANCH  31  32
ENDBRANCH  29  31
ENDBRANCH  27  28
ENDBRANCH  24  26
ENDBRANCH   1  23
BRANCH   8  37
HETATM   37  C26 UNL     1       1.839  50.636 -26.204  1.00  0.00     0.265 C 
HETATM   38  O4  UNL     1       3.054  50.798 -26.273  1.00  0.00    -0.302 OA
ENDBRANCH   8  37
TORSDOF 13
ENDMDL
MODEL 4
REMARK minimizedAffinity -7.90778303
REMARK  13 active torsions:
REMARK  status: ('A' for Active; 'I' for Inactive)
REMARK    1  A    between atoms: C4_4  and  C5_5 
REMARK    2  A    between atoms: C5_5  and  C6_6 
REMARK    3  A    between atoms: C6_6  and  C7_7 
REMARK    4  A    between atoms: C9_9  and  C10_10 
REMARK    5  A    between atoms: C11_11  and  C12_12 
REMARK    6  A    between atoms: C14_14  and  C15_15 
REMARK    7  A    between atoms: C18_18  and  O1_19 
REMARK    8  A    between atoms: C19_21  and  C20_22 
REMARK    9  A    between atoms: C20_22  and  C21_23 
REMARK   10  A    between atoms: C21_23  and  C22_24 
REMARK   11  A    between atoms: C22_24  and  O3_25 
REMARK   12  A    between atoms: C24_27  and  C26_29 
REMARK   13  A    between atoms: C29_33  and  O5_35 
ROOT
HETATM    1  C15 UNL     1      -9.028  46.942 -29.389  1.00  0.00     0.149 C 
HETATM    2  C16 UNL     1      -9.695  46.021 -28.355  1.00  0.00     0.054 C 
HETATM    3  C17 UNL     1     -11.025  46.717 -27.949  1.00  0.00     0.050 C 
HETATM    4  C18 UNL     1     -11.185  47.677 -29.136  1.00  0.00     0.270 C 
HETATM    5  O2  UNL     1      -9.867  48.095 -29.476  1.00  0.00    -0.351 OA
HETATM    6  C19 UNL     1     -12.171  45.630 -27.841  1.00  0.00     0.032 C 
HETATM    7  C23 UNL     1     -11.876  44.709 -26.640  1.00  0.00    -0.066 C 
HETATM    8  C24 UNL     1     -11.715  43.362 -26.695  1.00  0.00    -0.021 C 
HETATM    9  C25 UNL     1     -11.343  42.520 -25.502  1.00  0.00     0.052 C 
HETATM   10  C27 UNL     1     -11.784  45.479 -25.334  1.00  0.00     0.038 C 
HETATM   11  C28 UNL     1     -10.704  46.551 -25.388  1.00  0.00     0.042 C 
HETATM   12  C29 UNL     1     -10.853  47.512 -26.589  1.00  0.00     0.067 C 
HETATM   13  C30 UNL     1      -9.687  48.514 -26.532  1.00  0.00     0.047 C 
ENDROOT
BRANCH   4  14
HETATM   14  O1  UNL     1     -11.689  47.032 -30.295  1.00  0.00    -0.370 OA
HETATM   15  H26 UNL     1     -11.764  47.747 -30.949  1.00  0.00     0.212 HD
ENDBRANCH   4  14
BRANCH   6  16
HETATM   16  C20 UNL     1     -13.652  46.095 -27.729  1.00  0.00     0.012 C 
BRANCH  16  17
HETATM   17  C21 UNL     1     -14.665  45.520 -28.726  1.00  0.00     0.027 C 
BRANCH  17  18
HETATM   18  C22 UNL     1     -15.908  44.895 -28.098  1.00  0.00     0.164 C 
BRANCH  18  19
HETATM   19  O3  UNL     1     -16.747  44.351 -29.109  1.00  0.00    -0.401 OA
HETATM   20  H34 UNL     1     -17.487  43.909 -28.655  1.00  0.00     0.209 HD
ENDBRANCH  18  19
ENDBRANCH  17  18
ENDBRANCH  16  17
ENDBRANCH   6  16
BRANCH  12  21
HETATM   21  O5  UNL     1     -12.035  48.300 -26.377  1.00  0.00    -0.389 OA
HETATM   22  H46 UNL     1     -11.939  48.782 -25.535  1.00  0.00     0.210 HD
ENDBRANCH  12  21
BRANCH   1  23
HETATM   23  C14 UNL     1      -7.596  47.277 -29.057  1.00  0.00     0.011 C 
HETATM   24  C12 UNL     1      -6.534  47.488 -29.866  1.00  0.00    -0.063 C 
HETATM   25  C13 UNL     1      -6.570  47.315 -31.363  1.00  0.00     0.048 C 
BRANCH  24  26
HETATM   26  C11 UNL     1      -5.255  47.862 -29.252  1.00  0.00     0.006 C 
HETATM   27  C10 UNL     1      -5.034  48.097 -27.947  1.00  0.00     0.001 C 
BRANCH  27  28
HETATM   28  C9  UNL     1      -3.733  48.469 -27.431  1.00  0.00     0.002 C 
HETATM   29  C7  UNL     1      -3.400  48.680 -26.141  1.00  0.00    -0.084 C 
HETATM   30  C8  UNL     1      -4.342  48.599 -24.968  1.00  0.00     0.043 C 
BRANCH  29  31
HETATM   31  C6  UNL     1      -1.975  49.078 -25.785  1.00  0.00     0.037 C 
BRANCH  31  32
HETATM   32  C5  UNL     1      -1.522  50.366 -26.481  1.00  0.00     0.031 C 
BRANCH  32  33
HETATM   33  C4  UNL     1      -0.068  50.651 -26.212  1.00  0.00    -0.024 C 
HETATM   34  C2  UNL     1       0.796  51.323 -26.998  1.00  0.00    -0.091 C 
HETATM   35  C1  UNL     1       0.470  51.893 -28.352  1.00  0.00     0.042 C 
HETATM   36  C3  UNL     1       2.221  51.543 -26.561  1.00  0.00     0.042 C 
ENDBRANCH  32  33
ENDBRANCH  31  32
ENDBRANCH  29  31
ENDBRANCH  27  28
ENDBRANCH  24  26
ENDBRANCH   1  23
BRANCH   8  37
HETATM   37  C26 UNL     1     -11.914  42.591 -27.962  1.00  0.00     0.265 C 
HETATM   38  O4  UNL     1     -13.022  42.296 -28.399  1.00  0.00    -0.302 OA
ENDBRANCH   8  37
TORSDOF 13
ENDMDL
MODEL 5
REMARK minimizedAffinity -7.82860327
REMARK  13 active torsions:
REMARK  status: ('A' for Active; 'I' for Inactive)
REMARK    1  A    between atoms: C4_4  and  C5_5 
REMARK    2  A    between atoms: C5_5  and  C6_6 
REMARK    3  A    between atoms: C6_6  and  C7_7 
REMARK    4  A    between atoms: C9_9  and  C10_10 
REMARK    5  A    between atoms: C11_11  and  C12_12 
REMARK    6  A    between atoms: C14_14  and  C15_15 
REMARK    7  A    between atoms: C18_18  and  O1_19 
REMARK    8  A    between atoms: C19_21  and  C20_22 
REMARK    9  A    between atoms: C20_22  and  C21_23 
REMARK   10  A    between atoms: C21_23  and  C22_24 
REMARK   11  A    between atoms: C22_24  and  O3_25 
REMARK   12  A    between atoms: C24_27  and  C26_29 
REMARK   13  A    between atoms: C29_33  and  O5_35 
ROOT
HETATM    1  C15 UNL     1      -3.456  51.318 -19.807  1.00  0.00     0.149 C 
HETATM    2  C16 UNL     1      -3.148  50.895 -21.252  1.00  0.00     0.054 C 
HETATM    3  C17 UNL     1      -4.105  49.710 -21.571  1.00  0.00     0.050 C 
HETATM    4  C18 UNL     1      -5.153  49.924 -20.469  1.00  0.00     0.270 C 
HETATM    5  O2  UNL     1      -4.429  50.386 -19.332  1.00  0.00    -0.351 OA
HETATM    6  C19 UNL     1      -4.672  49.878 -23.039  1.00  0.00     0.032 C 
HETATM    7  C23 UNL     1      -3.521  49.679 -24.046  1.00  0.00    -0.066 C 
HETATM    8  C24 UNL     1      -3.110  50.587 -24.969  1.00  0.00    -0.021 C 
HETATM    9  C25 UNL     1      -1.923  50.374 -25.872  1.00  0.00     0.052 C 
HETATM   10  C27 UNL     1      -2.866  48.317 -23.909  1.00  0.00     0.038 C 
HETATM   11  C28 UNL     1      -2.315  48.096 -22.506  1.00  0.00     0.042 C 
HETATM   12  C29 UNL     1      -3.362  48.322 -21.393  1.00  0.00     0.067 C 
HETATM   13  C30 UNL     1      -2.663  48.095 -20.042  1.00  0.00     0.047 C 
ENDROOT
BRANCH   4  14
HETATM   14  O1  UNL     1      -6.070  50.960 -20.782  1.00  0.00    -0.370 OA
HETATM   15  H26 UNL     1      -6.681  50.970 -20.025  1.00  0.00     0.212 HD
ENDBRANCH   4  14
BRANCH   6  16
HETATM   16  C20 UNL     1      -5.863  48.989 -23.500  1.00  0.00     0.012 C 
BRANCH  16  17
HETATM   17  C21 UNL     1      -7.253  49.632 -23.582  1.00  0.00     0.027 C 
BRANCH  17  18
HETATM   18  C22 UNL     1      -8.249  48.907 -24.484  1.00  0.00     0.164 C 
BRANCH  18  19
HETATM   19  O3  UNL     1      -9.032  49.848 -25.206  1.00  0.00    -0.401 OA
HETATM   20  H34 UNL     1      -9.600  49.339 -25.811  1.00  0.00     0.209 HD
ENDBRANCH  18  19
ENDBRANCH  17  18
ENDBRANCH  16  17
ENDBRANCH   6  16
BRANCH  12  21
HETATM   21  O5  UNL     1      -4.340  47.274 -21.489  1.00  0.00    -0.389 OA
HETATM   22  H46 UNL     1      -3.885  46.417 -21.392  1.00  0.00     0.210 HD
ENDBRANCH  12  21
BRANCH   1  23
HETATM   23  C14 UNL     1      -2.231  51.391 -18.930  1.00  0.00     0.011 C 
HETATM   24  C12 UNL     1      -0.976  51.806 -19.209  1.00  0.00    -0.063 C 
HETATM   25  C13 UNL     1      -0.510  52.212 -20.584  1.00  0.00     0.048 C 
BRANCH  24  26
HETATM   26  C11 UNL     1       0.009  51.821 -18.122  1.00  0.00     0.006 C 
HETATM   27  C10 UNL     1       0.110  50.927 -17.123  1.00  0.00     0.001 C 
BRANCH  27  28
HETATM   28  C9  UNL     1       1.116  51.027 -16.085  1.00  0.00     0.002 C 
HETATM   29  C7  UNL     1       2.144  51.899 -16.030  1.00  0.00    -0.084 C 
HETATM   30  C8  UNL     1       2.470  52.937 -17.073  1.00  0.00     0.043 C 
BRANCH  29  31
HETATM   31  C6  UNL     1       3.113  51.849 -14.859  1.00  0.00     0.037 C 
BRANCH  31  32
HETATM   32  C5  UNL     1       2.409  51.739 -13.503  1.00  0.00     0.031 C 
BRANCH  32  33
HETATM   33  C4  UNL     1       2.180  50.300 -13.119  1.00  0.00    -0.024 C 
HETATM   34  C2  UNL     1       3.069  49.289 -13.160  1.00  0.00    -0.091 C 
HETATM   35  C1  UNL     1       4.487  49.402 -13.651  1.00  0.00     0.042 C 
HETATM   36  C3  UNL     1       2.679  47.905 -12.711  1.00  0.00     0.042 C 
ENDBRANCH  32  33
ENDBRANCH  31  32
ENDBRANCH  29  31
ENDBRANCH  27  28
ENDBRANCH  24  26
ENDBRANCH   1  23
BRANCH   8  37
HETATM   37  C26 UNL     1      -3.825  51.885 -25.178  1.00  0.00     0.265 C 
HETATM   38  O4  UNL     1      -3.371  52.796 -25.863  1.00  0.00    -0.302 OA
ENDBRANCH   8  37
TORSDOF 13
ENDMDL
MODEL 6
REMARK minimizedAffinity -7.77681875
REMARK  13 active torsions:
REMARK  status: ('A' for Active; 'I' for Inactive)
REMARK    1  A    between atoms: C4_4  and  C5_5 
REMARK    2  A    between atoms: C5_5  and  C6_6 
REMARK    3  A    between atoms: C6_6  and  C7_7 
REMARK    4  A    between atoms: C9_9  and  C10_10 
REMARK    5  A    between atoms: C11_11  and  C12_12 
REMARK    6  A    between atoms: C14_14  and  C15_15 
REMARK    7  A    between atoms: C18_18  and  O1_19 
REMARK    8  A    between atoms: C19_21  and  C20_22 
REMARK    9  A    between atoms: C20_22  and  C21_23 
REMARK   10  A    between atoms: C21_23  and  C22_24 
REMARK   11  A    between atoms: C22_24  and  O3_25 
REMARK   12  A    between atoms: C24_27  and  C26_29 
REMARK   13  A    between atoms: C29_33  and  O5_35 
ROOT
HETATM    1  C15 UNL     1       0.832  51.772 -14.449  1.00  0.00     0.149 C 
HETATM    2  C16 UNL     1      -0.356  52.099 -13.531  1.00  0.00     0.054 C 
HETATM    3  C17 UNL     1      -0.562  50.850 -12.626  1.00  0.00     0.050 C 
HETATM    4  C18 UNL     1       0.810  50.182 -12.797  1.00  0.00     0.270 C 
HETATM    5  O2  UNL     1       1.192  50.423 -14.148  1.00  0.00    -0.351 OA
HETATM    6  C19 UNL     1      -0.868  51.322 -11.147  1.00  0.00     0.032 C 
HETATM    7  C23 UNL     1      -2.249  52.009 -11.117  1.00  0.00    -0.066 C 
HETATM    8  C24 UNL     1      -2.492  53.282 -10.712  1.00  0.00    -0.021 C 
HETATM    9  C25 UNL     1      -3.850  53.932 -10.783  1.00  0.00     0.052 C 
HETATM   10  C27 UNL     1      -3.359  51.090 -11.594  1.00  0.00     0.038 C 
HETATM   11  C28 UNL     1      -3.106  50.592 -13.011  1.00  0.00     0.042 C 
HETATM   12  C29 UNL     1      -1.721  49.930 -13.192  1.00  0.00     0.067 C 
HETATM   13  C30 UNL     1      -1.595  49.506 -14.665  1.00  0.00     0.047 C 
ENDROOT
BRANCH   4  14
HETATM   14  O1  UNL     1       1.815  50.792 -12.003  1.00  0.00    -0.370 OA
HETATM   15  H26 UNL     1       2.612  50.263 -12.185  1.00  0.00     0.212 HD
ENDBRANCH   4  14
BRANCH   6  16
HETATM   16  C20 UNL     1      -0.833  50.280  -9.993  1.00  0.00     0.012 C 
BRANCH  16  17
HETATM   17  C21 UNL     1      -1.060  50.781  -8.561  1.00  0.00     0.027 C 
BRANCH  17  18
HETATM   18  C22 UNL     1      -0.912  49.720  -7.473  1.00  0.00     0.164 C 
BRANCH  18  19
HETATM   19  O3  UNL     1      -2.001  49.795  -6.563  1.00  0.00    -0.401 OA
HETATM   20  H34 UNL     1      -1.894  49.061  -5.933  1.00  0.00     0.209 HD
ENDBRANCH  18  19
ENDBRANCH  17  18
ENDBRANCH  16  17
ENDBRANCH   6  16
BRANCH  12  21
HETATM   21  O5  UNL     1      -1.722  48.701 -12.447  1.00  0.00    -0.389 OA
HETATM   22  H46 UNL     1      -2.441  48.136 -12.783  1.00  0.00     0.210 HD
ENDBRANCH  12  21
BRANCH   1  23
HETATM   23  C14 UNL     1       0.538  51.992 -15.912  1.00  0.00     0.011 C 
HETATM   24  C12 UNL     1       1.355  52.350 -16.927  1.00  0.00    -0.063 C 
HETATM   25  C13 UNL     1       2.805  52.720 -16.748  1.00  0.00     0.048 C 
BRANCH  24  26
HETATM   26  C11 UNL     1       0.790  52.431 -18.278  1.00  0.00     0.006 C 
HETATM   27  C10 UNL     1       1.372  52.983 -19.356  1.00  0.00     0.001 C 
BRANCH  27  28
HETATM   28  C9  UNL     1       0.732  53.022 -20.655  1.00  0.00     0.002 C 
HETATM   29  C7  UNL     1       0.134  51.998 -21.298  1.00  0.00    -0.084 C 
HETATM   30  C8  UNL     1       0.043  50.581 -20.794  1.00  0.00     0.043 C 
BRANCH  29  31
HETATM   31  C6  UNL     1      -0.480  52.225 -22.671  1.00  0.00     0.037 C 
BRANCH  31  32
HETATM   32  C5  UNL     1       0.568  52.449 -23.766  1.00  0.00     0.031 C 
BRANCH  32  33
HETATM   33  C4  UNL     1       0.039  52.056 -25.120  1.00  0.00    -0.024 C 
HETATM   34  C2  UNL     1       0.744  51.629 -26.186  1.00  0.00    -0.091 C 
HETATM   35  C1  UNL     1       2.243  51.502 -26.236  1.00  0.00     0.042 C 
HETATM   36  C3  UNL     1       0.048  51.249 -27.466  1.00  0.00     0.042 C 
ENDBRANCH  32  33
ENDBRANCH  31  32
ENDBRANCH  29  31
ENDBRANCH  27  28
ENDBRANCH  24  26
ENDBRANCH   1  23
BRANCH   8  37
HETATM   37  C26 UNL     1      -1.418  54.151 -10.138  1.00  0.00     0.265 C 
HETATM   38  O4  UNL     1      -1.403  55.371 -10.270  1.00  0.00    -0.302 OA
ENDBRANCH   8  37
TORSDOF 13
ENDMDL
MODEL 7
REMARK minimizedAffinity -7.73875141
REMARK  13 active torsions:
REMARK  status: ('A' for Active; 'I' for Inactive)
REMARK    1  A    between atoms: C4_4  and  C5_5 
REMARK    2  A    between atoms: C5_5  and  C6_6 
REMARK    3  A    between atoms: C6_6  and  C7_7 
REMARK    4  A    between atoms: C9_9  and  C10_10 
REMARK    5  A    between atoms: C11_11  and  C12_12 
REMARK    6  A    between atoms: C14_14  and  C15_15 
REMARK    7  A    between atoms: C18_18  and  O1_19 
REMARK    8  A    between atoms: C19_21  and  C20_22 
REMARK    9  A    between atoms: C20_22  and  C21_23 
REMARK   10  A    between atoms: C21_23  and  C22_24 
REMARK   11  A    between atoms: C22_24  and  O3_25 
REMARK   12  A    between atoms: C24_27  and  C26_29 
REMARK   13  A    between atoms: C29_33  and  O5_35 
ROOT
HETATM    1  C15 UNL     1      -5.481  50.767 -21.016  1.00  0.00     0.149 C 
HETATM    2  C16 UNL     1      -4.095  50.506 -20.407  1.00  0.00     0.054 C 
HETATM    3  C17 UNL     1      -3.151  50.179 -21.600  1.00  0.00     0.050 C 
HETATM    4  C18 UNL     1      -3.982  50.766 -22.751  1.00  0.00     0.270 C 
HETATM    5  O2  UNL     1      -5.343  50.513 -22.415  1.00  0.00    -0.351 OA
HETATM    6  C19 UNL     1      -1.760  50.900 -21.378  1.00  0.00     0.032 C 
HETATM    7  C23 UNL     1      -1.045  50.247 -20.177  1.00  0.00    -0.066 C 
HETATM    8  C24 UNL     1      -0.641  50.890 -19.051  1.00  0.00    -0.021 C 
HETATM    9  C25 UNL     1      -0.023  50.187 -17.870  1.00  0.00     0.052 C 
HETATM   10  C27 UNL     1      -0.818  48.760 -20.382  1.00  0.00     0.038 C 
HETATM   11  C28 UNL     1      -2.127  48.018 -20.617  1.00  0.00     0.042 C 
HETATM   12  C29 UNL     1      -2.973  48.613 -21.765  1.00  0.00     0.067 C 
HETATM   13  C30 UNL     1      -4.267  47.789 -21.867  1.00  0.00     0.047 C 
ENDROOT
BRANCH   4  14
HETATM   14  O1  UNL     1      -3.869  52.178 -22.839  1.00  0.00    -0.370 OA
HETATM   15  H26 UNL     1      -4.414  52.410 -23.611  1.00  0.00     0.212 HD
ENDBRANCH   4  14
BRANCH   6  16
HETATM   16  C20 UNL     1      -0.743  50.969 -22.554  1.00  0.00     0.012 C 
BRANCH  16  17
HETATM   17  C21 UNL     1      -0.085  52.321 -22.859  1.00  0.00     0.027 C 
BRANCH  17  18
HETATM   18  C22 UNL     1      -0.181  52.773 -24.314  1.00  0.00     0.164 C 
BRANCH  18  19
HETATM   19  O3  UNL     1       1.012  53.444 -24.698  1.00  0.00    -0.401 OA
HETATM   20  H34 UNL     1       0.927  53.651 -25.646  1.00  0.00     0.209 HD
ENDBRANCH  18  19
ENDBRANCH  17  18
ENDBRANCH  16  17
ENDBRANCH   6  16
BRANCH  12  21
HETATM   21  O5  UNL     1      -2.274  48.368 -22.997  1.00  0.00    -0.389 OA
HETATM   22  H46 UNL     1      -2.151  47.407 -23.097  1.00  0.00     0.210 HD
ENDBRANCH  12  21
BRANCH   1  23
HETATM   23  C14 UNL     1      -6.580  49.958 -20.374  1.00  0.00     0.011 C 
HETATM   24  C12 UNL     1      -7.516  49.156 -20.927  1.00  0.00    -0.063 C 
HETATM   25  C13 UNL     1      -7.708  48.988 -22.413  1.00  0.00     0.048 C 
BRANCH  24  26
HETATM   26  C11 UNL     1      -8.433  48.439 -20.034  1.00  0.00     0.006 C 
HETATM   27  C10 UNL     1      -8.889  48.868 -18.845  1.00  0.00     0.001 C 
BRANCH  27  28
HETATM   28  C9  UNL     1      -9.790  48.085 -18.026  1.00  0.00     0.002 C 
HETATM   29  C7  UNL     1     -11.025  47.653 -18.359  1.00  0.00    -0.084 C 
HETATM   30  C8  UNL     1     -11.730  47.935 -19.660  1.00  0.00     0.043 C 
BRANCH  29  31
HETATM   31  C6  UNL     1     -11.836  46.844 -17.358  1.00  0.00     0.037 C 
BRANCH  31  32
HETATM   32  C5  UNL     1     -13.297  46.658 -17.783  1.00  0.00     0.031 C 
BRANCH  32  33
HETATM   33  C4  UNL     1     -14.097  47.914 -17.562  1.00  0.00    -0.024 C 
HETATM   34  C2  UNL     1     -15.238  48.280 -18.177  1.00  0.00    -0.091 C 
HETATM   35  C1  UNL     1     -15.924  47.498 -19.264  1.00  0.00     0.042 C 
HETATM   36  C3  UNL     1     -15.928  49.569 -17.813  1.00  0.00     0.042 C 
ENDBRANCH  32  33
ENDBRANCH  31  32
ENDBRANCH  29  31
ENDBRANCH  27  28
ENDBRANCH  24  26
ENDBRANCH   1  23
BRANCH   8  37
HETATM   37  C26 UNL     1      -0.766  52.373 -18.896  1.00  0.00     0.265 C 
HETATM   38  O4  UNL     1       0.080  53.162 -19.305  1.00  0.00    -0.302 OA
ENDBRANCH   8  37
TORSDOF 13
ENDMDL
MODEL 8
REMARK minimizedAffinity -7.72306633
REMARK  13 active torsions:
REMARK  status: ('A' for Active; 'I' for Inactive)
REMARK    1  A    between atoms: C4_4  and  C5_5 
REMARK    2  A    between atoms: C5_5  and  C6_6 
REMARK    3  A    between atoms: C6_6  and  C7_7 
REMARK    4  A    between atoms: C9_9  and  C10_10 
REMARK    5  A    between atoms: C11_11  and  C12_12 
REMARK    6  A    between atoms: C14_14  and  C15_15 
REMARK    7  A    between atoms: C18_18  and  O1_19 
REMARK    8  A    between atoms: C19_21  and  C20_22 
REMARK    9  A    between atoms: C20_22  and  C21_23 
REMARK   10  A    between atoms: C21_23  and  C22_24 
REMARK   11  A    between atoms: C22_24  and  O3_25 
REMARK   12  A    between atoms: C24_27  and  C26_29 
REMARK   13  A    between atoms: C29_33  and  O5_35 
ROOT
HETATM    1  C15 UNL     1       0.664  50.889 -14.456  1.00  0.00     0.149 C 
HETATM    2  C16 UNL     1      -0.196  51.724 -13.494  1.00  0.00     0.054 C 
HETATM    3  C17 UNL     1      -1.311  50.774 -12.972  1.00  0.00     0.050 C 
HETATM    4  C18 UNL     1      -0.670  49.419 -13.308  1.00  0.00     0.270 C 
HETATM    5  O2  UNL     1       0.025  49.614 -14.536  1.00  0.00    -0.351 OA
HETATM    6  C19 UNL     1      -1.522  51.019 -11.422  1.00  0.00     0.032 C 
HETATM    7  C23 UNL     1      -2.131  52.421 -11.216  1.00  0.00    -0.066 C 
HETATM    8  C24 UNL     1      -1.585  53.421 -10.477  1.00  0.00    -0.021 C 
HETATM    9  C25 UNL     1      -2.181  54.801 -10.379  1.00  0.00     0.052 C 
HETATM   10  C27 UNL     1      -3.456  52.584 -11.939  1.00  0.00     0.038 C 
HETATM   11  C28 UNL     1      -3.313  52.343 -13.436  1.00  0.00     0.042 C 
HETATM   12  C29 UNL     1      -2.657  50.986 -13.780  1.00  0.00     0.067 C 
HETATM   13  C30 UNL     1      -2.551  50.893 -15.311  1.00  0.00     0.047 C 
ENDROOT
BRANCH   4  14
HETATM   14  O1  UNL     1       0.321  49.037 -12.367  1.00  0.00    -0.370 OA
HETATM   15  H26 UNL     1       0.620  48.165 -12.681  1.00  0.00     0.212 HD
ENDBRANCH   4  14
BRANCH   6  16
HETATM   16  C20 UNL     1      -2.372  50.008 -10.601  1.00  0.00     0.012 C 
BRANCH  16  17
HETATM   17  C21 UNL     1      -3.366  50.567  -9.576  1.00  0.00     0.027 C 
BRANCH  17  18
HETATM   18  C22 UNL     1      -4.821  50.161  -9.797  1.00  0.00     0.164 C 
BRANCH  18  19
HETATM   19  O3  UNL     1      -4.925  49.305 -10.927  1.00  0.00    -0.401 OA
HETATM   20  H34 UNL     1      -5.855  49.023 -10.984  1.00  0.00     0.209 HD
ENDBRANCH  18  19
ENDBRANCH  17  18
ENDBRANCH  16  17
ENDBRANCH   6  16
BRANCH  12  21
HETATM   21  O5  UNL     1      -3.575  49.947 -13.404  1.00  0.00    -0.389 OA
HETATM   22  H46 UNL     1      -4.409  50.080 -13.889  1.00  0.00     0.210 HD
ENDBRANCH  12  21
BRANCH   1  23
HETATM   23  C14 UNL     1       0.858  51.537 -15.803  1.00  0.00     0.011 C 
HETATM   24  C12 UNL     1       1.959  52.088 -16.361  1.00  0.00    -0.063 C 
HETATM   25  C13 UNL     1       3.273  52.256 -15.642  1.00  0.00     0.048 C 
BRANCH  24  26
HETATM   26  C11 UNL     1       1.862  52.597 -17.734  1.00  0.00     0.006 C 
HETATM   27  C10 UNL     1       0.763  52.605 -18.508  1.00  0.00     0.001 C 
BRANCH  27  28
HETATM   28  C9  UNL     1       0.763  53.125 -19.859  1.00  0.00     0.002 C 
HETATM   29  C7  UNL     1       0.473  52.449 -20.990  1.00  0.00    -0.084 C 
HETATM   30  C8  UNL     1       0.116  50.987 -21.071  1.00  0.00     0.043 C 
BRANCH  29  31
HETATM   31  C6  UNL     1       0.537  53.163 -22.333  1.00  0.00     0.037 C 
BRANCH  31  32
HETATM   32  C5  UNL     1       0.008  52.309 -23.490  1.00  0.00     0.031 C 
BRANCH  32  33
HETATM   33  C4  UNL     1      -0.115  53.115 -24.755  1.00  0.00    -0.024 C 
HETATM   34  C2  UNL     1       0.263  52.757 -25.998  1.00  0.00    -0.091 C 
HETATM   35  C1  UNL     1       0.940  51.462 -26.356  1.00  0.00     0.042 C 
HETATM   36  C3  UNL     1       0.040  53.682 -27.166  1.00  0.00     0.042 C 
ENDBRANCH  32  33
ENDBRANCH  31  32
ENDBRANCH  29  31
ENDBRANCH  27  28
ENDBRANCH  24  26
ENDBRANCH   1  23
BRANCH   8  37
HETATM   37  C26 UNL     1      -0.336  53.225  -9.677  1.00  0.00     0.265 C 
HETATM   38  O4  UNL     1       0.788  53.372 -10.145  1.00  0.00    -0.302 OA
ENDBRANCH   8  37
TORSDOF 13
ENDMDL
MODEL 9
REMARK minimizedAffinity -7.6481905
REMARK  13 active torsions:
REMARK  status: ('A' for Active; 'I' for Inactive)
REMARK    1  A    between atoms: C4_4  and  C5_5 
REMARK    2  A    between atoms: C5_5  and  C6_6 
REMARK    3  A    between atoms: C6_6  and  C7_7 
REMARK    4  A    between atoms: C9_9  and  C10_10 
REMARK    5  A    between atoms: C11_11  and  C12_12 
REMARK    6  A    between atoms: C14_14  and  C15_15 
REMARK    7  A    between atoms: C18_18  and  O1_19 
REMARK    8  A    between atoms: C19_21  and  C20_22 
REMARK    9  A    between atoms: C20_22  and  C21_23 
REMARK   10  A    between atoms: C21_23  and  C22_24 
REMARK   11  A    between atoms: C22_24  and  O3_25 
REMARK   12  A    between atoms: C24_27  and  C26_29 
REMARK   13  A    between atoms: C29_33  and  O5_35 
ROOT
HETATM    1  C15 UNL     1      -7.415  48.427 -25.056  1.00  0.00     0.149 C 
HETATM    2  C16 UNL     1      -7.519  47.261 -26.052  1.00  0.00     0.054 C 
HETATM    3  C17 UNL     1      -8.921  46.625 -25.830  1.00  0.00     0.050 C 
HETATM    4  C18 UNL     1      -9.616  47.784 -25.100  1.00  0.00     0.270 C 
HETATM    5  O2  UNL     1      -8.614  48.381 -24.282  1.00  0.00    -0.351 OA
HETATM    6  C19 UNL     1      -9.562  46.271 -27.233  1.00  0.00     0.032 C 
HETATM    7  C23 UNL     1      -8.755  45.126 -27.877  1.00  0.00    -0.066 C 
HETATM    8  C24 UNL     1      -8.132  45.176 -29.083  1.00  0.00    -0.021 C 
HETATM    9  C25 UNL     1      -7.284  44.056 -29.628  1.00  0.00     0.052 C 
HETATM   10  C27 UNL     1      -8.726  43.882 -27.007  1.00  0.00     0.038 C 
HETATM   11  C28 UNL     1      -8.131  44.170 -25.635  1.00  0.00     0.042 C 
HETATM   12  C29 UNL     1      -8.818  45.345 -24.902  1.00  0.00     0.067 C 
HETATM   13  C30 UNL     1      -8.101  45.538 -23.555  1.00  0.00     0.047 C 
ENDROOT
BRANCH   4  14
HETATM   14  O1  UNL     1     -10.042  48.807 -25.986  1.00  0.00    -0.370 OA
HETATM   15  H26 UNL     1     -10.480  49.454 -25.405  1.00  0.00     0.212 HD
ENDBRANCH   4  14
BRANCH   6  16
HETATM   16  C20 UNL     1     -11.068  45.889 -27.307  1.00  0.00     0.012 C 
BRANCH  16  17
HETATM   17  C21 UNL     1     -11.985  46.738 -28.196  1.00  0.00     0.027 C 
BRANCH  17  18
HETATM   18  C22 UNL     1     -13.026  47.567 -27.448  1.00  0.00     0.164 C 
BRANCH  18  19
HETATM   19  O3  UNL     1     -12.592  48.915 -27.336  1.00  0.00    -0.401 OA
HETATM   20  H34 UNL     1     -13.315  49.412 -26.914  1.00  0.00     0.209 HD
ENDBRANCH  18  19
ENDBRANCH  17  18
ENDBRANCH  16  17
ENDBRANCH   6  16
BRANCH  12  21
HETATM   21  O5  UNL     1     -10.151  44.930 -24.560  1.00  0.00    -0.389 OA
HETATM   22  H46 UNL     1     -10.093  44.135 -23.999  1.00  0.00     0.210 HD
ENDBRANCH  12  21
BRANCH   1  23
HETATM   23  C14 UNL     1      -6.166  48.385 -24.213  1.00  0.00     0.011 C 
HETATM   24  C12 UNL     1      -4.863  48.426 -24.571  1.00  0.00    -0.063 C 
HETATM   25  C13 UNL     1      -4.383  48.421 -25.999  1.00  0.00     0.048 C 
BRANCH  24  26
HETATM   26  C11 UNL     1      -3.850  48.428 -23.509  1.00  0.00     0.006 C 
HETATM   27  C10 UNL     1      -2.906  49.363 -23.307  1.00  0.00     0.001 C 
BRANCH  27  28
HETATM   28  C9  UNL     1      -1.940  49.277 -22.231  1.00  0.00     0.002 C 
HETATM   29  C7  UNL     1      -1.129  50.258 -21.787  1.00  0.00    -0.084 C 
HETATM   30  C8  UNL     1      -1.046  51.652 -22.354  1.00  0.00     0.043 C 
BRANCH  29  31
HETATM   31  C6  UNL     1      -0.163  49.980 -20.644  1.00  0.00     0.037 C 
BRANCH  31  32
HETATM   32  C5  UNL     1      -0.842  49.991 -19.271  1.00  0.00     0.031 C 
BRANCH  32  33
HETATM   33  C4  UNL     1       0.049  50.604 -18.223  1.00  0.00    -0.024 C 
HETATM   34  C2  UNL     1       0.400  51.898 -18.099  1.00  0.00    -0.091 C 
HETATM   35  C1  UNL     1      -0.011  53.000 -19.039  1.00  0.00     0.042 C 
HETATM   36  C3  UNL     1       1.286  52.349 -16.967  1.00  0.00     0.042 C 
ENDBRANCH  32  33
ENDBRANCH  31  32
ENDBRANCH  29  31
ENDBRANCH  27  28
ENDBRANCH  24  26
ENDBRANCH   1  23
BRANCH   8  37
HETATM   37  C26 UNL     1      -8.251  46.361 -29.989  1.00  0.00     0.265 C 
HETATM   38  O4  UNL     1      -9.224  46.554 -30.712  1.00  0.00    -0.302 OA
ENDBRANCH   8  37
TORSDOF 13
ENDMDL
