MODEL 1
REMARK minimizedAffinity -9.6251049
REMARK  6 active torsions:
REMARK  status: ('A' for Active; 'I' for Inactive)
REMARK    1  A    between atoms: C2_2  and  C30_31 
REMARK    2  A    between atoms: C3_3  and  C4_4 
REMARK    3  A    between atoms: C4_4  and  C5_5 
REMARK    4  A    between atoms: C5_5  and  C6_6 
REMARK    5  A    between atoms: C6_6  and  C8_8 
REMARK    6  A    between atoms: C30_31  and  O3_33 
ROOT
HETATM    1  C8  UNL     1      -3.765  50.474 -25.592  1.00  0.00    -0.002 C 
HETATM    2  C9  UNL     1      -3.772  52.015 -25.337  1.00  0.00     0.007 C 
HETATM    3  C10 UNL     1      -3.754  52.239 -23.814  1.00  0.00     0.015 C 
HETATM    4  C11 UNL     1      -4.115  50.866 -23.218  1.00  0.00    -0.013 C 
HETATM    5  C12 UNL     1      -5.675  50.760 -23.284  1.00  0.00     0.021 C 
HETATM    6  C13 UNL     1      -3.758  50.574 -21.761  1.00  0.00    -0.070 C 
HETATM    7  C14 UNL     1      -3.648  51.557 -20.854  1.00  0.00    -0.022 C 
HETATM    8  C15 UNL     1      -3.613  51.273 -19.394  1.00  0.00     0.034 C 
HETATM    9  C16 UNL     1      -2.725  50.069 -19.046  1.00  0.00     0.013 C 
HETATM   10  C17 UNL     1      -1.173  50.373 -19.049  1.00  0.00     0.018 C 
HETATM   11  C18 UNL     1      -0.522  49.809 -17.759  1.00  0.00     0.023 C 
HETATM   12  C19 UNL     1      -0.804  51.875 -19.065  1.00  0.00     0.023 C 
HETATM   13  C20 UNL     1      -0.492  49.695 -20.234  1.00  0.00     0.135 C 
HETATM   14  O1  UNL     1       0.285  50.294 -20.983  1.00  0.00    -0.297 OA
HETATM   15  C21 UNL     1      -0.695  48.211 -20.399  1.00  0.00     0.080 C 
HETATM   16  C22 UNL     1      -2.038  47.732 -19.865  1.00  0.00     0.017 C 
HETATM   17  C23 UNL     1      -3.183  48.783 -19.869  1.00  0.00    -0.031 C 
HETATM   18  C24 UNL     1      -4.347  48.116 -19.065  1.00  0.00     0.016 C 
HETATM   19  C25 UNL     1      -3.804  49.108 -21.322  1.00  0.00     0.024 C 
HETATM   20  C26 UNL     1      -3.423  48.085 -22.430  1.00  0.00     0.010 C 
HETATM   21  C27 UNL     1      -3.786  48.468 -23.874  1.00  0.00     0.011 C 
HETATM   22  C28 UNL     1      -3.345  49.909 -24.196  1.00  0.00    -0.029 C 
HETATM   23  C29 UNL     1      -1.797  50.021 -24.041  1.00  0.00     0.016 C 
ENDROOT
BRANCH   1  24
HETATM   24  C6  UNL     1      -2.944  50.103 -26.868  1.00  0.00    -0.014 C 
HETATM   25  C7  UNL     1      -3.782  49.294 -27.865  1.00  0.00     0.010 C 
BRANCH  24  26
HETATM   26  C5  UNL     1      -2.400  51.387 -27.559  1.00  0.00     0.008 C 
BRANCH  26  27
HETATM   27  C4  UNL     1      -0.867  51.495 -27.615  1.00  0.00     0.028 C 
BRANCH  27  28
HETATM   28  C3  UNL     1      -0.201  51.855 -26.315  1.00  0.00    -0.013 C 
HETATM   29  C2  UNL     1       0.127  53.079 -25.851  1.00  0.00     0.008 C 
HETATM   30  C1  UNL     1       0.782  53.248 -24.508  1.00  0.00     0.055 C 
BRANCH  29  31
HETATM   31  C30 UNL     1      -0.092  54.311 -26.654  1.00  0.00     0.171 C 
HETATM   32  O2  UNL     1      -0.540  54.395 -27.783  1.00  0.00    -0.646 OA
BRANCH  31  33
HETATM   33  O3  UNL     1       0.293  55.416 -25.990  1.00  0.00    -0.773 OA
HETATM   34  H46 UNL     1       0.111  56.134 -26.632  1.00  0.00     0.167 HD
ENDBRANCH  31  33
ENDBRANCH  29  31
ENDBRANCH  27  28
ENDBRANCH  26  27
ENDBRANCH  24  26
ENDBRANCH   1  24
TORSDOF 6
ENDMDL
MODEL 2
REMARK minimizedAffinity -9.53614712
REMARK  6 active torsions:
REMARK  status: ('A' for Active; 'I' for Inactive)
REMARK    1  A    between atoms: C2_2  and  C30_31 
REMARK    2  A    between atoms: C3_3  and  C4_4 
REMARK    3  A    between atoms: C4_4  and  C5_5 
REMARK    4  A    between atoms: C5_5  and  C6_6 
REMARK    5  A    between atoms: C6_6  and  C8_8 
REMARK    6  A    between atoms: C30_31  and  O3_33 
ROOT
HETATM    1  C8  UNL     1      -3.600  50.935 -25.591  1.00  0.00    -0.002 C 
HETATM    2  C9  UNL     1      -3.853  52.405 -25.128  1.00  0.00     0.007 C 
HETATM    3  C10 UNL     1      -3.920  52.406 -23.589  1.00  0.00     0.015 C 
HETATM    4  C11 UNL     1      -4.083  50.924 -23.209  1.00  0.00    -0.013 C 
HETATM    5  C12 UNL     1      -5.604  50.598 -23.373  1.00  0.00     0.021 C 
HETATM    6  C13 UNL     1      -3.732  50.481 -21.789  1.00  0.00    -0.070 C 
HETATM    7  C14 UNL     1      -3.806  51.328 -20.750  1.00  0.00    -0.022 C 
HETATM    8  C15 UNL     1      -3.774  50.845 -19.344  1.00  0.00     0.034 C 
HETATM    9  C16 UNL     1      -2.722  49.748 -19.118  1.00  0.00     0.013 C 
HETATM   10  C17 UNL     1      -1.236  50.277 -18.994  1.00  0.00     0.018 C 
HETATM   11  C18 UNL     1      -0.549  49.635 -17.761  1.00  0.00     0.023 C 
HETATM   12  C19 UNL     1      -1.105  51.803 -18.784  1.00  0.00     0.023 C 
HETATM   13  C20 UNL     1      -0.421  49.885 -20.223  1.00  0.00     0.135 C 
HETATM   14  O1  UNL     1       0.278  50.695 -20.839  1.00  0.00    -0.297 OA
HETATM   15  C21 UNL     1      -0.387  48.428 -20.602  1.00  0.00     0.080 C 
HETATM   16  C22 UNL     1      -1.656  47.683 -20.212  1.00  0.00     0.017 C 
HETATM   17  C23 UNL     1      -2.949  48.541 -20.133  1.00  0.00    -0.031 C 
HETATM   18  C24 UNL     1      -4.021  47.599 -19.493  1.00  0.00     0.016 C 
HETATM   19  C25 UNL     1      -3.565  48.977 -21.559  1.00  0.00     0.024 C 
HETATM   20  C26 UNL     1      -2.994  48.192 -22.775  1.00  0.00     0.010 C 
HETATM   21  C27 UNL     1      -3.365  48.722 -24.171  1.00  0.00     0.011 C 
HETATM   22  C28 UNL     1      -3.143  50.243 -24.266  1.00  0.00    -0.029 C 
HETATM   23  C29 UNL     1      -1.637  50.560 -24.014  1.00  0.00     0.016 C 
ENDROOT
BRANCH   1  24
HETATM   24  C6  UNL     1      -2.689  50.878 -26.861  1.00  0.00    -0.014 C 
HETATM   25  C7  UNL     1      -1.297  50.325 -26.533  1.00  0.00     0.010 C 
BRANCH  24  26
HETATM   26  C5  UNL     1      -3.353  50.009 -27.968  1.00  0.00     0.008 C 
BRANCH  26  27
HETATM   27  C4  UNL     1      -3.569  48.533 -27.593  1.00  0.00     0.028 C 
BRANCH  27  28
HETATM   28  C3  UNL     1      -5.005  48.088 -27.540  1.00  0.00    -0.013 C 
HETATM   29  C2  UNL     1      -5.840  47.826 -28.568  1.00  0.00     0.008 C 
HETATM   30  C1  UNL     1      -7.253  47.374 -28.322  1.00  0.00     0.055 C 
BRANCH  29  31
HETATM   31  C30 UNL     1      -5.430  48.016 -29.984  1.00  0.00     0.171 C 
HETATM   32  O2  UNL     1      -4.772  47.261 -30.677  1.00  0.00    -0.646 OA
BRANCH  31  33
HETATM   33  O3  UNL     1      -5.862  49.191 -30.477  1.00  0.00    -0.773 OA
HETATM   34  H46 UNL     1      -5.513  49.188 -31.393  1.00  0.00     0.167 HD
ENDBRANCH  31  33
ENDBRANCH  29  31
ENDBRANCH  27  28
ENDBRANCH  26  27
ENDBRANCH  24  26
ENDBRANCH   1  24
TORSDOF 6
ENDMDL
MODEL 3
REMARK minimizedAffinity -9.28536034
REMARK  6 active torsions:
REMARK  status: ('A' for Active; 'I' for Inactive)
REMARK    1  A    between atoms: C2_2  and  C30_31 
REMARK    2  A    between atoms: C3_3  and  C4_4 
REMARK    3  A    between atoms: C4_4  and  C5_5 
REMARK    4  A    between atoms: C5_5  and  C6_6 
REMARK    5  A    between atoms: C6_6  and  C8_8 
REMARK    6  A    between atoms: C30_31  and  O3_33 
ROOT
HETATM    1  C8  UNL     1      -2.350  51.357 -24.486  1.00  0.00    -0.002 C 
HETATM    2  C9  UNL     1      -2.501  52.557 -23.497  1.00  0.00     0.007 C 
HETATM    3  C10 UNL     1      -3.508  52.142 -22.408  1.00  0.00     0.015 C 
HETATM    4  C11 UNL     1      -4.198  50.889 -22.976  1.00  0.00    -0.013 C 
HETATM    5  C12 UNL     1      -5.310  51.407 -23.947  1.00  0.00     0.021 C 
HETATM    6  C13 UNL     1      -4.916  49.940 -22.018  1.00  0.00    -0.070 C 
HETATM    7  C14 UNL     1      -5.428  50.372 -20.855  1.00  0.00    -0.022 C 
HETATM    8  C15 UNL     1      -6.387  49.549 -20.070  1.00  0.00     0.034 C 
HETATM    9  C16 UNL     1      -5.983  48.069 -20.005  1.00  0.00     0.013 C 
HETATM   10  C17 UNL     1      -4.826  47.746 -18.975  1.00  0.00     0.018 C 
HETATM   11  C18 UNL     1      -5.220  46.525 -18.105  1.00  0.00     0.023 C 
HETATM   12  C19 UNL     1      -4.518  48.879 -17.968  1.00  0.00     0.023 C 
HETATM   13  C20 UNL     1      -3.537  47.385 -19.707  1.00  0.00     0.135 C 
HETATM   14  O1  UNL     1      -2.449  47.892 -19.420  1.00  0.00    -0.297 OA
HETATM   15  C21 UNL     1      -3.601  46.277 -20.726  1.00  0.00     0.080 C 
HETATM   16  C22 UNL     1      -4.962  46.166 -21.399  1.00  0.00     0.017 C 
HETATM   17  C23 UNL     1      -5.790  47.479 -21.474  1.00  0.00    -0.031 C 
HETATM   18  C24 UNL     1      -7.203  47.037 -21.978  1.00  0.00     0.016 C 
HETATM   19  C25 UNL     1      -5.269  48.552 -22.559  1.00  0.00     0.024 C 
HETATM   20  C26 UNL     1      -4.259  47.982 -23.596  1.00  0.00     0.010 C 
HETATM   21  C27 UNL     1      -3.551  49.005 -24.501  1.00  0.00     0.011 C 
HETATM   22  C28 UNL     1      -2.986  50.179 -23.679  1.00  0.00    -0.029 C 
HETATM   23  C29 UNL     1      -1.941  49.635 -22.656  1.00  0.00     0.016 C 
ENDROOT
BRANCH   1  24
HETATM   24  C6  UNL     1      -0.890  51.237 -25.031  1.00  0.00    -0.014 C 
HETATM   25  C7  UNL     1      -0.865  50.710 -26.471  1.00  0.00     0.010 C 
BRANCH  24  26
HETATM   26  C5  UNL     1      -0.168  52.614 -24.963  1.00  0.00     0.008 C 
BRANCH  26  27
HETATM   27  C4  UNL     1       0.878  52.744 -23.843  1.00  0.00     0.028 C 
BRANCH  27  28
HETATM   28  C3  UNL     1       0.474  52.162 -22.516  1.00  0.00    -0.013 C 
HETATM   29  C2  UNL     1       0.625  52.694 -21.285  1.00  0.00     0.008 C 
HETATM   30  C1  UNL     1       0.143  51.965 -20.062  1.00  0.00     0.055 C 
BRANCH  29  31
HETATM   31  C30 UNL     1       1.313  53.994 -21.068  1.00  0.00     0.171 C 
HETATM   32  O2  UNL     1       1.645  54.811 -21.908  1.00  0.00    -0.646 OA
BRANCH  31  33
HETATM   33  O3  UNL     1       1.579  54.207 -19.766  1.00  0.00    -0.773 OA
HETATM   34  H46 UNL     1       2.038  55.073 -19.775  1.00  0.00     0.167 HD
ENDBRANCH  31  33
ENDBRANCH  29  31
ENDBRANCH  27  28
ENDBRANCH  26  27
ENDBRANCH  24  26
ENDBRANCH   1  24
TORSDOF 6
ENDMDL
MODEL 4
REMARK minimizedAffinity -8.96539211
REMARK  6 active torsions:
REMARK  status: ('A' for Active; 'I' for Inactive)
REMARK    1  A    between atoms: C2_2  and  C30_31 
REMARK    2  A    between atoms: C3_3  and  C4_4 
REMARK    3  A    between atoms: C4_4  and  C5_5 
REMARK    4  A    between atoms: C5_5  and  C6_6 
REMARK    5  A    between atoms: C6_6  and  C8_8 
REMARK    6  A    between atoms: C30_31  and  O3_33 
ROOT
HETATM    1  C8  UNL     1      -2.318  51.357 -23.147  1.00  0.00    -0.002 C 
HETATM    2  C9  UNL     1      -3.627  52.209 -23.153  1.00  0.00     0.007 C 
HETATM    3  C10 UNL     1      -4.767  51.319 -22.622  1.00  0.00     0.015 C 
HETATM    4  C11 UNL     1      -4.198  49.890 -22.675  1.00  0.00    -0.013 C 
HETATM    5  C12 UNL     1      -4.377  49.407 -24.153  1.00  0.00     0.021 C 
HETATM    6  C13 UNL     1      -4.847  48.802 -21.820  1.00  0.00    -0.070 C 
HETATM    7  C14 UNL     1      -6.138  48.869 -21.459  1.00  0.00    -0.022 C 
HETATM    8  C15 UNL     1      -6.856  47.690 -20.904  1.00  0.00     0.034 C 
HETATM    9  C16 UNL     1      -6.014  46.910 -19.884  1.00  0.00     0.013 C 
HETATM   10  C17 UNL     1      -5.940  47.570 -18.449  1.00  0.00     0.018 C 
HETATM   11  C18 UNL     1      -6.223  46.502 -17.361  1.00  0.00     0.023 C 
HETATM   12  C19 UNL     1      -6.975  48.691 -18.195  1.00  0.00     0.023 C 
HETATM   13  C20 UNL     1      -4.545  48.129 -18.183  1.00  0.00     0.135 C 
HETATM   14  O1  UNL     1      -4.362  49.270 -17.749  1.00  0.00    -0.297 OA
HETATM   15  C21 UNL     1      -3.377  47.193 -18.347  1.00  0.00     0.080 C 
HETATM   16  C22 UNL     1      -3.621  46.114 -19.392  1.00  0.00     0.017 C 
HETATM   17  C23 UNL     1      -4.619  46.481 -20.525  1.00  0.00    -0.031 C 
HETATM   18  C24 UNL     1      -4.863  45.144 -21.299  1.00  0.00     0.016 C 
HETATM   19  C25 UNL     1      -4.049  47.511 -21.628  1.00  0.00     0.024 C 
HETATM   20  C26 UNL     1      -2.504  47.699 -21.596  1.00  0.00     0.010 C 
HETATM   21  C27 UNL     1      -1.932  48.837 -22.459  1.00  0.00     0.011 C 
HETATM   22  C28 UNL     1      -2.712  50.147 -22.239  1.00  0.00    -0.029 C 
HETATM   23  C29 UNL     1      -2.597  50.571 -20.742  1.00  0.00     0.016 C 
ENDROOT
BRANCH   1  24
HETATM   24  C6  UNL     1      -1.065  52.224 -22.799  1.00  0.00    -0.014 C 
HETATM   25  C7  UNL     1      -0.706  52.126 -21.312  1.00  0.00     0.010 C 
BRANCH  24  26
HETATM   26  C5  UNL     1       0.154  51.793 -23.663  1.00  0.00     0.008 C 
BRANCH  26  27
HETATM   27  C4  UNL     1       0.668  52.862 -24.642  1.00  0.00     0.028 C 
BRANCH  27  28
HETATM   28  C3  UNL     1       0.349  52.614 -26.090  1.00  0.00    -0.013 C 
HETATM   29  C2  UNL     1       1.110  52.008 -27.026  1.00  0.00     0.008 C 
HETATM   30  C1  UNL     1       0.614  51.836 -28.435  1.00  0.00     0.055 C 
BRANCH  29  31
HETATM   31  C30 UNL     1       2.484  51.526 -26.731  1.00  0.00     0.171 C 
HETATM   32  O2  UNL     1       2.817  50.655 -25.948  1.00  0.00    -0.646 OA
BRANCH  31  33
HETATM   33  O3  UNL     1       3.412  52.194 -27.442  1.00  0.00    -0.773 OA
HETATM   34  H46 UNL     1       4.253  51.791 -27.140  1.00  0.00     0.167 HD
ENDBRANCH  31  33
ENDBRANCH  29  31
ENDBRANCH  27  28
ENDBRANCH  26  27
ENDBRANCH  24  26
ENDBRANCH   1  24
TORSDOF 6
ENDMDL
MODEL 5
REMARK minimizedAffinity -8.96138
REMARK  6 active torsions:
REMARK  status: ('A' for Active; 'I' for Inactive)
REMARK    1  A    between atoms: C2_2  and  C30_31 
REMARK    2  A    between atoms: C3_3  and  C4_4 
REMARK    3  A    between atoms: C4_4  and  C5_5 
REMARK    4  A    between atoms: C5_5  and  C6_6 
REMARK    5  A    between atoms: C6_6  and  C8_8 
REMARK    6  A    between atoms: C30_31  and  O3_33 
ROOT
HETATM    1  C8  UNL     1      -1.985  51.079 -23.726  1.00  0.00    -0.002 C 
HETATM    2  C9  UNL     1      -3.129  51.458 -24.721  1.00  0.00     0.007 C 
HETATM    3  C10 UNL     1      -4.266  50.436 -24.537  1.00  0.00     0.015 C 
HETATM    4  C11 UNL     1      -3.628  49.286 -23.737  1.00  0.00    -0.013 C 
HETATM    5  C12 UNL     1      -2.868  48.401 -24.779  1.00  0.00     0.021 C 
HETATM    6  C13 UNL     1      -4.536  48.318 -22.980  1.00  0.00    -0.070 C 
HETATM    7  C14 UNL     1      -5.796  48.081 -23.376  1.00  0.00    -0.022 C 
HETATM    8  C15 UNL     1      -6.576  46.929 -22.850  1.00  0.00     0.034 C 
HETATM    9  C16 UNL     1      -6.406  46.739 -21.336  1.00  0.00     0.013 C 
HETATM   10  C17 UNL     1      -7.245  47.743 -20.447  1.00  0.00     0.018 C 
HETATM   11  C18 UNL     1      -7.993  46.965 -19.335  1.00  0.00     0.023 C 
HETATM   12  C19 UNL     1      -8.344  48.521 -21.208  1.00  0.00     0.023 C 
HETATM   13  C20 UNL     1      -6.328  48.750 -19.759  1.00  0.00     0.135 C 
HETATM   14  O1  UNL     1      -6.548  49.964 -19.775  1.00  0.00    -0.297 OA
HETATM   15  C21 UNL     1      -5.192  48.207 -18.933  1.00  0.00     0.080 C 
HETATM   16  C22 UNL     1      -4.673  46.869 -19.443  1.00  0.00     0.017 C 
HETATM   17  C23 UNL     1      -4.862  46.603 -20.962  1.00  0.00    -0.031 C 
HETATM   18  C24 UNL     1      -4.473  45.101 -21.161  1.00  0.00     0.016 C 
HETATM   19  C25 UNL     1      -3.868  47.430 -21.927  1.00  0.00     0.024 C 
HETATM   20  C26 UNL     1      -2.657  48.081 -21.199  1.00  0.00     0.010 C 
HETATM   21  C27 UNL     1      -1.812  49.070 -22.020  1.00  0.00     0.011 C 
HETATM   22  C28 UNL     1      -2.705  50.090 -22.753  1.00  0.00    -0.029 C 
HETATM   23  C29 UNL     1      -3.523  50.906 -21.704  1.00  0.00     0.016 C 
ENDROOT
BRANCH   1  24
HETATM   24  C6  UNL     1      -1.263  52.346 -23.165  1.00  0.00    -0.014 C 
HETATM   25  C7  UNL     1      -0.009  51.975 -22.366  1.00  0.00     0.010 C 
BRANCH  24  26
HETATM   26  C5  UNL     1      -0.881  53.313 -24.323  1.00  0.00     0.008 C 
BRANCH  26  27
HETATM   27  C4  UNL     1       0.565  53.179 -24.831  1.00  0.00     0.028 C 
BRANCH  27  28
HETATM   28  C3  UNL     1       0.731  52.374 -26.090  1.00  0.00    -0.013 C 
HETATM   29  C2  UNL     1       0.253  52.639 -27.324  1.00  0.00     0.008 C 
HETATM   30  C1  UNL     1       0.535  51.716 -28.478  1.00  0.00     0.055 C 
BRANCH  29  31
HETATM   31  C30 UNL     1      -0.611  53.816 -27.599  1.00  0.00     0.171 C 
HETATM   32  O2  UNL     1      -0.309  54.994 -27.528  1.00  0.00    -0.646 OA
BRANCH  31  33
HETATM   33  O3  UNL     1      -1.860  53.452 -27.942  1.00  0.00    -0.773 OA
HETATM   34  H46 UNL     1      -2.312  54.312 -28.074  1.00  0.00     0.167 HD
ENDBRANCH  31  33
ENDBRANCH  29  31
ENDBRANCH  27  28
ENDBRANCH  26  27
ENDBRANCH  24  26
ENDBRANCH   1  24
TORSDOF 6
ENDMDL
MODEL 6
REMARK minimizedAffinity -8.86805534
REMARK  6 active torsions:
REMARK  status: ('A' for Active; 'I' for Inactive)
REMARK    1  A    between atoms: C2_2  and  C30_31 
REMARK    2  A    between atoms: C3_3  and  C4_4 
REMARK    3  A    between atoms: C4_4  and  C5_5 
REMARK    4  A    between atoms: C5_5  and  C6_6 
REMARK    5  A    between atoms: C6_6  and  C8_8 
REMARK    6  A    between atoms: C30_31  and  O3_33 
ROOT
HETATM    1  C8  UNL     1      -2.004  49.769 -18.492  1.00  0.00    -0.002 C 
HETATM    2  C9  UNL     1      -0.871  48.807 -18.974  1.00  0.00     0.007 C 
HETATM    3  C10 UNL     1      -1.136  48.476 -20.454  1.00  0.00     0.015 C 
HETATM    4  C11 UNL     1      -2.587  48.929 -20.698  1.00  0.00    -0.013 C 
HETATM    5  C12 UNL     1      -3.498  47.770 -20.174  1.00  0.00     0.021 C 
HETATM    6  C13 UNL     1      -3.053  49.184 -22.131  1.00  0.00    -0.070 C 
HETATM    7  C14 UNL     1      -2.488  48.557 -23.175  1.00  0.00    -0.022 C 
HETATM    8  C15 UNL     1      -3.123  48.553 -24.520  1.00  0.00     0.034 C 
HETATM    9  C16 UNL     1      -3.690  49.925 -24.912  1.00  0.00     0.013 C 
HETATM   10  C17 UNL     1      -2.607  50.970 -25.401  1.00  0.00     0.018 C 
HETATM   11  C18 UNL     1      -3.077  51.641 -26.717  1.00  0.00     0.023 C 
HETATM   12  C19 UNL     1      -1.221  50.365 -25.728  1.00  0.00     0.023 C 
HETATM   13  C20 UNL     1      -2.420  52.077 -24.368  1.00  0.00     0.135 C 
HETATM   14  O1  UNL     1      -1.306  52.435 -23.976  1.00  0.00    -0.297 OA
HETATM   15  C21 UNL     1      -3.648  52.826 -23.919  1.00  0.00     0.080 C 
HETATM   16  C22 UNL     1      -4.911  51.978 -23.966  1.00  0.00     0.017 C 
HETATM   17  C23 UNL     1      -4.706  50.446 -23.801  1.00  0.00    -0.031 C 
HETATM   18  C24 UNL     1      -6.100  49.815 -24.123  1.00  0.00     0.016 C 
HETATM   19  C25 UNL     1      -4.359  49.963 -22.302  1.00  0.00     0.024 C 
HETATM   20  C26 UNL     1      -4.629  51.029 -21.202  1.00  0.00     0.010 C 
HETATM   21  C27 UNL     1      -4.099  50.714 -19.793  1.00  0.00     0.011 C 
HETATM   22  C28 UNL     1      -2.632  50.245 -19.842  1.00  0.00    -0.029 C 
HETATM   23  C29 UNL     1      -1.749  51.379 -20.448  1.00  0.00     0.016 C 
ENDROOT
BRANCH   1  24
HETATM   24  C6  UNL     1      -1.472  50.817 -17.461  1.00  0.00    -0.014 C 
HETATM   25  C7  UNL     1      -2.163  50.671 -16.100  1.00  0.00     0.010 C 
BRANCH  24  26
HETATM   26  C5  UNL     1       0.067  50.676 -17.286  1.00  0.00     0.008 C 
BRANCH  26  27
HETATM   27  C4  UNL     1       0.679  51.556 -16.182  1.00  0.00     0.028 C 
BRANCH  27  28
HETATM   28  C3  UNL     1       2.054  52.089 -16.473  1.00  0.00    -0.013 C 
HETATM   29  C2  UNL     1       3.149  52.062 -15.684  1.00  0.00     0.008 C 
HETATM   30  C1  UNL     1       4.456  52.638 -16.154  1.00  0.00     0.055 C 
BRANCH  29  31
HETATM   31  C30 UNL     1       3.112  51.514 -14.303  1.00  0.00     0.171 C 
HETATM   32  O2  UNL     1       3.358  50.375 -13.947  1.00  0.00    -0.646 OA
BRANCH  31  33
HETATM   33  O3  UNL     1       2.736  52.442 -13.406  1.00  0.00    -0.773 OA
HETATM   34  H46 UNL     1       2.739  51.946 -12.560  1.00  0.00     0.167 HD
ENDBRANCH  31  33
ENDBRANCH  29  31
ENDBRANCH  27  28
ENDBRANCH  26  27
ENDBRANCH  24  26
ENDBRANCH   1  24
TORSDOF 6
ENDMDL
MODEL 7
REMARK minimizedAffinity -8.78567886
REMARK  6 active torsions:
REMARK  status: ('A' for Active; 'I' for Inactive)
REMARK    1  A    between atoms: C2_2  and  C30_31 
REMARK    2  A    between atoms: C3_3  and  C4_4 
REMARK    3  A    between atoms: C4_4  and  C5_5 
REMARK    4  A    between atoms: C5_5  and  C6_6 
REMARK    5  A    between atoms: C6_6  and  C8_8 
REMARK    6  A    between atoms: C30_31  and  O3_33 
ROOT
HETATM    1  C8  UNL     1      -3.668  50.594 -25.307  1.00  0.00    -0.002 C 
HETATM    2  C9  UNL     1      -2.999  51.816 -24.601  1.00  0.00     0.007 C 
HETATM    3  C10 UNL     1      -3.229  51.664 -23.086  1.00  0.00     0.015 C 
HETATM    4  C11 UNL     1      -4.325  50.590 -22.967  1.00  0.00    -0.013 C 
HETATM    5  C12 UNL     1      -5.684  51.330 -23.199  1.00  0.00     0.021 C 
HETATM    6  C13 UNL     1      -4.497  49.850 -21.641  1.00  0.00    -0.070 C 
HETATM    7  C14 UNL     1      -4.145  50.411 -20.473  1.00  0.00    -0.022 C 
HETATM    8  C15 UNL     1      -4.586  49.844 -19.170  1.00  0.00     0.034 C 
HETATM    9  C16 UNL     1      -4.485  48.312 -19.126  1.00  0.00     0.013 C 
HETATM   10  C17 UNL     1      -3.022  47.755 -18.900  1.00  0.00     0.018 C 
HETATM   11  C18 UNL     1      -3.035  46.673 -17.789  1.00  0.00     0.023 C 
HETATM   12  C19 UNL     1      -1.991  48.807 -18.429  1.00  0.00     0.023 C 
HETATM   13  C20 UNL     1      -2.494  47.094 -20.170  1.00  0.00     0.135 C 
HETATM   14  O1  UNL     1      -1.377  47.345 -20.630  1.00  0.00    -0.297 OA
HETATM   15  C21 UNL     1      -3.334  46.011 -20.793  1.00  0.00     0.080 C 
HETATM   16  C22 UNL     1      -4.825  46.200 -20.549  1.00  0.00     0.017 C 
HETATM   17  C23 UNL     1      -5.296  47.665 -20.336  1.00  0.00    -0.031 C 
HETATM   18  C24 UNL     1      -6.787  47.548 -19.877  1.00  0.00     0.016 C 
HETATM   19  C25 UNL     1      -5.334  48.569 -21.671  1.00  0.00     0.024 C 
HETATM   20  C26 UNL     1      -5.242  47.763 -22.999  1.00  0.00     0.010 C 
HETATM   21  C27 UNL     1      -5.035  48.579 -24.286  1.00  0.00     0.011 C 
HETATM   22  C28 UNL     1      -3.902  49.609 -24.117  1.00  0.00    -0.029 C 
HETATM   23  C29 UNL     1      -2.570  48.861 -23.799  1.00  0.00     0.016 C 
ENDROOT
BRANCH   1  24
HETATM   24  C6  UNL     1      -2.853  50.133 -26.559  1.00  0.00    -0.014 C 
HETATM   25  C7  UNL     1      -3.384  48.810 -27.123  1.00  0.00     0.010 C 
BRANCH  24  26
HETATM   26  C5  UNL     1      -2.888  51.227 -27.665  1.00  0.00     0.008 C 
BRANCH  26  27
HETATM   27  C4  UNL     1      -1.760  52.270 -27.583  1.00  0.00     0.028 C 
BRANCH  27  28
HETATM   28  C3  UNL     1      -0.389  51.714 -27.317  1.00  0.00    -0.013 C 
HETATM   29  C2  UNL     1       0.528  52.136 -26.420  1.00  0.00     0.008 C 
HETATM   30  C1  UNL     1       1.855  51.441 -26.285  1.00  0.00     0.055 C 
BRANCH  29  31
HETATM   31  C30 UNL     1       0.301  53.327 -25.562  1.00  0.00     0.171 C 
HETATM   32  O2  UNL     1       0.157  53.359 -24.353  1.00  0.00    -0.646 OA
BRANCH  31  33
HETATM   33  O3  UNL     1       0.243  54.461 -26.285  1.00  0.00    -0.773 OA
HETATM   34  H46 UNL     1       0.076  55.147 -25.605  1.00  0.00     0.167 HD
ENDBRANCH  31  33
ENDBRANCH  29  31
ENDBRANCH  27  28
ENDBRANCH  26  27
ENDBRANCH  24  26
ENDBRANCH   1  24
TORSDOF 6
ENDMDL
MODEL 8
REMARK minimizedAffinity -8.65633869
REMARK  6 active torsions:
REMARK  status: ('A' for Active; 'I' for Inactive)
REMARK    1  A    between atoms: C2_2  and  C30_31 
REMARK    2  A    between atoms: C3_3  and  C4_4 
REMARK    3  A    between atoms: C4_4  and  C5_5 
REMARK    4  A    between atoms: C5_5  and  C6_6 
REMARK    5  A    between atoms: C6_6  and  C8_8 
REMARK    6  A    between atoms: C30_31  and  O3_33 
ROOT
HETATM    1  C8  UNL     1      -1.699  51.400 -21.627  1.00  0.00    -0.002 C 
HETATM    2  C9  UNL     1      -0.509  50.960 -20.716  1.00  0.00     0.007 C 
HETATM    3  C10 UNL     1      -1.074  50.032 -19.624  1.00  0.00     0.015 C 
HETATM    4  C11 UNL     1      -2.597  50.247 -19.684  1.00  0.00    -0.013 C 
HETATM    5  C12 UNL     1      -2.884  51.548 -18.865  1.00  0.00     0.021 C 
HETATM    6  C13 UNL     1      -3.519  49.187 -19.083  1.00  0.00    -0.070 C 
HETATM    7  C14 UNL     1      -3.113  48.389 -18.082  1.00  0.00    -0.022 C 
HETATM    8  C15 UNL     1      -4.077  47.582 -17.286  1.00  0.00     0.034 C 
HETATM    9  C16 UNL     1      -5.148  46.911 -18.158  1.00  0.00     0.013 C 
HETATM   10  C17 UNL     1      -4.659  45.615 -18.923  1.00  0.00     0.018 C 
HETATM   11  C18 UNL     1      -5.686  44.470 -18.732  1.00  0.00     0.023 C 
HETATM   12  C19 UNL     1      -3.312  45.038 -18.426  1.00  0.00     0.023 C 
HETATM   13  C20 UNL     1      -4.548  45.882 -20.421  1.00  0.00     0.135 C 
HETATM   14  O1  UNL     1      -3.549  45.573 -21.076  1.00  0.00    -0.297 OA
HETATM   15  C21 UNL     1      -5.764  46.428 -21.123  1.00  0.00     0.080 C 
HETATM   16  C22 UNL     1      -6.637  47.286 -20.218  1.00  0.00     0.017 C 
HETATM   17  C23 UNL     1      -5.906  47.997 -19.045  1.00  0.00    -0.031 C 
HETATM   18  C24 UNL     1      -7.048  48.595 -18.160  1.00  0.00     0.016 C 
HETATM   19  C25 UNL     1      -4.997  49.258 -19.474  1.00  0.00     0.024 C 
HETATM   20  C26 UNL     1      -5.264  49.787 -20.912  1.00  0.00     0.010 C 
HETATM   21  C27 UNL     1      -4.272  50.827 -21.458  1.00  0.00     0.011 C 
HETATM   22  C28 UNL     1      -2.815  50.379 -21.233  1.00  0.00    -0.029 C 
HETATM   23  C29 UNL     1      -2.568  49.034 -21.985  1.00  0.00     0.016 C 
ENDROOT
BRANCH   1  24
HETATM   24  C6  UNL     1      -1.261  51.547 -23.120  1.00  0.00    -0.014 C 
HETATM   25  C7  UNL     1      -2.459  51.819 -24.037  1.00  0.00     0.010 C 
BRANCH  24  26
HETATM   26  C5  UNL     1      -0.214  52.689 -23.270  1.00  0.00     0.008 C 
BRANCH  26  27
HETATM   27  C4  UNL     1       0.896  52.421 -24.301  1.00  0.00     0.028 C 
BRANCH  27  28
HETATM   28  C3  UNL     1       0.443  52.375 -25.735  1.00  0.00    -0.013 C 
HETATM   29  C2  UNL     1       1.123  51.936 -26.815  1.00  0.00     0.008 C 
HETATM   30  C1  UNL     1       0.497  51.953 -28.183  1.00  0.00     0.055 C 
BRANCH  29  31
HETATM   31  C30 UNL     1       2.528  51.461 -26.723  1.00  0.00     0.171 C 
HETATM   32  O2  UNL     1       2.960  50.537 -26.057  1.00  0.00    -0.646 OA
BRANCH  31  33
HETATM   33  O3  UNL     1       3.357  52.202 -27.479  1.00  0.00    -0.773 OA
HETATM   34  H46 UNL     1       4.232  51.795 -27.311  1.00  0.00     0.167 HD
ENDBRANCH  31  33
ENDBRANCH  29  31
ENDBRANCH  27  28
ENDBRANCH  26  27
ENDBRANCH  24  26
ENDBRANCH   1  24
TORSDOF 6
ENDMDL
MODEL 9
REMARK minimizedAffinity -8.63321018
REMARK  6 active torsions:
REMARK  status: ('A' for Active; 'I' for Inactive)
REMARK    1  A    between atoms: C2_2  and  C30_31 
REMARK    2  A    between atoms: C3_3  and  C4_4 
REMARK    3  A    between atoms: C4_4  and  C5_5 
REMARK    4  A    between atoms: C5_5  and  C6_6 
REMARK    5  A    between atoms: C6_6  and  C8_8 
REMARK    6  A    between atoms: C30_31  and  O3_33 
ROOT
HETATM    1  C8  UNL     1      -2.242  50.549 -24.910  1.00  0.00    -0.002 C 
HETATM    2  C9  UNL     1      -1.031  50.843 -23.969  1.00  0.00     0.007 C 
HETATM    3  C10 UNL     1      -1.500  50.625 -22.519  1.00  0.00     0.015 C 
HETATM    4  C11 UNL     1      -3.036  50.581 -22.612  1.00  0.00    -0.013 C 
HETATM    5  C12 UNL     1      -3.512  52.071 -22.646  1.00  0.00     0.021 C 
HETATM    6  C13 UNL     1      -3.830  49.937 -21.476  1.00  0.00    -0.070 C 
HETATM    7  C14 UNL     1      -3.352  49.893 -20.223  1.00  0.00    -0.022 C 
HETATM    8  C15 UNL     1      -4.225  49.559 -19.065  1.00  0.00     0.034 C 
HETATM    9  C16 UNL     1      -5.176  48.390 -19.359  1.00  0.00     0.013 C 
HETATM   10  C17 UNL     1      -4.503  46.960 -19.293  1.00  0.00     0.018 C 
HETATM   11  C18 UNL     1      -5.379  46.002 -18.445  1.00  0.00     0.023 C 
HETATM   12  C19 UNL     1      -3.107  46.929 -18.627  1.00  0.00     0.023 C 
HETATM   13  C20 UNL     1      -4.387  46.353 -20.689  1.00  0.00     0.135 C 
HETATM   14  O1  UNL     1      -3.339  45.856 -21.108  1.00  0.00    -0.297 OA
HETATM   15  C21 UNL     1      -5.643  46.259 -21.514  1.00  0.00     0.080 C 
HETATM   16  C22 UNL     1      -6.645  47.362 -21.200  1.00  0.00     0.017 C 
HETATM   17  C23 UNL     1      -6.043  48.690 -20.662  1.00  0.00    -0.031 C 
HETATM   18  C24 UNL     1      -7.277  49.537 -20.206  1.00  0.00     0.016 C 
HETATM   19  C25 UNL     1      -5.293  49.595 -21.766  1.00  0.00     0.024 C 
HETATM   20  C26 UNL     1      -5.587  49.191 -23.240  1.00  0.00     0.010 C 
HETATM   21  C27 UNL     1      -4.723  49.859 -24.322  1.00  0.00     0.011 C 
HETATM   22  C28 UNL     1      -3.227  49.795 -23.958  1.00  0.00    -0.029 C 
HETATM   23  C29 UNL     1      -2.788  48.303 -23.842  1.00  0.00     0.016 C 
ENDROOT
BRANCH   1  24
HETATM   24  C6  UNL     1      -1.786  49.887 -26.250  1.00  0.00    -0.014 C 
HETATM   25  C7  UNL     1      -2.801  48.849 -26.743  1.00  0.00     0.010 C 
BRANCH  24  26
HETATM   26  C5  UNL     1      -1.568  50.970 -27.346  1.00  0.00     0.008 C 
BRANCH  26  27
HETATM   27  C4  UNL     1      -0.129  51.502 -27.457  1.00  0.00     0.028 C 
BRANCH  27  28
HETATM   28  C3  UNL     1       0.364  52.273 -26.264  1.00  0.00    -0.013 C 
HETATM   29  C2  UNL     1       0.302  53.603 -26.041  1.00  0.00     0.008 C 
HETATM   30  C1  UNL     1       0.841  54.200 -24.770  1.00  0.00     0.055 C 
BRANCH  29  31
HETATM   31  C30 UNL     1      -0.250  54.546 -27.048  1.00  0.00     0.171 C 
HETATM   32  O2  UNL     1      -1.022  54.298 -27.957  1.00  0.00    -0.646 OA
BRANCH  31  33
HETATM   33  O3  UNL     1       0.221  55.794 -26.875  1.00  0.00    -0.773 OA
HETATM   34  H46 UNL     1      -0.205  56.294 -27.603  1.00  0.00     0.167 HD
ENDBRANCH  31  33
ENDBRANCH  29  31
ENDBRANCH  27  28
ENDBRANCH  26  27
ENDBRANCH  24  26
ENDBRANCH   1  24
TORSDOF 6
ENDMDL
