MODEL 1
REMARK minimizedAffinity -8.52051449
REMARK CNNscore 0.796533525
REMARK CNNaffinity 6.91222715
REMARK  16 active torsions:
REMARK  status: ('A' for Active; 'I' for Inactive)
REMARK    1  A    between atoms: S1_2  and  C2_3 
REMARK    2  A    between atoms: C2_3  and  C3_4 
REMARK    3  A    between atoms: C3_4  and  C4_5 
REMARK    4  A    between atoms: C4_5  and  N1_6 
REMARK    5  A    between atoms: C4_5  and  C33_44 
REMARK       I    between atoms: N1_6  and  C5_7 
REMARK    6  A    between atoms: C5_7  and  C6_9 
REMARK    7  A    between atoms: C6_9  and  N2_11 
REMARK       I    between atoms: N2_11  and  C8_12 
REMARK    8  A    between atoms: C8_12  and  C9_14 
REMARK    9  A    between atoms: C9_14  and  C10_15 
REMARK   10  A    between atoms: C10_15  and  C11_16 
REMARK   11  A    between atoms: C11_16  and  O4_18 
REMARK   12  A    between atoms: O4_18  and  C12_19 
REMARK   13  A    between atoms: C12_19  and  C13_20 
REMARK   14  A    between atoms: C13_20  and  C14_22 
REMARK   15  A    between atoms: C14_22  and  O6_23 
REMARK   16  A    between atoms: C33_44  and  O10_46 
ROOT
HETATM    1  C12 UNL     1      -7.231  47.082 -24.433  1.00  0.00     0.260 C 
ENDROOT
BRANCH   1   2
HETATM    2  O4  UNL     1      -8.616  47.029 -24.091  1.00  0.00    -0.314 OA
BRANCH   2   3
HETATM    3  C11 UNL     1      -9.442  47.680 -24.958  1.00  0.00     0.259 C 
HETATM    4  O3  UNL     1      -9.447  48.890 -25.140  1.00  0.00    -0.265 OA
BRANCH   3   5
HETATM    5  C10 UNL     1     -10.386  46.690 -25.599  1.00  0.00     0.120 C 
BRANCH   5   6
HETATM    6  C9  UNL     1     -10.903  47.192 -26.940  1.00  0.00     0.112 C 
BRANCH   6   7
HETATM    7  C8  UNL     1     -12.402  47.011 -27.068  1.00  0.00     0.218 C 
HETATM    8  N2  UNL     1     -12.882  45.921 -26.377  1.00  0.00    -0.348 N 
HETATM    9  H14 UNL     1     -12.214  45.253 -26.015  1.00  0.00     0.163 HD
HETATM   10  O2  UNL     1     -13.119  47.726 -27.758  1.00  0.00    -0.274 OA
BRANCH   8  11
HETATM   11  C6  UNL     1     -14.273  45.475 -26.501  1.00  0.00     0.172 C 
HETATM   12  C7  UNL     1     -14.767  45.701 -27.923  1.00  0.00     0.042 C 
BRANCH  11  13
HETATM   13  C5  UNL     1     -15.159  46.218 -25.476  1.00  0.00     0.240 C 
HETATM   14  N1  UNL     1     -16.298  45.541 -25.103  1.00  0.00    -0.345 N 
HETATM   15  H9  UNL     1     -16.575  44.729 -25.659  1.00  0.00     0.163 HD
HETATM   16  O1  UNL     1     -14.902  47.342 -25.060  1.00  0.00    -0.271 OA
BRANCH  14  17
HETATM   17  C4  UNL     1     -17.325  46.122 -24.238  1.00  0.00     0.183 C 
BRANCH  17  18
HETATM   18  C3  UNL     1     -17.694  45.242 -23.030  1.00  0.00     0.046 C 
BRANCH  18  19
HETATM   19  C2  UNL     1     -19.085  44.607 -23.058  1.00  0.00     0.076 C 
BRANCH  19  20
HETATM   20  S1  UNL     1     -19.174  42.969 -23.850  1.00  0.00    -0.173 SA
HETATM   21  C1  UNL     1     -20.791  42.421 -23.246  1.00  0.00     0.089 C 
ENDBRANCH  19  20
ENDBRANCH  18  19
ENDBRANCH  17  18
BRANCH  17  22
HETATM   22  C33 UNL     1     -18.531  46.505 -25.097  1.00  0.00     0.163 C 
HETATM   23  O9  UNL     1     -18.924  45.911 -26.091  1.00  0.00    -0.648 OA
BRANCH  22  24
HETATM   24  O10 UNL     1     -19.136  47.647 -24.708  1.00  0.00    -0.775 OA
HETATM   25  H46 UNL     1     -19.864  47.752 -25.358  1.00  0.00     0.167 HD
ENDBRANCH  22  24
ENDBRANCH  17  22
ENDBRANCH  14  17
ENDBRANCH  11  13
ENDBRANCH   8  11
ENDBRANCH   6   7
ENDBRANCH   5   6
ENDBRANCH   3   5
ENDBRANCH   2   3
ENDBRANCH   1   2
BRANCH   1  26
HETATM   26  C13 UNL     1      -6.380  47.735 -23.345  1.00  0.00     0.185 C 
HETATM   27  O5  UNL     1      -6.013  47.116 -22.338  1.00  0.00    -0.292 OA
BRANCH  26  28
HETATM   28  C14 UNL     1      -5.923  49.195 -23.526  1.00  0.00     0.128 C 
HETATM   29  C15 UNL     1      -5.963  50.097 -22.274  1.00  0.00     0.047 C 
HETATM   30  C16 UNL     1      -4.876  51.173 -22.478  1.00  0.00     0.009 C 
HETATM   31  C17 UNL     1      -4.300  50.892 -23.865  1.00  0.00     0.002 C 
HETATM   32  C18 UNL     1      -2.937  51.480 -24.246  1.00  0.00     0.003 C 
HETATM   33  C31 UNL     1      -4.463  49.369 -24.061  1.00  0.00     0.005 C 
HETATM   34  C19 UNL     1      -1.940  51.722 -23.096  1.00  0.00     0.010 C 
HETATM   35  C28 UNL     1      -2.215  50.691 -25.368  1.00  0.00     0.072 C 
HETATM   36  C20 UNL     1      -0.506  51.977 -23.599  1.00  0.00     0.035 C 
HETATM   37  C21 UNL     1      -0.513  52.519 -25.010  1.00  0.00    -0.067 C 
HETATM   38  C22 UNL     1      -0.056  53.757 -25.266  1.00  0.00     0.053 C 
HETATM   39  C26 UNL     1      -1.157  51.614 -26.079  1.00  0.00    -0.009 C 
HETATM   40  C23 UNL     1      -0.132  54.344 -26.622  1.00  0.00     0.149 C 
HETATM   41  O7  UNL     1       0.393  55.435 -26.825  1.00  0.00    -0.293 OA
HETATM   42  C24 UNL     1      -0.820  53.565 -27.718  1.00  0.00     0.084 C 
HETATM   43  C25 UNL     1      -1.788  52.522 -27.166  1.00  0.00     0.022 C 
HETATM   44  C27 UNL     1      -0.049  50.732 -26.696  1.00  0.00     0.021 C 
HETATM   45  C29 UNL     1      -3.186  49.894 -26.245  1.00  0.00     0.133 C 
HETATM   46  O8  UNL     1      -3.063  49.829 -27.469  1.00  0.00    -0.297 OA
HETATM   47  C30 UNL     1      -4.261  49.051 -25.558  1.00  0.00     0.091 C 
HETATM   48  C32 UNL     1      -3.485  48.533 -23.203  1.00  0.00     0.019 C 
BRANCH  28  49
HETATM   49  O6  UNL     1      -6.868  49.766 -24.453  1.00  0.00    -0.381 OA
HETATM   50  H21 UNL     1      -7.037  49.090 -25.139  1.00  0.00     0.211 HD
ENDBRANCH  28  49
ENDBRANCH  26  28
ENDBRANCH   1  26
TORSDOF 16
ENDMDL
MODEL 2
REMARK minimizedAffinity -8.09925747
REMARK CNNscore 0.47920832
REMARK CNNaffinity 6.32995987
REMARK  16 active torsions:
REMARK  status: ('A' for Active; 'I' for Inactive)
REMARK    1  A    between atoms: S1_2  and  C2_3 
REMARK    2  A    between atoms: C2_3  and  C3_4 
REMARK    3  A    between atoms: C3_4  and  C4_5 
REMARK    4  A    between atoms: C4_5  and  N1_6 
REMARK    5  A    between atoms: C4_5  and  C33_44 
REMARK       I    between atoms: N1_6  and  C5_7 
REMARK    6  A    between atoms: C5_7  and  C6_9 
REMARK    7  A    between atoms: C6_9  and  N2_11 
REMARK       I    between atoms: N2_11  and  C8_12 
REMARK    8  A    between atoms: C8_12  and  C9_14 
REMARK    9  A    between atoms: C9_14  and  C10_15 
REMARK   10  A    between atoms: C10_15  and  C11_16 
REMARK   11  A    between atoms: C11_16  and  O4_18 
REMARK   12  A    between atoms: O4_18  and  C12_19 
REMARK   13  A    between atoms: C12_19  and  C13_20 
REMARK   14  A    between atoms: C13_20  and  C14_22 
REMARK   15  A    between atoms: C14_22  and  O6_23 
REMARK   16  A    between atoms: C33_44  and  O10_46 
ROOT
HETATM    1  C12 UNL     1      -8.768  48.114 -25.927  1.00  0.00     0.260 C 
ENDROOT
BRANCH   1   2
HETATM    2  O4  UNL     1      -8.888  47.650 -24.582  1.00  0.00    -0.314 OA
BRANCH   2   3
HETATM    3  C11 UNL     1      -7.702  47.398 -23.958  1.00  0.00     0.259 C 
HETATM    4  O3  UNL     1      -7.449  46.380 -23.330  1.00  0.00    -0.265 OA
BRANCH   3   5
HETATM    5  C10 UNL     1      -6.789  48.591 -24.106  1.00  0.00     0.120 C 
BRANCH   5   6
HETATM    6  C9  UNL     1      -5.334  48.220 -23.856  1.00  0.00     0.112 C 
BRANCH   6   7
HETATM    7  C8  UNL     1      -4.446  49.446 -23.778  1.00  0.00     0.218 C 
HETATM    8  N2  UNL     1      -4.083  49.777 -22.493  1.00  0.00    -0.348 N 
HETATM    9  H14 UNL     1      -4.563  49.320 -21.727  1.00  0.00     0.163 HD
HETATM   10  O2  UNL     1      -4.120  50.115 -24.752  1.00  0.00    -0.274 OA
BRANCH   8  11
HETATM   11  C6  UNL     1      -3.364  51.017 -22.185  1.00  0.00     0.172 C 
HETATM   12  C7  UNL     1      -4.269  52.217 -22.425  1.00  0.00     0.042 C 
BRANCH  11  13
HETATM   13  C5  UNL     1      -2.078  51.107 -23.036  1.00  0.00     0.240 C 
HETATM   14  N1  UNL     1      -2.040  52.171 -23.910  1.00  0.00    -0.345 N 
HETATM   15  H9  UNL     1      -2.910  52.681 -24.079  1.00  0.00     0.163 HD
HETATM   16  O1  UNL     1      -1.179  50.276 -22.981  1.00  0.00    -0.271 OA
BRANCH  14  17
HETATM   17  C4  UNL     1      -0.967  52.365 -24.885  1.00  0.00     0.183 C 
BRANCH  17  18
HETATM   18  C3  UNL     1      -0.585  51.089 -25.654  1.00  0.00     0.046 C 
BRANCH  18  19
HETATM   19  C2  UNL     1      -0.773  51.133 -27.172  1.00  0.00     0.076 C 
BRANCH  19  20
HETATM   20  S1  UNL     1       0.514  52.043 -28.086  1.00  0.00    -0.173 SA
HETATM   21  C1  UNL     1      -0.234  53.692 -28.114  1.00  0.00     0.089 C 
ENDBRANCH  19  20
ENDBRANCH  18  19
ENDBRANCH  17  18
BRANCH  17  22
HETATM   22  C33 UNL     1       0.220  53.026 -24.182  1.00  0.00     0.163 C 
HETATM   23  O9  UNL     1       1.192  53.526 -24.729  1.00  0.00    -0.648 OA
BRANCH  22  24
HETATM   24  O10 UNL     1       0.160  52.962 -22.835  1.00  0.00    -0.775 OA
HETATM   25  H46 UNL     1       0.985  53.410 -22.549  1.00  0.00     0.167 HD
ENDBRANCH  22  24
ENDBRANCH  17  22
ENDBRANCH  14  17
ENDBRANCH  11  13
ENDBRANCH   8  11
ENDBRANCH   6   7
ENDBRANCH   5   6
ENDBRANCH   3   5
ENDBRANCH   2   3
ENDBRANCH   1   2
BRANCH   1  26
HETATM   26  C13 UNL     1      -9.573  47.272 -26.915  1.00  0.00     0.185 C 
HETATM   27  O5  UNL     1      -9.088  46.287 -27.486  1.00  0.00    -0.292 OA
BRANCH  26  28
HETATM   28  C14 UNL     1     -11.048  47.630 -27.176  1.00  0.00     0.128 C 
HETATM   29  C15 UNL     1     -11.500  47.689 -28.651  1.00  0.00     0.047 C 
HETATM   30  C16 UNL     1     -13.006  47.353 -28.659  1.00  0.00     0.009 C 
HETATM   31  C17 UNL     1     -13.378  47.182 -27.187  1.00  0.00     0.002 C 
HETATM   32  C18 UNL     1     -14.673  46.447 -26.820  1.00  0.00     0.003 C 
HETATM   33  C31 UNL     1     -12.089  46.671 -26.508  1.00  0.00     0.005 C 
HETATM   34  C19 UNL     1     -15.164  45.373 -27.809  1.00  0.00     0.010 C 
HETATM   35  C28 UNL     1     -14.652  45.836 -25.395  1.00  0.00     0.072 C 
HETATM   36  C20 UNL     1     -16.250  44.462 -27.203  1.00  0.00     0.035 C 
HETATM   37  C21 UNL     1     -16.985  45.164 -26.084  1.00  0.00    -0.067 C 
HETATM   38  C22 UNL     1     -18.296  45.442 -26.199  1.00  0.00     0.053 C 
HETATM   39  C26 UNL     1     -16.125  45.613 -24.885  1.00  0.00    -0.009 C 
HETATM   40  C23 UNL     1     -19.019  46.205 -25.158  1.00  0.00     0.149 C 
HETATM   41  O7  UNL     1     -20.235  46.341 -25.261  1.00  0.00    -0.293 OA
HETATM   42  C24 UNL     1     -18.244  46.756 -23.985  1.00  0.00     0.084 C 
HETATM   43  C25 UNL     1     -16.755  46.899 -24.291  1.00  0.00     0.022 C 
HETATM   44  C27 UNL     1     -16.132  44.480 -23.836  1.00  0.00     0.021 C 
HETATM   45  C29 UNL     1     -13.664  46.545 -24.464  1.00  0.00     0.133 C 
HETATM   46  O8  UNL     1     -13.935  46.798 -23.289  1.00  0.00    -0.297 OA
HETATM   47  C30 UNL     1     -12.253  46.827 -24.982  1.00  0.00     0.091 C 
HETATM   48  C32 UNL     1     -11.753  45.203 -26.860  1.00  0.00     0.019 C 
BRANCH  28  49
HETATM   49  O6  UNL     1     -11.200  48.969 -26.664  1.00  0.00    -0.381 OA
HETATM   50  H21 UNL     1     -10.702  49.010 -25.824  1.00  0.00     0.211 HD
ENDBRANCH  28  49
ENDBRANCH  26  28
ENDBRANCH   1  26
TORSDOF 16
ENDMDL
MODEL 3
REMARK minimizedAffinity -8.1568985
REMARK CNNscore 0.376816362
REMARK CNNaffinity 6.68823576
REMARK  16 active torsions:
REMARK  status: ('A' for Active; 'I' for Inactive)
REMARK    1  A    between atoms: S1_2  and  C2_3 
REMARK    2  A    between atoms: C2_3  and  C3_4 
REMARK    3  A    between atoms: C3_4  and  C4_5 
REMARK    4  A    between atoms: C4_5  and  N1_6 
REMARK    5  A    between atoms: C4_5  and  C33_44 
REMARK       I    between atoms: N1_6  and  C5_7 
REMARK    6  A    between atoms: C5_7  and  C6_9 
REMARK    7  A    between atoms: C6_9  and  N2_11 
REMARK       I    between atoms: N2_11  and  C8_12 
REMARK    8  A    between atoms: C8_12  and  C9_14 
REMARK    9  A    between atoms: C9_14  and  C10_15 
REMARK   10  A    between atoms: C10_15  and  C11_16 
REMARK   11  A    between atoms: C11_16  and  O4_18 
REMARK   12  A    between atoms: O4_18  and  C12_19 
REMARK   13  A    between atoms: C12_19  and  C13_20 
REMARK   14  A    between atoms: C13_20  and  C14_22 
REMARK   15  A    between atoms: C14_22  and  O6_23 
REMARK   16  A    between atoms: C33_44  and  O10_46 
ROOT
HETATM    1  C12 UNL     1      -7.199  47.023 -24.563  1.00  0.00     0.260 C 
ENDROOT
BRANCH   1   2
HETATM    2  O4  UNL     1      -8.624  47.087 -24.524  1.00  0.00    -0.314 OA
BRANCH   2   3
HETATM    3  C11 UNL     1      -9.188  47.826 -25.521  1.00  0.00     0.259 C 
HETATM    4  O3  UNL     1      -9.793  48.877 -25.352  1.00  0.00    -0.265 OA
BRANCH   3   5
HETATM    5  C10 UNL     1      -9.012  47.115 -26.841  1.00  0.00     0.120 C 
BRANCH   5   6
HETATM    6  C9  UNL     1      -8.616  48.079 -27.951  1.00  0.00     0.112 C 
BRANCH   6   7
HETATM    7  C8  UNL     1      -7.311  47.676 -28.607  1.00  0.00     0.218 C 
HETATM    8  N2  UNL     1      -7.475  47.121 -29.856  1.00  0.00    -0.348 N 
HETATM    9  H14 UNL     1      -8.410  46.864 -30.146  1.00  0.00     0.163 HD
HETATM   10  O2  UNL     1      -6.215  47.780 -28.067  1.00  0.00    -0.274 OA
BRANCH   8  11
HETATM   11  C6  UNL     1      -6.359  46.518 -30.590  1.00  0.00     0.172 C 
HETATM   12  C7  UNL     1      -6.214  47.182 -31.952  1.00  0.00     0.042 C 
BRANCH  11  13
HETATM   13  C5  UNL     1      -6.578  44.996 -30.730  1.00  0.00     0.240 C 
HETATM   14  N1  UNL     1      -6.528  44.523 -32.022  1.00  0.00    -0.345 N 
HETATM   15  H9  UNL     1      -6.559  45.207 -32.782  1.00  0.00     0.163 HD
HETATM   16  O1  UNL     1      -6.826  44.265 -29.777  1.00  0.00    -0.271 OA
BRANCH  14  17
HETATM   17  C4  UNL     1      -6.828  43.137 -32.378  1.00  0.00     0.183 C 
BRANCH  17  18
HETATM   18  C3  UNL     1      -5.586  42.233 -32.469  1.00  0.00     0.046 C 
BRANCH  18  19
HETATM   19  C2  UNL     1      -4.349  42.849 -33.125  1.00  0.00     0.076 C 
BRANCH  19  20
HETATM   20  S1  UNL     1      -3.619  41.869 -34.477  1.00  0.00    -0.173 SA
HETATM   21  C1  UNL     1      -3.481  40.262 -33.653  1.00  0.00     0.089 C 
ENDBRANCH  19  20
ENDBRANCH  18  19
ENDBRANCH  17  18
BRANCH  17  22
HETATM   22  C33 UNL     1      -7.675  43.129 -33.652  1.00  0.00     0.163 C 
HETATM   23  O9  UNL     1      -8.256  44.090 -34.134  1.00  0.00    -0.648 OA
BRANCH  22  24
HETATM   24  O10 UNL     1      -7.805  41.908 -34.212  1.00  0.00    -0.775 OA
HETATM   25  H46 UNL     1      -8.375  42.075 -34.993  1.00  0.00     0.167 HD
ENDBRANCH  22  24
ENDBRANCH  17  22
ENDBRANCH  14  17
ENDBRANCH  11  13
ENDBRANCH   8  11
ENDBRANCH   6   7
ENDBRANCH   5   6
ENDBRANCH   3   5
ENDBRANCH   2   3
ENDBRANCH   1   2
BRANCH   1  26
HETATM   26  C13 UNL     1      -6.544  47.738 -23.382  1.00  0.00     0.185 C 
HETATM   27  O5  UNL     1      -6.348  47.172 -22.298  1.00  0.00    -0.292 OA
BRANCH  26  28
HETATM   28  C14 UNL     1      -6.069  49.193 -23.556  1.00  0.00     0.128 C 
HETATM   29  C15 UNL     1      -6.138  50.102 -22.311  1.00  0.00     0.047 C 
HETATM   30  C16 UNL     1      -5.036  51.167 -22.487  1.00  0.00     0.009 C 
HETATM   31  C17 UNL     1      -4.422  50.874 -23.855  1.00  0.00     0.002 C 
HETATM   32  C18 UNL     1      -3.043  51.449 -24.199  1.00  0.00     0.003 C 
HETATM   33  C31 UNL     1      -4.592  49.352 -24.050  1.00  0.00     0.005 C 
HETATM   34  C19 UNL     1      -2.079  51.688 -23.021  1.00  0.00     0.010 C 
HETATM   35  C28 UNL     1      -2.296  50.647 -25.295  1.00  0.00     0.072 C 
HETATM   36  C20 UNL     1      -0.628  51.928 -23.483  1.00  0.00     0.035 C 
HETATM   37  C21 UNL     1      -0.589  52.462 -24.896  1.00  0.00    -0.067 C 
HETATM   38  C22 UNL     1      -0.114  53.696 -25.145  1.00  0.00     0.053 C 
HETATM   39  C26 UNL     1      -1.209  51.558 -25.980  1.00  0.00    -0.009 C 
HETATM   40  C23 UNL     1      -0.145  54.276 -26.505  1.00  0.00     0.149 C 
HETATM   41  O7  UNL     1       0.396  55.362 -26.698  1.00  0.00    -0.293 OA
HETATM   42  C24 UNL     1      -0.806  53.498 -27.617  1.00  0.00     0.084 C 
HETATM   43  C25 UNL     1      -1.799  52.466 -27.089  1.00  0.00     0.022 C 
HETATM   44  C27 UNL     1      -0.091  50.664 -26.560  1.00  0.00     0.021 C 
HETATM   45  C29 UNL     1      -3.247  49.855 -26.197  1.00  0.00     0.133 C 
HETATM   46  O8  UNL     1      -3.089  49.783 -27.417  1.00  0.00    -0.297 OA
HETATM   47  C30 UNL     1      -4.350  49.025 -25.538  1.00  0.00     0.091 C 
HETATM   48  C32 UNL     1      -3.648  48.512 -23.159  1.00  0.00     0.019 C 
BRANCH  28  49
HETATM   49  O6  UNL     1      -6.982  49.767 -24.514  1.00  0.00    -0.381 OA
HETATM   50  H21 UNL     1      -7.136  49.089 -25.201  1.00  0.00     0.211 HD
ENDBRANCH  28  49
ENDBRANCH  26  28
ENDBRANCH   1  26
TORSDOF 16
ENDMDL
MODEL 4
REMARK minimizedAffinity -8.73897743
REMARK CNNscore 0.342457801
REMARK CNNaffinity 7.26377153
REMARK  16 active torsions:
REMARK  status: ('A' for Active; 'I' for Inactive)
REMARK    1  A    between atoms: S1_2  and  C2_3 
REMARK    2  A    between atoms: C2_3  and  C3_4 
REMARK    3  A    between atoms: C3_4  and  C4_5 
REMARK    4  A    between atoms: C4_5  and  N1_6 
REMARK    5  A    between atoms: C4_5  and  C33_44 
REMARK       I    between atoms: N1_6  and  C5_7 
REMARK    6  A    between atoms: C5_7  and  C6_9 
REMARK    7  A    between atoms: C6_9  and  N2_11 
REMARK       I    between atoms: N2_11  and  C8_12 
REMARK    8  A    between atoms: C8_12  and  C9_14 
REMARK    9  A    between atoms: C9_14  and  C10_15 
REMARK   10  A    between atoms: C10_15  and  C11_16 
REMARK   11  A    between atoms: C11_16  and  O4_18 
REMARK   12  A    between atoms: O4_18  and  C12_19 
REMARK   13  A    between atoms: C12_19  and  C13_20 
REMARK   14  A    between atoms: C13_20  and  C14_22 
REMARK   15  A    between atoms: C14_22  and  O6_23 
REMARK   16  A    between atoms: C33_44  and  O10_46 
ROOT
HETATM    1  C12 UNL     1      -4.595  50.365 -20.124  1.00  0.00     0.260 C 
ENDROOT
BRANCH   1   2
HETATM    2  O4  UNL     1      -3.538  49.781 -19.362  1.00  0.00    -0.314 OA
BRANCH   2   3
HETATM    3  C11 UNL     1      -2.720  50.679 -18.742  1.00  0.00     0.259 C 
HETATM    4  O3  UNL     1      -3.026  51.834 -18.479  1.00  0.00    -0.265 OA
BRANCH   3   5
HETATM    5  C10 UNL     1      -1.369  50.050 -18.500  1.00  0.00     0.120 C 
BRANCH   5   6
HETATM    6  C9  UNL     1      -0.257  50.818 -19.201  1.00  0.00     0.112 C 
BRANCH   6   7
HETATM    7  C8  UNL     1       0.341  51.884 -18.307  1.00  0.00     0.218 C 
HETATM    8  N2  UNL     1       0.835  51.390 -17.121  1.00  0.00    -0.348 N 
HETATM    9  H14 UNL     1       0.605  50.437 -16.867  1.00  0.00     0.163 HD
HETATM   10  O2  UNL     1       0.343  53.080 -18.578  1.00  0.00    -0.274 OA
BRANCH   8  11
HETATM   11  C6  UNL     1       1.308  52.271 -16.049  1.00  0.00     0.172 C 
HETATM   12  C7  UNL     1       2.830  52.288 -16.023  1.00  0.00     0.042 C 
BRANCH  11  13
HETATM   13  C5  UNL     1       0.730  51.811 -14.692  1.00  0.00     0.240 C 
HETATM   14  N1  UNL     1       1.011  52.646 -13.634  1.00  0.00    -0.345 N 
HETATM   15  H9  UNL     1       1.725  53.366 -13.770  1.00  0.00     0.163 HD
HETATM   16  O1  UNL     1       0.112  50.762 -14.550  1.00  0.00    -0.271 OA
BRANCH  14  17
HETATM   17  C4  UNL     1       0.658  52.328 -12.251  1.00  0.00     0.183 C 
BRANCH  17  18
HETATM   18  C3  UNL     1      -0.648  52.989 -11.773  1.00  0.00     0.046 C 
BRANCH  18  19
HETATM   19  C2  UNL     1      -1.742  52.041 -11.279  1.00  0.00     0.076 C 
BRANCH  19  20
HETATM   20  S1  UNL     1      -2.701  52.642  -9.851  1.00  0.00    -0.173 SA
HETATM   21  C1  UNL     1      -3.743  53.873 -10.676  1.00  0.00     0.089 C 
ENDBRANCH  19  20
ENDBRANCH  18  19
ENDBRANCH  17  18
BRANCH  17  22
HETATM   22  C33 UNL     1       1.857  52.642 -11.355  1.00  0.00     0.163 C 
HETATM   23  O9  UNL     1       2.980  52.942 -11.733  1.00  0.00    -0.648 OA
BRANCH  22  24
HETATM   24  O10 UNL     1       1.605  52.495 -10.036  1.00  0.00    -0.775 OA
HETATM   25  H46 UNL     1       2.463  52.717  -9.614  1.00  0.00     0.167 HD
ENDBRANCH  22  24
ENDBRANCH  17  22
ENDBRANCH  14  17
ENDBRANCH  11  13
ENDBRANCH   8  11
ENDBRANCH   6   7
ENDBRANCH   5   6
ENDBRANCH   3   5
ENDBRANCH   2   3
ENDBRANCH   1   2
BRANCH   1  26
HETATM   26  C13 UNL     1      -5.100  49.444 -21.233  1.00  0.00     0.185 C 
HETATM   27  O5  UNL     1      -6.258  49.006 -21.247  1.00  0.00    -0.292 OA
BRANCH  26  28
HETATM   28  C14 UNL     1      -4.156  49.084 -22.396  1.00  0.00     0.128 C 
HETATM   29  C15 UNL     1      -4.766  48.283 -23.566  1.00  0.00     0.047 C 
HETATM   30  C16 UNL     1      -3.942  48.647 -24.819  1.00  0.00     0.009 C 
HETATM   31  C17 UNL     1      -2.850  49.587 -24.312  1.00  0.00     0.002 C 
HETATM   32  C18 UNL     1      -2.099  50.476 -25.311  1.00  0.00     0.003 C 
HETATM   33  C31 UNL     1      -3.477  50.307 -23.099  1.00  0.00     0.005 C 
HETATM   34  C19 UNL     1      -2.868  50.894 -26.580  1.00  0.00     0.010 C 
HETATM   35  C28 UNL     1      -1.481  51.742 -24.667  1.00  0.00     0.072 C 
HETATM   36  C20 UNL     1      -2.177  52.045 -27.337  1.00  0.00     0.035 C 
HETATM   37  C21 UNL     1      -0.696  52.079 -27.041  1.00  0.00    -0.067 C 
HETATM   38  C22 UNL     1       0.199  51.854 -28.020  1.00  0.00     0.053 C 
HETATM   39  C26 UNL     1      -0.304  52.281 -25.564  1.00  0.00    -0.009 C 
HETATM   40  C23 UNL     1       1.651  51.795 -27.741  1.00  0.00     0.149 C 
HETATM   41  O7  UNL     1       2.431  51.693 -28.684  1.00  0.00    -0.293 OA
HETATM   42  C24 UNL     1       2.125  51.901 -26.312  1.00  0.00     0.084 C 
HETATM   43  C25 UNL     1       1.032  51.537 -25.310  1.00  0.00     0.022 C 
HETATM   44  C27 UNL     1      -0.129  53.795 -25.314  1.00  0.00     0.021 C 
HETATM   45  C29 UNL     1      -1.228  51.576 -23.165  1.00  0.00     0.133 C 
HETATM   46  O8  UNL     1      -0.204  51.994 -22.621  1.00  0.00    -0.297 OA
HETATM   47  C30 UNL     1      -2.344  50.987 -22.302  1.00  0.00     0.091 C 
HETATM   48  C32 UNL     1      -4.550  51.349 -23.492  1.00  0.00     0.019 C 
BRANCH  28  49
HETATM   49  O6  UNL     1      -3.157  48.226 -21.810  1.00  0.00    -0.381 OA
HETATM   50  H21 UNL     1      -2.933  48.605 -20.937  1.00  0.00     0.211 HD
ENDBRANCH  28  49
ENDBRANCH  26  28
ENDBRANCH   1  26
TORSDOF 16
ENDMDL
MODEL 5
REMARK minimizedAffinity -8.11311722
REMARK CNNscore 0.318003386
REMARK CNNaffinity 6.81995201
REMARK  16 active torsions:
REMARK  status: ('A' for Active; 'I' for Inactive)
REMARK    1  A    between atoms: S1_2  and  C2_3 
REMARK    2  A    between atoms: C2_3  and  C3_4 
REMARK    3  A    between atoms: C3_4  and  C4_5 
REMARK    4  A    between atoms: C4_5  and  N1_6 
REMARK    5  A    between atoms: C4_5  and  C33_44 
REMARK       I    between atoms: N1_6  and  C5_7 
REMARK    6  A    between atoms: C5_7  and  C6_9 
REMARK    7  A    between atoms: C6_9  and  N2_11 
REMARK       I    between atoms: N2_11  and  C8_12 
REMARK    8  A    between atoms: C8_12  and  C9_14 
REMARK    9  A    between atoms: C9_14  and  C10_15 
REMARK   10  A    between atoms: C10_15  and  C11_16 
REMARK   11  A    between atoms: C11_16  and  O4_18 
REMARK   12  A    between atoms: O4_18  and  C12_19 
REMARK   13  A    between atoms: C12_19  and  C13_20 
REMARK   14  A    between atoms: C13_20  and  C14_22 
REMARK   15  A    between atoms: C14_22  and  O6_23 
REMARK   16  A    between atoms: C33_44  and  O10_46 
ROOT
HETATM    1  C12 UNL     1      -2.047  49.154 -18.058  1.00  0.00     0.260 C 
ENDROOT
BRANCH   1   2
HETATM    2  O4  UNL     1      -2.594  49.274 -16.745  1.00  0.00    -0.314 OA
BRANCH   2   3
HETATM    3  C11 UNL     1      -2.654  50.550 -16.268  1.00  0.00     0.259 C 
HETATM    4  O3  UNL     1      -2.880  51.539 -16.953  1.00  0.00    -0.265 OA
BRANCH   3   5
HETATM    5  C10 UNL     1      -2.332  50.557 -14.793  1.00  0.00     0.120 C 
BRANCH   5   6
HETATM    6  C9  UNL     1      -2.930  51.767 -14.091  1.00  0.00     0.112 C 
BRANCH   6   7
HETATM    7  C8  UNL     1      -2.273  52.022 -12.750  1.00  0.00     0.218 C 
HETATM    8  N2  UNL     1      -0.989  52.507 -12.854  1.00  0.00    -0.348 N 
HETATM    9  H14 UNL     1      -0.539  52.478 -13.760  1.00  0.00     0.163 HD
HETATM   10  O2  UNL     1      -2.803  51.774 -11.672  1.00  0.00    -0.274 OA
BRANCH   8  11
HETATM   11  C6  UNL     1      -0.123  52.666 -11.682  1.00  0.00     0.172 C 
HETATM   12  C7  UNL     1      -0.325  54.045 -11.070  1.00  0.00     0.042 C 
BRANCH  11  13
HETATM   13  C5  UNL     1       1.353  52.441 -12.080  1.00  0.00     0.240 C 
HETATM   14  N1  UNL     1       1.547  52.101 -13.400  1.00  0.00    -0.345 N 
HETATM   15  H9  UNL     1       0.728  51.827 -13.948  1.00  0.00     0.163 HD
HETATM   16  O1  UNL     1       2.280  52.510 -11.281  1.00  0.00    -0.271 OA
BRANCH  14  17
HETATM   17  C4  UNL     1       2.852  51.731 -13.946  1.00  0.00     0.183 C 
BRANCH  17  18
HETATM   18  C3  UNL     1       2.987  51.972 -15.460  1.00  0.00     0.046 C 
BRANCH  18  19
HETATM   19  C2  UNL     1       1.809  52.673 -16.140  1.00  0.00     0.076 C 
BRANCH  19  20
HETATM   20  S1  UNL     1       0.787  51.609 -17.210  1.00  0.00    -0.173 SA
HETATM   21  C1  UNL     1       0.603  52.701 -18.643  1.00  0.00     0.089 C 
ENDBRANCH  19  20
ENDBRANCH  18  19
ENDBRANCH  17  18
BRANCH  17  22
HETATM   22  C33 UNL     1       3.166  50.292 -13.533  1.00  0.00     0.163 C 
HETATM   23  O9  UNL     1       2.653  49.283 -13.993  1.00  0.00    -0.648 OA
BRANCH  22  24
HETATM   24  O10 UNL     1       4.054  50.198 -12.519  1.00  0.00    -0.775 OA
HETATM   25  H46 UNL     1       4.131  49.230 -12.374  1.00  0.00     0.167 HD
ENDBRANCH  22  24
ENDBRANCH  17  22
ENDBRANCH  14  17
ENDBRANCH  11  13
ENDBRANCH   8  11
ENDBRANCH   6   7
ENDBRANCH   5   6
ENDBRANCH   3   5
ENDBRANCH   2   3
ENDBRANCH   1   2
BRANCH   1  26
HETATM   26  C13 UNL     1      -3.112  48.871 -19.116  1.00  0.00     0.185 C 
HETATM   27  O5  UNL     1      -4.322  48.892 -18.852  1.00  0.00    -0.292 OA
BRANCH  26  28
HETATM   28  C14 UNL     1      -2.673  48.597 -20.567  1.00  0.00     0.128 C 
HETATM   29  C15 UNL     1      -3.633  47.760 -21.439  1.00  0.00     0.047 C 
HETATM   30  C16 UNL     1      -3.391  48.198 -22.898  1.00  0.00     0.009 C 
HETATM   31  C17 UNL     1      -2.255  49.218 -22.818  1.00  0.00     0.002 C 
HETATM   32  C18 UNL     1      -2.017  50.171 -23.995  1.00  0.00     0.003 C 
HETATM   33  C31 UNL     1      -2.409  49.876 -21.430  1.00  0.00     0.005 C 
HETATM   34  C19 UNL     1      -3.246  50.538 -24.850  1.00  0.00     0.010 C 
HETATM   35  C28 UNL     1      -1.287  51.478 -23.593  1.00  0.00     0.072 C 
HETATM   36  C20 UNL     1      -2.987  51.746 -25.770  1.00  0.00     0.035 C 
HETATM   37  C21 UNL     1      -1.514  51.895 -26.071  1.00  0.00    -0.067 C 
HETATM   38  C22 UNL     1      -1.057  51.750 -27.328  1.00  0.00     0.053 C 
HETATM   39  C26 UNL     1      -0.593  52.115 -24.854  1.00  0.00    -0.009 C 
HETATM   40  C23 UNL     1       0.388  51.804 -27.636  1.00  0.00     0.149 C 
HETATM   41  O7  UNL     1       0.745  51.772 -28.811  1.00  0.00    -0.293 OA
HETATM   42  C24 UNL     1       1.373  51.936 -26.500  1.00  0.00     0.084 C 
HETATM   43  C25 UNL     1       0.785  51.478 -25.168  1.00  0.00     0.022 C 
HETATM   44  C27 UNL     1      -0.440  53.636 -24.634  1.00  0.00     0.021 C 
HETATM   45  C29 UNL     1      -0.458  51.320 -22.315  1.00  0.00     0.133 C 
HETATM   46  O8  UNL     1       0.665  51.813 -22.194  1.00  0.00    -0.297 OA
HETATM   47  C30 UNL     1      -1.105  50.636 -21.109  1.00  0.00     0.091 C 
HETATM   48  C32 UNL     1      -3.620  50.832 -21.337  1.00  0.00     0.019 C 
BRANCH  28  49
HETATM   49  O6  UNL     1      -1.467  47.815 -20.447  1.00  0.00    -0.381 OA
HETATM   50  H21 UNL     1      -0.948  48.204 -19.716  1.00  0.00     0.211 HD
ENDBRANCH  28  49
ENDBRANCH  26  28
ENDBRANCH   1  26
TORSDOF 16
ENDMDL
MODEL 6
REMARK minimizedAffinity -8.15477657
REMARK CNNscore 0.311139137
REMARK CNNaffinity 6.28463602
REMARK  16 active torsions:
REMARK  status: ('A' for Active; 'I' for Inactive)
REMARK    1  A    between atoms: S1_2  and  C2_3 
REMARK    2  A    between atoms: C2_3  and  C3_4 
REMARK    3  A    between atoms: C3_4  and  C4_5 
REMARK    4  A    between atoms: C4_5  and  N1_6 
REMARK    5  A    between atoms: C4_5  and  C33_44 
REMARK       I    between atoms: N1_6  and  C5_7 
REMARK    6  A    between atoms: C5_7  and  C6_9 
REMARK    7  A    between atoms: C6_9  and  N2_11 
REMARK       I    between atoms: N2_11  and  C8_12 
REMARK    8  A    between atoms: C8_12  and  C9_14 
REMARK    9  A    between atoms: C9_14  and  C10_15 
REMARK   10  A    between atoms: C10_15  and  C11_16 
REMARK   11  A    between atoms: C11_16  and  O4_18 
REMARK   12  A    between atoms: O4_18  and  C12_19 
REMARK   13  A    between atoms: C12_19  and  C13_20 
REMARK   14  A    between atoms: C13_20  and  C14_22 
REMARK   15  A    between atoms: C14_22  and  O6_23 
REMARK   16  A    between atoms: C33_44  and  O10_46 
ROOT
HETATM    1  C12 UNL     1      -2.855  50.001 -17.131  1.00  0.00     0.260 C 
ENDROOT
BRANCH   1   2
HETATM    2  O4  UNL     1      -2.969  51.146 -16.286  1.00  0.00    -0.314 OA
BRANCH   2   3
HETATM    3  C11 UNL     1      -2.268  51.064 -15.119  1.00  0.00     0.259 C 
HETATM    4  O3  UNL     1      -1.055  50.926 -15.045  1.00  0.00    -0.265 OA
BRANCH   3   5
HETATM    5  C10 UNL     1      -3.222  51.100 -13.950  1.00  0.00     0.120 C 
BRANCH   5   6
HETATM    6  C9  UNL     1      -3.553  52.527 -13.537  1.00  0.00     0.112 C 
BRANCH   6   7
HETATM    7  C8  UNL     1      -3.302  52.759 -12.061  1.00  0.00     0.218 C 
HETATM    8  N2  UNL     1      -1.966  52.755 -11.728  1.00  0.00    -0.348 N 
HETATM    9  H14 UNL     1      -1.301  52.428 -12.417  1.00  0.00     0.163 HD
HETATM   10  O2  UNL     1      -4.192  52.885 -11.228  1.00  0.00    -0.274 OA
BRANCH   8  11
HETATM   11  C6  UNL     1      -1.515  52.800 -10.333  1.00  0.00     0.172 C 
HETATM   12  C7  UNL     1      -2.612  52.282  -9.415  1.00  0.00     0.042 C 
BRANCH  11  13
HETATM   13  C5  UNL     1      -1.104  54.241  -9.957  1.00  0.00     0.240 C 
HETATM   14  N1  UNL     1      -0.159  54.328  -8.959  1.00  0.00    -0.345 N 
HETATM   15  H9  UNL     1       0.041  53.485  -8.415  1.00  0.00     0.163 HD
HETATM   16  O1  UNL     1      -1.609  55.236 -10.466  1.00  0.00    -0.271 OA
BRANCH  14  17
HETATM   17  C4  UNL     1       0.274  55.598  -8.378  1.00  0.00     0.183 C 
BRANCH  17  18
HETATM   18  C3  UNL     1       1.749  55.939  -8.651  1.00  0.00     0.046 C 
BRANCH  18  19
HETATM   19  C2  UNL     1       2.747  54.789  -8.500  1.00  0.00     0.076 C 
BRANCH  19  20
HETATM   20  S1  UNL     1       3.465  54.178 -10.059  1.00  0.00    -0.173 SA
HETATM   21  C1  UNL     1       5.227  54.305  -9.658  1.00  0.00     0.089 C 
ENDBRANCH  19  20
ENDBRANCH  18  19
ENDBRANCH  17  18
BRANCH  17  22
HETATM   22  C33 UNL     1      -0.082  55.603  -6.890  1.00  0.00     0.163 C 
HETATM   23  O9  UNL     1      -0.220  54.617  -6.180  1.00  0.00    -0.648 OA
BRANCH  22  24
HETATM   24  O10 UNL     1      -0.313  56.835  -6.389  1.00  0.00    -0.775 OA
HETATM   25  H46 UNL     1      -0.535  56.661  -5.449  1.00  0.00     0.167 HD
ENDBRANCH  22  24
ENDBRANCH  17  22
ENDBRANCH  14  17
ENDBRANCH  11  13
ENDBRANCH   8  11
ENDBRANCH   6   7
ENDBRANCH   5   6
ENDBRANCH   3   5
ENDBRANCH   2   3
ENDBRANCH   1   2
BRANCH   1  26
HETATM   26  C13 UNL     1      -1.659  50.086 -18.078  1.00  0.00     0.185 C 
HETATM   27  O5  UNL     1      -0.741  49.256 -18.053  1.00  0.00    -0.292 OA
BRANCH  26  28
HETATM   28  C14 UNL     1      -1.614  51.212 -19.129  1.00  0.00     0.128 C 
HETATM   29  C15 UNL     1      -0.554  52.315 -18.922  1.00  0.00     0.047 C 
HETATM   30  C16 UNL     1      -0.215  52.861 -20.325  1.00  0.00     0.009 C 
HETATM   31  C17 UNL     1      -1.138  52.102 -21.276  1.00  0.00     0.002 C 
HETATM   32  C18 UNL     1      -0.812  52.068 -22.774  1.00  0.00     0.003 C 
HETATM   33  C31 UNL     1      -1.368  50.734 -20.599  1.00  0.00     0.005 C 
HETATM   34  C19 UNL     1       0.676  52.180 -23.161  1.00  0.00     0.010 C 
HETATM   35  C28 UNL     1      -1.426  50.852 -23.513  1.00  0.00     0.072 C 
HETATM   36  C20 UNL     1       0.935  51.791 -24.630  1.00  0.00     0.035 C 
HETATM   37  C21 UNL     1      -0.306  51.983 -25.470  1.00  0.00    -0.067 C 
HETATM   38  C22 UNL     1      -0.324  52.891 -26.463  1.00  0.00     0.053 C 
HETATM   39  C26 UNL     1      -1.542  51.160 -25.052  1.00  0.00    -0.009 C 
HETATM   40  C23 UNL     1      -1.551  53.160 -27.243  1.00  0.00     0.149 C 
HETATM   41  O7  UNL     1      -1.486  53.921 -28.205  1.00  0.00    -0.293 OA
HETATM   42  C24 UNL     1      -2.832  52.462 -26.854  1.00  0.00     0.084 C 
HETATM   43  C25 UNL     1      -2.810  51.977 -25.406  1.00  0.00     0.022 C 
HETATM   44  C27 UNL     1      -1.525  49.831 -25.838  1.00  0.00     0.021 C 
HETATM   45  C29 UNL     1      -2.655  50.286 -22.794  1.00  0.00     0.133 C 
HETATM   46  O8  UNL     1      -3.662  49.920 -23.404  1.00  0.00    -0.297 OA
HETATM   47  C30 UNL     1      -2.570  50.051 -21.286  1.00  0.00     0.091 C 
HETATM   48  C32 UNL     1      -0.130  49.809 -20.651  1.00  0.00     0.019 C 
BRANCH  28  49
HETATM   49  O6  UNL     1      -2.892  51.869 -19.023  1.00  0.00    -0.381 OA
HETATM   50  H21 UNL     1      -3.564  51.167 -18.909  1.00  0.00     0.211 HD
ENDBRANCH  28  49
ENDBRANCH  26  28
ENDBRANCH   1  26
TORSDOF 16
ENDMDL
MODEL 7
REMARK minimizedAffinity -8.02010632
REMARK CNNscore 0.311059862
REMARK CNNaffinity 5.91278028
REMARK  16 active torsions:
REMARK  status: ('A' for Active; 'I' for Inactive)
REMARK    1  A    between atoms: S1_2  and  C2_3 
REMARK    2  A    between atoms: C2_3  and  C3_4 
REMARK    3  A    between atoms: C3_4  and  C4_5 
REMARK    4  A    between atoms: C4_5  and  N1_6 
REMARK    5  A    between atoms: C4_5  and  C33_44 
REMARK       I    between atoms: N1_6  and  C5_7 
REMARK    6  A    between atoms: C5_7  and  C6_9 
REMARK    7  A    between atoms: C6_9  and  N2_11 
REMARK       I    between atoms: N2_11  and  C8_12 
REMARK    8  A    between atoms: C8_12  and  C9_14 
REMARK    9  A    between atoms: C9_14  and  C10_15 
REMARK   10  A    between atoms: C10_15  and  C11_16 
REMARK   11  A    between atoms: C11_16  and  O4_18 
REMARK   12  A    between atoms: O4_18  and  C12_19 
REMARK   13  A    between atoms: C12_19  and  C13_20 
REMARK   14  A    between atoms: C13_20  and  C14_22 
REMARK   15  A    between atoms: C14_22  and  O6_23 
REMARK   16  A    between atoms: C33_44  and  O10_46 
ROOT
HETATM    1  C12 UNL     1      -5.203  47.560 -19.819  1.00  0.00     0.260 C 
ENDROOT
BRANCH   1   2
HETATM    2  O4  UNL     1      -6.434  48.123 -19.367  1.00  0.00    -0.314 OA
BRANCH   2   3
HETATM    3  C11 UNL     1      -7.193  47.289 -18.600  1.00  0.00     0.259 C 
HETATM    4  O3  UNL     1      -7.258  46.076 -18.745  1.00  0.00    -0.265 OA
BRANCH   3   5
HETATM    5  C10 UNL     1      -7.986  48.099 -17.603  1.00  0.00     0.120 C 
BRANCH   5   6
HETATM    6  C9  UNL     1      -9.256  48.667 -18.220  1.00  0.00     0.112 C 
BRANCH   6   7
HETATM    7  C8  UNL     1     -10.498  47.998 -17.669  1.00  0.00     0.218 C 
HETATM    8  N2  UNL     1     -11.431  47.695 -18.635  1.00  0.00    -0.348 N 
HETATM    9  H14 UNL     1     -11.308  48.091 -19.559  1.00  0.00     0.163 HD
HETATM   10  O2  UNL     1     -10.688  47.789 -16.476  1.00  0.00    -0.274 OA
BRANCH   8  11
HETATM   11  C6  UNL     1     -12.765  47.194 -18.294  1.00  0.00     0.172 C 
HETATM   12  C7  UNL     1     -12.769  45.672 -18.314  1.00  0.00     0.042 C 
BRANCH  11  13
HETATM   13  C5  UNL     1     -13.812  47.769 -19.274  1.00  0.00     0.240 C 
HETATM   14  N1  UNL     1     -14.269  46.876 -20.218  1.00  0.00    -0.345 N 
HETATM   15  H9  UNL     1     -13.755  45.999 -20.334  1.00  0.00     0.163 HD
HETATM   16  O1  UNL     1     -14.177  48.939 -19.253  1.00  0.00    -0.271 OA
BRANCH  14  17
HETATM   17  C4  UNL     1     -15.169  47.255 -21.306  1.00  0.00     0.183 C 
BRANCH  17  18
HETATM   18  C3  UNL     1     -16.412  46.355 -21.430  1.00  0.00     0.046 C 
BRANCH  18  19
HETATM   19  C2  UNL     1     -17.549  46.636 -20.447  1.00  0.00     0.076 C 
BRANCH  19  20
HETATM   20  S1  UNL     1     -18.847  45.358 -20.379  1.00  0.00    -0.173 SA
HETATM   21  C1  UNL     1     -19.191  45.173 -22.147  1.00  0.00     0.089 C 
ENDBRANCH  19  20
ENDBRANCH  18  19
ENDBRANCH  17  18
BRANCH  17  22
HETATM   22  C33 UNL     1     -14.360  47.350 -22.601  1.00  0.00     0.163 C 
HETATM   23  O9  UNL     1     -13.163  47.131 -22.719  1.00  0.00    -0.648 OA
BRANCH  22  24
HETATM   24  O10 UNL     1     -15.078  47.779 -23.661  1.00  0.00    -0.775 OA
HETATM   25  H46 UNL     1     -14.420  47.795 -24.390  1.00  0.00     0.167 HD
ENDBRANCH  22  24
ENDBRANCH  17  22
ENDBRANCH  14  17
ENDBRANCH  11  13
ENDBRANCH   8  11
ENDBRANCH   6   7
ENDBRANCH   5   6
ENDBRANCH   3   5
ENDBRANCH   2   3
ENDBRANCH   1   2
BRANCH   1  26
HETATM   26  C13 UNL     1      -4.949  47.813 -21.304  1.00  0.00     0.185 C 
HETATM   27  O5  UNL     1      -4.984  46.902 -22.142  1.00  0.00    -0.292 OA
BRANCH  26  28
HETATM   28  C14 UNL     1      -4.689  49.253 -21.785  1.00  0.00     0.128 C 
HETATM   29  C15 UNL     1      -4.572  50.340 -20.696  1.00  0.00     0.047 C 
HETATM   30  C16 UNL     1      -3.662  51.443 -21.276  1.00  0.00     0.009 C 
HETATM   31  C17 UNL     1      -3.346  50.983 -22.699  1.00  0.00     0.002 C 
HETATM   32  C18 UNL     1      -2.152  51.596 -23.439  1.00  0.00     0.003 C 
HETATM   33  C31 UNL     1      -3.388  49.441 -22.636  1.00  0.00     0.005 C 
HETATM   34  C19 UNL     1      -0.978  52.090 -22.572  1.00  0.00     0.010 C 
HETATM   35  C28 UNL     1      -1.590  50.689 -24.563  1.00  0.00     0.072 C 
HETATM   36  C20 UNL     1       0.295  52.360 -23.398  1.00  0.00     0.035 C 
HETATM   37  C21 UNL     1      -0.046  52.665 -24.838  1.00  0.00    -0.067 C 
HETATM   38  C22 UNL     1       0.223  53.875 -25.361  1.00  0.00     0.053 C 
HETATM   39  C26 UNL     1      -0.793  51.557 -25.607  1.00  0.00    -0.009 C 
HETATM   40  C23 UNL     1      -0.180  54.229 -26.739  1.00  0.00     0.149 C 
HETATM   41  O7  UNL     1       0.182  55.307 -27.203  1.00  0.00    -0.293 OA
HETATM   42  C24 UNL     1      -0.987  53.238 -27.542  1.00  0.00     0.084 C 
HETATM   43  C25 UNL     1      -1.715  52.231 -26.655  1.00  0.00     0.022 C 
HETATM   44  C27 UNL     1       0.255  50.667 -26.311  1.00  0.00     0.021 C 
HETATM   45  C29 UNL     1      -2.629  49.695 -25.092  1.00  0.00     0.133 C 
HETATM   46  O8  UNL     1      -2.745  49.443 -26.293  1.00  0.00    -0.297 OA
HETATM   47  C30 UNL     1      -3.455  48.901 -24.080  1.00  0.00     0.091 C 
HETATM   48  C32 UNL     1      -2.180  48.825 -21.893  1.00  0.00     0.019 C 
BRANCH  28  49
HETATM   49  O6  UNL     1      -5.851  49.599 -22.564  1.00  0.00    -0.381 OA
HETATM   50  H21 UNL     1      -6.083  48.811 -23.095  1.00  0.00     0.211 HD
ENDBRANCH  28  49
ENDBRANCH  26  28
ENDBRANCH   1  26
TORSDOF 16
ENDMDL
MODEL 8
REMARK minimizedAffinity -8.15316105
REMARK CNNscore 0.29934302
REMARK CNNaffinity 6.68626738
REMARK  16 active torsions:
REMARK  status: ('A' for Active; 'I' for Inactive)
REMARK    1  A    between atoms: S1_2  and  C2_3 
REMARK    2  A    between atoms: C2_3  and  C3_4 
REMARK    3  A    between atoms: C3_4  and  C4_5 
REMARK    4  A    between atoms: C4_5  and  N1_6 
REMARK    5  A    between atoms: C4_5  and  C33_44 
REMARK       I    between atoms: N1_6  and  C5_7 
REMARK    6  A    between atoms: C5_7  and  C6_9 
REMARK    7  A    between atoms: C6_9  and  N2_11 
REMARK       I    between atoms: N2_11  and  C8_12 
REMARK    8  A    between atoms: C8_12  and  C9_14 
REMARK    9  A    between atoms: C9_14  and  C10_15 
REMARK   10  A    between atoms: C10_15  and  C11_16 
REMARK   11  A    between atoms: C11_16  and  O4_18 
REMARK   12  A    between atoms: O4_18  and  C12_19 
REMARK   13  A    between atoms: C12_19  and  C13_20 
REMARK   14  A    between atoms: C13_20  and  C14_22 
REMARK   15  A    between atoms: C14_22  and  O6_23 
REMARK   16  A    between atoms: C33_44  and  O10_46 
ROOT
HETATM    1  C12 UNL     1      -7.355  47.080 -24.263  1.00  0.00     0.260 C 
ENDROOT
BRANCH   1   2
HETATM    2  O4  UNL     1      -8.699  47.245 -23.811  1.00  0.00    -0.314 OA
BRANCH   2   3
HETATM    3  C11 UNL     1      -9.557  47.745 -24.745  1.00  0.00     0.259 C 
HETATM    4  O3  UNL     1      -9.438  48.836 -25.286  1.00  0.00    -0.265 OA
BRANCH   3   5
HETATM    5  C10 UNL     1     -10.701  46.782 -24.951  1.00  0.00     0.120 C 
BRANCH   5   6
HETATM    6  C9  UNL     1     -11.605  47.217 -26.096  1.00  0.00     0.112 C 
BRANCH   6   7
HETATM    7  C8  UNL     1     -11.376  46.386 -27.341  1.00  0.00     0.218 C 
HETATM    8  N2  UNL     1     -11.533  47.097 -28.509  1.00  0.00    -0.348 N 
HETATM    9  H14 UNL     1     -11.951  48.018 -28.457  1.00  0.00     0.163 HD
HETATM   10  O2  UNL     1     -11.128  45.186 -27.325  1.00  0.00    -0.274 OA
BRANCH   8  11
HETATM   11  C6  UNL     1     -11.515  46.446 -29.823  1.00  0.00     0.172 C 
HETATM   12  C7  UNL     1     -12.162  45.072 -29.730  1.00  0.00     0.042 C 
BRANCH  11  13
HETATM   13  C5  UNL     1     -10.064  46.347 -30.344  1.00  0.00     0.240 C 
HETATM   14  N1  UNL     1      -9.926  46.539 -31.700  1.00  0.00    -0.345 N 
HETATM   15  H9  UNL     1     -10.772  46.524 -32.274  1.00  0.00     0.163 HD
HETATM   16  O1  UNL     1      -9.112  46.071 -29.623  1.00  0.00    -0.271 OA
BRANCH  14  17
HETATM   17  C4  UNL     1      -8.656  46.368 -32.405  1.00  0.00     0.183 C 
BRANCH  17  18
HETATM   18  C3  UNL     1      -7.777  47.632 -32.422  1.00  0.00     0.046 C 
BRANCH  18  19
HETATM   19  C2  UNL     1      -6.668  47.669 -33.476  1.00  0.00     0.076 C 
BRANCH  19  20
HETATM   20  S1  UNL     1      -4.971  47.601 -32.818  1.00  0.00    -0.173 SA
HETATM   21  C1  UNL     1      -4.081  48.399 -34.178  1.00  0.00     0.089 C 
ENDBRANCH  19  20
ENDBRANCH  18  19
ENDBRANCH  17  18
BRANCH  17  22
HETATM   22  C33 UNL     1      -8.941  45.812 -33.801  1.00  0.00     0.163 C 
HETATM   23  O9  UNL     1      -9.830  46.180 -34.555  1.00  0.00    -0.648 OA
BRANCH  22  24
HETATM   24  O10 UNL     1      -8.143  44.779 -34.149  1.00  0.00    -0.775 OA
HETATM   25  H46 UNL     1      -8.460  44.539 -35.047  1.00  0.00     0.167 HD
ENDBRANCH  22  24
ENDBRANCH  17  22
ENDBRANCH  14  17
ENDBRANCH  11  13
ENDBRANCH   8  11
ENDBRANCH   6   7
ENDBRANCH   5   6
ENDBRANCH   3   5
ENDBRANCH   2   3
ENDBRANCH   1   2
BRANCH   1  26
HETATM   26  C13 UNL     1      -6.332  47.675 -23.296  1.00  0.00     0.185 C 
HETATM   27  O5  UNL     1      -5.818  47.006 -22.390  1.00  0.00    -0.292 OA
BRANCH  26  28
HETATM   28  C14 UNL     1      -5.890  49.139 -23.481  1.00  0.00     0.128 C 
HETATM   29  C15 UNL     1      -5.941  50.045 -22.232  1.00  0.00     0.047 C 
HETATM   30  C16 UNL     1      -4.864  51.131 -22.437  1.00  0.00     0.009 C 
HETATM   31  C17 UNL     1      -4.283  50.851 -23.822  1.00  0.00     0.002 C 
HETATM   32  C18 UNL     1      -2.925  51.452 -24.202  1.00  0.00     0.003 C 
HETATM   33  C31 UNL     1      -4.430  49.326 -24.014  1.00  0.00     0.005 C 
HETATM   34  C19 UNL     1      -1.933  51.707 -23.051  1.00  0.00     0.010 C 
HETATM   35  C28 UNL     1      -2.193  50.666 -25.321  1.00  0.00     0.072 C 
HETATM   36  C20 UNL     1      -0.500  51.975 -23.553  1.00  0.00     0.035 C 
HETATM   37  C21 UNL     1      -0.510  52.512 -24.965  1.00  0.00    -0.067 C 
HETATM   38  C22 UNL     1      -0.065  53.754 -25.225  1.00  0.00     0.053 C 
HETATM   39  C26 UNL     1      -1.143  51.597 -26.033  1.00  0.00    -0.009 C 
HETATM   40  C23 UNL     1      -0.145  54.336 -26.582  1.00  0.00     0.149 C 
HETATM   41  O7  UNL     1       0.370  55.432 -26.788  1.00  0.00    -0.293 OA
HETATM   42  C24 UNL     1      -0.822  53.547 -27.677  1.00  0.00     0.084 C 
HETATM   43  C25 UNL     1      -1.781  52.496 -27.124  1.00  0.00     0.022 C 
HETATM   44  C27 UNL     1      -0.026  50.725 -26.646  1.00  0.00     0.021 C 
HETATM   45  C29 UNL     1      -3.155  49.857 -26.197  1.00  0.00     0.133 C 
HETATM   46  O8  UNL     1      -3.029  49.790 -27.421  1.00  0.00    -0.297 OA
HETATM   47  C30 UNL     1      -4.223  49.006 -25.510  1.00  0.00     0.091 C 
HETATM   48  C32 UNL     1      -3.446  48.503 -23.152  1.00  0.00     0.019 C 
BRANCH  28  49
HETATM   49  O6  UNL     1      -6.839  49.698 -24.412  1.00  0.00    -0.381 OA
HETATM   50  H21 UNL     1      -7.000  49.018 -25.096  1.00  0.00     0.211 HD
ENDBRANCH  28  49
ENDBRANCH  26  28
ENDBRANCH   1  26
TORSDOF 16
ENDMDL
MODEL 9
REMARK minimizedAffinity -8.56927681
REMARK CNNscore 0.277368128
REMARK CNNaffinity 6.85729074
REMARK  16 active torsions:
REMARK  status: ('A' for Active; 'I' for Inactive)
REMARK    1  A    between atoms: S1_2  and  C2_3 
REMARK    2  A    between atoms: C2_3  and  C3_4 
REMARK    3  A    between atoms: C3_4  and  C4_5 
REMARK    4  A    between atoms: C4_5  and  N1_6 
REMARK    5  A    between atoms: C4_5  and  C33_44 
REMARK       I    between atoms: N1_6  and  C5_7 
REMARK    6  A    between atoms: C5_7  and  C6_9 
REMARK    7  A    between atoms: C6_9  and  N2_11 
REMARK       I    between atoms: N2_11  and  C8_12 
REMARK    8  A    between atoms: C8_12  and  C9_14 
REMARK    9  A    between atoms: C9_14  and  C10_15 
REMARK   10  A    between atoms: C10_15  and  C11_16 
REMARK   11  A    between atoms: C11_16  and  O4_18 
REMARK   12  A    between atoms: O4_18  and  C12_19 
REMARK   13  A    between atoms: C12_19  and  C13_20 
REMARK   14  A    between atoms: C13_20  and  C14_22 
REMARK   15  A    between atoms: C14_22  and  O6_23 
REMARK   16  A    between atoms: C33_44  and  O10_46 
ROOT
HETATM    1  C12 UNL     1       1.095  53.710 -23.805  1.00  0.00     0.260 C 
ENDROOT
BRANCH   1   2
HETATM    2  O4  UNL     1       0.674  52.970 -22.659  1.00  0.00    -0.314 OA
BRANCH   2   3
HETATM    3  C11 UNL     1       0.995  53.541 -21.463  1.00  0.00     0.259 C 
HETATM    4  O3  UNL     1       1.795  54.455 -21.321  1.00  0.00    -0.265 OA
BRANCH   3   5
HETATM    5  C10 UNL     1       0.269  52.827 -20.349  1.00  0.00     0.120 C 
BRANCH   5   6
HETATM    6  C9  UNL     1       1.014  52.941 -19.026  1.00  0.00     0.112 C 
BRANCH   6   7
HETATM    7  C8  UNL     1       0.394  52.069 -17.954  1.00  0.00     0.218 C 
HETATM    8  N2  UNL     1       1.281  51.702 -16.968  1.00  0.00    -0.348 N 
HETATM    9  H14 UNL     1       2.267  51.872 -17.123  1.00  0.00     0.163 HD
HETATM   10  O2  UNL     1      -0.768  51.679 -17.978  1.00  0.00    -0.274 OA
BRANCH   8  11
HETATM   11  C6  UNL     1       0.927  50.731 -15.928  1.00  0.00     0.172 C 
HETATM   12  C7  UNL     1       0.194  49.550 -16.547  1.00  0.00     0.042 C 
BRANCH  11  13
HETATM   13  C5  UNL     1       0.069  51.413 -14.839  1.00  0.00     0.240 C 
HETATM   14  N1  UNL     1      -1.064  50.717 -14.480  1.00  0.00    -0.345 N 
HETATM   15  H9  UNL     1      -1.357  49.941 -15.077  1.00  0.00     0.163 HD
HETATM   16  O1  UNL     1       0.340  52.509 -14.362  1.00  0.00    -0.271 OA
BRANCH  14  17
HETATM   17  C4  UNL     1      -2.067  51.247 -13.556  1.00  0.00     0.183 C 
BRANCH  17  18
HETATM   18  C3  UNL     1      -2.541  50.232 -12.501  1.00  0.00     0.046 C 
BRANCH  18  19
HETATM   19  C2  UNL     1      -2.275  50.603 -11.041  1.00  0.00     0.076 C 
BRANCH  19  20
HETATM   20  S1  UNL     1      -3.702  51.297 -10.145  1.00  0.00    -0.173 SA
HETATM   21  C1  UNL     1      -3.263  53.053 -10.180  1.00  0.00     0.089 C 
ENDBRANCH  19  20
ENDBRANCH  18  19
ENDBRANCH  17  18
BRANCH  17  22
HETATM   22  C33 UNL     1      -3.212  51.851 -14.371  1.00  0.00     0.163 C 
HETATM   23  O9  UNL     1      -3.897  52.810 -14.048  1.00  0.00    -0.648 OA
BRANCH  22  24
HETATM   24  O10 UNL     1      -3.484  51.178 -15.510  1.00  0.00    -0.775 OA
HETATM   25  H46 UNL     1      -4.235  51.679 -15.896  1.00  0.00     0.167 HD
ENDBRANCH  22  24
ENDBRANCH  17  22
ENDBRANCH  14  17
ENDBRANCH  11  13
ENDBRANCH   8  11
ENDBRANCH   6   7
ENDBRANCH   5   6
ENDBRANCH   3   5
ENDBRANCH   2   3
ENDBRANCH   1   2
BRANCH   1  26
HETATM   26  C13 UNL     1       0.732  53.019 -25.118  1.00  0.00     0.185 C 
HETATM   27  O5  UNL     1       1.593  52.542 -25.869  1.00  0.00    -0.292 OA
BRANCH  26  28
HETATM   28  C14 UNL     1      -0.752  52.867 -25.500  1.00  0.00     0.128 C 
HETATM   29  C15 UNL     1      -1.091  52.899 -27.005  1.00  0.00     0.047 C 
HETATM   30  C16 UNL     1      -2.378  52.066 -27.181  1.00  0.00     0.009 C 
HETATM   31  C17 UNL     1      -2.769  51.645 -25.765  1.00  0.00     0.002 C 
HETATM   32  C18 UNL     1      -3.744  50.478 -25.571  1.00  0.00     0.003 C 
HETATM   33  C31 UNL     1      -1.434  51.551 -24.996  1.00  0.00     0.005 C 
HETATM   34  C19 UNL     1      -3.756  49.394 -26.666  1.00  0.00     0.010 C 
HETATM   35  C28 UNL     1      -3.610  49.785 -24.191  1.00  0.00     0.072 C 
HETATM   36  C20 UNL     1      -4.491  48.114 -26.225  1.00  0.00     0.035 C 
HETATM   37  C21 UNL     1      -5.502  48.414 -25.143  1.00  0.00    -0.067 C 
HETATM   38  C22 UNL     1      -6.816  48.232 -25.368  1.00  0.00     0.053 C 
HETATM   39  C26 UNL     1      -4.942  49.022 -23.841  1.00  0.00    -0.009 C 
HETATM   40  C23 UNL     1      -7.832  48.600 -24.358  1.00  0.00     0.149 C 
HETATM   41  O7  UNL     1      -9.008  48.316 -24.571  1.00  0.00    -0.293 OA
HETATM   42  C24 UNL     1      -7.385  49.276 -23.085  1.00  0.00     0.084 C 
HETATM   43  C25 UNL     1      -6.024  49.951 -23.235  1.00  0.00     0.022 C 
HETATM   44  C27 UNL     1      -4.623  47.866 -22.867  1.00  0.00     0.021 C 
HETATM   45  C29 UNL     1      -3.003  50.704 -23.126  1.00  0.00     0.133 C 
HETATM   46  O8  UNL     1      -3.427  50.741 -21.970  1.00  0.00    -0.297 OA
HETATM   47  C30 UNL     1      -1.748  51.502 -23.486  1.00  0.00     0.091 C 
HETATM   48  C32 UNL     1      -0.578  50.328 -25.401  1.00  0.00     0.019 C 
BRANCH  28  49
HETATM   49  O6  UNL     1      -1.402  54.019 -24.925  1.00  0.00    -0.381 OA
HETATM   50  H21 UNL     1      -1.010  54.153 -24.040  1.00  0.00     0.211 HD
ENDBRANCH  28  49
ENDBRANCH  26  28
ENDBRANCH   1  26
TORSDOF 16
ENDMDL
