MODEL 1
REMARK minimizedAffinity -8.99921322
REMARK  5 active torsions:
REMARK  status: ('A' for Active; 'I' for Inactive)
REMARK    1  A    between atoms: C2_2  and  C3_3 
REMARK    2  A    between atoms: C4_5  and  C5_6 
REMARK    3  A    between atoms: C5_6  and  C6_7 
REMARK    4  A    between atoms: C6_7  and  C7_8 
REMARK    5  A    between atoms: C7_8  and  C9_10 
ROOT
HETATM    1  C9  UNL     1       1.173   6.917  13.105  1.00  0.00    -0.002 C 
HETATM    2  C10 UNL     1       0.349   8.079  13.729  1.00  0.00     0.007 C 
HETATM    3  C11 UNL     1      -1.119   7.618  13.801  1.00  0.00     0.015 C 
HETATM    4  C12 UNL     1      -1.077   6.100  13.546  1.00  0.00    -0.005 C 
HETATM    5  C13 UNL     1      -0.739   5.415  14.906  1.00  0.00     0.021 C 
HETATM    6  C14 UNL     1      -2.316   5.376  13.039  1.00  0.00    -0.000 C 
HETATM    7  C15 UNL     1      -2.221   4.268  12.260  1.00  0.00    -0.060 C 
HETATM    8  C16 UNL     1      -0.843   3.739  11.830  1.00  0.00     0.036 C 
HETATM    9  C17 UNL     1       0.403   4.556  12.236  1.00  0.00     0.015 C 
HETATM   10  C18 UNL     1       0.064   6.035  12.456  1.00  0.00    -0.028 C 
HETATM   11  C19 UNL     1      -0.353   6.660  11.085  1.00  0.00     0.016 C 
HETATM   12  C20 UNL     1      -3.454   3.482  11.731  1.00  0.00    -0.014 C 
HETATM   13  C21 UNL     1      -3.626   3.848  10.240  1.00  0.00     0.020 C 
HETATM   14  C22 UNL     1      -3.226   1.957  11.880  1.00  0.00     0.021 C 
HETATM   15  C23 UNL     1      -4.447   1.071  11.660  1.00  0.00     0.080 C 
HETATM   16  C24 UNL     1      -5.743   1.794  11.388  1.00  0.00     0.135 C 
HETATM   17  O2  UNL     1      -6.577   1.275  10.641  1.00  0.00    -0.297 OA
HETATM   18  C25 UNL     1      -6.038   3.101  12.132  1.00  0.00     0.018 C 
HETATM   19  C26 UNL     1      -6.925   3.982  11.223  1.00  0.00     0.023 C 
HETATM   20  C27 UNL     1      -6.871   2.721  13.371  1.00  0.00     0.023 C 
HETATM   21  C28 UNL     1      -4.718   3.812  12.589  1.00  0.00     0.020 C 
HETATM   22  C29 UNL     1      -4.873   5.322  12.774  1.00  0.00     0.090 C 
HETATM   23  C30 UNL     1      -3.658   5.883  13.462  1.00  0.00     0.157 C 
HETATM   24  O3  UNL     1      -3.777   6.740  14.331  1.00  0.00    -0.293 OA
ENDROOT
BRANCH   1  25
HETATM   25  C7  UNL     1       2.354   7.439  12.242  1.00  0.00    -0.014 C 
HETATM   26  C8  UNL     1       2.076   8.811  11.619  1.00  0.00     0.010 C 
BRANCH  25  27
HETATM   27  C6  UNL     1       2.777   6.440  11.130  1.00  0.00     0.008 C 
BRANCH  27  28
HETATM   28  C5  UNL     1       2.529   6.918   9.694  1.00  0.00     0.028 C 
BRANCH  28  29
HETATM   29  C4  UNL     1       2.921   5.858   8.703  1.00  0.00    -0.017 C 
HETATM   30  C2  UNL     1       2.689   5.852   7.377  1.00  0.00    -0.028 C 
HETATM   31  C1  UNL     1       2.012   6.911   6.566  1.00  0.00     0.051 C 
BRANCH  30  32
HETATM   32  C3  UNL     1       3.170   4.673   6.594  1.00  0.00     0.265 C 
HETATM   33  O1  UNL     1       4.090   3.945   6.945  1.00  0.00    -0.302 OA
ENDBRANCH  30  32
ENDBRANCH  28  29
ENDBRANCH  27  28
ENDBRANCH  25  27
ENDBRANCH   1  25
TORSDOF 5
ENDMDL
MODEL 2
REMARK minimizedAffinity -8.79096222
REMARK  5 active torsions:
REMARK  status: ('A' for Active; 'I' for Inactive)
REMARK    1  A    between atoms: C2_2  and  C3_3 
REMARK    2  A    between atoms: C4_5  and  C5_6 
REMARK    3  A    between atoms: C5_6  and  C6_7 
REMARK    4  A    between atoms: C6_7  and  C7_8 
REMARK    5  A    between atoms: C7_8  and  C9_10 
ROOT
HETATM    1  C9  UNL     1      -1.598   5.944  12.224  1.00  0.00    -0.002 C 
HETATM    2  C10 UNL     1      -1.993   6.720  13.512  1.00  0.00     0.007 C 
HETATM    3  C11 UNL     1      -0.880   7.748  13.792  1.00  0.00     0.015 C 
HETATM    4  C12 UNL     1      -0.042   7.795  12.500  1.00  0.00    -0.005 C 
HETATM    5  C13 UNL     1      -0.767   8.766  11.518  1.00  0.00     0.021 C 
HETATM    6  C14 UNL     1       1.399   8.282  12.543  1.00  0.00    -0.000 C 
HETATM    7  C15 UNL     1       2.330   7.818  11.670  1.00  0.00    -0.060 C 
HETATM    8  C16 UNL     1       1.956   6.743  10.637  1.00  0.00     0.036 C 
HETATM    9  C17 UNL     1       0.528   6.157  10.689  1.00  0.00     0.015 C 
HETATM   10  C18 UNL     1      -0.080   6.270  12.092  1.00  0.00    -0.028 C 
HETATM   11  C19 UNL     1       0.729   5.349  13.062  1.00  0.00     0.016 C 
HETATM   12  C20 UNL     1       3.810   8.295  11.660  1.00  0.00    -0.014 C 
HETATM   13  C21 UNL     1       4.657   7.178  12.311  1.00  0.00     0.020 C 
HETATM   14  C22 UNL     1       4.286   8.543  10.206  1.00  0.00     0.021 C 
HETATM   15  C23 UNL     1       5.617   9.270  10.051  1.00  0.00     0.080 C 
HETATM   16  C24 UNL     1       6.276   9.717  11.333  1.00  0.00     0.135 C 
HETATM   17  O2  UNL     1       7.507   9.736  11.403  1.00  0.00    -0.297 OA
HETATM   18  C25 UNL     1       5.400  10.240  12.478  1.00  0.00     0.018 C 
HETATM   19  C26 UNL     1       6.110   9.917  13.812  1.00  0.00     0.023 C 
HETATM   20  C27 UNL     1       5.358  11.773  12.330  1.00  0.00     0.023 C 
HETATM   21  C28 UNL     1       3.944   9.668  12.395  1.00  0.00     0.020 C 
HETATM   22  C29 UNL     1       3.224   9.637  13.744  1.00  0.00     0.090 C 
HETATM   23  C30 UNL     1       1.765   9.334  13.541  1.00  0.00     0.157 C 
HETATM   24  O3  UNL     1       0.910   9.927  14.192  1.00  0.00    -0.293 OA
ENDROOT
BRANCH   1  25
HETATM   25  C7  UNL     1      -2.074   4.466  12.266  1.00  0.00    -0.014 C 
HETATM   26  C8  UNL     1      -2.281   3.867  10.870  1.00  0.00     0.010 C 
BRANCH  25  27
HETATM   27  C6  UNL     1      -3.364   4.271  13.110  1.00  0.00     0.008 C 
BRANCH  27  28
HETATM   28  C5  UNL     1      -4.632   4.901  12.521  1.00  0.00     0.028 C 
BRANCH  28  29
HETATM   29  C4  UNL     1      -5.843   4.077  12.856  1.00  0.00    -0.017 C 
HETATM   30  C2  UNL     1      -6.268   2.958  12.239  1.00  0.00    -0.028 C 
HETATM   31  C1  UNL     1      -5.621   2.250  11.092  1.00  0.00     0.051 C 
BRANCH  30  32
HETATM   32  C3  UNL     1      -7.517   2.314  12.752  1.00  0.00     0.265 C 
HETATM   33  O1  UNL     1      -8.589   2.894  12.869  1.00  0.00    -0.302 OA
ENDBRANCH  30  32
ENDBRANCH  28  29
ENDBRANCH  27  28
ENDBRANCH  25  27
ENDBRANCH   1  25
TORSDOF 5
ENDMDL
MODEL 3
REMARK minimizedAffinity -8.68630028
REMARK  5 active torsions:
REMARK  status: ('A' for Active; 'I' for Inactive)
REMARK    1  A    between atoms: C2_2  and  C3_3 
REMARK    2  A    between atoms: C4_5  and  C5_6 
REMARK    3  A    between atoms: C5_6  and  C6_7 
REMARK    4  A    between atoms: C6_7  and  C7_8 
REMARK    5  A    between atoms: C7_8  and  C9_10 
ROOT
HETATM    1  C9  UNL     1      -1.995   6.361  13.352  1.00  0.00    -0.002 C 
HETATM    2  C10 UNL     1      -2.108   5.749  11.927  1.00  0.00     0.007 C 
HETATM    3  C11 UNL     1      -0.693   5.727  11.319  1.00  0.00     0.015 C 
HETATM    4  C12 UNL     1       0.256   5.998  12.502  1.00  0.00    -0.005 C 
HETATM    5  C13 UNL     1       0.488   4.637  13.227  1.00  0.00     0.021 C 
HETATM    6  C14 UNL     1       1.651   6.551  12.249  1.00  0.00    -0.000 C 
HETATM    7  C15 UNL     1       2.278   7.339  13.160  1.00  0.00    -0.060 C 
HETATM    8  C16 UNL     1       1.564   7.734  14.463  1.00  0.00     0.036 C 
HETATM    9  C17 UNL     1       0.100   7.281  14.650  1.00  0.00     0.015 C 
HETATM   10  C18 UNL     1      -0.600   7.054  13.306  1.00  0.00    -0.028 C 
HETATM   11  C19 UNL     1      -0.733   8.429  12.574  1.00  0.00     0.016 C 
HETATM   12  C20 UNL     1       3.708   7.914  12.958  1.00  0.00    -0.014 C 
HETATM   13  C21 UNL     1       3.555   9.406  12.584  1.00  0.00     0.020 C 
HETATM   14  C22 UNL     1       4.533   7.777  14.263  1.00  0.00     0.021 C 
HETATM   15  C23 UNL     1       6.029   8.044  14.142  1.00  0.00     0.080 C 
HETATM   16  C24 UNL     1       6.533   8.346  12.751  1.00  0.00     0.135 C 
HETATM   17  O2  UNL     1       7.480   9.123  12.610  1.00  0.00    -0.297 OA
HETATM   18  C25 UNL     1       5.927   7.595  11.560  1.00  0.00     0.018 C 
HETATM   19  C26 UNL     1       5.998   8.520  10.323  1.00  0.00     0.023 C 
HETATM   20  C27 UNL     1       6.844   6.387  11.293  1.00  0.00     0.023 C 
HETATM   21  C28 UNL     1       4.478   7.091  11.876  1.00  0.00     0.020 C 
HETATM   22  C29 UNL     1       3.617   6.892  10.627  1.00  0.00     0.090 C 
HETATM   23  C30 UNL     1       2.352   6.162  10.986  1.00  0.00     0.157 C 
HETATM   24  O3  UNL     1       1.909   5.286  10.249  1.00  0.00    -0.293 OA
ENDROOT
BRANCH   1  25
HETATM   25  C7  UNL     1      -3.257   7.182  13.735  1.00  0.00    -0.014 C 
HETATM   26  C8  UNL     1      -3.323   7.509  15.231  1.00  0.00     0.010 C 
BRANCH  25  27
HETATM   27  C6  UNL     1      -4.580   6.496  13.296  1.00  0.00     0.008 C 
BRANCH  27  28
HETATM   28  C5  UNL     1      -4.467   4.998  12.985  1.00  0.00     0.028 C 
BRANCH  28  29
HETATM   29  C4  UNL     1      -5.784   4.307  13.205  1.00  0.00    -0.017 C 
HETATM   30  C2  UNL     1      -6.249   3.213  12.573  1.00  0.00    -0.028 C 
HETATM   31  C1  UNL     1      -5.557   2.405  11.522  1.00  0.00     0.051 C 
BRANCH  30  32
HETATM   32  C3  UNL     1      -7.604   2.711  12.960  1.00  0.00     0.265 C 
HETATM   33  O1  UNL     1      -8.642   3.337  12.788  1.00  0.00    -0.302 OA
ENDBRANCH  30  32
ENDBRANCH  28  29
ENDBRANCH  27  28
ENDBRANCH  25  27
ENDBRANCH   1  25
TORSDOF 5
ENDMDL
MODEL 4
REMARK minimizedAffinity -8.63128281
REMARK  5 active torsions:
REMARK  status: ('A' for Active; 'I' for Inactive)
REMARK    1  A    between atoms: C2_2  and  C3_3 
REMARK    2  A    between atoms: C4_5  and  C5_6 
REMARK    3  A    between atoms: C5_6  and  C6_7 
REMARK    4  A    between atoms: C6_7  and  C7_8 
REMARK    5  A    between atoms: C7_8  and  C9_10 
ROOT
HETATM    1  C9  UNL     1      -4.020   7.009  14.809  1.00  0.00    -0.002 C 
HETATM    2  C10 UNL     1      -4.348   5.593  14.259  1.00  0.00     0.007 C 
HETATM    3  C11 UNL     1      -3.167   5.155  13.373  1.00  0.00     0.015 C 
HETATM    4  C12 UNL     1      -2.036   6.152  13.691  1.00  0.00    -0.005 C 
HETATM    5  C13 UNL     1      -1.326   5.644  14.983  1.00  0.00     0.021 C 
HETATM    6  C14 UNL     1      -0.913   6.377  12.688  1.00  0.00    -0.000 C 
HETATM    7  C15 UNL     1      -0.272   7.571  12.598  1.00  0.00    -0.060 C 
HETATM    8  C16 UNL     1      -0.703   8.750  13.485  1.00  0.00     0.036 C 
HETATM    9  C17 UNL     1      -1.930   8.554  14.402  1.00  0.00     0.015 C 
HETATM   10  C18 UNL     1      -2.877   7.478  13.859  1.00  0.00    -0.028 C 
HETATM   11  C19 UNL     1      -3.499   7.990  12.520  1.00  0.00     0.016 C 
HETATM   12  C20 UNL     1       0.890   7.848  11.604  1.00  0.00    -0.014 C 
HETATM   13  C21 UNL     1       0.313   8.689  10.443  1.00  0.00     0.020 C 
HETATM   14  C22 UNL     1       2.028   8.628  12.310  1.00  0.00     0.021 C 
HETATM   15  C23 UNL     1       3.344   8.733  11.546  1.00  0.00     0.080 C 
HETATM   16  C24 UNL     1       3.397   8.007  10.224  1.00  0.00     0.135 C 
HETATM   17  O2  UNL     1       4.075   8.476   9.307  1.00  0.00    -0.297 OA
HETATM   18  C25 UNL     1       2.696   6.651  10.091  1.00  0.00     0.018 C 
HETATM   19  C26 UNL     1       2.239   6.489   8.623  1.00  0.00     0.023 C 
HETATM   20  C27 UNL     1       3.765   5.577  10.369  1.00  0.00     0.023 C 
HETATM   21  C28 UNL     1       1.527   6.503  11.124  1.00  0.00     0.020 C 
HETATM   22  C29 UNL     1       0.447   5.515  10.684  1.00  0.00     0.090 C 
HETATM   23  C30 UNL     1      -0.486   5.230  11.829  1.00  0.00     0.157 C 
HETATM   24  O3  UNL     1      -0.890   4.089  12.033  1.00  0.00    -0.293 OA
ENDROOT
BRANCH   1  25
HETATM   25  C7  UNL     1      -5.296   7.879  14.977  1.00  0.00    -0.014 C 
HETATM   26  C8  UNL     1      -5.006   9.247  15.605  1.00  0.00     0.010 C 
BRANCH  25  27
HETATM   27  C6  UNL     1      -6.413   7.164  15.785  1.00  0.00     0.008 C 
BRANCH  27  28
HETATM   28  C5  UNL     1      -7.639   6.736  14.968  1.00  0.00     0.028 C 
BRANCH  28  29
HETATM   29  C4  UNL     1      -7.509   5.307  14.521  1.00  0.00    -0.017 C 
HETATM   30  C2  UNL     1      -7.856   4.789  13.327  1.00  0.00    -0.028 C 
HETATM   31  C1  UNL     1      -8.426   5.515  12.150  1.00  0.00     0.051 C 
BRANCH  30  32
HETATM   32  C3  UNL     1      -7.640   3.324  13.117  1.00  0.00     0.265 C 
HETATM   33  O1  UNL     1      -8.506   2.551  12.729  1.00  0.00    -0.302 OA
ENDBRANCH  30  32
ENDBRANCH  28  29
ENDBRANCH  27  28
ENDBRANCH  25  27
ENDBRANCH   1  25
TORSDOF 5
ENDMDL
MODEL 5
REMARK minimizedAffinity -8.5154171
REMARK  5 active torsions:
REMARK  status: ('A' for Active; 'I' for Inactive)
REMARK    1  A    between atoms: C2_2  and  C3_3 
REMARK    2  A    between atoms: C4_5  and  C5_6 
REMARK    3  A    between atoms: C5_6  and  C6_7 
REMARK    4  A    between atoms: C6_7  and  C7_8 
REMARK    5  A    between atoms: C7_8  and  C9_10 
ROOT
HETATM    1  C9  UNL     1      -2.054   7.999  14.003  1.00  0.00    -0.002 C 
HETATM    2  C10 UNL     1      -1.892   7.506  15.469  1.00  0.00     0.007 C 
HETATM    3  C11 UNL     1      -0.397   7.599  15.826  1.00  0.00     0.015 C 
HETATM    4  C12 UNL     1       0.231   8.451  14.707  1.00  0.00    -0.005 C 
HETATM    5  C13 UNL     1      -0.006   9.947  15.082  1.00  0.00     0.021 C 
HETATM    6  C14 UNL     1       1.722   8.351  14.416  1.00  0.00    -0.000 C 
HETATM    7  C15 UNL     1       2.217   8.562  13.170  1.00  0.00    -0.060 C 
HETATM    8  C16 UNL     1       1.266   8.866  12.001  1.00  0.00     0.036 C 
HETATM    9  C17 UNL     1      -0.252   8.832  12.276  1.00  0.00     0.015 C 
HETATM   10  C18 UNL     1      -0.593   7.928  13.466  1.00  0.00    -0.028 C 
HETATM   11  C19 UNL     1      -0.258   6.450  13.080  1.00  0.00     0.016 C 
HETATM   12  C20 UNL     1       3.730   8.489  12.823  1.00  0.00    -0.014 C 
HETATM   13  C21 UNL     1       3.971   7.145  12.098  1.00  0.00     0.020 C 
HETATM   14  C22 UNL     1       4.130   9.668  11.901  1.00  0.00     0.021 C 
HETATM   15  C23 UNL     1       5.626   9.885  11.700  1.00  0.00     0.080 C 
HETATM   16  C24 UNL     1       6.535   8.964  12.476  1.00  0.00     0.135 C 
HETATM   17  O2  UNL     1       7.615   8.628  11.984  1.00  0.00    -0.297 OA
HETATM   18  C25 UNL     1       6.142   8.557  13.901  1.00  0.00     0.018 C 
HETATM   19  C26 UNL     1       6.719   7.149  14.175  1.00  0.00     0.023 C 
HETATM   20  C27 UNL     1       6.850   9.545  14.848  1.00  0.00     0.023 C 
HETATM   21  C28 UNL     1       4.593   8.645  14.117  1.00  0.00     0.020 C 
HETATM   22  C29 UNL     1       4.080   7.728  15.229  1.00  0.00     0.090 C 
HETATM   23  C30 UNL     1       2.650   8.063  15.553  1.00  0.00     0.157 C 
HETATM   24  O3  UNL     1       2.265   8.082  16.718  1.00  0.00    -0.293 OA
ENDROOT
BRANCH   1  25
HETATM   25  C7  UNL     1      -3.192   7.248  13.259  1.00  0.00    -0.014 C 
HETATM   26  C8  UNL     1      -4.426   8.125  13.019  1.00  0.00     0.010 C 
BRANCH  25  27
HETATM   27  C6  UNL     1      -3.619   5.937  13.974  1.00  0.00     0.008 C 
BRANCH  27  28
HETATM   28  C5  UNL     1      -4.068   4.802  13.045  1.00  0.00     0.028 C 
BRANCH  28  29
HETATM   29  C4  UNL     1      -5.546   4.560  13.173  1.00  0.00    -0.017 C 
HETATM   30  C2  UNL     1      -6.287   3.653  12.509  1.00  0.00    -0.028 C 
HETATM   31  C1  UNL     1      -5.814   2.648  11.507  1.00  0.00     0.051 C 
BRANCH  30  32
HETATM   32  C3  UNL     1      -7.753   3.607  12.801  1.00  0.00     0.265 C 
HETATM   33  O1  UNL     1      -8.411   2.576  12.853  1.00  0.00    -0.302 OA
ENDBRANCH  30  32
ENDBRANCH  28  29
ENDBRANCH  27  28
ENDBRANCH  25  27
ENDBRANCH   1  25
TORSDOF 5
ENDMDL
MODEL 6
REMARK minimizedAffinity -8.47026634
REMARK  5 active torsions:
REMARK  status: ('A' for Active; 'I' for Inactive)
REMARK    1  A    between atoms: C2_2  and  C3_3 
REMARK    2  A    between atoms: C4_5  and  C5_6 
REMARK    3  A    between atoms: C5_6  and  C6_7 
REMARK    4  A    between atoms: C6_7  and  C7_8 
REMARK    5  A    between atoms: C7_8  and  C9_10 
ROOT
HETATM    1  C9  UNL     1      -8.627   6.181  14.191  1.00  0.00    -0.002 C 
HETATM    2  C10 UNL     1      -8.993   5.441  12.874  1.00  0.00     0.007 C 
HETATM    3  C11 UNL     1      -7.685   4.893  12.272  1.00  0.00     0.015 C 
HETATM    4  C12 UNL     1      -6.642   5.019  13.398  1.00  0.00    -0.005 C 
HETATM    5  C13 UNL     1      -6.805   3.770  14.317  1.00  0.00     0.021 C 
HETATM    6  C14 UNL     1      -5.158   5.068  13.061  1.00  0.00    -0.000 C 
HETATM    7  C15 UNL     1      -4.276   5.743  13.843  1.00  0.00    -0.060 C 
HETATM    8  C16 UNL     1      -4.768   6.519  15.074  1.00  0.00     0.036 C 
HETATM    9  C17 UNL     1      -6.290   6.576  15.332  1.00  0.00     0.015 C 
HETATM   10  C18 UNL     1      -7.091   6.391  14.038  1.00  0.00    -0.028 C 
HETATM   11  C19 UNL     1      -6.830   7.622  13.110  1.00  0.00     0.016 C 
HETATM   12  C20 UNL     1      -2.750   5.809  13.553  1.00  0.00    -0.014 C 
HETATM   13  C21 UNL     1      -2.455   7.206  12.962  1.00  0.00     0.020 C 
HETATM   14  C22 UNL     1      -1.944   5.607  14.861  1.00  0.00     0.021 C 
HETATM   15  C23 UNL     1      -0.446   5.375  14.698  1.00  0.00     0.080 C 
HETATM   16  C24 UNL     1       0.057   5.306  13.276  1.00  0.00     0.135 C 
HETATM   17  O2  UNL     1       1.189   5.722  13.018  1.00  0.00    -0.297 OA
HETATM   18  C25 UNL     1      -0.808   4.622  12.212  1.00  0.00     0.018 C 
HETATM   19  C26 UNL     1      -0.517   5.295  10.851  1.00  0.00     0.023 C 
HETATM   20  C27 UNL     1      -0.321   3.162  12.126  1.00  0.00     0.023 C 
HETATM   21  C28 UNL     1      -2.325   4.643  12.604  1.00  0.00     0.020 C 
HETATM   22  C29 UNL     1      -3.265   4.549  11.401  1.00  0.00     0.090 C 
HETATM   23  C30 UNL     1      -4.674   4.307  11.868  1.00  0.00     0.157 C 
HETATM   24  O3  UNL     1      -5.400   3.518  11.272  1.00  0.00    -0.293 OA
ENDROOT
BRANCH   1  25
HETATM   25  C7  UNL     1      -9.556   7.399  14.451  1.00  0.00    -0.014 C 
HETATM   26  C8  UNL     1      -9.734   7.704  15.943  1.00  0.00     0.010 C 
BRANCH  25  27
HETATM   27  C6  UNL     1     -10.949   7.251  13.781  1.00  0.00     0.008 C 
BRANCH  27  28
HETATM   28  C5  UNL     1     -11.660   8.569  13.452  1.00  0.00     0.028 C 
BRANCH  28  29
HETATM   29  C4  UNL     1     -13.047   8.313  12.932  1.00  0.00    -0.017 C 
HETATM   30  C2  UNL     1     -13.863   7.290  13.249  1.00  0.00    -0.028 C 
HETATM   31  C1  UNL     1     -13.599   6.179  14.215  1.00  0.00     0.051 C 
BRANCH  30  32
HETATM   32  C3  UNL     1     -15.205   7.243  12.589  1.00  0.00     0.265 C 
HETATM   33  O1  UNL     1     -15.380   6.975  11.408  1.00  0.00    -0.302 OA
ENDBRANCH  30  32
ENDBRANCH  28  29
ENDBRANCH  27  28
ENDBRANCH  25  27
ENDBRANCH   1  25
TORSDOF 5
ENDMDL
MODEL 7
REMARK minimizedAffinity -8.36148643
REMARK  5 active torsions:
REMARK  status: ('A' for Active; 'I' for Inactive)
REMARK    1  A    between atoms: C2_2  and  C3_3 
REMARK    2  A    between atoms: C4_5  and  C5_6 
REMARK    3  A    between atoms: C5_6  and  C6_7 
REMARK    4  A    between atoms: C6_7  and  C7_8 
REMARK    5  A    between atoms: C7_8  and  C9_10 
ROOT
HETATM    1  C9  UNL     1      -2.581   4.540  13.129  1.00  0.00    -0.002 C 
HETATM    2  C10 UNL     1      -1.748   5.025  11.909  1.00  0.00     0.007 C 
HETATM    3  C11 UNL     1      -1.315   6.476  12.191  1.00  0.00     0.015 C 
HETATM    4  C12 UNL     1      -1.601   6.696  13.689  1.00  0.00    -0.005 C 
HETATM    5  C13 UNL     1      -0.383   6.123  14.477  1.00  0.00     0.021 C 
HETATM    6  C14 UNL     1      -1.791   8.106  14.230  1.00  0.00    -0.000 C 
HETATM    7  C15 UNL     1      -2.588   8.352  15.301  1.00  0.00    -0.060 C 
HETATM    8  C16 UNL     1      -3.362   7.205  15.971  1.00  0.00     0.036 C 
HETATM    9  C17 UNL     1      -3.270   5.802  15.332  1.00  0.00     0.015 C 
HETATM   10  C18 UNL     1      -2.944   5.880  13.836  1.00  0.00    -0.028 C 
HETATM   11  C19 UNL     1      -4.153   6.539  13.097  1.00  0.00     0.016 C 
HETATM   12  C20 UNL     1      -2.803   9.769  15.903  1.00  0.00    -0.014 C 
HETATM   13  C21 UNL     1      -4.195  10.257  15.445  1.00  0.00     0.020 C 
HETATM   14  C22 UNL     1      -2.744   9.711  17.451  1.00  0.00     0.021 C 
HETATM   15  C23 UNL     1      -2.665  11.053  18.170  1.00  0.00     0.080 C 
HETATM   16  C24 UNL     1      -2.587  12.271  17.282  1.00  0.00     0.135 C 
HETATM   17  O2  UNL     1      -3.108  13.324  17.658  1.00  0.00    -0.297 OA
HETATM   18  C25 UNL     1      -1.769  12.199  15.988  1.00  0.00     0.018 C 
HETATM   19  C26 UNL     1      -2.408  13.161  14.961  1.00  0.00     0.023 C 
HETATM   20  C27 UNL     1      -0.366  12.740  16.327  1.00  0.00     0.023 C 
HETATM   21  C28 UNL     1      -1.647  10.726  15.467  1.00  0.00     0.020 C 
HETATM   22  C29 UNL     1      -1.401  10.632  13.960  1.00  0.00     0.090 C 
HETATM   23  C30 UNL     1      -1.033   9.223  13.586  1.00  0.00     0.157 C 
HETATM   24  O3  UNL     1      -0.146   9.009  12.766  1.00  0.00    -0.293 OA
ENDROOT
BRANCH   1  25
HETATM   25  C7  UNL     1      -3.704   3.552  12.712  1.00  0.00    -0.014 C 
HETATM   26  C8  UNL     1      -3.291   2.635  11.555  1.00  0.00     0.010 C 
BRANCH  25  27
HETATM   27  C6  UNL     1      -5.036   4.267  12.356  1.00  0.00     0.008 C 
BRANCH  27  28
HETATM   28  C5  UNL     1      -6.301   3.619  12.934  1.00  0.00     0.028 C 
BRANCH  28  29
HETATM   29  C4  UNL     1      -6.976   4.542  13.910  1.00  0.00    -0.017 C 
HETATM   30  C2  UNL     1      -7.938   5.447  13.648  1.00  0.00    -0.028 C 
HETATM   31  C1  UNL     1      -8.588   5.731  12.331  1.00  0.00     0.051 C 
BRANCH  30  32
HETATM   32  C3  UNL     1      -8.452   6.263  14.792  1.00  0.00     0.265 C 
HETATM   33  O1  UNL     1      -8.326   5.951  15.969  1.00  0.00    -0.302 OA
ENDBRANCH  30  32
ENDBRANCH  28  29
ENDBRANCH  27  28
ENDBRANCH  25  27
ENDBRANCH   1  25
TORSDOF 5
ENDMDL
MODEL 8
REMARK minimizedAffinity -8.2806673
REMARK  5 active torsions:
REMARK  status: ('A' for Active; 'I' for Inactive)
REMARK    1  A    between atoms: C2_2  and  C3_3 
REMARK    2  A    between atoms: C4_5  and  C5_6 
REMARK    3  A    between atoms: C5_6  and  C6_7 
REMARK    4  A    between atoms: C6_7  and  C7_8 
REMARK    5  A    between atoms: C7_8  and  C9_10 
ROOT
HETATM    1  C9  UNL     1      -4.508   5.548  13.139  1.00  0.00    -0.002 C 
HETATM    2  C10 UNL     1      -5.308   6.152  14.328  1.00  0.00     0.007 C 
HETATM    3  C11 UNL     1      -4.428   7.238  14.974  1.00  0.00     0.015 C 
HETATM    4  C12 UNL     1      -3.293   7.488  13.963  1.00  0.00    -0.005 C 
HETATM    5  C13 UNL     1      -3.838   8.488  12.898  1.00  0.00     0.021 C 
HETATM    6  C14 UNL     1      -1.975   8.091  14.429  1.00  0.00    -0.000 C 
HETATM    7  C15 UNL     1      -0.803   7.801  13.807  1.00  0.00    -0.060 C 
HETATM    8  C16 UNL     1      -0.775   6.809  12.634  1.00  0.00     0.036 C 
HETATM    9  C17 UNL     1      -2.093   6.099  12.255  1.00  0.00     0.015 C 
HETATM   10  C18 UNL     1      -3.054   6.015  13.446  1.00  0.00    -0.028 C 
HETATM   11  C19 UNL     1      -2.429   5.074  14.527  1.00  0.00     0.016 C 
HETATM   12  C20 UNL     1       0.566   8.402  14.232  1.00  0.00    -0.014 C 
HETATM   13  C21 UNL     1       1.332   7.303  15.001  1.00  0.00     0.020 C 
HETATM   14  C22 UNL     1       1.374   8.838  12.984  1.00  0.00     0.021 C 
HETATM   15  C23 UNL     1       2.611   9.689  13.248  1.00  0.00     0.080 C 
HETATM   16  C24 UNL     1       2.859  10.058  14.690  1.00  0.00     0.135 C 
HETATM   17  O2  UNL     1       4.019  10.176  15.090  1.00  0.00    -0.297 OA
HETATM   18  C25 UNL     1       1.663  10.384  15.592  1.00  0.00     0.018 C 
HETATM   19  C26 UNL     1       2.032   9.989  17.040  1.00  0.00     0.023 C 
HETATM   20  C27 UNL     1       1.492  11.915  15.554  1.00  0.00     0.023 C 
HETATM   21  C28 UNL     1       0.351   9.700  15.077  1.00  0.00     0.020 C 
HETATM   22  C29 UNL     1      -0.687   9.469  16.176  1.00  0.00     0.090 C 
HETATM   23  C30 UNL     1      -2.001   9.063  15.565  1.00  0.00     0.157 C 
HETATM   24  O3  UNL     1      -3.055   9.511  16.004  1.00  0.00    -0.293 OA
ENDROOT
BRANCH   1  25
HETATM   25  C7  UNL     1      -4.813   4.038  12.940  1.00  0.00    -0.014 C 
HETATM   26  C8  UNL     1      -3.637   3.269  12.327  1.00  0.00     0.010 C 
BRANCH  25  27
HETATM   27  C6  UNL     1      -6.093   3.786  12.097  1.00  0.00     0.008 C 
BRANCH  27  28
HETATM   28  C5  UNL     1      -7.305   3.273  12.887  1.00  0.00     0.028 C 
BRANCH  28  29
HETATM   29  C4  UNL     1      -8.040   4.412  13.536  1.00  0.00    -0.017 C 
HETATM   30  C2  UNL     1      -8.649   5.446  12.927  1.00  0.00    -0.028 C 
HETATM   31  C1  UNL     1      -8.765   5.697  11.457  1.00  0.00     0.051 C 
BRANCH  30  32
HETATM   32  C3  UNL     1      -9.312   6.470  13.793  1.00  0.00     0.265 C 
HETATM   33  O1  UNL     1     -10.524   6.618  13.875  1.00  0.00    -0.302 OA
ENDBRANCH  30  32
ENDBRANCH  28  29
ENDBRANCH  27  28
ENDBRANCH  25  27
ENDBRANCH   1  25
TORSDOF 5
ENDMDL
MODEL 9
REMARK minimizedAffinity -8.21879673
REMARK  5 active torsions:
REMARK  status: ('A' for Active; 'I' for Inactive)
REMARK    1  A    between atoms: C2_2  and  C3_3 
REMARK    2  A    between atoms: C4_5  and  C5_6 
REMARK    3  A    between atoms: C5_6  and  C6_7 
REMARK    4  A    between atoms: C6_7  and  C7_8 
REMARK    5  A    between atoms: C7_8  and  C9_10 
ROOT
HETATM    1  C9  UNL     1       2.576   8.810  13.296  1.00  0.00    -0.002 C 
HETATM    2  C10 UNL     1       3.411   7.828  12.427  1.00  0.00     0.007 C 
HETATM    3  C11 UNL     1       2.445   6.762  11.875  1.00  0.00     0.015 C 
HETATM    4  C12 UNL     1       1.035   7.323  12.140  1.00  0.00    -0.005 C 
HETATM    5  C13 UNL     1       0.704   8.304  10.973  1.00  0.00     0.021 C 
HETATM    6  C14 UNL     1      -0.159   6.382  12.212  1.00  0.00    -0.000 C 
HETATM    7  C15 UNL     1      -1.239   6.665  12.986  1.00  0.00    -0.060 C 
HETATM    8  C16 UNL     1      -1.260   7.935  13.852  1.00  0.00     0.036 C 
HETATM    9  C17 UNL     1       0.010   8.813  13.877  1.00  0.00     0.015 C 
HETATM   10  C18 UNL     1       1.268   8.001  13.547  1.00  0.00    -0.028 C 
HETATM   11  C19 UNL     1       1.512   6.972  14.697  1.00  0.00     0.016 C 
HETATM   12  C20 UNL     1      -2.490   5.747  13.082  1.00  0.00    -0.014 C 
HETATM   13  C21 UNL     1      -2.406   4.995  14.429  1.00  0.00     0.020 C 
HETATM   14  C22 UNL     1      -3.786   6.595  13.027  1.00  0.00     0.021 C 
HETATM   15  C23 UNL     1      -5.086   5.822  12.836  1.00  0.00     0.080 C 
HETATM   16  C24 UNL     1      -4.944   4.330  12.658  1.00  0.00     0.135 C 
HETATM   17  O2  UNL     1      -5.828   3.586  13.090  1.00  0.00    -0.297 OA
HETATM   18  C25 UNL     1      -3.761   3.786  11.850  1.00  0.00     0.018 C 
HETATM   19  C26 UNL     1      -3.400   2.390  12.407  1.00  0.00     0.023 C 
HETATM   20  C27 UNL     1      -4.269   3.596  10.407  1.00  0.00     0.023 C 
HETATM   21  C28 UNL     1      -2.555   4.786  11.851  1.00  0.00     0.020 C 
HETATM   22  C29 UNL     1      -1.204   4.110  11.615  1.00  0.00     0.090 C 
HETATM   23  C30 UNL     1      -0.146   5.150  11.365  1.00  0.00     0.157 C 
HETATM   24  O3  UNL     1       0.706   4.974  10.500  1.00  0.00    -0.293 OA
ENDROOT
BRANCH   1  25
HETATM   25  C7  UNL     1       3.391   9.361  14.498  1.00  0.00    -0.014 C 
HETATM   26  C8  UNL     1       4.067  10.703  14.194  1.00  0.00     0.010 C 
BRANCH  25  27
HETATM   27  C6  UNL     1       4.451   8.353  15.022  1.00  0.00     0.008 C 
BRANCH  27  28
HETATM   28  C5  UNL     1       5.778   8.343  14.253  1.00  0.00     0.028 C 
BRANCH  28  29
HETATM   29  C4  UNL     1       6.939   8.185  15.195  1.00  0.00    -0.017 C 
HETATM   30  C2  UNL     1       8.245   8.108  14.877  1.00  0.00    -0.028 C 
HETATM   31  C1  UNL     1       8.858   8.189  13.515  1.00  0.00     0.051 C 
BRANCH  30  32
HETATM   32  C3  UNL     1       9.223   7.942  15.997  1.00  0.00     0.265 C 
HETATM   33  O1  UNL     1       8.906   7.689  17.152  1.00  0.00    -0.302 OA
ENDBRANCH  30  32
ENDBRANCH  28  29
ENDBRANCH  27  28
ENDBRANCH  25  27
ENDBRANCH   1  25
TORSDOF 5
ENDMDL
