MODEL 1
REMARK minimizedAffinity -9.82593822
REMARK CNNscore 0.39585498
REMARK CNNaffinity 7.68242884
REMARK  13 active torsions:
REMARK  status: ('A' for Active; 'I' for Inactive)
REMARK    1  A    between atoms: C5_6  and  C6_7 
REMARK    2  A    between atoms: C5_6  and  C31_35 
REMARK    3  A    between atoms: C23_24  and  O2_25 
REMARK    4  A    between atoms: C30_33  and  O4_34 
REMARK    5  A    between atoms: C32_37  and  C33_38 
REMARK    6  A    between atoms: C33_38  and  O6_40 
REMARK    7  A    between atoms: C33_38  and  C35_41 
REMARK    8  A    between atoms: C35_41  and  C37_43 
REMARK    9  A    between atoms: C35_41  and  C38_45 
REMARK   10  A    between atoms: C37_43  and  O7_44 
REMARK   11  A    between atoms: C38_45  and  C39_46 
REMARK   12  A    between atoms: C39_46  and  C40_47 
REMARK   13  A    between atoms: C43_51  and  N2_52 
ROOT
HETATM    1  C1  UNL     1       0.665   8.105   9.251  1.00  0.00     0.010 C 
HETATM    2  C2  UNL     1       0.730   7.630  10.701  1.00  0.00    -0.014 C 
HETATM    3  C3  UNL     1      -0.291   6.533  10.959  1.00  0.00     0.030 C 
HETATM    4  C4  UNL     1      -0.317   6.120  12.422  1.00  0.00     0.169 C 
HETATM    5  O1  UNL     1       0.485   6.930  13.268  1.00  0.00    -0.377 OA
HETATM    6  C5  UNL     1       0.341   8.370  13.156  1.00  0.00     0.094 C 
HETATM    7  C45 UNL     1       0.504   8.798  11.673  1.00  0.00     0.045 C 
ENDROOT
BRANCH   6   8
HETATM    8  C6  UNL     1       1.503   8.880  14.085  1.00  0.00     0.035 C 
HETATM    9  C7  UNL     1       2.764   9.431  13.297  1.00  0.00     0.016 C 
HETATM   10  C8  UNL     1       3.336  10.554  14.174  1.00  0.00     0.026 C 
HETATM   11  C9  UNL     1       4.840  10.781  14.245  1.00  0.00     0.013 C 
HETATM   12  C30 UNL     1       2.791  10.204  15.551  1.00  0.00     0.094 C 
HETATM   13  C10 UNL     1       5.147  11.904  15.272  1.00  0.00     0.043 C 
HETATM   14  C11 UNL     1       4.214  11.968  16.470  1.00  0.00    -0.006 C 
HETATM   15  C12 UNL     1       3.108  11.208  16.583  1.00  0.00    -0.030 C 
HETATM   16  C26 UNL     1       4.626  12.806  17.643  1.00  0.00     0.161 C 
HETATM   17  C13 UNL     1       2.298  11.128  17.836  1.00  0.00     0.032 C 
HETATM   18  C14 UNL     1       1.006  10.226  17.860  1.00  0.00    -0.004 C 
HETATM   19  C20 UNL     1       2.190  12.528  18.508  1.00  0.00    -0.014 C 
HETATM   20  C15 UNL     1      -0.273  10.894  18.419  1.00  0.00     0.014 C 
HETATM   21  C27 UNL     1       0.712   9.339  16.595  1.00  0.00     0.018 C 
HETATM   22  C16 UNL     1      -0.068  12.024  19.466  1.00  0.00     0.013 C 
HETATM   23  C17 UNL     1      -0.653  13.271  18.872  1.00  0.00    -0.026 C 
HETATM   24  C25 UNL     1       1.417  12.228  19.821  1.00  0.00     0.006 C 
HETATM   25  C18 UNL     1       0.055  13.979  17.986  1.00  0.00    -0.029 C 
HETATM   26  C19 UNL     1       1.467  13.626  17.625  1.00  0.00     0.038 C 
HETATM   27  C24 UNL     1       1.746  13.273  20.888  1.00  0.00     0.037 C 
HETATM   28  C23 UNL     1       3.240  13.198  21.268  1.00  0.00     0.119 C 
HETATM   29  C22 UNL     1       4.150  12.643  20.153  1.00  0.00     0.045 C 
HETATM   30  C21 UNL     1       3.630  13.079  18.779  1.00  0.00     0.072 C 
HETATM   31  C28 UNL     1       1.300   9.898  15.279  1.00  0.00    -0.002 C 
HETATM   32  C29 UNL     1       0.449  11.116  14.870  1.00  0.00     0.019 C 
HETATM   33  O3  UNL     1       5.761  13.282  17.674  1.00  0.00    -0.292 OA
BRANCH  28  34
HETATM   34  O2  UNL     1       3.660  14.516  21.616  1.00  0.00    -0.396 OA
HETATM   35  H30 UNL     1       4.577  14.461  21.937  1.00  0.00     0.210 HD
ENDBRANCH  28  34
BRANCH  12  36
HETATM   36  O4  UNL     1       3.434   9.024  16.081  1.00  0.00    -0.384 OA
HETATM   37  H39 UNL     1       3.819   8.503  15.361  1.00  0.00     0.211 HD
ENDBRANCH  12  36
ENDBRANCH   6   8
BRANCH   6  38
HETATM   38  C31 UNL     1      -0.985   8.749  13.805  1.00  0.00     0.189 A 
HETATM   39  O5  UNL     1      -1.894   9.518  13.014  1.00  0.00    -0.369 OA
HETATM   40  C32 UNL     1      -2.349   8.204  13.386  1.00  0.00     0.189 A 
BRANCH  40  41
HETATM   41  C33 UNL     1      -3.511   8.147  14.386  1.00  0.00     0.092 C 
HETATM   42  C34 UNL     1      -4.175   9.538  14.512  1.00  0.00     0.049 C 
BRANCH  41  43
HETATM   43  O6  UNL     1      -2.973   7.886  15.699  1.00  0.00    -0.387 OA
HETATM   44  H45 UNL     1      -2.145   7.383  15.601  1.00  0.00     0.210 HD
ENDBRANCH  41  43
BRANCH  41  45
HETATM   45  C35 UNL     1      -4.588   6.996  14.072  1.00  0.00     0.011 C 
HETATM   46  C36 UNL     1      -5.952   7.658  13.734  1.00  0.00     0.020 C 
BRANCH  45  47
HETATM   47  C37 UNL     1      -4.856   6.127  15.339  1.00  0.00     0.176 C 
BRANCH  47  48
HETATM   48  O7  UNL     1      -5.775   6.745  16.224  1.00  0.00    -0.400 OA
HETATM   49  H51 UNL     1      -5.891   6.146  16.985  1.00  0.00     0.209 HD
ENDBRANCH  47  48
ENDBRANCH  45  47
BRANCH  45  50
HETATM   50  C38 UNL     1      -4.111   6.120  12.863  1.00  0.00     0.019 C 
BRANCH  50  51
HETATM   51  C39 UNL     1      -3.807   4.629  13.121  1.00  0.00     0.039 C 
BRANCH  51  52
HETATM   52  C40 UNL     1      -4.864   3.652  12.658  1.00  0.00    -0.054 A 
HETATM   53  C41 UNL     1      -4.538   2.610  11.783  1.00  0.00     0.024 A 
HETATM   54  C42 UNL     1      -5.531   1.735  11.361  1.00  0.00     0.090 A 
HETATM   55  N1  UNL     1      -6.790   1.909  11.784  1.00  0.00    -0.357 N 
HETATM   56  C43 UNL     1      -7.155   2.896  12.606  1.00  0.00     0.077 A 
HETATM   57  H58 UNL     1      -7.533   1.282  11.482  1.00  0.00     0.166 HD
HETATM   58  C44 UNL     1      -6.199   3.798  13.057  1.00  0.00     0.049 A 
BRANCH  56  59
HETATM   59  N2  UNL     1      -8.502   2.975  12.930  1.00  0.00    -0.289 NA
HETATM   60  H59 UNL     1      -8.902   3.859  12.597  1.00  0.00     0.125 HD
HETATM   61  H60 UNL     1      -8.634   3.000  13.946  1.00  0.00     0.125 HD
ENDBRANCH  56  59
ENDBRANCH  51  52
ENDBRANCH  50  51
ENDBRANCH  45  50
ENDBRANCH  41  45
ENDBRANCH  40  41
ENDBRANCH   6  38
TORSDOF 13
ENDMDL
MODEL 2
REMARK minimizedAffinity -10.8908443
REMARK CNNscore 0.297102451
REMARK CNNaffinity 8.03586197
REMARK  13 active torsions:
REMARK  status: ('A' for Active; 'I' for Inactive)
REMARK    1  A    between atoms: C5_6  and  C6_7 
REMARK    2  A    between atoms: C5_6  and  C31_35 
REMARK    3  A    between atoms: C23_24  and  O2_25 
REMARK    4  A    between atoms: C30_33  and  O4_34 
REMARK    5  A    between atoms: C32_37  and  C33_38 
REMARK    6  A    between atoms: C33_38  and  O6_40 
REMARK    7  A    between atoms: C33_38  and  C35_41 
REMARK    8  A    between atoms: C35_41  and  C37_43 
REMARK    9  A    between atoms: C35_41  and  C38_45 
REMARK   10  A    between atoms: C37_43  and  O7_44 
REMARK   11  A    between atoms: C38_45  and  C39_46 
REMARK   12  A    between atoms: C39_46  and  C40_47 
REMARK   13  A    between atoms: C43_51  and  N2_52 
ROOT
HETATM    1  C1  UNL     1      -5.313   3.572   8.502  1.00  0.00     0.010 C 
HETATM    2  C2  UNL     1      -4.783   3.100   9.854  1.00  0.00    -0.014 C 
HETATM    3  C3  UNL     1      -5.764   2.147  10.518  1.00  0.00     0.030 C 
HETATM    4  C4  UNL     1      -5.306   1.750  11.912  1.00  0.00     0.169 C 
HETATM    5  O1  UNL     1      -4.160   2.452  12.370  1.00  0.00    -0.377 OA
HETATM    6  C5  UNL     1      -4.161   3.897  12.242  1.00  0.00     0.094 C 
HETATM    7  C45 UNL     1      -4.499   4.293  10.779  1.00  0.00     0.045 C 
ENDROOT
BRANCH   6   8
HETATM    8  C6  UNL     1      -2.689   4.256  12.663  1.00  0.00     0.035 C 
HETATM    9  C7  UNL     1      -1.618   4.030  11.516  1.00  0.00     0.016 C 
HETATM   10  C8  UNL     1      -0.550   5.111  11.735  1.00  0.00     0.026 C 
HETATM   11  C9  UNL     1       0.915   4.811  11.450  1.00  0.00     0.013 C 
HETATM   12  C30 UNL     1      -0.738   5.466  13.203  1.00  0.00     0.094 C 
HETATM   13  C10 UNL     1       1.783   6.036  11.848  1.00  0.00     0.043 C 
HETATM   14  C11 UNL     1       1.289   6.825  13.049  1.00  0.00    -0.006 C 
HETATM   15  C12 UNL     1       0.110   6.584  13.653  1.00  0.00    -0.030 C 
HETATM   16  C26 UNL     1       2.224   7.814  13.678  1.00  0.00     0.161 C 
HETATM   17  C13 UNL     1      -0.291   7.223  14.943  1.00  0.00     0.032 C 
HETATM   18  C14 UNL     1      -1.703   6.892  15.558  1.00  0.00    -0.004 C 
HETATM   19  C20 UNL     1       0.160   8.713  14.978  1.00  0.00    -0.014 C 
HETATM   20  C15 UNL     1      -2.551   8.111  15.996  1.00  0.00     0.014 C 
HETATM   21  C27 UNL     1      -2.569   5.789  14.848  1.00  0.00     0.018 C 
HETATM   22  C16 UNL     1      -1.770   9.384  16.426  1.00  0.00     0.013 C 
HETATM   23  C17 UNL     1      -2.168  10.474  15.476  1.00  0.00    -0.026 C 
HETATM   24  C25 UNL     1      -0.245   9.168  16.407  1.00  0.00     0.006 C 
HETATM   25  C18 UNL     1      -1.595  10.544  14.269  1.00  0.00    -0.029 C 
HETATM   26  C19 UNL     1      -0.487   9.621  13.855  1.00  0.00     0.038 C 
HETATM   27  C24 UNL     1       0.635  10.330  16.869  1.00  0.00     0.037 C 
HETATM   28  C23 UNL     1       2.105   9.874  16.987  1.00  0.00     0.119 C 
HETATM   29  C22 UNL     1       2.478   8.693  16.068  1.00  0.00     0.045 C 
HETATM   30  C21 UNL     1       1.706   8.786  14.747  1.00  0.00     0.072 C 
HETATM   31  C28 UNL     1      -2.270   5.623  13.340  1.00  0.00    -0.002 C 
HETATM   32  C29 UNL     1      -2.866   6.844  12.611  1.00  0.00     0.019 C 
HETATM   33  O3  UNL     1       3.400   7.846  13.315  1.00  0.00    -0.292 OA
BRANCH  28  34
HETATM   34  O2  UNL     1       2.927  10.999  16.678  1.00  0.00    -0.396 OA
HETATM   35  H30 UNL     1       3.853  10.742  16.833  1.00  0.00     0.210 HD
ENDBRANCH  28  34
BRANCH  12  36
HETATM   36  O4  UNL     1      -0.288   4.392  14.059  1.00  0.00    -0.384 OA
HETATM   37  H39 UNL     1      -0.275   3.557  13.567  1.00  0.00     0.211 HD
ENDBRANCH  12  36
ENDBRANCH   6   8
BRANCH   6  38
HETATM   38  C31 UNL     1      -5.105   4.450  13.303  1.00  0.00     0.189 A 
HETATM   39  O5  UNL     1      -5.343   5.860  13.285  1.00  0.00    -0.369 OA
HETATM   40  C32 UNL     1      -6.490   5.031  13.023  1.00  0.00     0.189 A 
BRANCH  40  41
HETATM   41  C33 UNL     1      -7.579   5.019  14.104  1.00  0.00     0.092 C 
HETATM   42  C34 UNL     1      -7.168   4.082  15.264  1.00  0.00     0.049 C 
BRANCH  41  43
HETATM   43  O6  UNL     1      -8.764   4.409  13.553  1.00  0.00    -0.387 OA
HETATM   44  H45 UNL     1      -8.773   4.562  12.591  1.00  0.00     0.210 HD
ENDBRANCH  41  43
BRANCH  41  45
HETATM   45  C35 UNL     1      -7.992   6.479  14.632  1.00  0.00     0.011 C 
HETATM   46  C36 UNL     1      -6.813   7.460  14.382  1.00  0.00     0.020 C 
BRANCH  45  47
HETATM   47  C37 UNL     1      -8.200   6.472  16.177  1.00  0.00     0.176 C 
BRANCH  47  48
HETATM   48  O7  UNL     1      -7.079   6.995  16.869  1.00  0.00    -0.400 OA
HETATM   49  H51 UNL     1      -7.283   6.958  17.821  1.00  0.00     0.209 HD
ENDBRANCH  47  48
ENDBRANCH  45  47
BRANCH  45  50
HETATM   50  C38 UNL     1      -9.271   6.989  13.880  1.00  0.00     0.019 C 
BRANCH  50  51
HETATM   51  C39 UNL     1     -10.537   7.277  14.714  1.00  0.00     0.039 C 
BRANCH  51  52
HETATM   52  C40 UNL     1     -11.752   7.725  13.933  1.00  0.00    -0.054 A 
HETATM   53  C41 UNL     1     -12.908   6.938  13.900  1.00  0.00     0.024 A 
HETATM   54  C42 UNL     1     -14.005   7.365  13.162  1.00  0.00     0.090 A 
HETATM   55  N1  UNL     1     -13.936   8.515  12.479  1.00  0.00    -0.357 N 
HETATM   56  C43 UNL     1     -12.851   9.294  12.465  1.00  0.00     0.077 A 
HETATM   57  H58 UNL     1     -14.727   8.843  11.928  1.00  0.00     0.166 HD
HETATM   58  C44 UNL     1     -11.727   8.911  13.188  1.00  0.00     0.049 A 
BRANCH  56  59
HETATM   59  N2  UNL     1     -12.911  10.438  11.683  1.00  0.00    -0.289 NA
HETATM   60  H59 UNL     1     -12.209  10.402  10.937  1.00  0.00     0.125 HD
HETATM   61  H60 UNL     1     -12.664  11.269  12.229  1.00  0.00     0.125 HD
ENDBRANCH  56  59
ENDBRANCH  51  52
ENDBRANCH  50  51
ENDBRANCH  45  50
ENDBRANCH  41  45
ENDBRANCH  40  41
ENDBRANCH   6  38
TORSDOF 13
ENDMDL
MODEL 3
REMARK minimizedAffinity -11.083293
REMARK CNNscore 0.275469452
REMARK CNNaffinity 7.21677637
REMARK  13 active torsions:
REMARK  status: ('A' for Active; 'I' for Inactive)
REMARK    1  A    between atoms: C5_6  and  C6_7 
REMARK    2  A    between atoms: C5_6  and  C31_35 
REMARK    3  A    between atoms: C23_24  and  O2_25 
REMARK    4  A    between atoms: C30_33  and  O4_34 
REMARK    5  A    between atoms: C32_37  and  C33_38 
REMARK    6  A    between atoms: C33_38  and  O6_40 
REMARK    7  A    between atoms: C33_38  and  C35_41 
REMARK    8  A    between atoms: C35_41  and  C37_43 
REMARK    9  A    between atoms: C35_41  and  C38_45 
REMARK   10  A    between atoms: C37_43  and  O7_44 
REMARK   11  A    between atoms: C38_45  and  C39_46 
REMARK   12  A    between atoms: C39_46  and  C40_47 
REMARK   13  A    between atoms: C43_51  and  N2_52 
ROOT
HETATM    1  C1  UNL     1       2.630   8.698   7.886  1.00  0.00     0.010 C 
HETATM    2  C2  UNL     1       3.173   7.587   8.782  1.00  0.00    -0.014 C 
HETATM    3  C3  UNL     1       2.697   6.224   8.306  1.00  0.00     0.030 C 
HETATM    4  C4  UNL     1       3.137   5.114   9.246  1.00  0.00     0.169 C 
HETATM    5  O1  UNL     1       3.756   5.573  10.437  1.00  0.00    -0.377 OA
HETATM    6  C5  UNL     1       3.084   6.618  11.186  1.00  0.00     0.094 C 
HETATM    7  C45 UNL     1       2.757   7.808  10.244  1.00  0.00     0.045 C 
ENDROOT
BRANCH   6   8
HETATM    8  C6  UNL     1       4.155   6.965  12.283  1.00  0.00     0.035 C 
HETATM    9  C7  UNL     1       5.653   6.887  11.769  1.00  0.00     0.016 C 
HETATM   10  C8  UNL     1       6.413   7.964  12.556  1.00  0.00     0.026 C 
HETATM   11  C9  UNL     1       7.857   7.730  12.978  1.00  0.00     0.013 C 
HETATM   12  C30 UNL     1       5.532   8.156  13.783  1.00  0.00     0.094 C 
HETATM   13  C10 UNL     1       8.346   8.926  13.839  1.00  0.00     0.043 C 
HETATM   14  C11 UNL     1       7.291   9.571  14.722  1.00  0.00    -0.006 C 
HETATM   15  C12 UNL     1       5.986   9.239  14.672  1.00  0.00    -0.030 C 
HETATM   16  C26 UNL     1       7.748  10.510  15.798  1.00  0.00     0.161 C 
HETATM   17  C13 UNL     1       4.983   9.729  15.664  1.00  0.00     0.032 C 
HETATM   18  C14 UNL     1       3.474   9.301  15.505  1.00  0.00    -0.004 C 
HETATM   19  C20 UNL     1       5.257  11.217  16.032  1.00  0.00    -0.014 C 
HETATM   20  C15 UNL     1       2.436  10.447  15.587  1.00  0.00     0.014 C 
HETATM   21  C27 UNL     1       3.125   8.260  14.381  1.00  0.00     0.018 C 
HETATM   22  C16 UNL     1       2.831  11.685  16.440  1.00  0.00     0.013 C 
HETATM   23  C17 UNL     1       2.850  12.860  15.507  1.00  0.00    -0.026 C 
HETATM   24  C25 UNL     1       4.197  11.508  17.129  1.00  0.00     0.006 C 
HETATM   25  C18 UNL     1       3.916  13.071  14.728  1.00  0.00    -0.029 C 
HETATM   26  C19 UNL     1       5.151  12.224  14.815  1.00  0.00     0.038 C 
HETATM   27  C24 UNL     1       4.671  12.635  18.047  1.00  0.00     0.037 C 
HETATM   28  C23 UNL     1       5.941  12.204  18.811  1.00  0.00     0.119 C 
HETATM   29  C22 UNL     1       6.785  11.136  18.086  1.00  0.00     0.045 C 
HETATM   30  C21 UNL     1       6.721  11.351  16.570  1.00  0.00     0.072 C 
HETATM   31  C28 UNL     1       4.108   8.262  13.189  1.00  0.00    -0.002 C 
HETATM   32  C29 UNL     1       3.840   9.538  12.367  1.00  0.00     0.019 C 
HETATM   33  O3  UNL     1       8.951  10.607  16.042  1.00  0.00    -0.292 OA
BRANCH  28  34
HETATM   34  O2  UNL     1       6.729  13.374  19.024  1.00  0.00    -0.396 OA
HETATM   35  H30 UNL     1       7.490  13.123  19.577  1.00  0.00     0.210 HD
ENDBRANCH  28  34
BRANCH  12  36
HETATM   36  O4  UNL     1       5.602   7.008  14.658  1.00  0.00    -0.384 OA
HETATM   37  H39 UNL     1       5.903   6.231  14.165  1.00  0.00     0.211 HD
ENDBRANCH  12  36
ENDBRANCH   6   8
BRANCH   6  38
HETATM   38  C31 UNL     1       1.883   5.984  11.880  1.00  0.00     0.189 A 
HETATM   39  O5  UNL     1       0.921   6.876  12.448  1.00  0.00    -0.369 OA
HETATM   40  C32 UNL     1       0.445   6.049  11.369  1.00  0.00     0.189 A 
BRANCH  40  41
HETATM   41  C33 UNL     1      -0.571   4.963  11.745  1.00  0.00     0.092 C 
HETATM   42  C34 UNL     1       0.163   3.653  12.117  1.00  0.00     0.049 C 
BRANCH  41  43
HETATM   43  O6  UNL     1      -1.336   4.625  10.570  1.00  0.00    -0.387 OA
HETATM   44  H45 UNL     1      -1.370   5.404   9.987  1.00  0.00     0.210 HD
ENDBRANCH  41  43
BRANCH  41  45
HETATM   45  C35 UNL     1      -1.613   5.408  12.884  1.00  0.00     0.011 C 
HETATM   46  C36 UNL     1      -2.135   6.836  12.562  1.00  0.00     0.020 C 
BRANCH  45  47
HETATM   47  C37 UNL     1      -0.904   5.533  14.267  1.00  0.00     0.176 C 
BRANCH  47  48
HETATM   48  O7  UNL     1      -1.817   5.827  15.310  1.00  0.00    -0.400 OA
HETATM   49  H51 UNL     1      -1.303   5.889  16.137  1.00  0.00     0.209 HD
ENDBRANCH  47  48
ENDBRANCH  45  47
BRANCH  45  50
HETATM   50  C38 UNL     1      -2.818   4.406  12.943  1.00  0.00     0.019 C 
BRANCH  50  51
HETATM   51  C39 UNL     1      -3.846   4.437  11.792  1.00  0.00     0.039 C 
BRANCH  51  52
HETATM   52  C40 UNL     1      -5.016   3.490  11.930  1.00  0.00    -0.054 A 
HETATM   53  C41 UNL     1      -4.979   2.220  11.343  1.00  0.00     0.024 A 
HETATM   54  C42 UNL     1      -6.074   1.375  11.472  1.00  0.00     0.090 A 
HETATM   55  N1  UNL     1      -7.157   1.791  12.141  1.00  0.00    -0.357 N 
HETATM   56  C43 UNL     1      -7.248   2.998  12.705  1.00  0.00     0.077 A 
HETATM   57  H58 UNL     1      -7.971   1.190  12.241  1.00  0.00     0.166 HD
HETATM   58  C44 UNL     1      -6.179   3.881  12.605  1.00  0.00     0.049 A 
BRANCH  56  59
HETATM   59  N2  UNL     1      -8.446   3.307  13.334  1.00  0.00    -0.289 NA
HETATM   60  H59 UNL     1      -8.900   4.104  12.875  1.00  0.00     0.125 HD
HETATM   61  H60 UNL     1      -8.285   3.621  14.296  1.00  0.00     0.125 HD
ENDBRANCH  56  59
ENDBRANCH  51  52
ENDBRANCH  50  51
ENDBRANCH  45  50
ENDBRANCH  41  45
ENDBRANCH  40  41
ENDBRANCH   6  38
TORSDOF 13
ENDMDL
MODEL 4
REMARK minimizedAffinity -10.604373
REMARK CNNscore 0.271837354
REMARK CNNaffinity 7.27156496
REMARK  13 active torsions:
REMARK  status: ('A' for Active; 'I' for Inactive)
REMARK    1  A    between atoms: C5_6  and  C6_7 
REMARK    2  A    between atoms: C5_6  and  C31_35 
REMARK    3  A    between atoms: C23_24  and  O2_25 
REMARK    4  A    between atoms: C30_33  and  O4_34 
REMARK    5  A    between atoms: C32_37  and  C33_38 
REMARK    6  A    between atoms: C33_38  and  O6_40 
REMARK    7  A    between atoms: C33_38  and  C35_41 
REMARK    8  A    between atoms: C35_41  and  C37_43 
REMARK    9  A    between atoms: C35_41  and  C38_45 
REMARK   10  A    between atoms: C37_43  and  O7_44 
REMARK   11  A    between atoms: C38_45  and  C39_46 
REMARK   12  A    between atoms: C39_46  and  C40_47 
REMARK   13  A    between atoms: C43_51  and  N2_52 
ROOT
HETATM    1  C1  UNL     1       1.285   8.442   8.538  1.00  0.00     0.010 C 
HETATM    2  C2  UNL     1       1.593   7.489   9.692  1.00  0.00    -0.014 C 
HETATM    3  C3  UNL     1       0.459   6.496   9.892  1.00  0.00     0.030 C 
HETATM    4  C4  UNL     1       0.696   5.608  11.103  1.00  0.00     0.169 C 
HETATM    5  O1  UNL     1       1.825   5.976  11.881  1.00  0.00    -0.377 OA
HETATM    6  C5  UNL     1       1.958   7.371  12.256  1.00  0.00     0.094 C 
HETATM    7  C45 UNL     1       1.849   8.265  10.992  1.00  0.00     0.045 C 
ENDROOT
BRANCH   6   8
HETATM    8  C6  UNL     1       3.386   7.390  12.914  1.00  0.00     0.035 C 
HETATM    9  C7  UNL     1       4.555   6.964  11.930  1.00  0.00     0.016 C 
HETATM   10  C8  UNL     1       5.778   7.780  12.369  1.00  0.00     0.026 C 
HETATM   11  C9  UNL     1       7.173   7.174  12.291  1.00  0.00     0.013 C 
HETATM   12  C30 UNL     1       5.438   8.131  13.811  1.00  0.00     0.094 C 
HETATM   13  C10 UNL     1       8.205   8.171  12.885  1.00  0.00     0.043 C 
HETATM   14  C11 UNL     1       7.705   9.019  14.042  1.00  0.00    -0.006 C 
HETATM   15  C12 UNL     1       6.420   9.027  14.447  1.00  0.00    -0.030 C 
HETATM   16  C26 UNL     1       8.715   9.765  14.861  1.00  0.00     0.161 C 
HETATM   17  C13 UNL     1       5.964   9.707  15.697  1.00  0.00     0.032 C 
HETATM   18  C14 UNL     1       4.433   9.677  16.072  1.00  0.00    -0.004 C 
HETATM   19  C20 UNL     1       6.708  11.061  15.885  1.00  0.00    -0.014 C 
HETATM   20  C15 UNL     1       3.804  11.041  16.447  1.00  0.00     0.014 C 
HETATM   21  C27 UNL     1       3.479   8.807  15.177  1.00  0.00     0.018 C 
HETATM   22  C16 UNL     1       4.759  12.103  17.064  1.00  0.00     0.013 C 
HETATM   23  C17 UNL     1       4.757  13.275  16.128  1.00  0.00    -0.026 C 
HETATM   24  C25 UNL     1       6.186  11.559  17.261  1.00  0.00     0.006 C 
HETATM   25  C18 UNL     1       5.516  13.248  15.028  1.00  0.00    -0.029 C 
HETATM   26  C19 UNL     1       6.455  12.116  14.733  1.00  0.00     0.038 C 
HETATM   27  C24 UNL     1       7.207  12.490  17.917  1.00  0.00     0.037 C 
HETATM   28  C23 UNL     1       8.509  11.722  18.228  1.00  0.00     0.119 C 
HETATM   29  C22 UNL     1       8.765  10.511  17.309  1.00  0.00     0.045 C 
HETATM   30  C21 UNL     1       8.251  10.801  15.894  1.00  0.00     0.072 C 
HETATM   31  C28 UNL     1       3.972   8.616  13.724  1.00  0.00    -0.002 C 
HETATM   32  C29 UNL     1       3.772   9.954  12.986  1.00  0.00     0.019 C 
HETATM   33  O3  UNL     1       9.914   9.549  14.682  1.00  0.00    -0.292 OA
BRANCH  28  34
HETATM   34  O2  UNL     1       9.589  12.647  18.112  1.00  0.00    -0.396 OA
HETATM   35  H30 UNL     1      10.403  12.190  18.389  1.00  0.00     0.210 HD
ENDBRANCH  28  34
BRANCH  12  36
HETATM   36  O4  UNL     1       5.508   6.965  14.660  1.00  0.00    -0.384 OA
HETATM   37  H39 UNL     1       5.422   6.160  14.129  1.00  0.00     0.211 HD
ENDBRANCH  12  36
ENDBRANCH   6   8
BRANCH   6  38
HETATM   38  C31 UNL     1       0.931   7.652  13.347  1.00  0.00     0.189 A 
HETATM   39  O5  UNL     1      -0.021   8.686  13.086  1.00  0.00    -0.369 OA
HETATM   40  C32 UNL     1      -0.565   7.361  13.234  1.00  0.00     0.189 A 
BRANCH  40  41
HETATM   41  C33 UNL     1      -1.412   7.111  14.488  1.00  0.00     0.092 C 
HETATM   42  C34 UNL     1      -1.303   8.314  15.453  1.00  0.00     0.049 C 
BRANCH  41  43
HETATM   43  O6  UNL     1      -0.833   6.010  15.219  1.00  0.00    -0.387 OA
HETATM   44  H45 UNL     1      -0.375   5.425  14.589  1.00  0.00     0.210 HD
ENDBRANCH  41  43
BRANCH  41  45
HETATM   45  C35 UNL     1      -2.941   6.729  14.178  1.00  0.00     0.011 C 
HETATM   46  C36 UNL     1      -3.491   7.688  13.086  1.00  0.00     0.020 C 
BRANCH  45  47
HETATM   47  C37 UNL     1      -3.839   6.974  15.429  1.00  0.00     0.176 C 
BRANCH  47  48
HETATM   48  O7  UNL     1      -3.629   5.997  16.436  1.00  0.00    -0.400 OA
HETATM   49  H51 UNL     1      -4.220   6.217  17.179  1.00  0.00     0.209 HD
ENDBRANCH  47  48
ENDBRANCH  45  47
BRANCH  45  50
HETATM   50  C38 UNL     1      -3.042   5.246  13.678  1.00  0.00     0.019 C 
BRANCH  50  51
HETATM   51  C39 UNL     1      -4.012   4.933  12.520  1.00  0.00     0.039 C 
BRANCH  51  52
HETATM   52  C40 UNL     1      -5.405   4.507  12.925  1.00  0.00    -0.054 A 
HETATM   53  C41 UNL     1      -6.172   5.300  13.785  1.00  0.00     0.024 A 
HETATM   54  C42 UNL     1      -7.443   4.878  14.153  1.00  0.00     0.090 A 
HETATM   55  N1  UNL     1      -7.912   3.710  13.694  1.00  0.00    -0.357 N 
HETATM   56  C43 UNL     1      -7.214   2.910  12.885  1.00  0.00     0.077 A 
HETATM   57  H58 UNL     1      -8.838   3.381  13.957  1.00  0.00     0.166 HD
HETATM   58  C44 UNL     1      -5.937   3.287  12.486  1.00  0.00     0.049 A 
BRANCH  56  59
HETATM   59  N2  UNL     1      -7.813   1.712  12.519  1.00  0.00    -0.289 NA
HETATM   60  H59 UNL     1      -7.264   0.916  12.860  1.00  0.00     0.125 HD
HETATM   61  H60 UNL     1      -7.821   1.602  11.500  1.00  0.00     0.125 HD
ENDBRANCH  56  59
ENDBRANCH  51  52
ENDBRANCH  50  51
ENDBRANCH  45  50
ENDBRANCH  41  45
ENDBRANCH  40  41
ENDBRANCH   6  38
TORSDOF 13
ENDMDL
MODEL 5
REMARK minimizedAffinity -10.6713524
REMARK CNNscore 0.234560102
REMARK CNNaffinity 7.1556282
REMARK  13 active torsions:
REMARK  status: ('A' for Active; 'I' for Inactive)
REMARK    1  A    between atoms: C5_6  and  C6_7 
REMARK    2  A    between atoms: C5_6  and  C31_35 
REMARK    3  A    between atoms: C23_24  and  O2_25 
REMARK    4  A    between atoms: C30_33  and  O4_34 
REMARK    5  A    between atoms: C32_37  and  C33_38 
REMARK    6  A    between atoms: C33_38  and  O6_40 
REMARK    7  A    between atoms: C33_38  and  C35_41 
REMARK    8  A    between atoms: C35_41  and  C37_43 
REMARK    9  A    between atoms: C35_41  and  C38_45 
REMARK   10  A    between atoms: C37_43  and  O7_44 
REMARK   11  A    between atoms: C38_45  and  C39_46 
REMARK   12  A    between atoms: C39_46  and  C40_47 
REMARK   13  A    between atoms: C43_51  and  N2_52 
ROOT
HETATM    1  C1  UNL     1       1.937   7.704   6.909  1.00  0.00     0.010 C 
HETATM    2  C2  UNL     1       2.470   7.374   8.302  1.00  0.00    -0.014 C 
HETATM    3  C3  UNL     1       2.709   5.880   8.451  1.00  0.00     0.030 C 
HETATM    4  C4  UNL     1       3.137   5.517   9.864  1.00  0.00     0.169 C 
HETATM    5  O1  UNL     1       3.077   6.596  10.784  1.00  0.00    -0.377 OA
HETATM    6  C5  UNL     1       1.858   7.382  10.822  1.00  0.00     0.094 C 
HETATM    7  C45 UNL     1       1.502   7.863   9.390  1.00  0.00     0.045 C 
ENDROOT
BRANCH   6   8
HETATM    8  C6  UNL     1       2.263   8.552  11.792  1.00  0.00     0.035 C 
HETATM    9  C7  UNL     1       1.236   8.794  12.975  1.00  0.00     0.016 C 
HETATM   10  C8  UNL     1       2.082   9.268  14.163  1.00  0.00     0.026 C 
HETATM   11  C9  UNL     1       1.531  10.304  15.134  1.00  0.00     0.013 C 
HETATM   12  C30 UNL     1       3.335   9.801  13.482  1.00  0.00     0.094 C 
HETATM   13  C10 UNL     1       2.623  10.674  16.174  1.00  0.00     0.043 C 
HETATM   14  C11 UNL     1       4.051  10.663  15.655  1.00  0.00    -0.006 C 
HETATM   15  C12 UNL     1       4.384  10.227  14.424  1.00  0.00    -0.030 C 
HETATM   16  C26 UNL     1       5.114  11.303  16.497  1.00  0.00     0.161 C 
HETATM   17  C13 UNL     1       5.750  10.393  13.843  1.00  0.00     0.032 C 
HETATM   18  C14 UNL     1       6.046   9.828  12.402  1.00  0.00    -0.004 C 
HETATM   19  C20 UNL     1       6.839  10.151  14.930  1.00  0.00    -0.014 C 
HETATM   20  C15 UNL     1       7.323   8.965  12.264  1.00  0.00     0.014 C 
HETATM   21  C27 UNL     1       4.838   9.239  11.588  1.00  0.00     0.018 C 
HETATM   22  C16 UNL     1       8.481   9.270  13.256  1.00  0.00     0.013 C 
HETATM   23  C17 UNL     1       8.701   8.021  14.056  1.00  0.00    -0.026 C 
HETATM   24  C25 UNL     1       8.161  10.463  14.176  1.00  0.00     0.006 C 
HETATM   25  C18 UNL     1       7.901   7.747  15.092  1.00  0.00    -0.029 C 
HETATM   26  C19 UNL     1       6.835   8.696  15.553  1.00  0.00     0.038 C 
HETATM   27  C24 UNL     1       9.248  10.903  15.158  1.00  0.00     0.037 C 
HETATM   28  C23 UNL     1       8.847  12.226  15.843  1.00  0.00     0.119 C 
HETATM   29  C22 UNL     1       7.325  12.460  15.926  1.00  0.00     0.045 C 
HETATM   30  C21 UNL     1       6.594  11.128  16.128  1.00  0.00     0.072 C 
HETATM   31  C28 UNL     1       3.689   8.691  12.465  1.00  0.00    -0.002 C 
HETATM   32  C29 UNL     1       4.172   7.367  13.089  1.00  0.00     0.019 C 
HETATM   33  O3  UNL     1       4.786  11.952  17.490  1.00  0.00    -0.292 OA
BRANCH  28  34
HETATM   34  O2  UNL     1       9.401  12.212  17.158  1.00  0.00    -0.396 OA
HETATM   35  H30 UNL     1       9.223  13.078  17.565  1.00  0.00     0.210 HD
ENDBRANCH  28  34
BRANCH  12  36
HETATM   36  O4  UNL     1       3.058  11.029  12.773  1.00  0.00    -0.384 OA
HETATM   37  H39 UNL     1       2.111  11.098  12.583  1.00  0.00     0.211 HD
ENDBRANCH  12  36
ENDBRANCH   6   8
BRANCH   6  38
HETATM   38  C31 UNL     1       0.792   6.541  11.514  1.00  0.00     0.189 A 
HETATM   39  O5  UNL     1       1.191   5.832  12.689  1.00  0.00    -0.369 OA
HETATM   40  C32 UNL     1       0.191   6.849  12.885  1.00  0.00     0.189 A 
BRANCH  40  41
HETATM   41  C33 UNL     1      -1.214   6.356  13.253  1.00  0.00     0.092 C 
HETATM   42  C34 UNL     1      -1.153   5.463  14.514  1.00  0.00     0.049 C 
BRANCH  41  43
HETATM   43  O6  UNL     1      -1.678   5.474  12.211  1.00  0.00    -0.387 OA
HETATM   44  H45 UNL     1      -1.254   5.733  11.373  1.00  0.00     0.210 HD
ENDBRANCH  41  43
BRANCH  41  45
HETATM   45  C35 UNL     1      -2.300   7.531  13.404  1.00  0.00     0.011 C 
HETATM   46  C36 UNL     1      -2.027   8.614  12.324  1.00  0.00     0.020 C 
BRANCH  45  47
HETATM   47  C37 UNL     1      -2.137   8.264  14.771  1.00  0.00     0.176 C 
BRANCH  47  48
HETATM   48  O7  UNL     1      -3.273   8.099  15.603  1.00  0.00    -0.400 OA
HETATM   49  H51 UNL     1      -3.097   8.581  16.432  1.00  0.00     0.209 HD
ENDBRANCH  47  48
ENDBRANCH  45  47
BRANCH  45  50
HETATM   50  C38 UNL     1      -3.750   6.960  13.226  1.00  0.00     0.019 C 
BRANCH  50  51
HETATM   51  C39 UNL     1      -4.147   5.715  14.047  1.00  0.00     0.039 C 
BRANCH  51  52
HETATM   52  C40 UNL     1      -5.032   4.715  13.340  1.00  0.00    -0.054 A 
HETATM   53  C41 UNL     1      -4.509   3.869  12.356  1.00  0.00     0.024 A 
HETATM   54  C42 UNL     1      -5.348   2.969  11.711  1.00  0.00     0.090 A 
HETATM   55  N1  UNL     1      -6.649   2.933  12.026  1.00  0.00    -0.357 N 
HETATM   56  C43 UNL     1      -7.200   3.730  12.946  1.00  0.00     0.077 A 
HETATM   57  H58 UNL     1      -7.281   2.285  11.561  1.00  0.00     0.166 HD
HETATM   58  C44 UNL     1      -6.403   4.647  13.621  1.00  0.00     0.049 A 
BRANCH  56  59
HETATM   59  N2  UNL     1      -8.568   3.607  13.142  1.00  0.00    -0.289 NA
HETATM   60  H59 UNL     1      -9.046   4.483  12.906  1.00  0.00     0.125 HD
HETATM   61  H60 UNL     1      -8.785   3.453  14.132  1.00  0.00     0.125 HD
ENDBRANCH  56  59
ENDBRANCH  51  52
ENDBRANCH  50  51
ENDBRANCH  45  50
ENDBRANCH  41  45
ENDBRANCH  40  41
ENDBRANCH   6  38
TORSDOF 13
ENDMDL
MODEL 6
REMARK minimizedAffinity -10.1808748
REMARK CNNscore 0.212479144
REMARK CNNaffinity 7.50362778
REMARK  13 active torsions:
REMARK  status: ('A' for Active; 'I' for Inactive)
REMARK    1  A    between atoms: C5_6  and  C6_7 
REMARK    2  A    between atoms: C5_6  and  C31_35 
REMARK    3  A    between atoms: C23_24  and  O2_25 
REMARK    4  A    between atoms: C30_33  and  O4_34 
REMARK    5  A    between atoms: C32_37  and  C33_38 
REMARK    6  A    between atoms: C33_38  and  O6_40 
REMARK    7  A    between atoms: C33_38  and  C35_41 
REMARK    8  A    between atoms: C35_41  and  C37_43 
REMARK    9  A    between atoms: C35_41  and  C38_45 
REMARK   10  A    between atoms: C37_43  and  O7_44 
REMARK   11  A    between atoms: C38_45  and  C39_46 
REMARK   12  A    between atoms: C39_46  and  C40_47 
REMARK   13  A    between atoms: C43_51  and  N2_52 
ROOT
HETATM    1  C1  UNL     1      -1.417  14.494  14.046  1.00  0.00     0.010 C 
HETATM    2  C2  UNL     1      -1.788  13.176  14.721  1.00  0.00    -0.014 C 
HETATM    3  C3  UNL     1      -1.792  13.325  16.234  1.00  0.00     0.030 C 
HETATM    4  C4  UNL     1      -2.054  11.999  16.930  1.00  0.00     0.169 C 
HETATM    5  O1  UNL     1      -2.085  10.880  16.056  1.00  0.00    -0.377 OA
HETATM    6  C5  UNL     1      -0.996  10.737  15.107  1.00  0.00     0.094 C 
HETATM    7  C45 UNL     1      -0.823  12.055  14.306  1.00  0.00     0.045 C 
ENDROOT
BRANCH   6   8
HETATM    8  C6  UNL     1      -1.495   9.531  14.229  1.00  0.00     0.035 C 
HETATM    9  C7  UNL     1      -0.416   8.386  14.034  1.00  0.00     0.016 C 
HETATM   10  C8  UNL     1      -1.217   7.080  13.947  1.00  0.00     0.026 C 
HETATM   11  C9  UNL     1      -0.754   5.956  13.029  1.00  0.00     0.013 C 
HETATM   12  C30 UNL     1      -2.596   7.567  13.526  1.00  0.00     0.094 C 
HETATM   13  C10 UNL     1      -1.792   4.801  13.058  1.00  0.00     0.043 C 
HETATM   14  C11 UNL     1      -3.241   5.228  13.225  1.00  0.00    -0.006 C 
HETATM   15  C12 UNL     1      -3.609   6.499  13.475  1.00  0.00    -0.030 C 
HETATM   16  C26 UNL     1      -4.312   4.215  12.951  1.00  0.00     0.161 C 
HETATM   17  C13 UNL     1      -5.032   6.956  13.448  1.00  0.00     0.032 C 
HETATM   18  C14 UNL     1      -5.362   8.461  13.777  1.00  0.00    -0.004 C 
HETATM   19  C20 UNL     1      -5.964   5.878  14.076  1.00  0.00    -0.014 C 
HETATM   20  C15 UNL     1      -6.490   8.694  14.811  1.00  0.00     0.014 C 
HETATM   21  C27 UNL     1      -4.154   9.445  13.982  1.00  0.00     0.018 C 
HETATM   22  C16 UNL     1      -7.587   7.596  14.905  1.00  0.00     0.013 C 
HETATM   23  C17 UNL     1      -7.528   7.049  16.301  1.00  0.00    -0.026 C 
HETATM   24  C25 UNL     1      -7.382   6.476  13.867  1.00  0.00     0.006 C 
HETATM   25  C18 UNL     1      -6.603   6.137  16.617  1.00  0.00    -0.029 C 
HETATM   26  C19 UNL     1      -5.667   5.559  15.598  1.00  0.00     0.038 C 
HETATM   27  C24 UNL     1      -8.431   5.365  13.817  1.00  0.00     0.037 C 
HETATM   28  C23 UNL     1      -8.188   4.454  12.595  1.00  0.00     0.119 C 
HETATM   29  C22 UNL     1      -6.723   4.415  12.115  1.00  0.00     0.045 C 
HETATM   30  C21 UNL     1      -5.771   4.525  13.312  1.00  0.00     0.072 C 
HETATM   31  C28 UNL     1      -2.856   8.763  14.472  1.00  0.00    -0.002 C 
HETATM   32  C29 UNL     1      -3.060   8.388  15.953  1.00  0.00     0.019 C 
HETATM   33  O3  UNL     1      -4.004   3.133  12.450  1.00  0.00    -0.292 OA
BRANCH  28  34
HETATM   34  O2  UNL     1      -8.611   3.139  12.952  1.00  0.00    -0.396 OA
HETATM   35  H30 UNL     1      -8.539   2.578  12.159  1.00  0.00     0.210 HD
ENDBRANCH  28  34
BRANCH  12  36
HETATM   36  O4  UNL     1      -2.587   8.032  12.158  1.00  0.00    -0.384 OA
HETATM   37  H39 UNL     1      -1.685   8.259  11.889  1.00  0.00     0.211 HD
ENDBRANCH  12  36
ENDBRANCH   6   8
BRANCH   6  38
HETATM   38  C31 UNL     1       0.232  10.279  15.886  1.00  0.00     0.189 A 
HETATM   39  O5  UNL     1       1.421  10.036  15.131  1.00  0.00    -0.369 OA
HETATM   40  C32 UNL     1       1.498  11.110  16.087  1.00  0.00     0.189 A 
BRANCH  40  41
HETATM   41  C33 UNL     1       2.407  10.874  17.300  1.00  0.00     0.092 C 
HETATM   42  C34 UNL     1       3.889  11.052  16.899  1.00  0.00     0.049 C 
BRANCH  41  43
HETATM   43  O6  UNL     1       2.303   9.489  17.688  1.00  0.00    -0.387 OA
HETATM   44  H45 UNL     1       1.422   9.160  17.433  1.00  0.00     0.210 HD
ENDBRANCH  41  43
BRANCH  41  45
HETATM   45  C35 UNL     1       2.024  11.761  18.585  1.00  0.00     0.011 C 
HETATM   46  C36 UNL     1       0.992  10.983  19.447  1.00  0.00     0.020 C 
BRANCH  45  47
HETATM   47  C37 UNL     1       1.296  13.072  18.157  1.00  0.00     0.176 C 
BRANCH  47  48
HETATM   48  O7  UNL     1       0.483  13.594  19.194  1.00  0.00    -0.400 OA
HETATM   49  H51 UNL     1       0.065  14.406  18.853  1.00  0.00     0.209 HD
ENDBRANCH  47  48
ENDBRANCH  45  47
BRANCH  45  50
HETATM   50  C38 UNL     1       3.304  12.065  19.438  1.00  0.00     0.019 C 
BRANCH  50  51
HETATM   51  C39 UNL     1       4.008  10.884  20.140  1.00  0.00     0.039 C 
BRANCH  51  52
HETATM   52  C40 UNL     1       3.554  10.593  21.551  1.00  0.00    -0.054 A 
HETATM   53  C41 UNL     1       3.609  11.584  22.538  1.00  0.00     0.024 A 
HETATM   54  C42 UNL     1       3.200  11.285  23.831  1.00  0.00     0.090 A 
HETATM   55  N1  UNL     1       2.773  10.049  24.122  1.00  0.00    -0.357 N 
HETATM   56  C43 UNL     1       2.716   9.065  23.221  1.00  0.00     0.077 A 
HETATM   57  H58 UNL     1       2.474   9.809  25.065  1.00  0.00     0.166 HD
HETATM   58  C44 UNL     1       3.113   9.313  21.913  1.00  0.00     0.049 A 
BRANCH  56  59
HETATM   59  N2  UNL     1       2.287   7.825  23.674  1.00  0.00    -0.289 NA
HETATM   60  H59 UNL     1       3.029   7.125  23.565  1.00  0.00     0.125 HD
HETATM   61  H60 UNL     1       1.514   7.472  23.102  1.00  0.00     0.125 HD
ENDBRANCH  56  59
ENDBRANCH  51  52
ENDBRANCH  50  51
ENDBRANCH  45  50
ENDBRANCH  41  45
ENDBRANCH  40  41
ENDBRANCH   6  38
TORSDOF 13
ENDMDL
MODEL 7
REMARK minimizedAffinity -8.78666306
REMARK CNNscore 0.198807061
REMARK CNNaffinity 7.36469269
REMARK  13 active torsions:
REMARK  status: ('A' for Active; 'I' for Inactive)
REMARK    1  A    between atoms: C5_6  and  C6_7 
REMARK    2  A    between atoms: C5_6  and  C31_35 
REMARK    3  A    between atoms: C23_24  and  O2_25 
REMARK    4  A    between atoms: C30_33  and  O4_34 
REMARK    5  A    between atoms: C32_37  and  C33_38 
REMARK    6  A    between atoms: C33_38  and  O6_40 
REMARK    7  A    between atoms: C33_38  and  C35_41 
REMARK    8  A    between atoms: C35_41  and  C37_43 
REMARK    9  A    between atoms: C35_41  and  C38_45 
REMARK   10  A    between atoms: C37_43  and  O7_44 
REMARK   11  A    between atoms: C38_45  and  C39_46 
REMARK   12  A    between atoms: C39_46  and  C40_47 
REMARK   13  A    between atoms: C43_51  and  N2_52 
ROOT
HETATM    1  C1  UNL     1      -3.692  12.081  18.746  1.00  0.00     0.010 C 
HETATM    2  C2  UNL     1      -2.595  11.220  18.123  1.00  0.00    -0.014 C 
HETATM    3  C3  UNL     1      -1.244  11.529  18.747  1.00  0.00     0.030 C 
HETATM    4  C4  UNL     1      -0.121  10.761  18.068  1.00  0.00     0.169 C 
HETATM    5  O1  UNL     1      -0.525  10.045  16.911  1.00  0.00    -0.377 OA
HETATM    6  C5  UNL     1      -1.311  10.755  15.919  1.00  0.00     0.094 C 
HETATM    7  C45 UNL     1      -2.532  11.426  16.602  1.00  0.00     0.045 C 
ENDROOT
BRANCH   6   8
HETATM    8  C6  UNL     1      -1.705   9.595  14.934  1.00  0.00     0.035 C 
HETATM    9  C7  UNL     1      -0.593   8.476  14.778  1.00  0.00     0.016 C 
HETATM   10  C8  UNL     1      -1.359   7.167  14.544  1.00  0.00     0.026 C 
HETATM   11  C9  UNL     1      -0.793   6.102  13.613  1.00  0.00     0.013 C 
HETATM   12  C30 UNL     1      -2.701   7.661  14.023  1.00  0.00     0.094 C 
HETATM   13  C10 UNL     1      -1.809   4.935  13.482  1.00  0.00     0.043 C 
HETATM   14  C11 UNL     1      -3.274   5.334  13.535  1.00  0.00    -0.006 C 
HETATM   15  C12 UNL     1      -3.687   6.585  13.819  1.00  0.00    -0.030 C 
HETATM   16  C26 UNL     1      -4.297   4.326  13.106  1.00  0.00     0.161 C 
HETATM   17  C13 UNL     1      -5.108   7.024  13.684  1.00  0.00     0.032 C 
HETATM   18  C14 UNL     1      -5.494   8.504  14.063  1.00  0.00    -0.004 C 
HETATM   19  C20 UNL     1      -6.076   5.902  14.162  1.00  0.00    -0.014 C 
HETATM   20  C15 UNL     1      -6.717   8.665  14.998  1.00  0.00     0.014 C 
HETATM   21  C27 UNL     1      -4.327   9.490  14.433  1.00  0.00     0.018 C 
HETATM   22  C16 UNL     1      -7.798   7.550  14.928  1.00  0.00     0.013 C 
HETATM   23  C17 UNL     1      -7.860   6.927  16.291  1.00  0.00    -0.026 C 
HETATM   24  C25 UNL     1      -7.478   6.494  13.854  1.00  0.00     0.006 C 
HETATM   25  C18 UNL     1      -6.953   6.009  16.642  1.00  0.00    -0.029 C 
HETATM   26  C19 UNL     1      -5.916   5.501  15.684  1.00  0.00     0.038 C 
HETATM   27  C24 UNL     1      -8.499   5.374  13.645  1.00  0.00     0.037 C 
HETATM   28  C23 UNL     1      -8.128   4.537  12.403  1.00  0.00     0.119 C 
HETATM   29  C22 UNL     1      -6.624   4.542  12.061  1.00  0.00     0.045 C 
HETATM   30  C21 UNL     1      -5.790   4.597  13.346  1.00  0.00     0.072 C 
HETATM   31  C28 UNL     1      -3.069   8.797  15.005  1.00  0.00    -0.002 C 
HETATM   32  C29 UNL     1      -3.403   8.337  16.438  1.00  0.00     0.019 C 
HETATM   33  O3  UNL     1      -3.926   3.277  12.578  1.00  0.00    -0.292 OA
BRANCH  28  34
HETATM   34  O2  UNL     1      -8.559   3.198  12.645  1.00  0.00    -0.396 OA
HETATM   35  H30 UNL     1      -8.404   2.684  11.833  1.00  0.00     0.210 HD
ENDBRANCH  28  34
BRANCH  12  36
HETATM   36  O4  UNL     1      -2.574   8.201  12.690  1.00  0.00    -0.384 OA
HETATM   37  H39 UNL     1      -1.655   8.454  12.519  1.00  0.00     0.211 HD
ENDBRANCH  12  36
ENDBRANCH   6   8
BRANCH   6  38
HETATM   38  C31 UNL     1      -0.370  11.703  15.183  1.00  0.00     0.189 A 
HETATM   39  O5  UNL     1      -0.948  12.523  14.165  1.00  0.00    -0.369 OA
HETATM   40  C32 UNL     1      -0.401  13.226  15.297  1.00  0.00     0.189 A 
BRANCH  40  41
HETATM   41  C33 UNL     1       0.861  14.058  15.034  1.00  0.00     0.092 C 
HETATM   42  C34 UNL     1       1.931  13.194  14.329  1.00  0.00     0.049 C 
BRANCH  41  43
HETATM   43  O6  UNL     1       1.455  14.401  16.302  1.00  0.00    -0.387 OA
HETATM   44  H45 UNL     1       0.751  14.441  16.975  1.00  0.00     0.210 HD
ENDBRANCH  41  43
BRANCH  41  45
HETATM   45  C35 UNL     1       0.586  15.431  14.246  1.00  0.00     0.011 C 
HETATM   46  C36 UNL     1       1.908  15.908  13.584  1.00  0.00     0.020 C 
BRANCH  45  47
HETATM   47  C37 UNL     1       0.188  16.568  15.236  1.00  0.00     0.176 C 
BRANCH  47  48
HETATM   48  O7  UNL     1       1.285  17.408  15.552  1.00  0.00    -0.400 OA
HETATM   49  H51 UNL     1       0.960  18.089  16.170  1.00  0.00     0.209 HD
ENDBRANCH  47  48
ENDBRANCH  45  47
BRANCH  45  50
HETATM   50  C38 UNL     1      -0.509  15.217  13.144  1.00  0.00     0.019 C 
BRANCH  50  51
HETATM   51  C39 UNL     1      -1.643  16.259  13.033  1.00  0.00     0.039 C 
BRANCH  51  52
HETATM   52  C40 UNL     1      -1.539  17.225  11.875  1.00  0.00    -0.054 A 
HETATM   53  C41 UNL     1      -0.455  17.166  10.992  1.00  0.00     0.024 A 
HETATM   54  C42 UNL     1      -0.376  18.075   9.945  1.00  0.00     0.090 A 
HETATM   55  N1  UNL     1      -1.328  19.006   9.803  1.00  0.00    -0.357 N 
HETATM   56  C43 UNL     1      -2.373  19.114  10.627  1.00  0.00     0.077 A 
HETATM   57  H58 UNL     1      -1.285  19.685   9.046  1.00  0.00     0.166 HD
HETATM   58  C44 UNL     1      -2.499  18.228  11.691  1.00  0.00     0.049 A 
BRANCH  56  59
HETATM   59  N2  UNL     1      -3.262  20.151  10.380  1.00  0.00    -0.289 NA
HETATM   60  H59 UNL     1      -3.283  20.804  11.170  1.00  0.00     0.125 HD
HETATM   61  H60 UNL     1      -4.223  19.802  10.308  1.00  0.00     0.125 HD
ENDBRANCH  56  59
ENDBRANCH  51  52
ENDBRANCH  50  51
ENDBRANCH  45  50
ENDBRANCH  41  45
ENDBRANCH  40  41
ENDBRANCH   6  38
TORSDOF 13
ENDMDL
MODEL 8
REMARK minimizedAffinity -9.32062817
REMARK CNNscore 0.190282166
REMARK CNNaffinity 7.29544258
REMARK  13 active torsions:
REMARK  status: ('A' for Active; 'I' for Inactive)
REMARK    1  A    between atoms: C5_6  and  C6_7 
REMARK    2  A    between atoms: C5_6  and  C31_35 
REMARK    3  A    between atoms: C23_24  and  O2_25 
REMARK    4  A    between atoms: C30_33  and  O4_34 
REMARK    5  A    between atoms: C32_37  and  C33_38 
REMARK    6  A    between atoms: C33_38  and  O6_40 
REMARK    7  A    between atoms: C33_38  and  C35_41 
REMARK    8  A    between atoms: C35_41  and  C37_43 
REMARK    9  A    between atoms: C35_41  and  C38_45 
REMARK   10  A    between atoms: C37_43  and  O7_44 
REMARK   11  A    between atoms: C38_45  and  C39_46 
REMARK   12  A    between atoms: C39_46  and  C40_47 
REMARK   13  A    between atoms: C43_51  and  N2_52 
ROOT
HETATM    1  C1  UNL     1       0.057   8.459   9.685  1.00  0.00     0.010 C 
HETATM    2  C2  UNL     1       0.312   8.561  11.187  1.00  0.00    -0.014 C 
HETATM    3  C3  UNL     1       1.002   7.310  11.706  1.00  0.00     0.030 C 
HETATM    4  C4  UNL     1       1.169   7.345  13.217  1.00  0.00     0.169 C 
HETATM    5  O1  UNL     1       0.522   8.440  13.847  1.00  0.00    -0.377 OA
HETATM    6  C5  UNL     1      -0.861   8.698  13.495  1.00  0.00     0.094 C 
HETATM    7  C45 UNL     1      -0.999   8.795  11.952  1.00  0.00     0.045 C 
ENDROOT
BRANCH   6   8
HETATM    8  C6  UNL     1      -1.129  10.060  14.234  1.00  0.00     0.035 C 
HETATM    9  C7  UNL     1      -2.665  10.372  14.474  1.00  0.00     0.016 C 
HETATM   10  C8  UNL     1      -2.724  11.149  15.796  1.00  0.00     0.026 C 
HETATM   11  C9  UNL     1      -3.748  12.260  15.988  1.00  0.00     0.013 C 
HETATM   12  C30 UNL     1      -1.313  11.709  15.910  1.00  0.00     0.094 C 
HETATM   13  C10 UNL     1      -3.523  12.940  17.366  1.00  0.00     0.043 C 
HETATM   14  C11 UNL     1      -2.077  13.019  17.829  1.00  0.00    -0.006 C 
HETATM   15  C12 UNL     1      -1.062  12.422  17.175  1.00  0.00    -0.030 C 
HETATM   16  C26 UNL     1      -1.752  13.925  18.978  1.00  0.00     0.161 C 
HETATM   17  C13 UNL     1       0.374  12.655  17.515  1.00  0.00     0.032 C 
HETATM   18  C14 UNL     1       1.489  11.890  16.705  1.00  0.00    -0.004 C 
HETATM   19  C20 UNL     1       0.564  12.745  19.058  1.00  0.00    -0.014 C 
HETATM   20  C15 UNL     1       2.575  11.184  17.552  1.00  0.00     0.014 C 
HETATM   21  C27 UNL     1       1.032  11.021  15.478  1.00  0.00     0.018 C 
HETATM   22  C16 UNL     1       2.881  11.801  18.946  1.00  0.00     0.013 C 
HETATM   23  C17 UNL     1       2.554  10.748  19.962  1.00  0.00    -0.026 C 
HETATM   24  C25 UNL     1       2.072  13.086  19.206  1.00  0.00     0.006 C 
HETATM   25  C18 UNL     1       1.284  10.559  20.337  1.00  0.00    -0.029 C 
HETATM   26  C19 UNL     1       0.167  11.432  19.846  1.00  0.00     0.038 C 
HETATM   27  C24 UNL     1       2.329  13.823  20.521  1.00  0.00     0.037 C 
HETATM   28  C23 UNL     1       1.601  15.184  20.522  1.00  0.00     0.119 C 
HETATM   29  C22 UNL     1       0.352  15.235  19.620  1.00  0.00     0.045 C 
HETATM   30  C21 UNL     1      -0.359  13.877  19.622  1.00  0.00     0.072 C 
HETATM   31  C28 UNL     1      -0.417  10.493  15.580  1.00  0.00    -0.002 C 
HETATM   32  C29 UNL     1      -0.430   9.370  16.635  1.00  0.00     0.019 C 
HETATM   33  O3  UNL     1      -2.616  14.690  19.406  1.00  0.00    -0.292 OA
BRANCH  28  34
HETATM   34  O2  UNL     1       1.231  15.469  21.870  1.00  0.00    -0.396 OA
HETATM   35  H30 UNL     1       0.846  16.364  21.890  1.00  0.00     0.210 HD
ENDBRANCH  28  34
BRANCH  12  36
HETATM   36  O4  UNL     1      -1.087  12.751  14.935  1.00  0.00    -0.384 OA
HETATM   37  H39 UNL     1      -1.716  12.665  14.204  1.00  0.00     0.211 HD
ENDBRANCH  12  36
ENDBRANCH   6   8
BRANCH   6  38
HETATM   38  C31 UNL     1      -1.712   7.623  14.162  1.00  0.00     0.189 A 
HETATM   39  O5  UNL     1      -2.046   7.824  15.537  1.00  0.00    -0.369 OA
HETATM   40  C32 UNL     1      -3.157   7.813  14.622  1.00  0.00     0.189 A 
BRANCH  40  41
HETATM   41  C33 UNL     1      -4.110   6.616  14.727  1.00  0.00     0.092 C 
HETATM   42  C34 UNL     1      -3.737   5.743  15.947  1.00  0.00     0.049 C 
BRANCH  41  43
HETATM   43  O6  UNL     1      -3.892   5.756  13.589  1.00  0.00    -0.387 OA
HETATM   44  H45 UNL     1      -3.573   6.299  12.846  1.00  0.00     0.210 HD
ENDBRANCH  41  43
BRANCH  41  45
HETATM   45  C35 UNL     1      -5.666   7.018  14.732  1.00  0.00     0.011 C 
HETATM   46  C36 UNL     1      -5.798   8.522  15.100  1.00  0.00     0.020 C 
BRANCH  45  47
HETATM   47  C37 UNL     1      -6.433   6.251  15.851  1.00  0.00     0.176 C 
BRANCH  47  48
HETATM   48  O7  UNL     1      -6.845   7.111  16.901  1.00  0.00    -0.400 OA
HETATM   49  H51 UNL     1      -7.314   6.563  17.557  1.00  0.00     0.209 HD
ENDBRANCH  47  48
ENDBRANCH  45  47
BRANCH  45  50
HETATM   50  C38 UNL     1      -6.299   6.762  13.320  1.00  0.00     0.019 C 
BRANCH  50  51
HETATM   51  C39 UNL     1      -7.387   5.674  13.197  1.00  0.00     0.039 C 
BRANCH  51  52
HETATM   52  C40 UNL     1      -6.934   4.354  12.617  1.00  0.00    -0.054 A 
HETATM   53  C41 UNL     1      -5.942   4.310  11.631  1.00  0.00     0.024 A 
HETATM   54  C42 UNL     1      -5.555   3.085  11.104  1.00  0.00     0.090 A 
HETATM   55  N1  UNL     1      -6.146   1.962  11.534  1.00  0.00    -0.357 N 
HETATM   56  C43 UNL     1      -7.108   1.951  12.461  1.00  0.00     0.077 A 
HETATM   57  H58 UNL     1      -5.881   1.055  11.156  1.00  0.00     0.166 HD
HETATM   58  C44 UNL     1      -7.530   3.152  13.020  1.00  0.00     0.049 A 
BRANCH  56  59
HETATM   59  N2  UNL     1      -7.655   0.717  12.782  1.00  0.00    -0.289 NA
HETATM   60  H59 UNL     1      -8.654   0.694  12.549  1.00  0.00     0.125 HD
HETATM   61  H60 UNL     1      -7.622   0.553  13.793  1.00  0.00     0.125 HD
ENDBRANCH  56  59
ENDBRANCH  51  52
ENDBRANCH  50  51
ENDBRANCH  45  50
ENDBRANCH  41  45
ENDBRANCH  40  41
ENDBRANCH   6  38
TORSDOF 13
ENDMDL
MODEL 9
REMARK minimizedAffinity -10.7196474
REMARK CNNscore 0.17751427
REMARK CNNaffinity 7.16842031
REMARK  13 active torsions:
REMARK  status: ('A' for Active; 'I' for Inactive)
REMARK    1  A    between atoms: C5_6  and  C6_7 
REMARK    2  A    between atoms: C5_6  and  C31_35 
REMARK    3  A    between atoms: C23_24  and  O2_25 
REMARK    4  A    between atoms: C30_33  and  O4_34 
REMARK    5  A    between atoms: C32_37  and  C33_38 
REMARK    6  A    between atoms: C33_38  and  O6_40 
REMARK    7  A    between atoms: C33_38  and  C35_41 
REMARK    8  A    between atoms: C35_41  and  C37_43 
REMARK    9  A    between atoms: C35_41  and  C38_45 
REMARK   10  A    between atoms: C37_43  and  O7_44 
REMARK   11  A    between atoms: C38_45  and  C39_46 
REMARK   12  A    between atoms: C39_46  and  C40_47 
REMARK   13  A    between atoms: C43_51  and  N2_52 
ROOT
HETATM    1  C1  UNL     1       1.746   7.693   7.242  1.00  0.00     0.010 C 
HETATM    2  C2  UNL     1       2.348   7.366   8.607  1.00  0.00    -0.014 C 
HETATM    3  C3  UNL     1       2.701   5.891   8.704  1.00  0.00     0.030 C 
HETATM    4  C4  UNL     1       3.201   5.522  10.091  1.00  0.00     0.169 C 
HETATM    5  O1  UNL     1       3.093   6.568  11.045  1.00  0.00    -0.377 OA
HETATM    6  C5  UNL     1       1.822   7.260  11.144  1.00  0.00     0.094 C 
HETATM    7  C45 UNL     1       1.383   7.752   9.739  1.00  0.00     0.045 C 
ENDROOT
BRANCH   6   8
HETATM    8  C6  UNL     1       2.172   8.429  12.135  1.00  0.00     0.035 C 
HETATM    9  C7  UNL     1       1.214   8.514  13.396  1.00  0.00     0.016 C 
HETATM   10  C8  UNL     1       2.092   9.033  14.543  1.00  0.00     0.026 C 
HETATM   11  C9  UNL     1       1.507   9.966  15.595  1.00  0.00     0.013 C 
HETATM   12  C30 UNL     1       3.227   9.724  13.801  1.00  0.00     0.094 C 
HETATM   13  C10 UNL     1       2.628  10.413  16.572  1.00  0.00     0.043 C 
HETATM   14  C11 UNL     1       4.007  10.577  15.956  1.00  0.00    -0.006 C 
HETATM   15  C12 UNL     1       4.292  10.226  14.687  1.00  0.00    -0.030 C 
HETATM   16  C26 UNL     1       5.056  11.297  16.750  1.00  0.00     0.161 C 
HETATM   17  C13 UNL     1       5.587  10.560  14.020  1.00  0.00     0.032 C 
HETATM   18  C14 UNL     1       5.833  10.085  12.538  1.00  0.00    -0.004 C 
HETATM   19  C20 UNL     1       6.772  10.398  15.016  1.00  0.00    -0.014 C 
HETATM   20  C15 UNL     1       7.180   9.371  12.273  1.00  0.00     0.014 C 
HETATM   21  C27 UNL     1       4.637   9.399  11.784  1.00  0.00     0.018 C 
HETATM   22  C16 UNL     1       8.369   9.764  13.194  1.00  0.00     0.013 C 
HETATM   23  C17 UNL     1       8.779   8.517  13.920  1.00  0.00    -0.026 C 
HETATM   24  C25 UNL     1       7.995  10.880  14.187  1.00  0.00     0.006 C 
HETATM   25  C18 UNL     1       8.091   8.119  14.996  1.00  0.00    -0.029 C 
HETATM   26  C19 UNL     1       6.968   8.929  15.572  1.00  0.00     0.038 C 
HETATM   27  C24 UNL     1       9.098  11.398  15.110  1.00  0.00     0.037 C 
HETATM   28  C23 UNL     1       8.611  12.643  15.880  1.00  0.00     0.119 C 
HETATM   29  C22 UNL     1       7.084  12.708  16.079  1.00  0.00     0.045 C 
HETATM   30  C21 UNL     1       6.514  11.298  16.271  1.00  0.00     0.072 C 
HETATM   31  C28 UNL     1       3.620   8.697  12.713  1.00  0.00    -0.002 C 
HETATM   32  C29 UNL     1       4.285   7.411  13.242  1.00  0.00     0.019 C 
HETATM   33  O3  UNL     1       4.735  11.869  17.791  1.00  0.00    -0.292 OA
BRANCH  28  34
HETATM   34  O2  UNL     1       9.260  12.641  17.151  1.00  0.00    -0.396 OA
HETATM   35  H30 UNL     1       9.022  13.467  17.608  1.00  0.00     0.210 HD
ENDBRANCH  28  34
BRANCH  12  36
HETATM   36  O4  UNL     1       2.771  10.940  13.169  1.00  0.00    -0.384 OA
HETATM   37  H39 UNL     1       1.810  10.913  13.048  1.00  0.00     0.211 HD
ENDBRANCH  12  36
ENDBRANCH   6   8
BRANCH   6  38
HETATM   38  C31 UNL     1       0.844   6.323  11.844  1.00  0.00     0.189 A 
HETATM   39  O5  UNL     1      -0.547   6.546  11.605  1.00  0.00    -0.369 OA
HETATM   40  C32 UNL     1      -0.029   5.286  11.139  1.00  0.00     0.189 A 
BRANCH  40  41
HETATM   41  C33 UNL     1      -0.516   4.035  11.881  1.00  0.00     0.092 C 
HETATM   42  C34 UNL     1      -0.198   4.153  13.390  1.00  0.00     0.049 C 
BRANCH  41  43
HETATM   43  O6  UNL     1       0.264   2.906  11.437  1.00  0.00    -0.387 OA
HETATM   44  H45 UNL     1       0.562   3.074  10.525  1.00  0.00     0.210 HD
ENDBRANCH  41  43
BRANCH  41  45
HETATM   45  C35 UNL     1      -2.062   3.682  11.621  1.00  0.00     0.011 C 
HETATM   46  C36 UNL     1      -2.207   2.144  11.449  1.00  0.00     0.020 C 
BRANCH  45  47
HETATM   47  C37 UNL     1      -2.551   4.294  10.273  1.00  0.00     0.176 C 
BRANCH  47  48
HETATM   48  O7  UNL     1      -3.452   3.435   9.594  1.00  0.00    -0.400 OA
HETATM   49  H51 UNL     1      -3.712   3.884   8.768  1.00  0.00     0.209 HD
ENDBRANCH  47  48
ENDBRANCH  45  47
BRANCH  45  50
HETATM   50  C38 UNL     1      -2.941   4.164  12.826  1.00  0.00     0.019 C 
BRANCH  50  51
HETATM   51  C39 UNL     1      -4.124   5.110  12.530  1.00  0.00     0.039 C 
BRANCH  51  52
HETATM   52  C40 UNL     1      -5.470   4.665  13.054  1.00  0.00    -0.054 A 
HETATM   53  C41 UNL     1      -6.092   5.354  14.101  1.00  0.00     0.024 A 
HETATM   54  C42 UNL     1      -7.322   4.915  14.573  1.00  0.00     0.090 A 
HETATM   55  N1  UNL     1      -7.890   3.829  14.032  1.00  0.00    -0.357 N 
HETATM   56  C43 UNL     1      -7.331   3.128  13.042  1.00  0.00     0.077 A 
HETATM   57  H58 UNL     1      -8.789   3.488  14.368  1.00  0.00     0.166 HD
HETATM   58  C44 UNL     1      -6.101   3.527  12.534  1.00  0.00     0.049 A 
BRANCH  56  59
HETATM   59  N2  UNL     1      -8.017   2.004  12.605  1.00  0.00    -0.289 NA
HETATM   60  H59 UNL     1      -7.462   1.157  12.767  1.00  0.00     0.125 HD
HETATM   61  H60 UNL     1      -8.157   2.030  11.591  1.00  0.00     0.125 HD
ENDBRANCH  56  59
ENDBRANCH  51  52
ENDBRANCH  50  51
ENDBRANCH  45  50
ENDBRANCH  41  45
ENDBRANCH  40  41
ENDBRANCH   6  38
TORSDOF 13
ENDMDL
