MODEL 1
REMARK minimizedAffinity -8.86797237
REMARK CNNscore 0.854721129
REMARK CNNaffinity 7.87973547
REMARK  13 active torsions:
REMARK  status: ('A' for Active; 'I' for Inactive)
REMARK    1  A    between atoms: O1_2  and  C2_3 
REMARK    2  A    between atoms: C2_3  and  C3_4 
REMARK    3  A    between atoms: C3_4  and  C4_5 
REMARK    4  A    between atoms: C4_5  and  N1_6 
REMARK    5  A    between atoms: N1_6  and  C5_7 
REMARK    6  A    between atoms: C5_7  and  C6_8 
REMARK    7  A    between atoms: C10_12  and  O2_13 
REMARK    8  A    between atoms: C23_28  and  O5_29 
REMARK    9  A    between atoms: C27_33  and  C28_34 
REMARK   10  A    between atoms: C28_34  and  C30_36 
REMARK   11  A    between atoms: C38_44  and  O6_45 
REMARK   12  A    between atoms: C41_48  and  C42_49 
REMARK   13  A    between atoms: C43_51  and  O8_52 
ROOT
HETATM    1  C6  UNL     1       5.146  55.930  -6.617  1.00  0.00    -0.016 C 
HETATM    2  C7  UNL     1       4.852  55.731  -7.929  1.00  0.00    -0.013 C 
HETATM    3  C8  UNL     1       3.512  56.090  -8.536  1.00  0.00     0.021 C 
HETATM    4  C9  UNL     1       2.918  55.103  -9.538  1.00  0.00     0.051 C 
HETATM    5  C10 UNL     1       2.210  54.020  -8.704  1.00  0.00     0.098 C 
HETATM    6  C11 UNL     1       1.881  54.706  -7.308  1.00  0.00     0.002 C 
HETATM    7  C12 UNL     1       2.557  53.910  -6.142  1.00  0.00     0.013 C 
HETATM    8  C13 UNL     1       2.529  54.562  -4.766  1.00  0.00     0.004 C 
HETATM    9  C14 UNL     1       3.728  55.473  -4.492  1.00  0.00     0.048 C 
HETATM   10  C15 UNL     1       4.114  56.460  -5.619  1.00  0.00     0.120 C 
HETATM   11  O3  UNL     1       4.609  57.646  -4.976  1.00  0.00    -0.297 OA
HETATM   12  C16 UNL     1       3.652  58.614  -5.029  1.00  0.00     0.284 C 
HETATM   13  O4  UNL     1       3.686  59.683  -4.448  1.00  0.00    -0.260 OA
HETATM   14  C17 UNL     1       2.592  58.195  -5.946  1.00  0.00     0.089 C 
HETATM   15  C18 UNL     1       2.907  56.961  -6.328  1.00  0.00    -0.029 C 
HETATM   16  C19 UNL     1       2.391  56.187  -7.493  1.00  0.00     0.037 C 
HETATM   17  C20 UNL     1       0.356  54.744  -7.035  1.00  0.00     0.014 C 
HETATM   18  C21 UNL     1      -0.501  55.097  -8.249  1.00  0.00     0.010 C 
HETATM   19  C22 UNL     1      -0.293  54.180  -9.477  1.00  0.00     0.041 C 
HETATM   20  C23 UNL     1       0.983  53.327  -9.401  1.00  0.00     0.095 C 
HETATM   21  C24 UNL     1       1.308  52.916 -10.835  1.00  0.00     0.049 C 
HETATM   22  C25 UNL     1       0.177  52.184 -11.598  1.00  0.00     0.025 C 
HETATM   23  C26 UNL     1       0.230  52.626 -13.084  1.00  0.00     0.012 C 
HETATM   24  C27 UNL     1      -0.369  51.654 -14.141  1.00  0.00    -0.010 C 
HETATM   25  C35 UNL     1      -1.067  50.414 -13.550  1.00  0.00     0.005 C 
HETATM   26  C36 UNL     1      -2.360  50.721 -12.793  1.00  0.00     0.010 C 
HETATM   27  C37 UNL     1      -2.384  52.043 -12.001  1.00  0.00     0.050 C 
HETATM   28  C38 UNL     1      -3.816  52.304 -11.495  1.00  0.00     0.125 C 
HETATM   29  C39 UNL     1      -3.957  53.683 -10.855  1.00  0.00     0.033 C 
HETATM   30  C40 UNL     1      -2.626  54.312 -10.432  1.00  0.00     0.023 C 
HETATM   31  C41 UNL     1      -1.565  53.327  -9.867  1.00  0.00     0.051 C 
HETATM   32  C43 UNL     1      -1.255  52.169 -10.915  1.00  0.00     0.082 C 
ENDROOT
BRANCH   1  33
HETATM   33  C5  UNL     1       6.543  55.685  -6.100  1.00  0.00     0.306 C 
BRANCH  33  34
HETATM   34  N1  UNL     1       7.166  56.958  -5.774  1.00  0.00     0.087 N 
HETATM   35  H10 UNL     1       6.458  57.626  -5.462  1.00  0.00     0.316 HD
BRANCH  34  36
HETATM   36  C4  UNL     1       8.205  56.832  -4.759  1.00  0.00     0.272 C 
BRANCH  36  37
HETATM   37  C3  UNL     1       9.577  56.492  -5.359  1.00  0.00     0.056 C 
BRANCH  37  38
HETATM   38  C2  UNL     1      10.712  57.388  -4.872  1.00  0.00     0.168 C 
BRANCH  38  39
HETATM   39  O1  UNL     1      11.909  56.616  -4.792  1.00  0.00    -0.396 OA
HETATM   40  C1  UNL     1      11.650  55.267  -4.436  1.00  0.00     0.201 C 
ENDBRANCH  38  39
ENDBRANCH  37  38
ENDBRANCH  36  37
ENDBRANCH  34  36
ENDBRANCH  33  34
ENDBRANCH   1  33
BRANCH   5  41
HETATM   41  O2  UNL     1       3.151  52.936  -8.497  1.00  0.00    -0.386 OA
HETATM   42  H17 UNL     1       3.745  52.869  -9.265  1.00  0.00     0.210 HD
ENDBRANCH   5  41
BRANCH  20  43
HETATM   43  O5  UNL     1       0.720  52.112  -8.673  1.00  0.00    -0.386 OA
HETATM   44  H31 UNL     1       1.585  51.869  -8.277  1.00  0.00     0.210 HD
ENDBRANCH  20  43
BRANCH  31  45
HETATM   45  C42 UNL     1      -2.131  52.708  -8.567  1.00  0.00     0.244 C 
HETATM   46  O7  UNL     1      -2.294  51.506  -8.364  1.00  0.00    -0.306 OA
ENDBRANCH  31  45
BRANCH  32  47
HETATM   47  O8  UNL     1      -1.239  50.926 -10.173  1.00  0.00    -0.388 OA
HETATM   48  H63 UNL     1      -0.476  50.956  -9.558  1.00  0.00     0.210 HD
ENDBRANCH  32  47
BRANCH  24  49
HETATM   49  C28 UNL     1       0.631  51.252 -15.285  1.00  0.00    -0.011 C 
HETATM   50  C29 UNL     1      -0.105  51.103 -16.626  1.00  0.00     0.011 C 
BRANCH  49  51
HETATM   51  C30 UNL     1       1.925  52.105 -15.360  1.00  0.00    -0.010 C 
HETATM   52  C31 UNL     1       3.183  51.380 -14.834  1.00  0.00     0.005 C 
HETATM   53  C32 UNL     1       4.360  51.899 -15.658  1.00  0.00     0.000 C 
HETATM   54  C33 UNL     1       3.805  53.023 -16.517  1.00  0.00     0.000 C 
HETATM   55  C34 UNL     1       2.354  52.621 -16.734  1.00  0.00     0.005 C 
ENDBRANCH  49  51
ENDBRANCH  24  49
BRANCH  28  56
HETATM   56  O6  UNL     1      -4.293  51.277 -10.638  1.00  0.00    -0.395 OA
HETATM   57  H57 UNL     1      -3.859  51.379  -9.764  1.00  0.00     0.210 HD
ENDBRANCH  28  56
TORSDOF 13
ENDMDL
MODEL 2
REMARK minimizedAffinity -8.4747448
REMARK CNNscore 0.788883626
REMARK CNNaffinity 7.86169434
REMARK  13 active torsions:
REMARK  status: ('A' for Active; 'I' for Inactive)
REMARK    1  A    between atoms: O1_2  and  C2_3 
REMARK    2  A    between atoms: C2_3  and  C3_4 
REMARK    3  A    between atoms: C3_4  and  C4_5 
REMARK    4  A    between atoms: C4_5  and  N1_6 
REMARK    5  A    between atoms: N1_6  and  C5_7 
REMARK    6  A    between atoms: C5_7  and  C6_8 
REMARK    7  A    between atoms: C10_12  and  O2_13 
REMARK    8  A    between atoms: C23_28  and  O5_29 
REMARK    9  A    between atoms: C27_33  and  C28_34 
REMARK   10  A    between atoms: C28_34  and  C30_36 
REMARK   11  A    between atoms: C38_44  and  O6_45 
REMARK   12  A    between atoms: C41_48  and  C42_49 
REMARK   13  A    between atoms: C43_51  and  O8_52 
ROOT
HETATM    1  C6  UNL     1       5.181  56.137  -6.755  1.00  0.00    -0.016 C 
HETATM    2  C7  UNL     1       4.862  55.915  -8.057  1.00  0.00    -0.013 C 
HETATM    3  C8  UNL     1       3.503  56.243  -8.639  1.00  0.00     0.021 C 
HETATM    4  C9  UNL     1       2.903  55.233  -9.613  1.00  0.00     0.051 C 
HETATM    5  C10 UNL     1       2.231  54.151  -8.749  1.00  0.00     0.098 C 
HETATM    6  C11 UNL     1       1.922  54.851  -7.356  1.00  0.00     0.002 C 
HETATM    7  C12 UNL     1       2.637  54.083  -6.194  1.00  0.00     0.013 C 
HETATM    8  C13 UNL     1       2.628  54.754  -4.827  1.00  0.00     0.004 C 
HETATM    9  C14 UNL     1       3.818  55.687  -4.592  1.00  0.00     0.048 C 
HETATM   10  C15 UNL     1       4.163  56.665  -5.741  1.00  0.00     0.120 C 
HETATM   11  O3  UNL     1       4.652  57.867  -5.126  1.00  0.00    -0.297 OA
HETATM   12  C16 UNL     1       3.679  58.819  -5.171  1.00  0.00     0.284 C 
HETATM   13  O4  UNL     1       3.708  59.896  -4.606  1.00  0.00    -0.260 OA
HETATM   14  C17 UNL     1       2.606  58.371  -6.058  1.00  0.00     0.089 C 
HETATM   15  C18 UNL     1       2.933  57.136  -6.430  1.00  0.00    -0.029 C 
HETATM   16  C19 UNL     1       2.403  56.337  -7.573  1.00  0.00     0.037 C 
HETATM   17  C20 UNL     1       0.403  54.868  -7.049  1.00  0.00     0.014 C 
HETATM   18  C21 UNL     1      -0.486  55.191  -8.248  1.00  0.00     0.010 C 
HETATM   19  C22 UNL     1      -0.290  54.259  -9.468  1.00  0.00     0.041 C 
HETATM   20  C23 UNL     1       1.000  53.429  -9.408  1.00  0.00     0.095 C 
HETATM   21  C24 UNL     1       1.300  53.002 -10.843  1.00  0.00     0.049 C 
HETATM   22  C25 UNL     1       0.165  52.241 -11.571  1.00  0.00     0.025 C 
HETATM   23  C26 UNL     1       0.178  52.663 -13.064  1.00  0.00     0.012 C 
HETATM   24  C27 UNL     1      -0.428  51.666 -14.093  1.00  0.00    -0.010 C 
HETATM   25  C35 UNL     1      -1.093  50.423 -13.470  1.00  0.00     0.005 C 
HETATM   26  C36 UNL     1      -2.373  50.720 -12.689  1.00  0.00     0.010 C 
HETATM   27  C37 UNL     1      -2.402  52.054 -11.915  1.00  0.00     0.050 C 
HETATM   28  C38 UNL     1      -3.826  52.299 -11.381  1.00  0.00     0.125 C 
HETATM   29  C39 UNL     1      -3.976  53.684 -10.757  1.00  0.00     0.033 C 
HETATM   30  C40 UNL     1      -2.646  54.341 -10.373  1.00  0.00     0.023 C 
HETATM   31  C41 UNL     1      -1.557  53.381  -9.817  1.00  0.00     0.051 C 
HETATM   32  C43 UNL     1      -1.251  52.213 -10.857  1.00  0.00     0.082 C 
ENDROOT
BRANCH   1  33
HETATM   33  C5  UNL     1       6.593  55.922  -6.266  1.00  0.00     0.306 C 
BRANCH  33  34
HETATM   34  N1  UNL     1       6.614  54.811  -5.328  1.00  0.00     0.087 N 
HETATM   35  H10 UNL     1       5.679  54.655  -4.947  1.00  0.00     0.316 HD
BRANCH  34  36
HETATM   36  C4  UNL     1       7.113  53.578  -5.927  1.00  0.00     0.272 C 
BRANCH  36  37
HETATM   37  C3  UNL     1       5.984  52.614  -6.317  1.00  0.00     0.056 C 
BRANCH  37  38
HETATM   38  C2  UNL     1       6.468  51.280  -6.877  1.00  0.00     0.168 C 
BRANCH  38  39
HETATM   39  O1  UNL     1       7.073  51.502  -8.150  1.00  0.00    -0.396 OA
HETATM   40  C1  UNL     1       7.703  50.333  -8.650  1.00  0.00     0.201 C 
ENDBRANCH  38  39
ENDBRANCH  37  38
ENDBRANCH  36  37
ENDBRANCH  34  36
ENDBRANCH  33  34
ENDBRANCH   1  33
BRANCH   5  41
HETATM   41  O2  UNL     1       3.194  53.085  -8.548  1.00  0.00    -0.386 OA
HETATM   42  H17 UNL     1       3.773  53.016  -9.328  1.00  0.00     0.210 HD
ENDBRANCH   5  41
BRANCH  20  43
HETATM   43  O5  UNL     1       0.773  52.219  -8.659  1.00  0.00    -0.386 OA
HETATM   44  H31 UNL     1       1.651  51.996  -8.278  1.00  0.00     0.210 HD
ENDBRANCH  20  43
BRANCH  31  45
HETATM   45  C42 UNL     1      -2.084  52.772  -8.497  1.00  0.00     0.244 C 
HETATM   46  O7  UNL     1      -1.601  51.798  -7.920  1.00  0.00    -0.306 OA
ENDBRANCH  31  45
BRANCH  32  47
HETATM   47  O8  UNL     1      -1.199  50.981 -10.098  1.00  0.00    -0.388 OA
HETATM   48  H63 UNL     1      -0.423  51.032  -9.500  1.00  0.00     0.210 HD
ENDBRANCH  32  47
BRANCH  24  49
HETATM   49  C28 UNL     1       0.554  51.264 -15.253  1.00  0.00    -0.011 C 
HETATM   50  C29 UNL     1      -0.202  51.132 -16.587  1.00  0.00     0.011 C 
BRANCH  49  51
HETATM   51  C30 UNL     1       1.854  52.105 -15.340  1.00  0.00    -0.010 C 
HETATM   52  C31 UNL     1       3.106  51.376 -14.804  1.00  0.00     0.005 C 
HETATM   53  C32 UNL     1       4.288  51.875 -15.635  1.00  0.00     0.000 C 
HETATM   54  C33 UNL     1       3.742  52.993 -16.507  1.00  0.00     0.000 C 
HETATM   55  C34 UNL     1       2.288  52.601 -16.720  1.00  0.00     0.005 C 
ENDBRANCH  49  51
ENDBRANCH  24  49
BRANCH  28  56
HETATM   56  O6  UNL     1      -4.267  51.277 -10.499  1.00  0.00    -0.395 OA
HETATM   57  H57 UNL     1      -3.816  51.398  -9.636  1.00  0.00     0.210 HD
ENDBRANCH  28  56
TORSDOF 13
ENDMDL
MODEL 3
REMARK minimizedAffinity -8.34592724
REMARK CNNscore 0.629276991
REMARK CNNaffinity 7.67736101
REMARK  13 active torsions:
REMARK  status: ('A' for Active; 'I' for Inactive)
REMARK    1  A    between atoms: O1_2  and  C2_3 
REMARK    2  A    between atoms: C2_3  and  C3_4 
REMARK    3  A    between atoms: C3_4  and  C4_5 
REMARK    4  A    between atoms: C4_5  and  N1_6 
REMARK    5  A    between atoms: N1_6  and  C5_7 
REMARK    6  A    between atoms: C5_7  and  C6_8 
REMARK    7  A    between atoms: C10_12  and  O2_13 
REMARK    8  A    between atoms: C23_28  and  O5_29 
REMARK    9  A    between atoms: C27_33  and  C28_34 
REMARK   10  A    between atoms: C28_34  and  C30_36 
REMARK   11  A    between atoms: C38_44  and  O6_45 
REMARK   12  A    between atoms: C41_48  and  C42_49 
REMARK   13  A    between atoms: C43_51  and  O8_52 
ROOT
HETATM    1  C6  UNL     1      -1.184  49.207 -19.215  1.00  0.00    -0.016 C 
HETATM    2  C7  UNL     1      -1.557  47.999 -19.713  1.00  0.00    -0.013 C 
HETATM    3  C8  UNL     1      -2.050  47.810 -21.132  1.00  0.00     0.021 C 
HETATM    4  C9  UNL     1      -3.231  46.866 -21.338  1.00  0.00     0.051 C 
HETATM    5  C10 UNL     1      -4.497  47.693 -21.048  1.00  0.00     0.098 C 
HETATM    6  C11 UNL     1      -4.077  49.208 -21.281  1.00  0.00     0.002 C 
HETATM    7  C12 UNL     1      -4.304  50.041 -19.974  1.00  0.00     0.013 C 
HETATM    8  C13 UNL     1      -3.740  51.455 -19.961  1.00  0.00     0.004 C 
HETATM    9  C14 UNL     1      -2.299  51.539 -19.452  1.00  0.00     0.048 C 
HETATM   10  C15 UNL     1      -1.306  50.499 -20.025  1.00  0.00     0.120 C 
HETATM   11  O3  UNL     1      -0.030  51.154 -20.112  1.00  0.00    -0.297 OA
HETATM   12  C16 UNL     1       0.216  51.482 -21.411  1.00  0.00     0.284 C 
HETATM   13  O4  UNL     1       1.130  52.179 -21.810  1.00  0.00    -0.260 OA
HETATM   14  C17 UNL     1      -0.764  50.818 -22.270  1.00  0.00     0.089 C 
HETATM   15  C18 UNL     1      -1.609  50.199 -21.449  1.00  0.00    -0.029 C 
HETATM   16  C19 UNL     1      -2.577  49.108 -21.759  1.00  0.00     0.037 C 
HETATM   17  C20 UNL     1      -4.908  49.864 -22.412  1.00  0.00     0.014 C 
HETATM   18  C21 UNL     1      -5.148  48.971 -23.627  1.00  0.00     0.010 C 
HETATM   19  C22 UNL     1      -5.822  47.615 -23.311  1.00  0.00     0.041 C 
HETATM   20  C23 UNL     1      -5.789  47.244 -21.821  1.00  0.00     0.095 C 
HETATM   21  C24 UNL     1      -5.988  45.731 -21.754  1.00  0.00     0.049 C 
HETATM   22  C25 UNL     1      -7.260  45.187 -22.450  1.00  0.00     0.025 C 
HETATM   23  C26 UNL     1      -6.915  43.814 -23.084  1.00  0.00     0.012 C 
HETATM   24  C27 UNL     1      -8.090  42.820 -23.316  1.00  0.00    -0.010 C 
HETATM   25  C35 UNL     1      -9.486  43.391 -23.001  1.00  0.00     0.005 C 
HETATM   26  C36 UNL     1      -9.948  44.487 -23.961  1.00  0.00     0.010 C 
HETATM   27  C37 UNL     1      -8.852  45.437 -24.485  1.00  0.00     0.050 C 
HETATM   28  C38 UNL     1      -9.440  46.322 -25.600  1.00  0.00     0.125 C 
HETATM   29  C39 UNL     1      -8.369  47.163 -26.291  1.00  0.00     0.033 C 
HETATM   30  C40 UNL     1      -7.078  47.316 -25.480  1.00  0.00     0.023 C 
HETATM   31  C41 UNL     1      -7.261  47.448 -23.942  1.00  0.00     0.051 C 
HETATM   32  C43 UNL     1      -8.068  46.204 -23.361  1.00  0.00     0.082 C 
ENDROOT
BRANCH   1  33
HETATM   33  C5  UNL     1      -0.569  49.310 -17.840  1.00  0.00     0.306 C 
BRANCH  33  34
HETATM   34  N1  UNL     1      -0.162  50.685 -17.596  1.00  0.00     0.087 N 
HETATM   35  H10 UNL     1      -0.982  51.263 -17.398  1.00  0.00     0.316 HD
BRANCH  34  36
HETATM   36  C4  UNL     1       0.799  50.803 -16.506  1.00  0.00     0.272 C 
BRANCH  36  37
HETATM   37  C3  UNL     1       1.432  52.199 -16.428  1.00  0.00     0.056 C 
BRANCH  37  38
HETATM   38  C2  UNL     1       2.871  52.205 -15.923  1.00  0.00     0.168 C 
BRANCH  38  39
HETATM   39  O1  UNL     1       3.009  51.219 -14.901  1.00  0.00    -0.396 OA
HETATM   40  C1  UNL     1       2.812  51.764 -13.606  1.00  0.00     0.201 C 
ENDBRANCH  38  39
ENDBRANCH  37  38
ENDBRANCH  36  37
ENDBRANCH  34  36
ENDBRANCH  33  34
ENDBRANCH   1  33
BRANCH   5  41
HETATM   41  O2  UNL     1      -4.841  47.500 -19.651  1.00  0.00    -0.386 OA
HETATM   42  H17 UNL     1      -4.581  46.604 -19.373  1.00  0.00     0.210 HD
ENDBRANCH   5  41
BRANCH  20  43
HETATM   43  O5  UNL     1      -6.912  47.837 -21.141  1.00  0.00    -0.386 OA
HETATM   44  H31 UNL     1      -6.603  47.961 -20.216  1.00  0.00     0.210 HD
ENDBRANCH  20  43
BRANCH  31  45
HETATM   45  C42 UNL     1      -8.049  48.750 -23.664  1.00  0.00     0.244 C 
HETATM   46  O7  UNL     1      -8.774  49.329 -24.472  1.00  0.00    -0.306 OA
ENDBRANCH  31  45
BRANCH  32  47
HETATM   47  O8  UNL     1      -9.053  46.736 -22.443  1.00  0.00    -0.388 OA
HETATM   48  H63 UNL     1      -8.572  47.134 -21.687  1.00  0.00     0.210 HD
ENDBRANCH  32  47
BRANCH  24  49
HETATM   49  C28 UNL     1      -7.885  41.414 -22.643  1.00  0.00    -0.011 C 
HETATM   50  C29 UNL     1      -8.927  41.182 -21.536  1.00  0.00     0.011 C 
BRANCH  49  51
HETATM   51  C30 UNL     1      -7.731  40.227 -23.630  1.00  0.00    -0.010 C 
HETATM   52  C31 UNL     1      -7.659  38.847 -22.940  1.00  0.00     0.005 C 
HETATM   53  C32 UNL     1      -8.310  37.849 -23.896  1.00  0.00     0.000 C 
HETATM   54  C33 UNL     1      -8.588  38.618 -25.176  1.00  0.00     0.000 C 
HETATM   55  C34 UNL     1      -8.814  40.043 -24.693  1.00  0.00     0.005 C 
ENDBRANCH  49  51
ENDBRANCH  24  49
BRANCH  28  56
HETATM   56  O6  UNL     1     -10.526  47.120 -25.154  1.00  0.00    -0.395 OA
HETATM   57  H57 UNL     1     -10.166  47.860 -24.619  1.00  0.00     0.210 HD
ENDBRANCH  28  56
TORSDOF 13
ENDMDL
MODEL 4
REMARK minimizedAffinity -8.48516464
REMARK CNNscore 0.612235606
REMARK CNNaffinity 6.61923218
REMARK  13 active torsions:
REMARK  status: ('A' for Active; 'I' for Inactive)
REMARK    1  A    between atoms: O1_2  and  C2_3 
REMARK    2  A    between atoms: C2_3  and  C3_4 
REMARK    3  A    between atoms: C3_4  and  C4_5 
REMARK    4  A    between atoms: C4_5  and  N1_6 
REMARK    5  A    between atoms: N1_6  and  C5_7 
REMARK    6  A    between atoms: C5_7  and  C6_8 
REMARK    7  A    between atoms: C10_12  and  O2_13 
REMARK    8  A    between atoms: C23_28  and  O5_29 
REMARK    9  A    between atoms: C27_33  and  C28_34 
REMARK   10  A    between atoms: C28_34  and  C30_36 
REMARK   11  A    between atoms: C38_44  and  O6_45 
REMARK   12  A    between atoms: C41_48  and  C42_49 
REMARK   13  A    between atoms: C43_51  and  O8_52 
ROOT
HETATM    1  C6  UNL     1      -9.475  46.884 -27.646  1.00  0.00    -0.016 C 
HETATM    2  C7  UNL     1      -9.805  46.374 -26.431  1.00  0.00    -0.013 C 
HETATM    3  C8  UNL     1     -10.857  45.301 -26.247  1.00  0.00     0.021 C 
HETATM    4  C9  UNL     1     -11.799  45.448 -25.055  1.00  0.00     0.051 C 
HETATM    5  C10 UNL     1     -12.913  46.411 -25.505  1.00  0.00     0.098 C 
HETATM    6  C11 UNL     1     -12.940  46.317 -27.091  1.00  0.00     0.002 C 
HETATM    7  C12 UNL     1     -12.683  47.726 -27.723  1.00  0.00     0.013 C 
HETATM    8  C13 UNL     1     -12.453  47.768 -29.227  1.00  0.00     0.004 C 
HETATM    9  C14 UNL     1     -10.985  47.609 -29.629  1.00  0.00     0.048 C 
HETATM   10  C15 UNL     1     -10.199  46.473 -28.930  1.00  0.00     0.120 C 
HETATM   11  O3  UNL     1      -9.258  45.972 -29.892  1.00  0.00    -0.297 OA
HETATM   12  C16 UNL     1      -9.711  44.785 -30.383  1.00  0.00     0.284 C 
HETATM   13  O4  UNL     1      -9.236  44.173 -31.321  1.00  0.00    -0.260 OA
HETATM   14  C17 UNL     1     -10.835  44.323 -29.569  1.00  0.00     0.089 C 
HETATM   15  C18 UNL     1     -11.069  45.292 -28.687  1.00  0.00    -0.029 C 
HETATM   16  C19 UNL     1     -11.847  45.227 -27.417  1.00  0.00     0.037 C 
HETATM   17  C20 UNL     1     -14.309  45.807 -27.610  1.00  0.00     0.014 C 
HETATM   18  C21 UNL     1     -14.916  44.668 -26.794  1.00  0.00     0.010 C 
HETATM   19  C22 UNL     1     -15.099  44.976 -25.289  1.00  0.00     0.041 C 
HETATM   20  C23 UNL     1     -14.307  46.202 -24.811  1.00  0.00     0.095 C 
HETATM   21  C24 UNL     1     -14.166  46.055 -23.297  1.00  0.00     0.049 C 
HETATM   22  C25 UNL     1     -15.489  45.887 -22.510  1.00  0.00     0.025 C 
HETATM   23  C26 UNL     1     -15.231  44.915 -21.330  1.00  0.00     0.012 C 
HETATM   24  C27 UNL     1     -16.170  45.027 -20.094  1.00  0.00    -0.010 C 
HETATM   25  C35 UNL     1     -17.338  46.018 -20.262  1.00  0.00     0.005 C 
HETATM   26  C36 UNL     1     -18.389  45.585 -21.284  1.00  0.00     0.010 C 
HETATM   27  C37 UNL     1     -17.861  44.832 -22.522  1.00  0.00     0.050 C 
HETATM   28  C38 UNL     1     -19.054  44.275 -23.322  1.00  0.00     0.125 C 
HETATM   29  C39 UNL     1     -18.606  43.366 -24.464  1.00  0.00     0.033 C 
HETATM   30  C40 UNL     1     -17.140  43.552 -24.869  1.00  0.00     0.023 C 
HETATM   31  C41 UNL     1     -16.607  45.010 -24.817  1.00  0.00     0.051 C 
HETATM   32  C43 UNL     1     -16.802  45.632 -23.363  1.00  0.00     0.082 C 
ENDROOT
BRANCH   1  33
HETATM   33  C5  UNL     1      -8.322  47.849 -27.783  1.00  0.00     0.306 C 
BRANCH  33  34
HETATM   34  N1  UNL     1      -7.127  47.119 -28.176  1.00  0.00     0.087 N 
HETATM   35  H10 UNL     1      -7.383  46.207 -28.558  1.00  0.00     0.316 HD
BRANCH  34  36
HETATM   36  C4  UNL     1      -6.315  47.848 -29.143  1.00  0.00     0.272 C 
BRANCH  36  37
HETATM   37  C3  UNL     1      -4.886  48.098 -28.642  1.00  0.00     0.056 C 
BRANCH  37  38
HETATM   38  C2  UNL     1      -4.771  48.246 -27.128  1.00  0.00     0.168 C 
BRANCH  38  39
HETATM   39  O1  UNL     1      -3.391  48.292 -26.769  1.00  0.00    -0.396 OA
HETATM   40  C1  UNL     1      -3.203  48.747 -25.437  1.00  0.00     0.201 C 
ENDBRANCH  38  39
ENDBRANCH  37  38
ENDBRANCH  36  37
ENDBRANCH  34  36
ENDBRANCH  33  34
ENDBRANCH   1  33
BRANCH   5  41
HETATM   41  O2  UNL     1     -12.524  47.752 -25.110  1.00  0.00    -0.386 OA
HETATM   42  H17 UNL     1     -12.003  47.712 -24.289  1.00  0.00     0.210 HD
ENDBRANCH   5  41
BRANCH  20  43
HETATM   43  O5  UNL     1     -15.072  47.402 -25.038  1.00  0.00    -0.386 OA
HETATM   44  H31 UNL     1     -14.398  48.107 -25.156  1.00  0.00     0.210 HD
ENDBRANCH  20  43
BRANCH  31  45
HETATM   45  C42 UNL     1     -17.401  45.848 -25.847  1.00  0.00     0.244 C 
HETATM   46  O7  UNL     1     -18.599  46.120 -25.771  1.00  0.00    -0.306 OA
ENDBRANCH  31  45
BRANCH  32  47
HETATM   47  O8  UNL     1     -17.327  46.968 -23.546  1.00  0.00    -0.388 OA
HETATM   48  H63 UNL     1     -16.633  47.503 -23.987  1.00  0.00     0.210 HD
ENDBRANCH  32  47
BRANCH  24  49
HETATM   49  C28 UNL     1     -15.418  45.259 -18.734  1.00  0.00    -0.011 C 
HETATM   50  C29 UNL     1     -14.398  44.137 -18.475  1.00  0.00     0.011 C 
BRANCH  49  51
HETATM   51  C30 UNL     1     -14.856  46.690 -18.526  1.00  0.00    -0.010 C 
HETATM   52  C31 UNL     1     -13.751  47.078 -19.533  1.00  0.00     0.005 C 
HETATM   53  C32 UNL     1     -13.886  48.583 -19.766  1.00  0.00     0.000 C 
HETATM   54  C33 UNL     1     -14.935  49.065 -18.779  1.00  0.00     0.000 C 
HETATM   55  C34 UNL     1     -15.841  47.856 -18.603  1.00  0.00     0.005 C 
ENDBRANCH  49  51
ENDBRANCH  24  49
BRANCH  28  56
HETATM   56  O6  UNL     1     -19.935  45.292 -23.777  1.00  0.00    -0.395 OA
HETATM   57  H57 UNL     1     -19.512  45.750 -24.535  1.00  0.00     0.210 HD
ENDBRANCH  28  56
TORSDOF 13
ENDMDL
MODEL 5
REMARK minimizedAffinity -8.7750082
REMARK CNNscore 0.538939118
REMARK CNNaffinity 6.68136406
REMARK  13 active torsions:
REMARK  status: ('A' for Active; 'I' for Inactive)
REMARK    1  A    between atoms: O1_2  and  C2_3 
REMARK    2  A    between atoms: C2_3  and  C3_4 
REMARK    3  A    between atoms: C3_4  and  C4_5 
REMARK    4  A    between atoms: C4_5  and  N1_6 
REMARK    5  A    between atoms: N1_6  and  C5_7 
REMARK    6  A    between atoms: C5_7  and  C6_8 
REMARK    7  A    between atoms: C10_12  and  O2_13 
REMARK    8  A    between atoms: C23_28  and  O5_29 
REMARK    9  A    between atoms: C27_33  and  C28_34 
REMARK   10  A    between atoms: C28_34  and  C30_36 
REMARK   11  A    between atoms: C38_44  and  O6_45 
REMARK   12  A    between atoms: C41_48  and  C42_49 
REMARK   13  A    between atoms: C43_51  and  O8_52 
ROOT
HETATM    1  C6  UNL     1      -6.744  47.109 -28.645  1.00  0.00    -0.016 C 
HETATM    2  C7  UNL     1      -7.126  46.862 -27.365  1.00  0.00    -0.013 C 
HETATM    3  C8  UNL     1      -8.120  45.781 -26.997  1.00  0.00     0.021 C 
HETATM    4  C9  UNL     1      -9.151  46.121 -25.923  1.00  0.00     0.051 C 
HETATM    5  C10 UNL     1     -10.287  46.869 -26.643  1.00  0.00     0.098 C 
HETATM    6  C11 UNL     1     -10.197  46.417 -28.164  1.00  0.00     0.002 C 
HETATM    7  C12 UNL     1      -9.985  47.664 -29.088  1.00  0.00     0.013 C 
HETATM    8  C13 UNL     1      -9.652  47.382 -30.546  1.00  0.00     0.004 C 
HETATM    9  C14 UNL     1      -8.153  47.249 -30.821  1.00  0.00     0.048 C 
HETATM   10  C15 UNL     1      -7.349  46.364 -29.838  1.00  0.00     0.120 C 
HETATM   11  O3  UNL     1      -6.313  45.732 -30.607  1.00  0.00    -0.297 OA
HETATM   12  C16 UNL     1      -6.656  44.434 -30.835  1.00  0.00     0.284 C 
HETATM   13  O4  UNL     1      -6.079  43.664 -31.580  1.00  0.00    -0.260 OA
HETATM   14  C17 UNL     1      -7.804  44.083 -29.998  1.00  0.00     0.089 C 
HETATM   15  C18 UNL     1      -8.158  45.206 -29.378  1.00  0.00    -0.029 C 
HETATM   16  C19 UNL     1      -9.019  45.370 -28.171  1.00  0.00     0.037 C 
HETATM   17  C20 UNL     1     -11.492  45.701 -28.625  1.00  0.00     0.014 C 
HETATM   18  C21 UNL     1     -12.083  44.732 -27.603  1.00  0.00     0.010 C 
HETATM   19  C22 UNL     1     -12.390  45.357 -26.222  1.00  0.00     0.041 C 
HETATM   20  C23 UNL     1     -11.711  46.716 -25.996  1.00  0.00     0.095 C 
HETATM   21  C24 UNL     1     -11.668  46.926 -24.484  1.00  0.00     0.049 C 
HETATM   22  C25 UNL     1     -13.031  46.839 -23.752  1.00  0.00     0.025 C 
HETATM   23  C26 UNL     1     -12.796  46.181 -22.368  1.00  0.00     0.012 C 
HETATM   24  C27 UNL     1     -13.824  46.496 -21.244  1.00  0.00    -0.010 C 
HETATM   25  C35 UNL     1     -15.037  47.332 -21.698  1.00  0.00     0.005 C 
HETATM   26  C36 UNL     1     -15.984  46.600 -22.648  1.00  0.00     0.010 C 
HETATM   27  C37 UNL     1     -15.326  45.630 -23.650  1.00  0.00     0.050 C 
HETATM   28  C38 UNL     1     -16.423  44.817 -24.364  1.00  0.00     0.125 C 
HETATM   29  C39 UNL     1     -15.840  43.711 -25.240  1.00  0.00     0.033 C 
HETATM   30  C40 UNL     1     -14.363  43.912 -25.597  1.00  0.00     0.023 C 
HETATM   31  C41 UNL     1     -13.926  45.381 -25.853  1.00  0.00     0.051 C 
HETATM   32  C43 UNL     1     -14.262  46.298 -24.594  1.00  0.00     0.082 C 
ENDROOT
BRANCH   1  33
HETATM   33  C5  UNL     1      -5.646  48.103 -28.938  1.00  0.00     0.306 C 
BRANCH  33  34
HETATM   34  N1  UNL     1      -5.157  48.662 -27.688  1.00  0.00     0.087 N 
HETATM   35  H10 UNL     1      -5.671  48.264 -26.900  1.00  0.00     0.316 HD
BRANCH  34  36
HETATM   36  C4  UNL     1      -3.726  48.451 -27.499  1.00  0.00     0.272 C 
BRANCH  36  37
HETATM   37  C3  UNL     1      -3.319  48.469 -26.019  1.00  0.00     0.056 C 
BRANCH  37  38
HETATM   38  C2  UNL     1      -4.495  48.505 -25.048  1.00  0.00     0.168 C 
BRANCH  38  39
HETATM   39  O1  UNL     1      -4.288  49.558 -24.108  1.00  0.00    -0.396 OA
HETATM   40  C1  UNL     1      -3.022  49.462 -23.472  1.00  0.00     0.201 C 
ENDBRANCH  38  39
ENDBRANCH  37  38
ENDBRANCH  36  37
ENDBRANCH  34  36
ENDBRANCH  33  34
ENDBRANCH   1  33
BRANCH   5  41
HETATM   41  O2  UNL     1     -10.011  48.290 -26.547  1.00  0.00    -0.386 OA
HETATM   42  H17 UNL     1      -9.548  48.477 -25.711  1.00  0.00     0.210 HD
ENDBRANCH   5  41
BRANCH  20  43
HETATM   43  O5  UNL     1     -12.532  47.771 -26.534  1.00  0.00    -0.386 OA
HETATM   44  H31 UNL     1     -11.896  48.481 -26.775  1.00  0.00     0.210 HD
ENDBRANCH  20  43
BRANCH  31  45
HETATM   45  C42 UNL     1     -14.697  45.902 -27.089  1.00  0.00     0.244 C 
HETATM   46  O7  UNL     1     -15.546  45.269 -27.716  1.00  0.00    -0.306 OA
ENDBRANCH  31  45
BRANCH  32  47
HETATM   47  O8  UNL     1     -14.854  47.515 -25.107  1.00  0.00    -0.388 OA
HETATM   48  H63 UNL     1     -14.165  47.988 -25.621  1.00  0.00     0.210 HD
ENDBRANCH  32  47
BRANCH  24  49
HETATM   49  C28 UNL     1     -13.186  47.086 -19.934  1.00  0.00    -0.011 C 
HETATM   50  C29 UNL     1     -13.358  48.614 -19.883  1.00  0.00     0.011 C 
BRANCH  49  51
HETATM   51  C30 UNL     1     -13.579  46.358 -18.622  1.00  0.00    -0.010 C 
HETATM   52  C31 UNL     1     -12.395  45.664 -17.914  1.00  0.00     0.005 C 
HETATM   53  C32 UNL     1     -12.683  45.735 -16.415  1.00  0.00     0.000 C 
HETATM   54  C33 UNL     1     -14.085  46.304 -16.286  1.00  0.00     0.000 C 
HETATM   55  C34 UNL     1     -14.223  47.192 -17.514  1.00  0.00     0.005 C 
ENDBRANCH  49  51
ENDBRANCH  24  49
BRANCH  28  56
HETATM   56  O6  UNL     1     -17.331  45.635 -25.088  1.00  0.00    -0.395 OA
HETATM   57  H57 UNL     1     -16.885  45.941 -25.906  1.00  0.00     0.210 HD
ENDBRANCH  28  56
TORSDOF 13
ENDMDL
MODEL 6
REMARK minimizedAffinity -9.6488018
REMARK CNNscore 0.531769156
REMARK CNNaffinity 7.35869837
REMARK  13 active torsions:
REMARK  status: ('A' for Active; 'I' for Inactive)
REMARK    1  A    between atoms: O1_2  and  C2_3 
REMARK    2  A    between atoms: C2_3  and  C3_4 
REMARK    3  A    between atoms: C3_4  and  C4_5 
REMARK    4  A    between atoms: C4_5  and  N1_6 
REMARK    5  A    between atoms: N1_6  and  C5_7 
REMARK    6  A    between atoms: C5_7  and  C6_8 
REMARK    7  A    between atoms: C10_12  and  O2_13 
REMARK    8  A    between atoms: C23_28  and  O5_29 
REMARK    9  A    between atoms: C27_33  and  C28_34 
REMARK   10  A    between atoms: C28_34  and  C30_36 
REMARK   11  A    between atoms: C38_44  and  O6_45 
REMARK   12  A    between atoms: C41_48  and  C42_49 
REMARK   13  A    between atoms: C43_51  and  O8_52 
ROOT
HETATM    1  C6  UNL     1     -10.404  46.340 -24.029  1.00  0.00    -0.016 C 
HETATM    2  C7  UNL     1      -9.296  46.675 -24.739  1.00  0.00    -0.013 C 
HETATM    3  C8  UNL     1      -7.899  46.253 -24.335  1.00  0.00     0.021 C 
HETATM    4  C9  UNL     1      -6.789  47.289 -24.484  1.00  0.00     0.051 C 
HETATM    5  C10 UNL     1      -6.850  48.167 -23.221  1.00  0.00     0.098 C 
HETATM    6  C11 UNL     1      -7.557  47.271 -22.114  1.00  0.00     0.002 C 
HETATM    7  C12 UNL     1      -8.855  47.977 -21.594  1.00  0.00     0.013 C 
HETATM    8  C13 UNL     1      -9.768  47.151 -20.699  1.00  0.00     0.004 C 
HETATM    9  C14 UNL     1     -10.823  46.352 -21.467  1.00  0.00     0.048 C 
HETATM   10  C15 UNL     1     -10.328  45.571 -22.708  1.00  0.00     0.120 C 
HETATM   11  O3  UNL     1     -11.118  44.373 -22.783  1.00  0.00    -0.297 OA
HETATM   12  C16 UNL     1     -10.375  43.320 -22.345  1.00  0.00     0.284 C 
HETATM   13  O4  UNL     1     -10.787  42.195 -22.134  1.00  0.00    -0.260 OA
HETATM   14  C17 UNL     1      -8.978  43.734 -22.217  1.00  0.00     0.089 C 
HETATM   15  C18 UNL     1      -8.958  45.036 -22.491  1.00  0.00    -0.029 C 
HETATM   16  C19 UNL     1      -7.791  45.894 -22.846  1.00  0.00     0.037 C 
HETATM   17  C20 UNL     1      -6.630  47.027 -20.897  1.00  0.00     0.014 C 
HETATM   18  C21 UNL     1      -5.172  46.743 -21.253  1.00  0.00     0.010 C 
HETATM   19  C22 UNL     1      -4.493  47.832 -22.118  1.00  0.00     0.041 C 
HETATM   20  C23 UNL     1      -5.484  48.804 -22.775  1.00  0.00     0.095 C 
HETATM   21  C24 UNL     1      -4.745  49.434 -23.953  1.00  0.00     0.049 C 
HETATM   22  C25 UNL     1      -3.404  50.130 -23.614  1.00  0.00     0.025 C 
HETATM   23  C26 UNL     1      -2.424  49.895 -24.793  1.00  0.00     0.012 C 
HETATM   24  C27 UNL     1      -1.274  50.926 -24.982  1.00  0.00    -0.010 C 
HETATM   25  C35 UNL     1      -1.177  51.991 -23.873  1.00  0.00     0.005 C 
HETATM   26  C36 UNL     1      -0.747  51.444 -22.511  1.00  0.00     0.010 C 
HETATM   27  C37 UNL     1      -1.259  50.034 -22.153  1.00  0.00     0.050 C 
HETATM   28  C38 UNL     1      -0.556  49.551 -20.871  1.00  0.00     0.125 C 
HETATM   29  C39 UNL     1      -0.879  48.093 -20.553  1.00  0.00     0.033 C 
HETATM   30  C40 UNL     1      -2.135  47.566 -21.255  1.00  0.00     0.023 C 
HETATM   31  C41 UNL     1      -3.304  48.580 -21.393  1.00  0.00     0.051 C 
HETATM   32  C43 UNL     1      -2.824  49.894 -22.156  1.00  0.00     0.082 C 
ENDROOT
BRANCH   1  33
HETATM   33  C5  UNL     1     -11.780  46.669 -24.556  1.00  0.00     0.306 C 
BRANCH  33  34
HETATM   34  N1  UNL     1     -12.722  46.714 -23.450  1.00  0.00     0.087 N 
HETATM   35  H10 UNL     1     -12.772  47.661 -23.069  1.00  0.00     0.316 HD
BRANCH  34  36
HETATM   36  C4  UNL     1     -14.057  46.266 -23.829  1.00  0.00     0.272 C 
BRANCH  36  37
HETATM   37  C3  UNL     1     -15.134  47.323 -23.548  1.00  0.00     0.056 C 
BRANCH  37  38
HETATM   38  C2  UNL     1     -16.394  47.172 -24.396  1.00  0.00     0.168 C 
BRANCH  38  39
HETATM   39  O1  UNL     1     -17.141  46.053 -23.922  1.00  0.00    -0.396 OA
HETATM   40  C1  UNL     1     -17.549  46.218 -22.573  1.00  0.00     0.201 C 
ENDBRANCH  38  39
ENDBRANCH  37  38
ENDBRANCH  36  37
ENDBRANCH  34  36
ENDBRANCH  33  34
ENDBRANCH   1  33
BRANCH   5  41
HETATM   41  O2  UNL     1      -7.688  49.313 -23.519  1.00  0.00    -0.386 OA
HETATM   42  H17 UNL     1      -7.599  49.547 -24.459  1.00  0.00     0.210 HD
ENDBRANCH   5  41
BRANCH  20  43
HETATM   43  O5  UNL     1      -5.798  49.876 -21.865  1.00  0.00    -0.386 OA
HETATM   44  H31 UNL     1      -6.704  50.160 -22.121  1.00  0.00     0.210 HD
ENDBRANCH  20  43
BRANCH  31  45
HETATM   45  C42 UNL     1      -3.784  48.956 -19.971  1.00  0.00     0.244 C 
HETATM   46  O7  UNL     1      -3.118  49.562 -19.133  1.00  0.00    -0.306 OA
ENDBRANCH  31  45
BRANCH  32  47
HETATM   47  O8  UNL     1      -3.353  51.023 -21.419  1.00  0.00    -0.388 OA
HETATM   48  H63 UNL     1      -4.330  50.998 -21.496  1.00  0.00     0.210 HD
ENDBRANCH  32  47
BRANCH  24  49
HETATM   49  C28 UNL     1      -1.227  51.584 -26.408  1.00  0.00    -0.011 C 
HETATM   50  C29 UNL     1      -2.333  52.642 -26.558  1.00  0.00     0.011 C 
BRANCH  49  51
HETATM   51  C30 UNL     1       0.176  52.061 -26.869  1.00  0.00    -0.010 C 
HETATM   52  C31 UNL     1       1.310  51.711 -25.880  1.00  0.00     0.005 C 
HETATM   53  C32 UNL     1       2.562  51.468 -26.723  1.00  0.00     0.000 C 
HETATM   54  C33 UNL     1       2.185  51.843 -28.146  1.00  0.00     0.000 C 
HETATM   55  C34 UNL     1       0.695  51.543 -28.211  1.00  0.00     0.005 C 
ENDBRANCH  49  51
ENDBRANCH  24  49
BRANCH  28  56
HETATM   56  O6  UNL     1      -0.802  50.396 -19.756  1.00  0.00    -0.395 OA
HETATM   57  H57 UNL     1      -1.715  50.229 -19.438  1.00  0.00     0.210 HD
ENDBRANCH  28  56
TORSDOF 13
ENDMDL
MODEL 7
REMARK minimizedAffinity -10.00105
REMARK CNNscore 0.452576786
REMARK CNNaffinity 7.49461746
REMARK  13 active torsions:
REMARK  status: ('A' for Active; 'I' for Inactive)
REMARK    1  A    between atoms: O1_2  and  C2_3 
REMARK    2  A    between atoms: C2_3  and  C3_4 
REMARK    3  A    between atoms: C3_4  and  C4_5 
REMARK    4  A    between atoms: C4_5  and  N1_6 
REMARK    5  A    between atoms: N1_6  and  C5_7 
REMARK    6  A    between atoms: C5_7  and  C6_8 
REMARK    7  A    between atoms: C10_12  and  O2_13 
REMARK    8  A    between atoms: C23_28  and  O5_29 
REMARK    9  A    between atoms: C27_33  and  C28_34 
REMARK   10  A    between atoms: C28_34  and  C30_36 
REMARK   11  A    between atoms: C38_44  and  O6_45 
REMARK   12  A    between atoms: C41_48  and  C42_49 
REMARK   13  A    between atoms: C43_51  and  O8_52 
ROOT
HETATM    1  C6  UNL     1      -9.710  47.390 -25.759  1.00  0.00    -0.016 C 
HETATM    2  C7  UNL     1      -8.509  47.900 -26.136  1.00  0.00    -0.013 C 
HETATM    3  C8  UNL     1      -7.189  47.351 -25.637  1.00  0.00     0.021 C 
HETATM    4  C9  UNL     1      -6.105  48.365 -25.280  1.00  0.00     0.051 C 
HETATM    5  C10 UNL     1      -6.411  48.833 -23.846  1.00  0.00     0.098 C 
HETATM    6  C11 UNL     1      -7.267  47.664 -23.191  1.00  0.00     0.002 C 
HETATM    7  C12 UNL     1      -8.657  48.208 -22.721  1.00  0.00     0.013 C 
HETATM    8  C13 UNL     1      -9.681  47.171 -22.280  1.00  0.00     0.004 C 
HETATM    9  C14 UNL     1     -10.562  46.654 -23.420  1.00  0.00     0.048 C 
HETATM   10  C15 UNL     1      -9.835  46.264 -24.729  1.00  0.00     0.120 C 
HETATM   11  O3  UNL     1     -10.560  45.158 -25.289  1.00  0.00    -0.297 OA
HETATM   12  C16 UNL     1      -9.868  44.008 -25.057  1.00  0.00     0.284 C 
HETATM   13  O4  UNL     1     -10.272  42.878 -25.261  1.00  0.00    -0.260 OA
HETATM   14  C17 UNL     1      -8.528  44.340 -24.572  1.00  0.00     0.089 C 
HETATM   15  C18 UNL     1      -8.505  45.665 -24.444  1.00  0.00    -0.029 C 
HETATM   16  C19 UNL     1      -7.325  46.568 -24.324  1.00  0.00     0.037 C 
HETATM   17  C20 UNL     1      -6.553  47.055 -21.958  1.00  0.00     0.014 C 
HETATM   18  C21 UNL     1      -5.048  46.861 -22.123  1.00  0.00     0.010 C 
HETATM   19  C22 UNL     1      -4.268  48.144 -22.498  1.00  0.00     0.041 C 
HETATM   20  C23 UNL     1      -5.164  49.284 -23.003  1.00  0.00     0.095 C 
HETATM   21  C24 UNL     1      -4.257  50.221 -23.797  1.00  0.00     0.049 C 
HETATM   22  C25 UNL     1      -3.017  50.760 -23.041  1.00  0.00     0.025 C 
HETATM   23  C26 UNL     1      -1.843  50.866 -24.049  1.00  0.00     0.012 C 
HETATM   24  C27 UNL     1      -0.713  51.885 -23.724  1.00  0.00    -0.010 C 
HETATM   25  C35 UNL     1      -0.844  52.574 -22.352  1.00  0.00     0.005 C 
HETATM   26  C36 UNL     1      -0.635  51.642 -21.158  1.00  0.00     0.010 C 
HETATM   27  C37 UNL     1      -1.153  50.199 -21.324  1.00  0.00     0.050 C 
HETATM   28  C38 UNL     1      -0.664  49.346 -20.138  1.00  0.00     0.125 C 
HETATM   29  C39 UNL     1      -0.986  47.865 -20.324  1.00  0.00     0.033 C 
HETATM   30  C40 UNL     1      -2.085  47.592 -21.356  1.00  0.00     0.023 C 
HETATM   31  C41 UNL     1      -3.247  48.623 -21.391  1.00  0.00     0.051 C 
HETATM   32  C43 UNL     1      -2.688  50.095 -21.639  1.00  0.00     0.082 C 
ENDROOT
BRANCH   1  33
HETATM   33  C5  UNL     1     -10.986  47.886 -26.397  1.00  0.00     0.306 C 
BRANCH  33  34
HETATM   34  N1  UNL     1     -11.926  46.782 -26.515  1.00  0.00     0.087 N 
HETATM   35  H10 UNL     1     -11.962  46.257 -25.639  1.00  0.00     0.316 HD
BRANCH  34  36
HETATM   36  C4  UNL     1     -13.267  47.222 -26.880  1.00  0.00     0.272 C 
BRANCH  36  37
HETATM   37  C3  UNL     1     -14.196  46.052 -27.230  1.00  0.00     0.056 C 
BRANCH  37  38
HETATM   38  C2  UNL     1     -14.350  45.803 -28.728  1.00  0.00     0.168 C 
BRANCH  38  39
HETATM   39  O1  UNL     1     -15.439  44.907 -28.940  1.00  0.00    -0.396 OA
HETATM   40  C1  UNL     1     -16.295  44.833 -27.809  1.00  0.00     0.201 C 
ENDBRANCH  38  39
ENDBRANCH  37  38
ENDBRANCH  36  37
ENDBRANCH  34  36
ENDBRANCH  33  34
ENDBRANCH   1  33
BRANCH   5  41
HETATM   41  O2  UNL     1      -7.224  50.031 -23.935  1.00  0.00    -0.386 OA
HETATM   42  H17 UNL     1      -6.983  50.530 -24.735  1.00  0.00     0.210 HD
ENDBRANCH   5  41
BRANCH  20  43
HETATM   43  O5  UNL     1      -5.666  50.046 -21.888  1.00  0.00    -0.386 OA
HETATM   44  H31 UNL     1      -6.523  50.410 -22.202  1.00  0.00     0.210 HD
ENDBRANCH  20  43
BRANCH  31  45
HETATM   45  C42 UNL     1      -3.975  48.571 -20.027  1.00  0.00     0.244 C 
HETATM   46  O7  UNL     1      -5.000  49.190 -19.744  1.00  0.00    -0.306 OA
ENDBRANCH  31  45
BRANCH  32  47
HETATM   47  O8  UNL     1      -3.373  50.965 -20.707  1.00  0.00    -0.388 OA
HETATM   48  H63 UNL     1      -4.322  50.982 -20.956  1.00  0.00     0.210 HD
ENDBRANCH  32  47
BRANCH  24  49
HETATM   49  C28 UNL     1      -0.445  52.934 -24.863  1.00  0.00    -0.011 C 
HETATM   50  C29 UNL     1       0.693  53.890 -24.468  1.00  0.00     0.011 C 
BRANCH  49  51
HETATM   51  C30 UNL     1      -0.309  52.339 -26.290  1.00  0.00    -0.010 C 
HETATM   52  C31 UNL     1      -0.560  53.362 -27.419  1.00  0.00     0.005 C 
HETATM   53  C32 UNL     1       0.340  52.951 -28.585  1.00  0.00     0.000 C 
HETATM   54  C33 UNL     1       0.958  51.622 -28.186  1.00  0.00     0.000 C 
HETATM   55  C34 UNL     1       1.030  51.704 -26.669  1.00  0.00     0.005 C 
ENDBRANCH  49  51
ENDBRANCH  24  49
BRANCH  28  56
HETATM   56  O6  UNL     1      -1.125  49.829 -18.885  1.00  0.00    -0.395 OA
HETATM   57  H57 UNL     1      -2.073  49.593 -18.793  1.00  0.00     0.210 HD
ENDBRANCH  28  56
TORSDOF 13
ENDMDL
MODEL 8
REMARK minimizedAffinity -7.84879351
REMARK CNNscore 0.451503336
REMARK CNNaffinity 6.96841192
REMARK  13 active torsions:
REMARK  status: ('A' for Active; 'I' for Inactive)
REMARK    1  A    between atoms: O1_2  and  C2_3 
REMARK    2  A    between atoms: C2_3  and  C3_4 
REMARK    3  A    between atoms: C3_4  and  C4_5 
REMARK    4  A    between atoms: C4_5  and  N1_6 
REMARK    5  A    between atoms: N1_6  and  C5_7 
REMARK    6  A    between atoms: C5_7  and  C6_8 
REMARK    7  A    between atoms: C10_12  and  O2_13 
REMARK    8  A    between atoms: C23_28  and  O5_29 
REMARK    9  A    between atoms: C27_33  and  C28_34 
REMARK   10  A    between atoms: C28_34  and  C30_36 
REMARK   11  A    between atoms: C38_44  and  O6_45 
REMARK   12  A    between atoms: C41_48  and  C42_49 
REMARK   13  A    between atoms: C43_51  and  O8_52 
ROOT
HETATM    1  C6  UNL     1      -3.329  47.588 -13.344  1.00  0.00    -0.016 C 
HETATM    2  C7  UNL     1      -3.467  47.209 -14.641  1.00  0.00    -0.013 C 
HETATM    3  C8  UNL     1      -2.350  47.325 -15.656  1.00  0.00     0.021 C 
HETATM    4  C9  UNL     1      -2.729  47.806 -17.055  1.00  0.00     0.051 C 
HETATM    5  C10 UNL     1      -2.774  49.343 -16.982  1.00  0.00     0.098 C 
HETATM    6  C11 UNL     1      -1.845  49.738 -15.755  1.00  0.00     0.002 C 
HETATM    7  C12 UNL     1      -2.664  50.545 -14.693  1.00  0.00     0.013 C 
HETATM    8  C13 UNL     1      -1.980  50.802 -13.357  1.00  0.00     0.004 C 
HETATM    9  C14 UNL     1      -2.220  49.701 -12.321  1.00  0.00     0.048 C 
HETATM   10  C15 UNL     1      -2.051  48.244 -12.815  1.00  0.00     0.120 C 
HETATM   11  O3  UNL     1      -1.529  47.492 -11.707  1.00  0.00    -0.297 OA
HETATM   12  C16 UNL     1      -0.200  47.270 -11.906  1.00  0.00     0.284 C 
HETATM   13  O4  UNL     1       0.574  46.801 -11.093  1.00  0.00    -0.260 OA
HETATM   14  C17 UNL     1       0.150  47.631 -13.280  1.00  0.00     0.089 C 
HETATM   15  C18 UNL     1      -0.956  48.142 -13.815  1.00  0.00    -0.029 C 
HETATM   16  C19 UNL     1      -1.282  48.352 -15.255  1.00  0.00     0.037 C 
HETATM   17  C20 UNL     1      -0.650  50.618 -16.203  1.00  0.00     0.014 C 
HETATM   18  C21 UNL     1       0.004  50.186 -17.513  1.00  0.00     0.010 C 
HETATM   19  C22 UNL     1      -0.960  50.099 -18.720  1.00  0.00     0.041 C 
HETATM   20  C23 UNL     1      -2.444  50.092 -18.324  1.00  0.00     0.095 C 
HETATM   21  C24 UNL     1      -3.198  49.488 -19.506  1.00  0.00     0.049 C 
HETATM   22  C25 UNL     1      -2.975  50.182 -20.873  1.00  0.00     0.025 C 
HETATM   23  C26 UNL     1      -2.979  49.091 -21.976  1.00  0.00     0.012 C 
HETATM   24  C27 UNL     1      -3.356  49.536 -23.419  1.00  0.00    -0.010 C 
HETATM   25  C35 UNL     1      -3.552  51.055 -23.592  1.00  0.00     0.005 C 
HETATM   26  C36 UNL     1      -2.270  51.875 -23.449  1.00  0.00     0.010 C 
HETATM   27  C37 UNL     1      -1.250  51.365 -22.411  1.00  0.00     0.050 C 
HETATM   28  C38 UNL     1       0.061  52.160 -22.556  1.00  0.00     0.125 C 
HETATM   29  C39 UNL     1       1.178  51.592 -21.683  1.00  0.00     0.033 C 
HETATM   30  C40 UNL     1       0.681  50.696 -20.543  1.00  0.00     0.023 C 
HETATM   31  C41 UNL     1      -0.647  51.138 -19.869  1.00  0.00     0.051 C 
HETATM   32  C43 UNL     1      -1.814  51.260 -20.948  1.00  0.00     0.082 C 
ENDROOT
BRANCH   1  33
HETATM   33  C5  UNL     1      -4.429  47.319 -12.346  1.00  0.00     0.306 C 
BRANCH  33  34
HETATM   34  N1  UNL     1      -5.678  47.088 -13.056  1.00  0.00     0.087 N 
HETATM   35  H10 UNL     1      -5.677  46.155 -13.474  1.00  0.00     0.316 HD
BRANCH  34  36
HETATM   36  C4  UNL     1      -6.848  47.243 -12.201  1.00  0.00     0.272 C 
BRANCH  36  37
HETATM   37  C3  UNL     1      -6.507  47.879 -10.846  1.00  0.00     0.056 C 
BRANCH  37  38
HETATM   38  C2  UNL     1      -6.918  49.343 -10.723  1.00  0.00     0.168 C 
BRANCH  38  39
HETATM   39  O1  UNL     1      -8.342  49.426 -10.708  1.00  0.00    -0.396 OA
HETATM   40  C1  UNL     1      -8.896  48.846  -9.536  1.00  0.00     0.201 C 
ENDBRANCH  38  39
ENDBRANCH  37  38
ENDBRANCH  36  37
ENDBRANCH  34  36
ENDBRANCH  33  34
ENDBRANCH   1  33
BRANCH   5  41
HETATM   41  O2  UNL     1      -4.142  49.732 -16.694  1.00  0.00    -0.386 OA
HETATM   42  H17 UNL     1      -4.755  49.090 -17.093  1.00  0.00     0.210 HD
ENDBRANCH   5  41
BRANCH  20  43
HETATM   43  O5  UNL     1      -2.921  51.443 -18.178  1.00  0.00    -0.386 OA
HETATM   44  H31 UNL     1      -3.650  51.378 -17.522  1.00  0.00     0.210 HD
ENDBRANCH  20  43
BRANCH  31  45
HETATM   45  C42 UNL     1      -0.413  52.516 -19.205  1.00  0.00     0.244 C 
HETATM   46  O7  UNL     1       0.634  53.159 -19.253  1.00  0.00    -0.306 OA
ENDBRANCH  31  45
BRANCH  32  47
HETATM   47  O8  UNL     1      -2.512  52.497 -20.671  1.00  0.00    -0.388 OA
HETATM   48  H63 UNL     1      -2.949  52.405 -19.798  1.00  0.00     0.210 HD
ENDBRANCH  32  47
BRANCH  24  49
HETATM   49  C28 UNL     1      -4.551  48.733 -24.048  1.00  0.00    -0.011 C 
HETATM   50  C29 UNL     1      -5.864  49.527 -23.931  1.00  0.00     0.011 C 
BRANCH  49  51
HETATM   51  C30 UNL     1      -4.284  48.151 -25.461  1.00  0.00    -0.010 C 
HETATM   52  C31 UNL     1      -5.544  48.065 -26.349  1.00  0.00     0.005 C 
HETATM   53  C32 UNL     1      -5.078  48.286 -27.788  1.00  0.00     0.000 C 
HETATM   54  C33 UNL     1      -3.560  48.324 -27.733  1.00  0.00     0.000 C 
HETATM   55  C34 UNL     1      -3.268  48.875 -26.345  1.00  0.00     0.005 C 
ENDBRANCH  49  51
ENDBRANCH  24  49
BRANCH  28  56
HETATM   56  O6  UNL     1      -0.113  53.553 -22.343  1.00  0.00    -0.395 OA
HETATM   57  H57 UNL     1      -0.216  53.707 -21.379  1.00  0.00     0.210 HD
ENDBRANCH  28  56
TORSDOF 13
ENDMDL
MODEL 9
REMARK minimizedAffinity -9.57919693
REMARK CNNscore 0.443054467
REMARK CNNaffinity 7.3960228
REMARK  13 active torsions:
REMARK  status: ('A' for Active; 'I' for Inactive)
REMARK    1  A    between atoms: O1_2  and  C2_3 
REMARK    2  A    between atoms: C2_3  and  C3_4 
REMARK    3  A    between atoms: C3_4  and  C4_5 
REMARK    4  A    between atoms: C4_5  and  N1_6 
REMARK    5  A    between atoms: N1_6  and  C5_7 
REMARK    6  A    between atoms: C5_7  and  C6_8 
REMARK    7  A    between atoms: C10_12  and  O2_13 
REMARK    8  A    between atoms: C23_28  and  O5_29 
REMARK    9  A    between atoms: C27_33  and  C28_34 
REMARK   10  A    between atoms: C28_34  and  C30_36 
REMARK   11  A    between atoms: C38_44  and  O6_45 
REMARK   12  A    between atoms: C41_48  and  C42_49 
REMARK   13  A    between atoms: C43_51  and  O8_52 
ROOT
HETATM    1  C6  UNL     1      -9.939  46.406 -21.831  1.00  0.00    -0.016 C 
HETATM    2  C7  UNL     1      -8.848  46.529 -22.632  1.00  0.00    -0.013 C 
HETATM    3  C8  UNL     1      -7.431  46.370 -22.124  1.00  0.00     0.021 C 
HETATM    4  C9  UNL     1      -6.388  47.348 -22.656  1.00  0.00     0.051 C 
HETATM    5  C10 UNL     1      -6.514  48.619 -21.797  1.00  0.00     0.098 C 
HETATM    6  C11 UNL     1      -7.172  48.144 -20.430  1.00  0.00     0.002 C 
HETATM    7  C12 UNL     1      -8.516  48.908 -20.181  1.00  0.00     0.013 C 
HETATM    8  C13 UNL     1      -9.381  48.408 -19.033  1.00  0.00     0.004 C 
HETATM    9  C14 UNL     1     -10.378  47.321 -19.442  1.00  0.00     0.048 C 
HETATM   10  C15 UNL     1      -9.824  46.176 -20.322  1.00  0.00     0.120 C 
HETATM   11  O3  UNL     1     -10.536  44.986 -19.946  1.00  0.00    -0.297 OA
HETATM   12  C16 UNL     1      -9.731  44.212 -19.167  1.00  0.00     0.284 C 
HETATM   13  O4  UNL     1     -10.073  43.217 -18.556  1.00  0.00    -0.260 OA
HETATM   14  C17 UNL     1      -8.364  44.730 -19.220  1.00  0.00     0.089 C 
HETATM   15  C18 UNL     1      -8.424  45.843 -19.948  1.00  0.00    -0.029 C 
HETATM   16  C19 UNL     1      -7.312  46.584 -20.609  1.00  0.00     0.037 C 
HETATM   17  C20 UNL     1      -6.240  48.417 -19.222  1.00  0.00     0.014 C 
HETATM   18  C21 UNL     1      -4.765  48.114 -19.474  1.00  0.00     0.010 C 
HETATM   19  C22 UNL     1      -4.150  48.855 -20.685  1.00  0.00     0.041 C 
HETATM   20  C23 UNL     1      -5.195  49.458 -21.634  1.00  0.00     0.095 C 
HETATM   21  C24 UNL     1      -4.489  49.662 -22.973  1.00  0.00     0.049 C 
HETATM   22  C25 UNL     1      -3.197  50.515 -22.930  1.00  0.00     0.025 C 
HETATM   23  C26 UNL     1      -2.196  49.930 -23.959  1.00  0.00     0.012 C 
HETATM   24  C27 UNL     1      -1.111  50.891 -24.527  1.00  0.00    -0.010 C 
HETATM   25  C35 UNL     1      -1.092  52.290 -23.881  1.00  0.00     0.005 C 
HETATM   26  C36 UNL     1      -0.638  52.303 -22.421  1.00  0.00     0.010 C 
HETATM   27  C37 UNL     1      -1.063  51.090 -21.568  1.00  0.00     0.050 C 
HETATM   28  C38 UNL     1      -0.340  51.150 -20.209  1.00  0.00     0.125 C 
HETATM   29  C39 UNL     1      -0.572  49.889 -19.379  1.00  0.00     0.033 C 
HETATM   30  C40 UNL     1      -1.787  49.067 -19.822  1.00  0.00     0.023 C 
HETATM   31  C41 UNL     1      -3.017  49.887 -20.300  1.00  0.00     0.051 C 
HETATM   32  C43 UNL     1      -2.615  50.862 -21.495  1.00  0.00     0.082 C 
ENDROOT
BRANCH   1  33
HETATM   33  C5  UNL     1     -11.328  46.436 -22.420  1.00  0.00     0.306 C 
BRANCH  33  34
HETATM   34  N1  UNL     1     -11.237  46.409 -23.871  1.00  0.00     0.087 N 
HETATM   35  H10 UNL     1     -10.421  45.866 -24.162  1.00  0.00     0.316 HD
BRANCH  34  36
HETATM   36  C4  UNL     1     -12.436  45.868 -24.500  1.00  0.00     0.272 C 
BRANCH  36  37
HETATM   37  C3  UNL     1     -12.896  46.701 -25.705  1.00  0.00     0.056 C 
BRANCH  37  38
HETATM   38  C2  UNL     1     -14.191  46.211 -26.346  1.00  0.00     0.168 C 
BRANCH  38  39
HETATM   39  O1  UNL     1     -14.253  46.687 -27.690  1.00  0.00    -0.396 OA
HETATM   40  C1  UNL     1     -14.575  45.651 -28.606  1.00  0.00     0.201 C 
ENDBRANCH  38  39
ENDBRANCH  37  38
ENDBRANCH  36  37
ENDBRANCH  34  36
ENDBRANCH  33  34
ENDBRANCH   1  33
BRANCH   5  41
HETATM   41  O2  UNL     1      -7.421  49.525 -22.478  1.00  0.00    -0.386 OA
HETATM   42  H17 UNL     1      -7.340  49.406 -23.440  1.00  0.00     0.210 HD
ENDBRANCH   5  41
BRANCH  20  43
HETATM   43  O5  UNL     1      -5.584  50.766 -21.171  1.00  0.00    -0.386 OA
HETATM   44  H31 UNL     1      -6.504  50.880 -21.498  1.00  0.00     0.210 HD
ENDBRANCH  20  43
BRANCH  31  45
HETATM   45  C42 UNL     1      -3.530  50.723 -19.104  1.00  0.00     0.244 C 
HETATM   46  O7  UNL     1      -2.937  51.671 -18.591  1.00  0.00    -0.306 OA
ENDBRANCH  31  45
BRANCH  32  47
HETATM   47  O8  UNL     1      -3.220  52.145 -21.209  1.00  0.00    -0.388 OA
HETATM   48  H63 UNL     1      -4.194  52.034 -21.256  1.00  0.00     0.210 HD
ENDBRANCH  32  47
BRANCH  24  49
HETATM   49  C28 UNL     1      -1.095  50.988 -26.095  1.00  0.00    -0.011 C 
HETATM   50  C29 UNL     1      -1.923  52.191 -26.576  1.00  0.00     0.011 C 
BRANCH  49  51
HETATM   51  C30 UNL     1       0.308  50.880 -26.748  1.00  0.00    -0.010 C 
HETATM   52  C31 UNL     1       0.414  51.584 -28.119  1.00  0.00     0.005 C 
HETATM   53  C32 UNL     1       1.848  52.102 -28.231  1.00  0.00     0.000 C 
HETATM   54  C33 UNL     1       2.586  51.551 -27.023  1.00  0.00     0.000 C 
HETATM   55  C34 UNL     1       1.499  51.432 -25.965  1.00  0.00     0.005 C 
ENDBRANCH  49  51
ENDBRANCH  24  49
BRANCH  28  56
HETATM   56  O6  UNL     1      -0.648  52.325 -19.473  1.00  0.00    -0.395 OA
HETATM   57  H57 UNL     1      -1.551  52.229 -19.101  1.00  0.00     0.210 HD
ENDBRANCH  28  56
TORSDOF 13
ENDMDL
