MODEL 1
REMARK minimizedAffinity -10.2723598
REMARK  5 active torsions:
REMARK  status: ('A' for Active; 'I' for Inactive)
REMARK    1  A    between atoms: C2_2  and  C3_3 
REMARK    2  A    between atoms: C2_2  and  C9_12 
REMARK    3  A    between atoms: C3_3  and  C4_4 
REMARK    4  A    between atoms: C6_6  and  C7_7 
REMARK    5  A    between atoms: C7_7  and  O1_8 
ROOT
HETATM    1  C9  UNL     1      -4.365   7.227  15.072  1.00  0.00    -0.002 C 
HETATM    2  C10 UNL     1      -3.880   5.941  15.804  1.00  0.00     0.007 C 
HETATM    3  C11 UNL     1      -2.545   5.520  15.161  1.00  0.00     0.015 C 
HETATM    4  C12 UNL     1      -2.122   6.729  14.303  1.00  0.00    -0.013 C 
HETATM    5  C13 UNL     1      -1.407   7.721  15.275  1.00  0.00     0.021 C 
HETATM    6  C14 UNL     1      -1.148   6.494  13.154  1.00  0.00    -0.070 C 
HETATM    7  C15 UNL     1      -0.219   5.528  13.195  1.00  0.00    -0.022 C 
HETATM    8  C16 UNL     1       0.835   5.326  12.163  1.00  0.00     0.034 C 
HETATM    9  C17 UNL     1       0.787   6.227  10.889  1.00  0.00     0.013 C 
HETATM   10  C18 UNL     1       2.217   6.249  10.213  1.00  0.00     0.018 C 
HETATM   11  C19 UNL     1       2.205   6.728   8.748  1.00  0.00     0.023 C 
HETATM   12  C20 UNL     1       2.838   4.828  10.179  1.00  0.00     0.023 C 
HETATM   13  C21 UNL     1       3.125   7.183  11.030  1.00  0.00     0.135 C 
HETATM   14  O4  UNL     1       4.304   6.907  11.255  1.00  0.00    -0.297 OA
HETATM   15  C22 UNL     1       2.565   8.528  11.458  1.00  0.00     0.080 C 
HETATM   16  C23 UNL     1       1.173   8.434  12.079  1.00  0.00     0.017 C 
HETATM   17  C24 UNL     1       0.163   7.644  11.213  1.00  0.00    -0.031 C 
HETATM   18  C25 UNL     1      -0.138   8.445   9.921  1.00  0.00     0.016 C 
HETATM   19  C26 UNL     1      -1.233   7.428  11.951  1.00  0.00     0.024 C 
HETATM   20  C27 UNL     1      -2.009   8.735  12.278  1.00  0.00     0.010 C 
HETATM   21  C28 UNL     1      -3.328   8.578  13.071  1.00  0.00     0.011 C 
HETATM   22  C29 UNL     1      -3.512   7.214  13.761  1.00  0.00    -0.029 C 
HETATM   23  C30 UNL     1      -4.166   6.218  12.753  1.00  0.00     0.016 C 
ENDROOT
BRANCH   1  24
HETATM   24  C2  UNL     1      -5.917   7.307  14.987  1.00  0.00    -0.011 C 
HETATM   25  C1  UNL     1      -6.452   8.727  15.196  1.00  0.00     0.010 C 
BRANCH  24  26
HETATM   26  C3  UNL     1      -6.623   6.304  15.947  1.00  0.00     0.041 C 
BRANCH  26  27
HETATM   27  C4  UNL     1      -7.750   5.462  15.331  1.00  0.00     0.156 A 
HETATM   28  C5  UNL     1      -7.268   4.151  14.840  1.00  0.00     0.021 A 
HETATM   29  C6  UNL     1      -7.433   4.036  13.523  1.00  0.00     0.039 A 
HETATM   30  C8  UNL     1      -8.047   5.285  13.072  1.00  0.00     0.291 A 
HETATM   31  O2  UNL     1      -8.337   5.551  11.921  1.00  0.00    -0.260 OA
HETATM   32  O3  UNL     1      -8.248   6.094  14.148  1.00  0.00    -0.308 OA
BRANCH  29  33
HETATM   33  C7  UNL     1      -7.143   2.946  12.571  1.00  0.00     0.208 C 
BRANCH  33  34
HETATM   34  O1  UNL     1      -8.124   1.920  12.691  1.00  0.00    -0.396 OA
HETATM   35  H11 UNL     1      -7.920   1.260  12.007  1.00  0.00     0.209 HD
ENDBRANCH  33  34
ENDBRANCH  29  33
ENDBRANCH  26  27
ENDBRANCH  24  26
ENDBRANCH   1  24
TORSDOF 5
ENDMDL
MODEL 2
REMARK minimizedAffinity -10.1940641
REMARK  5 active torsions:
REMARK  status: ('A' for Active; 'I' for Inactive)
REMARK    1  A    between atoms: C2_2  and  C3_3 
REMARK    2  A    between atoms: C2_2  and  C9_12 
REMARK    3  A    between atoms: C3_3  and  C4_4 
REMARK    4  A    between atoms: C6_6  and  C7_7 
REMARK    5  A    between atoms: C7_7  and  O1_8 
ROOT
HETATM    1  C9  UNL     1      -2.547   6.834  13.108  1.00  0.00    -0.002 C 
HETATM    2  C10 UNL     1      -2.417   8.024  14.104  1.00  0.00     0.007 C 
HETATM    3  C11 UNL     1      -0.984   8.577  13.978  1.00  0.00     0.015 C 
HETATM    4  C12 UNL     1      -0.419   7.920  12.703  1.00  0.00    -0.013 C 
HETATM    5  C13 UNL     1      -0.921   8.792  11.508  1.00  0.00     0.021 C 
HETATM    6  C14 UNL     1       1.095   7.830  12.547  1.00  0.00    -0.070 C 
HETATM    7  C15 UNL     1       1.921   8.743  13.079  1.00  0.00    -0.022 C 
HETATM    8  C16 UNL     1       3.394   8.778  12.861  1.00  0.00     0.034 C 
HETATM    9  C17 UNL     1       4.036   7.607  12.054  1.00  0.00     0.013 C 
HETATM   10  C18 UNL     1       5.435   8.075  11.483  1.00  0.00     0.018 C 
HETATM   11  C19 UNL     1       6.352   6.912  11.051  1.00  0.00     0.023 C 
HETATM   12  C20 UNL     1       6.239   8.860  12.554  1.00  0.00     0.023 C 
HETATM   13  C21 UNL     1       5.184   8.982  10.268  1.00  0.00     0.135 C 
HETATM   14  O4  UNL     1       5.855   9.996  10.066  1.00  0.00    -0.297 OA
HETATM   15  C22 UNL     1       4.158   8.534   9.243  1.00  0.00     0.080 C 
HETATM   16  C23 UNL     1       2.842   8.072   9.865  1.00  0.00     0.017 C 
HETATM   17  C24 UNL     1       3.025   7.023  10.988  1.00  0.00    -0.031 C 
HETATM   18  C25 UNL     1       3.545   5.700  10.369  1.00  0.00     0.016 C 
HETATM   19  C26 UNL     1       1.655   6.675  11.723  1.00  0.00     0.024 C 
HETATM   20  C27 UNL     1       0.572   6.024  10.817  1.00  0.00     0.010 C 
HETATM   21  C28 UNL     1      -0.804   5.748  11.469  1.00  0.00     0.011 C 
HETATM   22  C29 UNL     1      -1.053   6.489  12.795  1.00  0.00    -0.029 C 
HETATM   23  C30 UNL     1      -0.485   5.633  13.970  1.00  0.00     0.016 C 
ENDROOT
BRANCH   1  24
HETATM   24  C2  UNL     1      -3.505   5.726  13.635  1.00  0.00    -0.011 C 
HETATM   25  C1  UNL     1      -3.307   5.427  15.123  1.00  0.00     0.010 C 
BRANCH  24  26
HETATM   26  C3  UNL     1      -3.428   4.418  12.793  1.00  0.00     0.041 C 
BRANCH  26  27
HETATM   27  C4  UNL     1      -4.583   4.183  11.807  1.00  0.00     0.156 A 
HETATM   28  C5  UNL     1      -5.897   4.122  12.486  1.00  0.00     0.021 A 
HETATM   29  C6  UNL     1      -6.469   2.929  12.330  1.00  0.00     0.039 A 
HETATM   30  C8  UNL     1      -5.546   2.131  11.522  1.00  0.00     0.291 A 
HETATM   31  O2  UNL     1      -5.727   0.976  11.183  1.00  0.00    -0.260 OA
HETATM   32  O3  UNL     1      -4.463   2.890  11.205  1.00  0.00    -0.308 OA
BRANCH  29  33
HETATM   33  C7  UNL     1      -7.759   2.372  12.781  1.00  0.00     0.208 C 
BRANCH  33  34
HETATM   34  O1  UNL     1      -8.626   3.424  13.196  1.00  0.00    -0.396 OA
HETATM   35  H11 UNL     1      -9.474   3.010  13.426  1.00  0.00     0.209 HD
ENDBRANCH  33  34
ENDBRANCH  29  33
ENDBRANCH  26  27
ENDBRANCH  24  26
ENDBRANCH   1  24
TORSDOF 5
ENDMDL
MODEL 3
REMARK minimizedAffinity -9.91231441
REMARK  5 active torsions:
REMARK  status: ('A' for Active; 'I' for Inactive)
REMARK    1  A    between atoms: C2_2  and  C3_3 
REMARK    2  A    between atoms: C2_2  and  C9_12 
REMARK    3  A    between atoms: C3_3  and  C4_4 
REMARK    4  A    between atoms: C6_6  and  C7_7 
REMARK    5  A    between atoms: C7_7  and  O1_8 
ROOT
HETATM    1  C9  UNL     1      -1.278   5.459  11.718  1.00  0.00    -0.002 C 
HETATM    2  C10 UNL     1      -1.956   6.649  12.459  1.00  0.00     0.007 C 
HETATM    3  C11 UNL     1      -0.863   7.695  12.749  1.00  0.00     0.015 C 
HETATM    4  C12 UNL     1       0.344   7.250  11.900  1.00  0.00    -0.013 C 
HETATM    5  C13 UNL     1       0.099   7.820  10.467  1.00  0.00     0.021 C 
HETATM    6  C14 UNL     1       1.732   7.731  12.310  1.00  0.00    -0.070 C 
HETATM    7  C15 UNL     1       1.925   8.908  12.922  1.00  0.00    -0.022 C 
HETATM    8  C16 UNL     1       3.260   9.487  13.237  1.00  0.00     0.034 C 
HETATM    9  C17 UNL     1       4.519   8.614  12.939  1.00  0.00     0.013 C 
HETATM   10  C18 UNL     1       5.788   9.552  12.825  1.00  0.00     0.018 C 
HETATM   11  C19 UNL     1       7.129   8.804  12.966  1.00  0.00     0.023 C 
HETATM   12  C20 UNL     1       5.790  10.624  13.947  1.00  0.00     0.023 C 
HETATM   13  C21 UNL     1       5.754  10.248  11.455  1.00  0.00     0.135 C 
HETATM   14  O4  UNL     1       6.072  11.431  11.320  1.00  0.00    -0.297 OA
HETATM   15  C22 UNL     1       5.431   9.406  10.234  1.00  0.00     0.080 C 
HETATM   16  C23 UNL     1       4.211   8.507  10.424  1.00  0.00     0.017 C 
HETATM   17  C24 UNL     1       4.270   7.650  11.710  1.00  0.00    -0.031 C 
HETATM   18  C25 UNL     1       5.399   6.598  11.570  1.00  0.00     0.016 C 
HETATM   19  C26 UNL     1       2.920   6.840  11.964  1.00  0.00     0.024 C 
HETATM   20  C27 UNL     1       2.570   5.794  10.869  1.00  0.00     0.010 C 
HETATM   21  C28 UNL     1       1.225   5.046  11.031  1.00  0.00     0.011 C 
HETATM   22  C29 UNL     1       0.239   5.690  12.023  1.00  0.00    -0.029 C 
HETATM   23  C30 UNL     1       0.543   5.160  13.459  1.00  0.00     0.016 C 
ENDROOT
BRANCH   1  24
HETATM   24  C2  UNL     1      -1.939   4.094  12.065  1.00  0.00    -0.011 C 
HETATM   25  C1  UNL     1      -2.002   3.141  10.868  1.00  0.00     0.010 C 
BRANCH  24  26
HETATM   26  C3  UNL     1      -3.346   4.258  12.715  1.00  0.00     0.041 C 
BRANCH  26  27
HETATM   27  C4  UNL     1      -4.546   4.105  11.769  1.00  0.00     0.156 A 
HETATM   28  C5  UNL     1      -5.838   4.131  12.492  1.00  0.00     0.021 A 
HETATM   29  C6  UNL     1      -6.494   2.979  12.354  1.00  0.00     0.039 A 
HETATM   30  C8  UNL     1      -5.655   2.123  11.514  1.00  0.00     0.291 A 
HETATM   31  O2  UNL     1      -5.924   0.985  11.180  1.00  0.00    -0.260 OA
HETATM   32  O3  UNL     1      -4.534   2.809  11.161  1.00  0.00    -0.308 OA
BRANCH  29  33
HETATM   33  C7  UNL     1      -7.803   2.509  12.848  1.00  0.00     0.208 C 
BRANCH  33  34
HETATM   34  O1  UNL     1      -8.630   3.623  13.171  1.00  0.00    -0.396 OA
HETATM   35  H11 UNL     1      -9.493   3.261  13.434  1.00  0.00     0.209 HD
ENDBRANCH  33  34
ENDBRANCH  29  33
ENDBRANCH  26  27
ENDBRANCH  24  26
ENDBRANCH   1  24
TORSDOF 5
ENDMDL
MODEL 4
REMARK minimizedAffinity -9.70107079
REMARK  5 active torsions:
REMARK  status: ('A' for Active; 'I' for Inactive)
REMARK    1  A    between atoms: C2_2  and  C3_3 
REMARK    2  A    between atoms: C2_2  and  C9_12 
REMARK    3  A    between atoms: C3_3  and  C4_4 
REMARK    4  A    between atoms: C6_6  and  C7_7 
REMARK    5  A    between atoms: C7_7  and  O1_8 
ROOT
HETATM    1  C9  UNL     1      -2.486   6.421  13.292  1.00  0.00    -0.002 C 
HETATM    2  C10 UNL     1      -2.339   7.543  14.363  1.00  0.00     0.007 C 
HETATM    3  C11 UNL     1      -0.922   8.130  14.224  1.00  0.00     0.015 C 
HETATM    4  C12 UNL     1      -0.393   7.573  12.887  1.00  0.00    -0.013 C 
HETATM    5  C13 UNL     1      -0.955   8.515  11.774  1.00  0.00     0.021 C 
HETATM    6  C14 UNL     1       1.115   7.523  12.670  1.00  0.00    -0.070 C 
HETATM    7  C15 UNL     1       1.944   8.413  13.233  1.00  0.00    -0.022 C 
HETATM    8  C16 UNL     1       3.407   8.491  12.965  1.00  0.00     0.034 C 
HETATM    9  C17 UNL     1       4.039   7.391  12.056  1.00  0.00     0.013 C 
HETATM   10  C18 UNL     1       5.407   7.924  11.468  1.00  0.00     0.018 C 
HETATM   11  C19 UNL     1       6.326   6.812  10.924  1.00  0.00     0.023 C 
HETATM   12  C20 UNL     1       6.237   8.650  12.561  1.00  0.00     0.023 C 
HETATM   13  C21 UNL     1       5.095   8.907  10.328  1.00  0.00     0.135 C 
HETATM   14  O4  UNL     1       5.740   9.945  10.172  1.00  0.00    -0.297 OA
HETATM   15  C22 UNL     1       4.039   8.510   9.313  1.00  0.00     0.080 C 
HETATM   16  C23 UNL     1       2.755   7.982   9.949  1.00  0.00     0.017 C 
HETATM   17  C24 UNL     1       2.997   6.862  10.989  1.00  0.00    -0.031 C 
HETATM   18  C25 UNL     1       3.516   5.595  10.263  1.00  0.00     0.016 C 
HETATM   19  C26 UNL     1       1.662   6.438  11.749  1.00  0.00     0.024 C 
HETATM   20  C27 UNL     1       0.558   5.830  10.839  1.00  0.00     0.010 C 
HETATM   21  C28 UNL     1      -0.788   5.483  11.520  1.00  0.00     0.011 C 
HETATM   22  C29 UNL     1      -1.000   6.127  12.902  1.00  0.00    -0.029 C 
HETATM   23  C30 UNL     1      -0.374   5.204  13.994  1.00  0.00     0.016 C 
ENDROOT
BRANCH   1  24
HETATM   24  C2  UNL     1      -3.405   5.262  13.776  1.00  0.00    -0.011 C 
HETATM   25  C1  UNL     1      -3.700   4.238  12.676  1.00  0.00     0.010 C 
BRANCH  24  26
HETATM   26  C3  UNL     1      -4.727   5.774  14.422  1.00  0.00     0.041 C 
BRANCH  26  27
HETATM   27  C4  UNL     1      -5.789   6.307  13.449  1.00  0.00     0.156 A 
HETATM   28  C5  UNL     1      -6.829   7.107  14.136  1.00  0.00     0.021 A 
HETATM   29  C6  UNL     1      -8.031   6.545  14.017  1.00  0.00     0.039 A 
HETATM   30  C8  UNL     1      -7.842   5.327  13.227  1.00  0.00     0.291 A 
HETATM   31  O2  UNL     1      -8.721   4.543  12.923  1.00  0.00    -0.260 OA
HETATM   32  O3  UNL     1      -6.530   5.220  12.883  1.00  0.00    -0.308 OA
BRANCH  29  33
HETATM   33  C7  UNL     1      -9.372   6.942  14.489  1.00  0.00     0.208 C 
BRANCH  33  34
HETATM   34  O1  UNL     1      -9.556   6.523  15.838  1.00  0.00    -0.396 OA
HETATM   35  H11 UNL     1     -10.425   6.858  16.117  1.00  0.00     0.209 HD
ENDBRANCH  33  34
ENDBRANCH  29  33
ENDBRANCH  26  27
ENDBRANCH  24  26
ENDBRANCH   1  24
TORSDOF 5
ENDMDL
MODEL 5
REMARK minimizedAffinity -9.58588505
REMARK  5 active torsions:
REMARK  status: ('A' for Active; 'I' for Inactive)
REMARK    1  A    between atoms: C2_2  and  C3_3 
REMARK    2  A    between atoms: C2_2  and  C9_12 
REMARK    3  A    between atoms: C3_3  and  C4_4 
REMARK    4  A    between atoms: C6_6  and  C7_7 
REMARK    5  A    between atoms: C7_7  and  O1_8 
ROOT
HETATM    1  C9  UNL     1      -0.090   7.779  13.230  1.00  0.00    -0.002 C 
HETATM    2  C10 UNL     1      -0.035   9.169  13.931  1.00  0.00     0.007 C 
HETATM    3  C11 UNL     1      -1.440   9.460  14.491  1.00  0.00     0.015 C 
HETATM    4  C12 UNL     1      -2.190   8.117  14.392  1.00  0.00    -0.013 C 
HETATM    5  C13 UNL     1      -1.789   7.303  15.664  1.00  0.00     0.021 C 
HETATM    6  C14 UNL     1      -3.715   8.141  14.374  1.00  0.00    -0.070 C 
HETATM    7  C15 UNL     1      -4.419   9.091  15.005  1.00  0.00    -0.022 C 
HETATM    8  C16 UNL     1      -5.903   9.102  15.126  1.00  0.00     0.034 C 
HETATM    9  C17 UNL     1      -6.701   7.995  14.370  1.00  0.00     0.013 C 
HETATM   10  C18 UNL     1      -8.132   7.843  15.028  1.00  0.00     0.018 C 
HETATM   11  C19 UNL     1      -9.155   7.117  14.132  1.00  0.00     0.023 C 
HETATM   12  C20 UNL     1      -8.756   9.232  15.328  1.00  0.00     0.023 C 
HETATM   13  C21 UNL     1      -7.981   7.057  16.341  1.00  0.00     0.135 C 
HETATM   14  O4  UNL     1      -8.615   7.358  17.353  1.00  0.00    -0.297 OA
HETATM   15  C22 UNL     1      -7.112   5.812  16.331  1.00  0.00     0.080 C 
HETATM   16  C23 UNL     1      -5.757   6.024  15.659  1.00  0.00     0.017 C 
HETATM   17  C24 UNL     1      -5.859   6.661  14.252  1.00  0.00    -0.031 C 
HETATM   18  C25 UNL     1      -6.521   5.650  13.282  1.00  0.00     0.016 C 
HETATM   19  C26 UNL     1      -4.431   7.013  13.639  1.00  0.00     0.024 C 
HETATM   20  C27 UNL     1      -3.503   5.790  13.396  1.00  0.00     0.010 C 
HETATM   21  C28 UNL     1      -2.075   6.093  12.883  1.00  0.00     0.011 C 
HETATM   22  C29 UNL     1      -1.628   7.557  13.040  1.00  0.00    -0.029 C 
HETATM   23  C30 UNL     1      -2.095   8.369  11.791  1.00  0.00     0.016 C 
ENDROOT
BRANCH   1  24
HETATM   24  C2  UNL     1       0.863   7.699  12.003  1.00  0.00    -0.011 C 
HETATM   25  C1  UNL     1       0.142   7.293  10.715  1.00  0.00     0.010 C 
BRANCH  24  26
HETATM   26  C3  UNL     1       2.094   6.780  12.260  1.00  0.00     0.041 C 
BRANCH  26  27
HETATM   27  C4  UNL     1       3.269   6.941  11.284  1.00  0.00     0.156 A 
HETATM   28  C5  UNL     1       3.033   8.016  10.293  1.00  0.00     0.021 A 
HETATM   29  C6  UNL     1       2.999   7.532   9.052  1.00  0.00     0.039 A 
HETATM   30  C8  UNL     1       3.220   6.090   9.163  1.00  0.00     0.291 A 
HETATM   31  O2  UNL     1       3.244   5.308   8.231  1.00  0.00    -0.260 OA
HETATM   32  O3  UNL     1       3.402   5.768  10.473  1.00  0.00    -0.308 OA
BRANCH  29  33
HETATM   33  C7  UNL     1       2.818   8.172   7.734  1.00  0.00     0.208 C 
BRANCH  33  34
HETATM   34  O1  UNL     1       3.462   9.443   7.718  1.00  0.00    -0.396 OA
HETATM   35  H11 UNL     1       3.363   9.793   6.816  1.00  0.00     0.209 HD
ENDBRANCH  33  34
ENDBRANCH  29  33
ENDBRANCH  26  27
ENDBRANCH  24  26
ENDBRANCH   1  24
TORSDOF 5
ENDMDL
MODEL 6
REMARK minimizedAffinity -8.93104267
REMARK  5 active torsions:
REMARK  status: ('A' for Active; 'I' for Inactive)
REMARK    1  A    between atoms: C2_2  and  C3_3 
REMARK    2  A    between atoms: C2_2  and  C9_12 
REMARK    3  A    between atoms: C3_3  and  C4_4 
REMARK    4  A    between atoms: C6_6  and  C7_7 
REMARK    5  A    between atoms: C7_7  and  O1_8 
ROOT
HETATM    1  C9  UNL     1      -3.164   6.594  13.696  1.00  0.00    -0.002 C 
HETATM    2  C10 UNL     1      -2.899   5.682  12.461  1.00  0.00     0.007 C 
HETATM    3  C11 UNL     1      -1.446   5.924  12.012  1.00  0.00     0.015 C 
HETATM    4  C12 UNL     1      -0.802   6.714  13.169  1.00  0.00    -0.013 C 
HETATM    5  C13 UNL     1      -0.360   5.650  14.225  1.00  0.00     0.021 C 
HETATM    6  C14 UNL     1       0.439   7.548  12.872  1.00  0.00    -0.070 C 
HETATM    7  C15 UNL     1       1.316   7.204  11.918  1.00  0.00    -0.022 C 
HETATM    8  C16 UNL     1       2.603   7.908  11.661  1.00  0.00     0.034 C 
HETATM    9  C17 UNL     1       2.899   9.202  12.481  1.00  0.00     0.013 C 
HETATM   10  C18 UNL     1       4.457   9.478  12.473  1.00  0.00     0.018 C 
HETATM   11  C19 UNL     1       4.836  10.921  12.861  1.00  0.00     0.023 C 
HETATM   12  C20 UNL     1       5.054   9.259  11.057  1.00  0.00     0.023 C 
HETATM   13  C21 UNL     1       5.126   8.510  13.463  1.00  0.00     0.135 C 
HETATM   14  O4  UNL     1       6.202   7.966  13.211  1.00  0.00    -0.297 OA
HETATM   15  C22 UNL     1       4.484   8.329  14.827  1.00  0.00     0.080 C 
HETATM   16  C23 UNL     1       2.977   8.092  14.760  1.00  0.00     0.017 C 
HETATM   17  C24 UNL     1       2.224   9.143  13.910  1.00  0.00    -0.031 C 
HETATM   18  C25 UNL     1       2.281  10.515  14.627  1.00  0.00     0.016 C 
HETATM   19  C26 UNL     1       0.681   8.786  13.729  1.00  0.00     0.024 C 
HETATM   20  C27 UNL     1      -0.142   8.757  15.047  1.00  0.00     0.010 C 
HETATM   21  C28 UNL     1      -1.625   8.331  14.928  1.00  0.00     0.011 C 
HETATM   22  C29 UNL     1      -1.995   7.631  13.608  1.00  0.00    -0.029 C 
HETATM   23  C30 UNL     1      -2.369   8.712  12.547  1.00  0.00     0.016 C 
ENDROOT
BRANCH   1  24
HETATM   24  C2  UNL     1      -4.638   7.090  13.757  1.00  0.00    -0.011 C 
HETATM   25  C1  UNL     1      -5.126   7.330  15.189  1.00  0.00     0.010 C 
BRANCH  24  26
HETATM   26  C3  UNL     1      -5.618   6.154  12.989  1.00  0.00     0.041 C 
BRANCH  26  27
HETATM   27  C4  UNL     1      -5.842   4.764  13.604  1.00  0.00     0.156 A 
HETATM   28  C5  UNL     1      -5.334   3.677  12.736  1.00  0.00     0.021 A 
HETATM   29  C6  UNL     1      -6.319   2.873  12.339  1.00  0.00     0.039 A 
HETATM   30  C8  UNL     1      -7.547   3.396  12.939  1.00  0.00     0.291 A 
HETATM   31  O2  UNL     1      -8.659   2.924  12.790  1.00  0.00    -0.260 OA
HETATM   32  O3  UNL     1      -7.243   4.485  13.696  1.00  0.00    -0.308 OA
BRANCH  29  33
HETATM   33  C7  UNL     1      -6.342   1.659  11.500  1.00  0.00     0.208 C 
BRANCH  33  34
HETATM   34  O1  UNL     1      -5.011   1.211  11.256  1.00  0.00    -0.396 OA
HETATM   35  H11 UNL     1      -5.085   0.383  10.753  1.00  0.00     0.209 HD
ENDBRANCH  33  34
ENDBRANCH  29  33
ENDBRANCH  26  27
ENDBRANCH  24  26
ENDBRANCH   1  24
TORSDOF 5
ENDMDL
MODEL 7
REMARK minimizedAffinity -8.91143703
REMARK  5 active torsions:
REMARK  status: ('A' for Active; 'I' for Inactive)
REMARK    1  A    between atoms: C2_2  and  C3_3 
REMARK    2  A    between atoms: C2_2  and  C9_12 
REMARK    3  A    between atoms: C3_3  and  C4_4 
REMARK    4  A    between atoms: C6_6  and  C7_7 
REMARK    5  A    between atoms: C7_7  and  O1_8 
ROOT
HETATM    1  C9  UNL     1      -6.068   7.251  13.959  1.00  0.00    -0.002 C 
HETATM    2  C10 UNL     1      -6.367   8.428  14.935  1.00  0.00     0.007 C 
HETATM    3  C11 UNL     1      -5.013   8.999  15.396  1.00  0.00     0.015 C 
HETATM    4  C12 UNL     1      -3.974   8.369  14.447  1.00  0.00    -0.013 C 
HETATM    5  C13 UNL     1      -3.974   9.253  13.159  1.00  0.00     0.021 C 
HETATM    6  C14 UNL     1      -2.522   8.299  14.907  1.00  0.00    -0.070 C 
HETATM    7  C15 UNL     1      -1.993   9.214  15.732  1.00  0.00    -0.022 C 
HETATM    8  C16 UNL     1      -0.557   9.270  16.120  1.00  0.00     0.034 C 
HETATM    9  C17 UNL     1       0.375   8.120  15.626  1.00  0.00     0.013 C 
HETATM   10  C18 UNL     1       1.877   8.613  15.665  1.00  0.00     0.018 C 
HETATM   11  C19 UNL     1       2.909   7.469  15.624  1.00  0.00     0.023 C 
HETATM   12  C20 UNL     1       2.173   9.392  16.974  1.00  0.00     0.023 C 
HETATM   13  C21 UNL     1       2.116   9.536  14.458  1.00  0.00     0.135 C 
HETATM   14  O4  UNL     1       2.794  10.561  14.549  1.00  0.00    -0.297 OA
HETATM   15  C22 UNL     1       1.592   9.091  13.105  1.00  0.00     0.080 C 
HETATM   16  C23 UNL     1       0.145   8.604  13.146  1.00  0.00     0.017 C 
HETATM   17  C24 UNL     1      -0.118   7.540  14.239  1.00  0.00    -0.031 C 
HETATM   18  C25 UNL     1       0.629   6.233  13.868  1.00  0.00     0.016 C 
HETATM   19  C26 UNL     1      -1.661   7.164  14.364  1.00  0.00     0.024 C 
HETATM   20  C27 UNL     1      -2.281   6.514  13.095  1.00  0.00     0.010 C 
HETATM   21  C28 UNL     1      -3.798   6.211  13.142  1.00  0.00     0.011 C 
HETATM   22  C29 UNL     1      -4.568   6.929  14.265  1.00  0.00    -0.029 C 
HETATM   23  C30 UNL     1      -4.501   6.063  15.561  1.00  0.00     0.016 C 
ENDROOT
BRANCH   1  24
HETATM   24  C2  UNL     1      -7.138   6.124  14.050  1.00  0.00    -0.011 C 
HETATM   25  C1  UNL     1      -7.114   5.388  15.392  1.00  0.00     0.010 C 
BRANCH  24  26
HETATM   26  C3  UNL     1      -7.049   5.116  12.865  1.00  0.00     0.041 C 
BRANCH  26  27
HETATM   27  C4  UNL     1      -6.454   3.740  13.197  1.00  0.00     0.156 A 
HETATM   28  C5  UNL     1      -5.004   3.669  12.906  1.00  0.00     0.021 A 
HETATM   29  C6  UNL     1      -4.741   2.762  11.966  1.00  0.00     0.039 A 
HETATM   30  C8  UNL     1      -6.026   2.175  11.587  1.00  0.00     0.291 A 
HETATM   31  O2  UNL     1      -6.184   1.313  10.742  1.00  0.00    -0.260 OA
HETATM   32  O3  UNL     1      -7.011   2.741  12.336  1.00  0.00    -0.308 OA
BRANCH  29  33
HETATM   33  C7  UNL     1      -3.483   2.302  11.346  1.00  0.00     0.208 C 
BRANCH  33  34
HETATM   34  O1  UNL     1      -3.346   0.893  11.512  1.00  0.00    -0.396 OA
HETATM   35  H11 UNL     1      -2.537   0.636  11.039  1.00  0.00     0.209 HD
ENDBRANCH  33  34
ENDBRANCH  29  33
ENDBRANCH  26  27
ENDBRANCH  24  26
ENDBRANCH   1  24
TORSDOF 5
ENDMDL
MODEL 8
REMARK minimizedAffinity -8.91140747
REMARK  5 active torsions:
REMARK  status: ('A' for Active; 'I' for Inactive)
REMARK    1  A    between atoms: C2_2  and  C3_3 
REMARK    2  A    between atoms: C2_2  and  C9_12 
REMARK    3  A    between atoms: C3_3  and  C4_4 
REMARK    4  A    between atoms: C6_6  and  C7_7 
REMARK    5  A    between atoms: C7_7  and  O1_8 
ROOT
HETATM    1  C9  UNL     1       0.298   8.264  13.712  1.00  0.00    -0.002 C 
HETATM    2  C10 UNL     1       0.625   7.526  12.380  1.00  0.00     0.007 C 
HETATM    3  C11 UNL     1      -0.616   6.699  11.994  1.00  0.00     0.015 C 
HETATM    4  C12 UNL     1      -1.737   7.216  12.918  1.00  0.00    -0.013 C 
HETATM    5  C13 UNL     1      -2.307   8.498  12.231  1.00  0.00     0.021 C 
HETATM    6  C14 UNL     1      -2.937   6.310  13.174  1.00  0.00    -0.070 C 
HETATM    7  C15 UNL     1      -3.372   5.430  12.261  1.00  0.00    -0.022 C 
HETATM    8  C16 UNL     1      -4.605   4.607  12.402  1.00  0.00     0.034 C 
HETATM    9  C17 UNL     1      -5.382   4.689  13.752  1.00  0.00     0.013 C 
HETATM   10  C18 UNL     1      -6.872   4.207  13.526  1.00  0.00     0.018 C 
HETATM   11  C19 UNL     1      -7.609   3.830  14.826  1.00  0.00     0.023 C 
HETATM   12  C20 UNL     1      -6.916   2.935  12.639  1.00  0.00     0.023 C 
HETATM   13  C21 UNL     1      -7.647   5.339  12.831  1.00  0.00     0.135 C 
HETATM   14  O4  UNL     1      -8.463   5.112  11.936  1.00  0.00    -0.297 OA
HETATM   15  C22 UNL     1      -7.473   6.752  13.359  1.00  0.00     0.080 C 
HETATM   16  C23 UNL     1      -6.012   7.140  13.578  1.00  0.00     0.017 C 
HETATM   17  C24 UNL     1      -5.220   6.113  14.422  1.00  0.00    -0.031 C 
HETATM   18  C25 UNL     1      -5.756   6.127  15.876  1.00  0.00     0.016 C 
HETATM   19  C26 UNL     1      -3.667   6.462  14.504  1.00  0.00     0.024 C 
HETATM   20  C27 UNL     1      -3.336   7.810  15.204  1.00  0.00     0.010 C 
HETATM   21  C28 UNL     1      -1.847   8.230  15.230  1.00  0.00     0.011 C 
HETATM   22  C29 UNL     1      -0.941   7.470  14.244  1.00  0.00    -0.029 C 
HETATM   23  C30 UNL     1      -0.436   6.160  14.925  1.00  0.00     0.016 C 
ENDROOT
BRANCH   1  24
HETATM   24  C2  UNL     1       1.554   8.437  14.614  1.00  0.00    -0.011 C 
HETATM   25  C1  UNL     1       1.995   9.897  14.747  1.00  0.00     0.010 C 
BRANCH  24  26
HETATM   26  C3  UNL     1       2.744   7.539  14.162  1.00  0.00     0.041 C 
BRANCH  26  27
HETATM   27  C4  UNL     1       3.930   8.270  13.515  1.00  0.00     0.156 A 
HETATM   28  C5  UNL     1       4.347   7.644  12.240  1.00  0.00     0.021 A 
HETATM   29  C6  UNL     1       5.595   7.180  12.312  1.00  0.00     0.039 A 
HETATM   30  C8  UNL     1       6.073   7.488  13.660  1.00  0.00     0.291 A 
HETATM   31  O2  UNL     1       7.172   7.204  14.099  1.00  0.00    -0.260 OA
HETATM   32  O3  UNL     1       5.095   8.147  14.339  1.00  0.00    -0.308 OA
BRANCH  29  33
HETATM   33  C7  UNL     1       6.468   6.505  11.333  1.00  0.00     0.208 C 
BRANCH  33  34
HETATM   34  O1  UNL     1       5.743   5.480  10.659  1.00  0.00    -0.396 OA
HETATM   35  H11 UNL     1       6.343   5.109   9.990  1.00  0.00     0.209 HD
ENDBRANCH  33  34
ENDBRANCH  29  33
ENDBRANCH  26  27
ENDBRANCH  24  26
ENDBRANCH   1  24
TORSDOF 5
ENDMDL
MODEL 9
REMARK minimizedAffinity -8.7651701
REMARK  5 active torsions:
REMARK  status: ('A' for Active; 'I' for Inactive)
REMARK    1  A    between atoms: C2_2  and  C3_3 
REMARK    2  A    between atoms: C2_2  and  C9_12 
REMARK    3  A    between atoms: C3_3  and  C4_4 
REMARK    4  A    between atoms: C6_6  and  C7_7 
REMARK    5  A    between atoms: C7_7  and  O1_8 
ROOT
HETATM    1  C9  UNL     1      -4.073   6.641  13.023  1.00  0.00    -0.002 C 
HETATM    2  C10 UNL     1      -5.105   7.777  13.290  1.00  0.00     0.007 C 
HETATM    3  C11 UNL     1      -4.383   8.878  14.089  1.00  0.00     0.015 C 
HETATM    4  C12 UNL     1      -2.887   8.518  13.994  1.00  0.00    -0.013 C 
HETATM    5  C13 UNL     1      -2.388   9.100  12.632  1.00  0.00     0.021 C 
HETATM    6  C14 UNL     1      -1.941   9.070  15.055  1.00  0.00    -0.070 C 
HETATM    7  C15 UNL     1      -2.162  10.244  15.662  1.00  0.00    -0.022 C 
HETATM    8  C16 UNL     1      -1.218  10.892  16.615  1.00  0.00     0.034 C 
HETATM    9  C17 UNL     1       0.062  10.098  17.023  1.00  0.00     0.013 C 
HETATM   10  C18 UNL     1       1.150  11.108  17.568  1.00  0.00     0.018 C 
HETATM   11  C19 UNL     1       2.265  10.436  18.393  1.00  0.00     0.023 C 
HETATM   12  C20 UNL     1       0.509  12.158  18.515  1.00  0.00     0.023 C 
HETATM   13  C21 UNL     1       1.789  11.827  16.369  1.00  0.00     0.135 C 
HETATM   14  O4  UNL     1       2.061  13.028  16.402  1.00  0.00    -0.297 OA
HETATM   15  C22 UNL     1       2.194  10.990  15.168  1.00  0.00     0.080 C 
HETATM   16  C23 UNL     1       1.106  10.020  14.712  1.00  0.00     0.017 C 
HETATM   17  C24 UNL     1       0.540   9.144  15.856  1.00  0.00    -0.031 C 
HETATM   18  C25 UNL     1       1.638   8.161  16.334  1.00  0.00     0.016 C 
HETATM   19  C26 UNL     1      -0.696   8.255  15.386  1.00  0.00     0.024 C 
HETATM   20  C27 UNL     1      -0.368   7.210  14.282  1.00  0.00     0.010 C 
HETATM   21  C28 UNL     1      -1.557   6.384  13.735  1.00  0.00     0.011 C 
HETATM   22  C29 UNL     1      -2.949   6.953  14.065  1.00  0.00    -0.029 C 
HETATM   23  C30 UNL     1      -3.401   6.414  15.459  1.00  0.00     0.016 C 
ENDROOT
BRANCH   1  24
HETATM   24  C2  UNL     1      -4.738   5.234  12.997  1.00  0.00    -0.011 C 
HETATM   25  C1  UNL     1      -5.719   5.018  14.152  1.00  0.00     0.010 C 
BRANCH  24  26
HETATM   26  C3  UNL     1      -3.695   4.079  12.934  1.00  0.00     0.041 C 
BRANCH  26  27
HETATM   27  C4  UNL     1      -3.107   3.777  11.548  1.00  0.00     0.156 A 
HETATM   28  C5  UNL     1      -2.975   2.324  11.298  1.00  0.00     0.021 A 
HETATM   29  C6  UNL     1      -1.700   1.975  11.125  1.00  0.00     0.039 A 
HETATM   30  C8  UNL     1      -0.915   3.204  11.250  1.00  0.00     0.291 A 
HETATM   31  O2  UNL     1       0.296   3.276  11.161  1.00  0.00    -0.260 OA
HETATM   32  O3  UNL     1      -1.758   4.249  11.470  1.00  0.00    -0.308 OA
BRANCH  29  33
HETATM   33  C7  UNL     1      -1.048   0.684  10.835  1.00  0.00     0.208 C 
BRANCH  33  34
HETATM   34  O1  UNL     1      -0.463   0.715   9.536  1.00  0.00    -0.396 OA
HETATM   35  H11 UNL     1      -0.001  -0.132   9.420  1.00  0.00     0.209 HD
ENDBRANCH  33  34
ENDBRANCH  29  33
ENDBRANCH  26  27
ENDBRANCH  24  26
ENDBRANCH   1  24
TORSDOF 5
ENDMDL
