MODEL 1
REMARK minimizedAffinity -5.03840256
REMARK CNNscore 0.449347019
REMARK CNNaffinity 4.93608284
REMARK  11 active torsions:
REMARK  status: ('A' for Active; 'I' for Inactive)
REMARK    1  A    between atoms: C2_2  and  O1_3 
REMARK    2  A    between atoms: O1_3  and  C3_4 
REMARK    3  A    between atoms: C3_4  and  C4_6 
REMARK    4  A    between atoms: N1_9  and  C7_10 
REMARK    5  A    between atoms: C7_10  and  C8_11 
REMARK    6  A    between atoms: C8_11  and  N2_12 
REMARK    7  A    between atoms: C15_20  and  C16_21 
REMARK    8  A    between atoms: C16_21  and  O5_23 
REMARK    9  A    between atoms: O5_23  and  C17_24 
REMARK   10  A    between atoms: C19_26  and  C20_27 
REMARK   11  A    between atoms: C25_32  and  C26_33 
ROOT
HETATM    1  C4  UNL     1     -14.196   4.158  24.394  1.00  0.00     0.052 A 
HETATM    2  C5  UNL     1     -15.038   3.596  25.293  1.00  0.00     0.021 A 
HETATM    3  C6  UNL     1     -15.200   2.087  25.362  1.00  0.00     0.069 C 
HETATM    4  N1  UNL     1     -15.793   4.408  26.194  1.00  0.00    -0.351 N 
HETATM    5  C13 UNL     1     -15.603   5.826  26.199  1.00  0.00     0.021 A 
HETATM    6  C14 UNL     1     -16.351   6.650  27.236  1.00  0.00     0.069 C 
HETATM    7  C15 UNL     1     -14.780   6.424  25.301  1.00  0.00     0.052 A 
HETATM    8  C19 UNL     1     -14.021   5.651  24.235  1.00  0.00     0.101 A 
ENDROOT
BRANCH   8   9
HETATM    9  C20 UNL     1     -14.419   6.127  22.821  1.00  0.00    -0.030 A 
HETATM   10  C21 UNL     1     -13.460   6.821  22.048  1.00  0.00     0.009 A 
HETATM   11  C22 UNL     1     -13.753   7.271  20.762  1.00  0.00     0.001 A 
HETATM   12  C23 UNL     1     -15.010   7.045  20.219  1.00  0.00     0.001 A 
HETATM   13  C24 UNL     1     -15.979   6.377  20.965  1.00  0.00     0.017 A 
HETATM   14  C25 UNL     1     -15.708   5.911  22.270  1.00  0.00     0.055 A 
BRANCH  14  15
HETATM   15  C26 UNL     1     -16.828   5.232  23.032  1.00  0.00     0.418 C 
HETATM   16  F1  UNL     1     -16.532   3.942  23.345  1.00  0.00    -0.166 F 
HETATM   17  F2  UNL     1     -17.999   5.192  22.341  1.00  0.00    -0.166 F 
HETATM   18  F3  UNL     1     -17.128   5.836  24.217  1.00  0.00    -0.166 F 
ENDBRANCH  14  15
ENDBRANCH   8   9
BRANCH   1  19
HETATM   19  C3  UNL     1     -13.294   3.309  23.592  1.00  0.00     0.292 C 
HETATM   20  O2  UNL     1     -13.602   2.839  22.508  1.00  0.00    -0.259 OA
BRANCH  19  21
HETATM   21  O1  UNL     1     -12.100   3.196  24.220  1.00  0.00    -0.318 OA
BRANCH  21  22
HETATM   22  C2  UNL     1     -11.559   1.870  24.286  1.00  0.00     0.174 C 
HETATM   23  C1  UNL     1     -11.650   1.339  25.705  1.00  0.00     0.034 C 
ENDBRANCH  21  22
ENDBRANCH  19  21
ENDBRANCH   1  19
BRANCH   7  24
HETATM   24  C16 UNL     1     -14.639   7.901  25.251  1.00  0.00     0.292 C 
HETATM   25  O4  UNL     1     -15.455   8.657  24.747  1.00  0.00    -0.259 OA
BRANCH  24  26
HETATM   26  O5  UNL     1     -13.487   8.262  25.866  1.00  0.00    -0.318 OA
BRANCH  26  27
HETATM   27  C17 UNL     1     -12.691   9.228  25.164  1.00  0.00     0.174 C 
HETATM   28  C18 UNL     1     -11.222   8.838  25.176  1.00  0.00     0.034 C 
ENDBRANCH  26  27
ENDBRANCH  24  26
ENDBRANCH   7  24
BRANCH   4  29
HETATM   29  C7  UNL     1     -16.727   3.772  27.174  1.00  0.00     0.159 C 
BRANCH  29  30
HETATM   30  C8  UNL     1     -16.088   3.651  28.579  1.00  0.00     0.292 C 
BRANCH  30  31
HETATM   31  N2  UNL     1     -14.614   3.683  28.534  1.00  0.00     0.094 N 
HETATM   32  C9  UNL     1     -14.048   2.358  28.868  1.00  0.00     0.298 C 
HETATM   33  C10 UNL     1     -12.557   2.461  29.214  1.00  0.00     0.198 C 
HETATM   34  O3  UNL     1     -12.306   3.249  30.387  1.00  0.00    -0.388 OA
HETATM   35  C11 UNL     1     -13.349   4.186  30.668  1.00  0.00     0.198 C 
HETATM   36  C12 UNL     1     -14.031   4.732  29.402  1.00  0.00     0.298 C 
ENDBRANCH  30  31
ENDBRANCH  29  30
ENDBRANCH   4  29
TORSDOF 11
ENDMDL
MODEL 2
REMARK minimizedAffinity -7.67320681
REMARK CNNscore 0.346212178
REMARK CNNaffinity 5.54948044
REMARK  11 active torsions:
REMARK  status: ('A' for Active; 'I' for Inactive)
REMARK    1  A    between atoms: C2_2  and  O1_3 
REMARK    2  A    between atoms: O1_3  and  C3_4 
REMARK    3  A    between atoms: C3_4  and  C4_6 
REMARK    4  A    between atoms: N1_9  and  C7_10 
REMARK    5  A    between atoms: C7_10  and  C8_11 
REMARK    6  A    between atoms: C8_11  and  N2_12 
REMARK    7  A    between atoms: C15_20  and  C16_21 
REMARK    8  A    between atoms: C16_21  and  O5_23 
REMARK    9  A    between atoms: O5_23  and  C17_24 
REMARK   10  A    between atoms: C19_26  and  C20_27 
REMARK   11  A    between atoms: C25_32  and  C26_33 
ROOT
HETATM    1  C4  UNL     1       0.659   5.377  12.005  1.00  0.00     0.052 A 
HETATM    2  C5  UNL     1       0.048   5.790  13.140  1.00  0.00     0.021 A 
HETATM    3  C6  UNL     1      -1.234   5.125  13.614  1.00  0.00     0.069 C 
HETATM    4  N1  UNL     1       0.592   6.858  13.917  1.00  0.00    -0.351 N 
HETATM    5  C13 UNL     1       1.836   7.452  13.532  1.00  0.00     0.021 A 
HETATM    6  C14 UNL     1       2.434   8.520  14.434  1.00  0.00     0.069 C 
HETATM    7  C15 UNL     1       2.467   7.074  12.392  1.00  0.00     0.052 A 
HETATM    8  C19 UNL     1       1.907   6.022  11.448  1.00  0.00     0.101 A 
ENDROOT
BRANCH   8   9
HETATM    9  C20 UNL     1       1.667   6.615  10.043  1.00  0.00    -0.030 A 
HETATM   10  C21 UNL     1       2.452   6.140   8.967  1.00  0.00     0.009 A 
HETATM   11  C22 UNL     1       2.280   6.627   7.672  1.00  0.00     0.001 A 
HETATM   12  C23 UNL     1       1.328   7.605   7.422  1.00  0.00     0.001 A 
HETATM   13  C24 UNL     1       0.552   8.103   8.467  1.00  0.00     0.017 A 
HETATM   14  C25 UNL     1       0.705   7.625   9.787  1.00  0.00     0.055 A 
BRANCH  14  15
HETATM   15  C26 UNL     1      -0.147   8.248  10.875  1.00  0.00     0.418 C 
HETATM   16  F1  UNL     1      -1.034   9.153  10.381  1.00  0.00    -0.166 F 
HETATM   17  F2  UNL     1       0.582   8.909  11.814  1.00  0.00    -0.166 F 
HETATM   18  F3  UNL     1      -0.895   7.343  11.568  1.00  0.00    -0.166 F 
ENDBRANCH  14  15
ENDBRANCH   8   9
BRANCH   1  19
HETATM   19  C3  UNL     1       0.189   4.163  11.309  1.00  0.00     0.292 C 
HETATM   20  O2  UNL     1       0.804   3.109  11.310  1.00  0.00    -0.259 OA
BRANCH  19  21
HETATM   21  O1  UNL     1      -1.016   4.405  10.742  1.00  0.00    -0.318 OA
BRANCH  21  22
HETATM   22  C2  UNL     1      -1.888   3.271  10.637  1.00  0.00     0.174 C 
HETATM   23  C1  UNL     1      -3.337   3.723  10.666  1.00  0.00     0.034 C 
ENDBRANCH  21  22
ENDBRANCH  19  21
ENDBRANCH   1  19
BRANCH   7  24
HETATM   24  C16 UNL     1       3.718   7.738  11.949  1.00  0.00     0.292 C 
HETATM   25  O4  UNL     1       3.767   8.841  11.425  1.00  0.00    -0.259 OA
BRANCH  24  26
HETATM   26  O5  UNL     1       4.776   6.943  12.238  1.00  0.00    -0.318 OA
BRANCH  26  27
HETATM   27  C17 UNL     1       5.458   6.388  11.103  1.00  0.00     0.174 C 
HETATM   28  C18 UNL     1       6.904   6.850  11.055  1.00  0.00     0.034 C 
ENDBRANCH  26  27
ENDBRANCH  24  26
ENDBRANCH   7  24
BRANCH   4  29
HETATM   29  C7  UNL     1      -0.102   7.310  15.162  1.00  0.00     0.159 C 
BRANCH  29  30
HETATM   30  C8  UNL     1      -1.585   6.869  15.184  1.00  0.00     0.292 C 
BRANCH  30  31
HETATM   31  N2  UNL     1      -2.516   8.013  15.142  1.00  0.00     0.094 N 
HETATM   32  C9  UNL     1      -3.912   7.563  15.333  1.00  0.00     0.298 C 
HETATM   33  C10 UNL     1      -4.909   8.648  14.904  1.00  0.00     0.198 C 
HETATM   34  O3  UNL     1      -4.835   8.957  13.505  1.00  0.00    -0.388 OA
HETATM   35  C11 UNL     1      -3.566   8.639  12.926  1.00  0.00     0.198 C 
HETATM   36  C12 UNL     1      -2.392   8.816  13.904  1.00  0.00     0.298 C 
ENDBRANCH  30  31
ENDBRANCH  29  30
ENDBRANCH   4  29
TORSDOF 11
ENDMDL
MODEL 3
REMARK minimizedAffinity -5.41170216
REMARK CNNscore 0.215694547
REMARK CNNaffinity 4.62969589
REMARK  11 active torsions:
REMARK  status: ('A' for Active; 'I' for Inactive)
REMARK    1  A    between atoms: C2_2  and  O1_3 
REMARK    2  A    between atoms: O1_3  and  C3_4 
REMARK    3  A    between atoms: C3_4  and  C4_6 
REMARK    4  A    between atoms: N1_9  and  C7_10 
REMARK    5  A    between atoms: C7_10  and  C8_11 
REMARK    6  A    between atoms: C8_11  and  N2_12 
REMARK    7  A    between atoms: C15_20  and  C16_21 
REMARK    8  A    between atoms: C16_21  and  O5_23 
REMARK    9  A    between atoms: O5_23  and  C17_24 
REMARK   10  A    between atoms: C19_26  and  C20_27 
REMARK   11  A    between atoms: C25_32  and  C26_33 
ROOT
HETATM    1  C4  UNL     1     -16.393  -1.535  15.794  1.00  0.00     0.052 A 
HETATM    2  C5  UNL     1     -15.457  -1.996  14.931  1.00  0.00     0.021 A 
HETATM    3  C6  UNL     1     -14.186  -2.649  15.447  1.00  0.00     0.069 C 
HETATM    4  N1  UNL     1     -15.643  -1.879  13.520  1.00  0.00    -0.351 N 
HETATM    5  C13 UNL     1     -16.863  -1.334  13.008  1.00  0.00     0.021 A 
HETATM    6  C14 UNL     1     -17.067  -1.314  11.501  1.00  0.00     0.069 C 
HETATM    7  C15 UNL     1     -17.816  -0.848  13.843  1.00  0.00     0.052 A 
HETATM    8  C19 UNL     1     -17.657  -0.831  15.355  1.00  0.00     0.101 A 
ENDROOT
BRANCH   8   9
HETATM    9  C20 UNL     1     -17.729   0.611  15.901  1.00  0.00    -0.030 A 
HETATM   10  C21 UNL     1     -18.863   0.992  16.654  1.00  0.00     0.009 A 
HETATM   11  C22 UNL     1     -18.986   2.276  17.182  1.00  0.00     0.001 A 
HETATM   12  C23 UNL     1     -17.986   3.213  16.964  1.00  0.00     0.001 A 
HETATM   13  C24 UNL     1     -16.865   2.868  16.212  1.00  0.00     0.017 A 
HETATM   14  C25 UNL     1     -16.715   1.575  15.667  1.00  0.00     0.055 A 
BRANCH  14  15
HETATM   15  C26 UNL     1     -15.487   1.293  14.824  1.00  0.00     0.418 C 
HETATM   16  F1  UNL     1     -14.692   2.387  14.689  1.00  0.00    -0.166 F 
HETATM   17  F2  UNL     1     -15.785   0.885  13.562  1.00  0.00    -0.166 F 
HETATM   18  F3  UNL     1     -14.684   0.318  15.339  1.00  0.00    -0.166 F 
ENDBRANCH  14  15
ENDBRANCH   8   9
BRANCH   1  19
HETATM   19  C3  UNL     1     -16.275  -1.817  17.238  1.00  0.00     0.292 C 
HETATM   20  O2  UNL     1     -16.176  -0.945  18.086  1.00  0.00    -0.259 OA
BRANCH  19  21
HETATM   21  O1  UNL     1     -16.347  -3.153  17.445  1.00  0.00    -0.318 OA
BRANCH  21  22
HETATM   22  C2  UNL     1     -17.636  -3.744  17.228  1.00  0.00     0.174 C 
HETATM   23  C1  UNL     1     -18.577  -3.374  18.360  1.00  0.00     0.034 C 
ENDBRANCH  21  22
ENDBRANCH  19  21
ENDBRANCH   1  19
BRANCH   7  24
HETATM   24  C16 UNL     1     -19.050  -0.213  13.316  1.00  0.00     0.292 C 
HETATM   25  O4  UNL     1     -20.019  -0.829  12.899  1.00  0.00    -0.259 OA
BRANCH  24  26
HETATM   26  O5  UNL     1     -18.931   1.133  13.395  1.00  0.00    -0.318 OA
BRANCH  26  27
HETATM   27  C17 UNL     1     -18.631   1.799  12.159  1.00  0.00     0.174 C 
HETATM   28  C18 UNL     1     -17.997   3.157  12.409  1.00  0.00     0.034 C 
ENDBRANCH  26  27
ENDBRANCH  24  26
ENDBRANCH   7  24
BRANCH   4  29
HETATM   29  C7  UNL     1     -14.594  -2.383  12.581  1.00  0.00     0.159 C 
BRANCH  29  30
HETATM   30  C8  UNL     1     -14.755  -3.897  12.303  1.00  0.00     0.292 C 
BRANCH  30  31
HETATM   31  N2  UNL     1     -14.159  -4.302  11.016  1.00  0.00     0.094 N 
HETATM   32  C9  UNL     1     -13.966  -3.131  10.133  1.00  0.00     0.298 C 
HETATM   33  C10 UNL     1     -13.730  -3.562   8.679  1.00  0.00     0.198 C 
HETATM   34  O3  UNL     1     -14.854  -4.245   8.106  1.00  0.00    -0.388 OA
HETATM   35  C11 UNL     1     -15.702  -4.852   9.086  1.00  0.00     0.198 C 
HETATM   36  C12 UNL     1     -14.937  -5.355  10.322  1.00  0.00     0.298 C 
ENDBRANCH  30  31
ENDBRANCH  29  30
ENDBRANCH   4  29
TORSDOF 11
ENDMDL
MODEL 4
REMARK minimizedAffinity -5.00487185
REMARK CNNscore 0.197158203
REMARK CNNaffinity 4.49200583
REMARK  11 active torsions:
REMARK  status: ('A' for Active; 'I' for Inactive)
REMARK    1  A    between atoms: C2_2  and  O1_3 
REMARK    2  A    between atoms: O1_3  and  C3_4 
REMARK    3  A    between atoms: C3_4  and  C4_6 
REMARK    4  A    between atoms: N1_9  and  C7_10 
REMARK    5  A    between atoms: C7_10  and  C8_11 
REMARK    6  A    between atoms: C8_11  and  N2_12 
REMARK    7  A    between atoms: C15_20  and  C16_21 
REMARK    8  A    between atoms: C16_21  and  O5_23 
REMARK    9  A    between atoms: O5_23  and  C17_24 
REMARK   10  A    between atoms: C19_26  and  C20_27 
REMARK   11  A    between atoms: C25_32  and  C26_33 
ROOT
HETATM    1  C4  UNL     1     -17.040  -0.795  15.846  1.00  0.00     0.052 A 
HETATM    2  C5  UNL     1     -16.202  -1.568  15.116  1.00  0.00     0.021 A 
HETATM    3  C6  UNL     1     -15.193  -2.475  15.801  1.00  0.00     0.069 C 
HETATM    4  N1  UNL     1     -16.246  -1.549  13.688  1.00  0.00    -0.351 N 
HETATM    5  C13 UNL     1     -17.235  -0.759  13.021  1.00  0.00     0.021 A 
HETATM    6  C14 UNL     1     -17.315  -0.837  11.504  1.00  0.00     0.069 C 
HETATM    7  C15 UNL     1     -18.080   0.040  13.719  1.00  0.00     0.052 A 
HETATM    8  C19 UNL     1     -18.034   0.166  15.233  1.00  0.00     0.101 A 
ENDROOT
BRANCH   8   9
HETATM    9  C20 UNL     1     -17.756   1.624  15.657  1.00  0.00    -0.030 A 
HETATM   10  C21 UNL     1     -18.790   2.353  16.288  1.00  0.00     0.009 A 
HETATM   11  C22 UNL     1     -18.602   3.670  16.702  1.00  0.00     0.001 A 
HETATM   12  C23 UNL     1     -17.381   4.295  16.490  1.00  0.00     0.001 A 
HETATM   13  C24 UNL     1     -16.349   3.605  15.856  1.00  0.00     0.017 A 
HETATM   14  C25 UNL     1     -16.514   2.269  15.427  1.00  0.00     0.055 A 
BRANCH  14  15
HETATM   15  C26 UNL     1     -15.358   1.603  14.708  1.00  0.00     0.418 C 
HETATM   16  F1  UNL     1     -15.690   1.214  13.447  1.00  0.00    -0.166 F 
HETATM   17  F2  UNL     1     -14.905   0.487  15.339  1.00  0.00    -0.166 F 
HETATM   18  F3  UNL     1     -14.266   2.408  14.566  1.00  0.00    -0.166 F 
ENDBRANCH  14  15
ENDBRANCH   8   9
BRANCH   1  19
HETATM   19  C3  UNL     1     -17.108  -0.953  17.312  1.00  0.00     0.292 C 
HETATM   20  O2  UNL     1     -16.184  -0.676  18.060  1.00  0.00    -0.259 OA
BRANCH  19  21
HETATM   21  O1  UNL     1     -18.340  -1.389  17.663  1.00  0.00    -0.318 OA
BRANCH  21  22
HETATM   22  C2  UNL     1     -18.632  -2.753  17.331  1.00  0.00     0.174 C 
HETATM   23  C1  UNL     1     -17.835  -3.689  18.220  1.00  0.00     0.034 C 
ENDBRANCH  21  22
ENDBRANCH  19  21
ENDBRANCH   1  19
BRANCH   7  24
HETATM   24  C16 UNL     1     -19.056   0.918  13.028  1.00  0.00     0.292 C 
HETATM   25  O4  UNL     1     -20.268   0.766  13.062  1.00  0.00    -0.259 OA
BRANCH  24  26
HETATM   26  O5  UNL     1     -18.393   1.908  12.385  1.00  0.00    -0.318 OA
BRANCH  26  27
HETATM   27  C17 UNL     1     -18.935   3.227  12.557  1.00  0.00     0.174 C 
HETATM   28  C18 UNL     1     -17.831   4.271  12.589  1.00  0.00     0.034 C 
ENDBRANCH  26  27
ENDBRANCH  24  26
ENDBRANCH   7  24
BRANCH   4  29
HETATM   29  C7  UNL     1     -15.305  -2.400  12.897  1.00  0.00     0.159 C 
BRANCH  29  30
HETATM   30  C8  UNL     1     -15.891  -3.809  12.636  1.00  0.00     0.292 C 
BRANCH  30  31
HETATM   31  N2  UNL     1     -14.859  -4.864  12.665  1.00  0.00     0.094 N 
HETATM   32  C9  UNL     1     -14.966  -5.670  13.901  1.00  0.00     0.298 C 
HETATM   33  C10 UNL     1     -13.691  -6.490  14.141  1.00  0.00     0.198 C 
HETATM   34  O3  UNL     1     -12.531  -5.675  14.359  1.00  0.00    -0.388 OA
HETATM   35  C11 UNL     1     -12.650  -4.365  13.796  1.00  0.00     0.198 C 
HETATM   36  C12 UNL     1     -13.485  -4.335  12.504  1.00  0.00     0.298 C 
ENDBRANCH  30  31
ENDBRANCH  29  30
ENDBRANCH   4  29
TORSDOF 11
ENDMDL
MODEL 5
REMARK minimizedAffinity -5.80843115
REMARK CNNscore 0.166614309
REMARK CNNaffinity 4.45144129
REMARK  11 active torsions:
REMARK  status: ('A' for Active; 'I' for Inactive)
REMARK    1  A    between atoms: C2_2  and  O1_3 
REMARK    2  A    between atoms: O1_3  and  C3_4 
REMARK    3  A    between atoms: C3_4  and  C4_6 
REMARK    4  A    between atoms: N1_9  and  C7_10 
REMARK    5  A    between atoms: C7_10  and  C8_11 
REMARK    6  A    between atoms: C8_11  and  N2_12 
REMARK    7  A    between atoms: C15_20  and  C16_21 
REMARK    8  A    between atoms: C16_21  and  O5_23 
REMARK    9  A    between atoms: O5_23  and  C17_24 
REMARK   10  A    between atoms: C19_26  and  C20_27 
REMARK   11  A    between atoms: C25_32  and  C26_33 
ROOT
HETATM    1  C4  UNL     1       5.947  12.021  19.495  1.00  0.00     0.052 A 
HETATM    2  C5  UNL     1       4.979  11.939  18.552  1.00  0.00     0.021 A 
HETATM    3  C6  UNL     1       5.330  12.021  17.076  1.00  0.00     0.069 C 
HETATM    4  N1  UNL     1       3.610  11.774  18.922  1.00  0.00    -0.351 N 
HETATM    5  C13 UNL     1       3.262  11.621  20.302  1.00  0.00     0.021 A 
HETATM    6  C14 UNL     1       1.807  11.351  20.653  1.00  0.00     0.069 C 
HETATM    7  C15 UNL     1       4.204  11.715  21.275  1.00  0.00     0.052 A 
HETATM    8  C19 UNL     1       5.668  11.997  20.980  1.00  0.00     0.101 A 
ENDROOT
BRANCH   8   9
HETATM    9  C20 UNL     1       6.128  13.299  21.671  1.00  0.00    -0.030 A 
HETATM   10  C21 UNL     1       5.450  14.501  21.364  1.00  0.00     0.009 A 
HETATM   11  C22 UNL     1       5.811  15.709  21.959  1.00  0.00     0.001 A 
HETATM   12  C23 UNL     1       6.861  15.749  22.866  1.00  0.00     0.001 A 
HETATM   13  C24 UNL     1       7.556  14.581  23.173  1.00  0.00     0.017 A 
HETATM   14  C25 UNL     1       7.211  13.344  22.586  1.00  0.00     0.055 A 
BRANCH  14  15
HETATM   15  C26 UNL     1       8.043  12.128  22.941  1.00  0.00     0.418 C 
HETATM   16  F1  UNL     1       7.305  11.150  23.530  1.00  0.00    -0.166 F 
HETATM   17  F2  UNL     1       9.057  12.406  23.804  1.00  0.00    -0.166 F 
HETATM   18  F3  UNL     1       8.637  11.540  21.863  1.00  0.00    -0.166 F 
ENDBRANCH  14  15
ENDBRANCH   8   9
BRANCH   1  19
HETATM   19  C3  UNL     1       7.370  12.014  19.101  1.00  0.00     0.292 C 
HETATM   20  O2  UNL     1       8.026  13.030  18.939  1.00  0.00    -0.259 OA
BRANCH  19  21
HETATM   21  O1  UNL     1       7.807  10.736  19.008  1.00  0.00    -0.318 OA
BRANCH  21  22
HETATM   22  C2  UNL     1       8.909  10.523  18.115  1.00  0.00     0.174 C 
HETATM   23  C1  UNL     1       8.427   9.850  16.843  1.00  0.00     0.034 C 
ENDBRANCH  21  22
ENDBRANCH  19  21
ENDBRANCH   1  19
BRANCH   7  24
HETATM   24  C16 UNL     1       3.838  11.632  22.710  1.00  0.00     0.292 C 
HETATM   25  O4  UNL     1       3.313  12.537  23.343  1.00  0.00    -0.259 OA
BRANCH  24  26
HETATM   26  O5  UNL     1       4.157  10.405  23.185  1.00  0.00    -0.318 OA
BRANCH  26  27
HETATM   27  C17 UNL     1       3.077   9.678  23.791  1.00  0.00     0.174 C 
HETATM   28  C18 UNL     1       2.664   8.496  22.930  1.00  0.00     0.034 C 
ENDBRANCH  26  27
ENDBRANCH  24  26
ENDBRANCH   7  24
BRANCH   4  29
HETATM   29  C7  UNL     1       2.551  11.696  17.869  1.00  0.00     0.159 C 
BRANCH  29  30
HETATM   30  C8  UNL     1       2.380  10.253  17.335  1.00  0.00     0.292 C 
BRANCH  30  31
HETATM   31  N2  UNL     1       0.963   9.867  17.196  1.00  0.00     0.094 N 
HETATM   32  C9  UNL     1       0.814   8.749  16.238  1.00  0.00     0.298 C 
HETATM   33  C10 UNL     1      -0.643   8.599  15.781  1.00  0.00     0.198 C 
HETATM   34  O3  UNL     1      -1.125   9.740  15.057  1.00  0.00    -0.388 OA
HETATM   35  C11 UNL     1      -0.409  10.941  15.360  1.00  0.00     0.198 C 
HETATM   36  C12 UNL     1       0.089  11.000  16.815  1.00  0.00     0.298 C 
ENDBRANCH  30  31
ENDBRANCH  29  30
ENDBRANCH   4  29
TORSDOF 11
ENDMDL
MODEL 6
REMARK minimizedAffinity -7.48461628
REMARK CNNscore 0.160421833
REMARK CNNaffinity 5.52109289
REMARK  11 active torsions:
REMARK  status: ('A' for Active; 'I' for Inactive)
REMARK    1  A    between atoms: C2_2  and  O1_3 
REMARK    2  A    between atoms: O1_3  and  C3_4 
REMARK    3  A    between atoms: C3_4  and  C4_6 
REMARK    4  A    between atoms: N1_9  and  C7_10 
REMARK    5  A    between atoms: C7_10  and  C8_11 
REMARK    6  A    between atoms: C8_11  and  N2_12 
REMARK    7  A    between atoms: C15_20  and  C16_21 
REMARK    8  A    between atoms: C16_21  and  O5_23 
REMARK    9  A    between atoms: O5_23  and  C17_24 
REMARK   10  A    between atoms: C19_26  and  C20_27 
REMARK   11  A    between atoms: C25_32  and  C26_33 
ROOT
HETATM    1  C4  UNL     1       0.949   5.410  11.976  1.00  0.00     0.052 A 
HETATM    2  C5  UNL     1       0.439   5.815  13.164  1.00  0.00     0.021 A 
HETATM    3  C6  UNL     1      -0.812   5.165  13.730  1.00  0.00     0.069 C 
HETATM    4  N1  UNL     1       1.065   6.860  13.909  1.00  0.00    -0.351 N 
HETATM    5  C13 UNL     1       2.284   7.438  13.433  1.00  0.00     0.021 A 
HETATM    6  C14 UNL     1       2.974   8.481  14.299  1.00  0.00     0.069 C 
HETATM    7  C15 UNL     1       2.814   7.068  12.240  1.00  0.00     0.052 A 
HETATM    8  C19 UNL     1       2.160   6.042  11.330  1.00  0.00     0.101 A 
ENDROOT
BRANCH   8   9
HETATM    9  C20 UNL     1       1.817   6.662   9.957  1.00  0.00    -0.030 A 
HETATM   10  C21 UNL     1       2.510   6.198   8.815  1.00  0.00     0.009 A 
HETATM   11  C22 UNL     1       2.243   6.710   7.547  1.00  0.00     0.001 A 
HETATM   12  C23 UNL     1       1.286   7.702   7.388  1.00  0.00     0.001 A 
HETATM   13  C24 UNL     1       0.600   8.189   8.499  1.00  0.00     0.017 A 
HETATM   14  C25 UNL     1       0.850   7.687   9.795  1.00  0.00     0.055 A 
BRANCH  14  15
HETATM   15  C26 UNL     1       0.093   8.299  10.956  1.00  0.00     0.418 C 
HETATM   16  F1  UNL     1      -0.839   9.201  10.547  1.00  0.00    -0.166 F 
HETATM   17  F2  UNL     1       0.897   8.959  11.831  1.00  0.00    -0.166 F 
HETATM   18  F3  UNL     1      -0.587   7.386  11.707  1.00  0.00    -0.166 F 
ENDBRANCH  14  15
ENDBRANCH   8   9
BRANCH   1  19
HETATM   19  C3  UNL     1       0.401   4.216  11.303  1.00  0.00     0.292 C 
HETATM   20  O2  UNL     1       1.018   3.170  11.185  1.00  0.00    -0.259 OA
BRANCH  19  21
HETATM   21  O1  UNL     1      -0.870   4.463  10.906  1.00  0.00    -0.318 OA
BRANCH  21  22
HETATM   22  C2  UNL     1      -1.758   3.338  10.940  1.00  0.00     0.174 C 
HETATM   23  C1  UNL     1      -3.091   3.706  10.315  1.00  0.00     0.034 C 
ENDBRANCH  21  22
ENDBRANCH  19  21
ENDBRANCH   1  19
BRANCH   7  24
HETATM   24  C16 UNL     1       4.037   7.717  11.706  1.00  0.00     0.292 C 
HETATM   25  O4  UNL     1       4.104   8.888  11.363  1.00  0.00    -0.259 OA
BRANCH  24  26
HETATM   26  O5  UNL     1       5.050   6.819  11.686  1.00  0.00    -0.318 OA
BRANCH  26  27
HETATM   27  C17 UNL     1       6.316   7.304  12.159  1.00  0.00     0.174 C 
HETATM   28  C18 UNL     1       6.414   7.190  13.671  1.00  0.00     0.034 C 
ENDBRANCH  26  27
ENDBRANCH  24  26
ENDBRANCH   7  24
BRANCH   4  29
HETATM   29  C7  UNL     1       0.483   7.304  15.213  1.00  0.00     0.159 C 
BRANCH  29  30
HETATM   30  C8  UNL     1      -0.403   8.562  15.047  1.00  0.00     0.292 C 
BRANCH  30  31
HETATM   31  N2  UNL     1      -1.836   8.233  14.932  1.00  0.00     0.094 N 
HETATM   32  C9  UNL     1      -2.482   9.053  13.884  1.00  0.00     0.298 C 
HETATM   33  C10 UNL     1      -4.011   9.021  14.017  1.00  0.00     0.198 C 
HETATM   34  O3  UNL     1      -4.480   9.597  15.244  1.00  0.00    -0.388 OA
HETATM   35  C11 UNL     1      -3.499   9.580  16.284  1.00  0.00     0.198 C 
HETATM   36  C12 UNL     1      -2.564   8.360  16.216  1.00  0.00     0.298 C 
ENDBRANCH  30  31
ENDBRANCH  29  30
ENDBRANCH   4  29
TORSDOF 11
ENDMDL
MODEL 7
REMARK minimizedAffinity -5.35867739
REMARK CNNscore 0.133223921
REMARK CNNaffinity 4.25000811
REMARK  11 active torsions:
REMARK  status: ('A' for Active; 'I' for Inactive)
REMARK    1  A    between atoms: C2_2  and  O1_3 
REMARK    2  A    between atoms: O1_3  and  C3_4 
REMARK    3  A    between atoms: C3_4  and  C4_6 
REMARK    4  A    between atoms: N1_9  and  C7_10 
REMARK    5  A    between atoms: C7_10  and  C8_11 
REMARK    6  A    between atoms: C8_11  and  N2_12 
REMARK    7  A    between atoms: C15_20  and  C16_21 
REMARK    8  A    between atoms: C16_21  and  O5_23 
REMARK    9  A    between atoms: O5_23  and  C17_24 
REMARK   10  A    between atoms: C19_26  and  C20_27 
REMARK   11  A    between atoms: C25_32  and  C26_33 
ROOT
HETATM    1  C4  UNL     1       5.489  11.450  19.330  1.00  0.00     0.052 A 
HETATM    2  C5  UNL     1       4.476  11.592  18.443  1.00  0.00     0.021 A 
HETATM    3  C6  UNL     1       4.765  11.762  16.960  1.00  0.00     0.069 C 
HETATM    4  N1  UNL     1       3.116  11.588  18.879  1.00  0.00    -0.351 N 
HETATM    5  C13 UNL     1       2.815  11.357  20.259  1.00  0.00     0.021 A 
HETATM    6  C14 UNL     1       1.354  11.262  20.672  1.00  0.00     0.069 C 
HETATM    7  C15 UNL     1       3.805  11.227  21.177  1.00  0.00     0.052 A 
HETATM    8  C19 UNL     1       5.279  11.327  20.821  1.00  0.00     0.101 A 
ENDROOT
BRANCH   8   9
HETATM    9  C20 UNL     1       5.955  12.482  21.592  1.00  0.00    -0.030 A 
HETATM   10  C21 UNL     1       6.962  12.167  22.533  1.00  0.00     0.009 A 
HETATM   11  C22 UNL     1       7.617  13.163  23.256  1.00  0.00     0.001 A 
HETATM   12  C23 UNL     1       7.278  14.494  23.064  1.00  0.00     0.001 A 
HETATM   13  C24 UNL     1       6.277  14.831  22.154  1.00  0.00     0.017 A 
HETATM   14  C25 UNL     1       5.599  13.842  21.408  1.00  0.00     0.055 A 
BRANCH  14  15
HETATM   15  C26 UNL     1       4.494  14.287  20.471  1.00  0.00     0.418 C 
HETATM   16  F1  UNL     1       3.293  13.737  20.791  1.00  0.00    -0.166 F 
HETATM   17  F2  UNL     1       4.727  13.955  19.173  1.00  0.00    -0.166 F 
HETATM   18  F3  UNL     1       4.290  15.636  20.468  1.00  0.00    -0.166 F 
ENDBRANCH  14  15
ENDBRANCH   8   9
BRANCH   1  19
HETATM   19  C3  UNL     1       6.875  11.280  18.852  1.00  0.00     0.292 C 
HETATM   20  O2  UNL     1       7.345  10.201  18.527  1.00  0.00    -0.259 OA
BRANCH  19  21
HETATM   21  O1  UNL     1       7.484  12.487  18.791  1.00  0.00    -0.318 OA
BRANCH  21  22
HETATM   22  C2  UNL     1       8.913  12.453  18.674  1.00  0.00     0.174 C 
HETATM   23  C1  UNL     1       9.548  12.370  20.049  1.00  0.00     0.034 C 
ENDBRANCH  21  22
ENDBRANCH  19  21
ENDBRANCH   1  19
BRANCH   7  24
HETATM   24  C16 UNL     1       3.499  11.063  22.620  1.00  0.00     0.292 C 
HETATM   25  O4  UNL     1       3.039  11.943  23.333  1.00  0.00    -0.259 OA
BRANCH  24  26
HETATM   26  O5  UNL     1       3.789   9.796  23.000  1.00  0.00    -0.318 OA
BRANCH  26  27
HETATM   27  C17 UNL     1       2.697   9.057  23.567  1.00  0.00     0.174 C 
HETATM   28  C18 UNL     1       2.043   8.163  22.526  1.00  0.00     0.034 C 
ENDBRANCH  26  27
ENDBRANCH  24  26
ENDBRANCH   7  24
BRANCH   4  29
HETATM   29  C7  UNL     1       2.009  11.757  17.887  1.00  0.00     0.159 C 
BRANCH  29  30
HETATM   30  C8  UNL     1       1.311  10.412  17.573  1.00  0.00     0.292 C 
BRANCH  30  31
HETATM   31  N2  UNL     1       1.862   9.757  16.371  1.00  0.00     0.094 N 
HETATM   32  C9  UNL     1       1.904  10.699  15.231  1.00  0.00     0.298 C 
HETATM   33  C10 UNL     1       2.088   9.955  13.902  1.00  0.00     0.198 C 
HETATM   34  O3  UNL     1       0.992   9.083  13.589  1.00  0.00    -0.388 OA
HETATM   35  C11 UNL     1       0.257   8.668  14.744  1.00  0.00     0.198 C 
HETATM   36  C12 UNL     1       1.134   8.522  16.000  1.00  0.00     0.298 C 
ENDBRANCH  30  31
ENDBRANCH  29  30
ENDBRANCH   4  29
TORSDOF 11
ENDMDL
MODEL 8
REMARK minimizedAffinity -5.09139824
REMARK CNNscore 0.132263675
REMARK CNNaffinity 4.64860153
REMARK  11 active torsions:
REMARK  status: ('A' for Active; 'I' for Inactive)
REMARK    1  A    between atoms: C2_2  and  O1_3 
REMARK    2  A    between atoms: O1_3  and  C3_4 
REMARK    3  A    between atoms: C3_4  and  C4_6 
REMARK    4  A    between atoms: N1_9  and  C7_10 
REMARK    5  A    between atoms: C7_10  and  C8_11 
REMARK    6  A    between atoms: C8_11  and  N2_12 
REMARK    7  A    between atoms: C15_20  and  C16_21 
REMARK    8  A    between atoms: C16_21  and  O5_23 
REMARK    9  A    between atoms: O5_23  and  C17_24 
REMARK   10  A    between atoms: C19_26  and  C20_27 
REMARK   11  A    between atoms: C25_32  and  C26_33 
ROOT
HETATM    1  C4  UNL     1      14.667  -5.031   4.459  1.00  0.00     0.052 A 
HETATM    2  C5  UNL     1      14.278  -5.466   3.238  1.00  0.00     0.021 A 
HETATM    3  C6  UNL     1      14.026  -4.478   2.110  1.00  0.00     0.069 C 
HETATM    4  N1  UNL     1      14.094  -6.858   2.982  1.00  0.00    -0.351 N 
HETATM    5  C13 UNL     1      14.395  -7.813   4.006  1.00  0.00     0.021 A 
HETATM    6  C14 UNL     1      14.280  -9.291   3.668  1.00  0.00     0.069 C 
HETATM    7  C15 UNL     1      14.771  -7.412   5.246  1.00  0.00     0.052 A 
HETATM    8  C19 UNL     1      14.888  -5.949   5.640  1.00  0.00     0.101 A 
ENDROOT
BRANCH   8   9
HETATM    9  C20 UNL     1      13.937  -5.615   6.810  1.00  0.00    -0.030 A 
HETATM   10  C21 UNL     1      14.500  -5.247   8.053  1.00  0.00     0.009 A 
HETATM   11  C22 UNL     1      13.698  -4.927   9.147  1.00  0.00     0.001 A 
HETATM   12  C23 UNL     1      12.316  -4.974   9.029  1.00  0.00     0.001 A 
HETATM   13  C24 UNL     1      11.735  -5.350   7.819  1.00  0.00     0.017 A 
HETATM   14  C25 UNL     1      12.525  -5.678   6.696  1.00  0.00     0.055 A 
BRANCH  14  15
HETATM   15  C26 UNL     1      11.817  -6.118   5.430  1.00  0.00     0.418 C 
HETATM   16  F1  UNL     1      10.464  -6.103   5.563  1.00  0.00    -0.166 F 
HETATM   17  F2  UNL     1      12.144  -7.381   5.045  1.00  0.00    -0.166 F 
HETATM   18  F3  UNL     1      12.088  -5.329   4.351  1.00  0.00    -0.166 F 
ENDBRANCH  14  15
ENDBRANCH   8   9
BRANCH   1  19
HETATM   19  C3  UNL     1      15.024  -3.613   4.663  1.00  0.00     0.292 C 
HETATM   20  O2  UNL     1      16.158  -3.181   4.533  1.00  0.00    -0.259 OA
BRANCH  19  21
HETATM   21  O1  UNL     1      13.908  -2.903   4.955  1.00  0.00    -0.318 OA
BRANCH  21  22
HETATM   22  C2  UNL     1      13.833  -1.599   4.363  1.00  0.00     0.174 C 
HETATM   23  C1  UNL     1      12.531  -1.449   3.597  1.00  0.00     0.034 C 
ENDBRANCH  21  22
ENDBRANCH  19  21
ENDBRANCH   1  19
BRANCH   7  24
HETATM   24  C16 UNL     1      15.011  -8.394   6.332  1.00  0.00     0.292 C 
HETATM   25  O4  UNL     1      14.130  -9.008   6.916  1.00  0.00    -0.259 OA
BRANCH  24  26
HETATM   26  O5  UNL     1      16.343  -8.509   6.547  1.00  0.00    -0.318 OA
BRANCH  26  27
HETATM   27  C17 UNL     1      16.804  -8.044   7.825  1.00  0.00     0.174 C 
HETATM   28  C18 UNL     1      17.574  -9.131   8.557  1.00  0.00     0.034 C 
ENDBRANCH  26  27
ENDBRANCH  24  26
ENDBRANCH   7  24
BRANCH   4  29
HETATM   29  C7  UNL     1      13.653  -7.322   1.630  1.00  0.00     0.159 C 
BRANCH  29  30
HETATM   30  C8  UNL     1      14.852  -7.753   0.753  1.00  0.00     0.292 C 
BRANCH  30  31
HETATM   31  N2  UNL     1      14.564  -7.650  -0.690  1.00  0.00     0.094 N 
HETATM   32  C9  UNL     1      15.754  -8.005  -1.492  1.00  0.00     0.298 C 
HETATM   33  C10 UNL     1      15.609  -7.530  -2.944  1.00  0.00     0.198 C 
HETATM   34  O3  UNL     1      15.526  -6.103  -3.063  1.00  0.00    -0.388 OA
HETATM   35  C11 UNL     1      15.060  -5.466  -1.870  1.00  0.00     0.198 C 
HETATM   36  C12 UNL     1      14.049  -6.318  -1.083  1.00  0.00     0.298 C 
ENDBRANCH  30  31
ENDBRANCH  29  30
ENDBRANCH   4  29
TORSDOF 11
ENDMDL
MODEL 9
REMARK minimizedAffinity -5.84831047
REMARK CNNscore 0.118069068
REMARK CNNaffinity 4.14527512
REMARK  11 active torsions:
REMARK  status: ('A' for Active; 'I' for Inactive)
REMARK    1  A    between atoms: C2_2  and  O1_3 
REMARK    2  A    between atoms: O1_3  and  C3_4 
REMARK    3  A    between atoms: C3_4  and  C4_6 
REMARK    4  A    between atoms: N1_9  and  C7_10 
REMARK    5  A    between atoms: C7_10  and  C8_11 
REMARK    6  A    between atoms: C8_11  and  N2_12 
REMARK    7  A    between atoms: C15_20  and  C16_21 
REMARK    8  A    between atoms: C16_21  and  O5_23 
REMARK    9  A    between atoms: O5_23  and  C17_24 
REMARK   10  A    between atoms: C19_26  and  C20_27 
REMARK   11  A    between atoms: C25_32  and  C26_33 
ROOT
HETATM    1  C4  UNL     1       4.422  12.272  19.572  1.00  0.00     0.052 A 
HETATM    2  C5  UNL     1       5.269  11.974  18.558  1.00  0.00     0.021 A 
HETATM    3  C6  UNL     1       4.740  11.747  17.152  1.00  0.00     0.069 C 
HETATM    4  N1  UNL     1       6.674  11.863  18.787  1.00  0.00    -0.351 N 
HETATM    5  C13 UNL     1       7.204  12.143  20.087  1.00  0.00     0.021 A 
HETATM    6  C14 UNL     1       8.714  12.110  20.271  1.00  0.00     0.069 C 
HETATM    7  C15 UNL     1       6.385  12.429  21.129  1.00  0.00     0.052 A 
HETATM    8  C19 UNL     1       4.871  12.461  21.003  1.00  0.00     0.101 A 
ENDROOT
BRANCH   8   9
HETATM    9  C20 UNL     1       4.217  11.430  21.949  1.00  0.00    -0.030 A 
HETATM   10  C21 UNL     1       4.456  10.056  21.718  1.00  0.00     0.009 A 
HETATM   11  C22 UNL     1       3.902   9.076  22.540  1.00  0.00     0.001 A 
HETATM   12  C23 UNL     1       3.090   9.441  23.604  1.00  0.00     0.001 A 
HETATM   13  C24 UNL     1       2.825  10.789  23.844  1.00  0.00     0.017 A 
HETATM   14  C25 UNL     1       3.375  11.802  23.028  1.00  0.00     0.055 A 
BRANCH  14  15
HETATM   15  C26 UNL     1       3.004  13.240  23.329  1.00  0.00     0.418 C 
HETATM   16  F1  UNL     1       2.272  13.804  22.332  1.00  0.00    -0.166 F 
HETATM   17  F2  UNL     1       4.084  14.046  23.506  1.00  0.00    -0.166 F 
HETATM   18  F3  UNL     1       2.255  13.386  24.460  1.00  0.00    -0.166 F 
ENDBRANCH  14  15
ENDBRANCH   8   9
BRANCH   1  19
HETATM   19  C3  UNL     1       3.001  12.556  19.293  1.00  0.00     0.292 C 
HETATM   20  O2  UNL     1       2.546  13.686  19.211  1.00  0.00    -0.259 OA
BRANCH  19  21
HETATM   21  O1  UNL     1       2.336  11.393  19.100  1.00  0.00    -0.318 OA
BRANCH  21  22
HETATM   22  C2  UNL     1       1.335  11.084  20.079  1.00  0.00     0.174 C 
HETATM   23  C1  UNL     1      -0.017  11.605  19.625  1.00  0.00     0.034 C 
ENDBRANCH  21  22
ENDBRANCH  19  21
ENDBRANCH   1  19
BRANCH   7  24
HETATM   24  C16 UNL     1       6.924  12.645  22.495  1.00  0.00     0.292 C 
HETATM   25  O4  UNL     1       7.212  11.749  23.274  1.00  0.00    -0.259 OA
BRANCH  24  26
HETATM   26  O5  UNL     1       7.060  13.974  22.718  1.00  0.00    -0.318 OA
BRANCH  26  27
HETATM   27  C17 UNL     1       8.292  14.372  23.338  1.00  0.00     0.174 C 
HETATM   28  C18 UNL     1       8.133  15.694  24.071  1.00  0.00     0.034 C 
ENDBRANCH  26  27
ENDBRANCH  24  26
ENDBRANCH   7  24
BRANCH   4  29
HETATM   29  C7  UNL     1       7.594  11.521  17.659  1.00  0.00     0.159 C 
BRANCH  29  30
HETATM   30  C8  UNL     1       7.847   9.997  17.568  1.00  0.00     0.292 C 
BRANCH  30  31
HETATM   31  N2  UNL     1       8.969   9.663  16.670  1.00  0.00     0.094 N 
HETATM   32  C9  UNL     1       8.845  10.381  15.383  1.00  0.00     0.298 C 
HETATM   33  C10 UNL     1       9.752   9.761  14.311  1.00  0.00     0.198 C 
HETATM   34  O3  UNL     1       9.398   8.408  13.989  1.00  0.00    -0.388 OA
HETATM   35  C11 UNL     1       8.686   7.748  15.039  1.00  0.00     0.198 C 
HETATM   36  C12 UNL     1       9.116   8.207  16.444  1.00  0.00     0.298 C 
ENDBRANCH  30  31
ENDBRANCH  29  30
ENDBRANCH   4  29
TORSDOF 11
ENDMDL
