MODEL 1
REMARK minimizedAffinity -9.3363533
REMARK CNNscore 0.457160681
REMARK CNNaffinity 6.74222755
REMARK  18 active torsions:
REMARK  status: ('A' for Active; 'I' for Inactive)
REMARK    1  A    between atoms: C19_20  and  O2_21 
REMARK    2  A    between atoms: C19_20  and  C20_22 
REMARK    3  A    between atoms: C20_22  and  C21_24 
REMARK    4  A    between atoms: C21_24  and  O4_25 
REMARK    5  A    between atoms: O4_25  and  C22_26 
REMARK    6  A    between atoms: C22_26  and  C23_28 
REMARK    7  A    between atoms: C23_28  and  C24_29 
REMARK    8  A    between atoms: C24_29  and  C25_30 
REMARK       I    between atoms: C25_30  and  N1_32 
REMARK    9  A    between atoms: N1_32  and  C26_33 
REMARK   10  A    between atoms: C26_33  and  C27_34 
REMARK   11  A    between atoms: C27_34  and  C28_35 
REMARK   12  A    between atoms: C28_35  and  C29_36 
REMARK   13  A    between atoms: C29_36  and  C30_37 
REMARK   14  A    between atoms: C30_37  and  C31_38 
REMARK       I    between atoms: C31_38  and  N2_40 
REMARK   15  A    between atoms: N2_40  and  C32_41 
REMARK   16  A    between atoms: C32_41  and  C33_42 
REMARK   17  A    between atoms: C36_45  and  C37_46 
REMARK   18  A    between atoms: C37_46  and  O9_48 
ROOT
HETATM    1  C22 UNL     1      -7.781  47.059 -29.147  1.00  0.00     0.259 C 
HETATM    2  O5  UNL     1      -7.903  46.105 -29.901  1.00  0.00    -0.265 OA
ENDROOT
BRANCH   1   3
HETATM    3  O4  UNL     1      -8.633  48.118 -29.095  1.00  0.00    -0.314 OA
BRANCH   3   4
HETATM    4  C21 UNL     1     -10.017  47.810 -29.045  1.00  0.00     0.260 C 
BRANCH   4   5
HETATM    5  C20 UNL     1     -10.697  47.699 -27.675  1.00  0.00     0.185 C 
HETATM    6  O3  UNL     1     -10.014  47.872 -26.657  1.00  0.00    -0.292 OA
BRANCH   5   7
HETATM    7  C19 UNL     1     -12.234  47.527 -27.620  1.00  0.00     0.128 C 
HETATM    8  C14 UNL     1     -12.804  46.486 -26.590  1.00  0.00    -0.002 C 
HETATM    9  C13 UNL     1     -12.903  46.941 -25.119  1.00  0.00     0.013 C 
HETATM   10  C15 UNL     1     -12.018  45.140 -26.646  1.00  0.00     0.019 C 
HETATM   11  C16 UNL     1     -14.254  46.348 -27.147  1.00  0.00     0.002 C 
HETATM   12  C12 UNL     1     -13.786  45.996 -24.271  1.00  0.00     0.007 C 
HETATM   13  C11 UNL     1     -15.200  45.842 -24.883  1.00  0.00     0.002 C 
HETATM   14  C2  UNL     1     -16.213  44.989 -24.048  1.00  0.00    -0.016 C 
HETATM   15  C10 UNL     1     -15.111  45.346 -26.361  1.00  0.00    -0.004 C 
HETATM   16  C1  UNL     1     -15.845  43.487 -24.062  1.00  0.00     0.020 C 
HETATM   17  C3  UNL     1     -16.265  45.476 -22.573  1.00  0.00     0.022 C 
HETATM   18  C7  UNL     1     -17.597  45.187 -24.674  1.00  0.00    -0.068 C 
HETATM   19  C4  UNL     1     -17.409  44.860 -21.768  1.00  0.00     0.084 C 
HETATM   20  C5  UNL     1     -18.732  44.994 -22.480  1.00  0.00     0.149 C 
HETATM   21  O1  UNL     1     -19.805  44.960 -21.883  1.00  0.00    -0.293 OA
HETATM   22  C6  UNL     1     -18.733  45.175 -23.952  1.00  0.00     0.053 C 
HETATM   23  C8  UNL     1     -17.667  45.559 -26.140  1.00  0.00     0.035 C 
HETATM   24  C9  UNL     1     -16.494  45.061 -26.978  1.00  0.00     0.010 C 
HETATM   25  C17 UNL     1     -14.019  46.114 -28.633  1.00  0.00     0.009 C 
HETATM   26  C18 UNL     1     -12.814  47.015 -28.969  1.00  0.00     0.047 C 
BRANCH   7  27
HETATM   27  O2  UNL     1     -12.802  48.825 -27.372  1.00  0.00    -0.381 OA
HETATM   28  H27 UNL     1     -12.486  49.127 -26.503  1.00  0.00     0.211 HD
ENDBRANCH   7  27
ENDBRANCH   5   7
ENDBRANCH   4   5
ENDBRANCH   3   4
ENDBRANCH   1   3
BRANCH   1  29
HETATM   29  C23 UNL     1      -6.626  47.251 -28.199  1.00  0.00     0.120 C 
BRANCH  29  30
HETATM   30  C24 UNL     1      -5.330  47.565 -28.935  1.00  0.00     0.112 C 
BRANCH  30  31
HETATM   31  C25 UNL     1      -4.555  48.678 -28.264  1.00  0.00     0.217 C 
HETATM   32  O6  UNL     1      -3.985  49.572 -28.878  1.00  0.00    -0.274 OA
HETATM   33  N1  UNL     1      -4.558  48.575 -26.889  1.00  0.00    -0.361 N 
HETATM   34  H34 UNL     1      -5.045  47.806 -26.446  1.00  0.00     0.162 HD
BRANCH  33  35
HETATM   35  C26 UNL     1      -3.824  49.497 -26.046  1.00  0.00     0.122 C 
BRANCH  35  36
HETATM   36  C27 UNL     1      -2.306  49.347 -26.166  1.00  0.00     0.020 C 
BRANCH  36  37
HETATM   37  C28 UNL     1      -1.501  50.594 -25.769  1.00  0.00     0.002 C 
BRANCH  37  38
HETATM   38  C29 UNL     1      -0.064  50.620 -26.303  1.00  0.00     0.009 C 
BRANCH  38  39
HETATM   39  C30 UNL     1       0.209  51.843 -27.182  1.00  0.00     0.103 C 
BRANCH  39  40
HETATM   40  C31 UNL     1       0.252  53.153 -26.410  1.00  0.00     0.217 C 
HETATM   41  O7  UNL     1      -0.227  54.206 -26.821  1.00  0.00    -0.274 OA
HETATM   42  N2  UNL     1       0.888  53.022 -25.193  1.00  0.00    -0.357 N 
HETATM   43  H45 UNL     1       1.089  52.091 -24.851  1.00  0.00     0.162 HD
BRANCH  42  44
HETATM   44  C32 UNL     1       0.974  54.120 -24.259  1.00  0.00     0.161 C 
BRANCH  44  45
HETATM   45  C33 UNL     1       0.825  53.632 -22.840  1.00  0.00    -0.040 A 
HETATM   46  C34 UNL     1       0.068  52.485 -22.551  1.00  0.00     0.010 A 
HETATM   47  C35 UNL     1      -0.080  52.050 -21.233  1.00  0.00     0.019 A 
HETATM   48  C36 UNL     1       0.529  52.757 -20.186  1.00  0.00     0.037 A 
HETATM   49  C38 UNL     1       1.281  53.906 -20.466  1.00  0.00     0.019 A 
HETATM   50  C39 UNL     1       1.420  54.344 -21.785  1.00  0.00     0.010 A 
BRANCH  48  51
HETATM   51  C37 UNL     1       0.342  52.257 -18.802  1.00  0.00     0.176 C 
HETATM   52  O8  UNL     1      -0.320  51.288 -18.477  1.00  0.00    -0.646 OA
BRANCH  51  53
HETATM   53  O9  UNL     1       0.995  52.995 -17.886  1.00  0.00    -0.773 OA
HETATM   54  H50 UNL     1       0.787  52.556 -17.034  1.00  0.00     0.167 HD
ENDBRANCH  51  53
ENDBRANCH  48  51
ENDBRANCH  44  45
ENDBRANCH  42  44
ENDBRANCH  39  40
ENDBRANCH  38  39
ENDBRANCH  37  38
ENDBRANCH  36  37
ENDBRANCH  35  36
ENDBRANCH  33  35
ENDBRANCH  30  31
ENDBRANCH  29  30
ENDBRANCH   1  29
TORSDOF 18
ENDMDL
MODEL 2
REMARK minimizedAffinity -8.37585163
REMARK CNNscore 0.446330965
REMARK CNNaffinity 6.88320971
REMARK  18 active torsions:
REMARK  status: ('A' for Active; 'I' for Inactive)
REMARK    1  A    between atoms: C19_20  and  O2_21 
REMARK    2  A    between atoms: C19_20  and  C20_22 
REMARK    3  A    between atoms: C20_22  and  C21_24 
REMARK    4  A    between atoms: C21_24  and  O4_25 
REMARK    5  A    between atoms: O4_25  and  C22_26 
REMARK    6  A    between atoms: C22_26  and  C23_28 
REMARK    7  A    between atoms: C23_28  and  C24_29 
REMARK    8  A    between atoms: C24_29  and  C25_30 
REMARK       I    between atoms: C25_30  and  N1_32 
REMARK    9  A    between atoms: N1_32  and  C26_33 
REMARK   10  A    between atoms: C26_33  and  C27_34 
REMARK   11  A    between atoms: C27_34  and  C28_35 
REMARK   12  A    between atoms: C28_35  and  C29_36 
REMARK   13  A    between atoms: C29_36  and  C30_37 
REMARK   14  A    between atoms: C30_37  and  C31_38 
REMARK       I    between atoms: C31_38  and  N2_40 
REMARK   15  A    between atoms: N2_40  and  C32_41 
REMARK   16  A    between atoms: C32_41  and  C33_42 
REMARK   17  A    between atoms: C36_45  and  C37_46 
REMARK   18  A    between atoms: C37_46  and  O9_48 
ROOT
HETATM    1  C22 UNL     1      -1.657  50.450 -14.719  1.00  0.00     0.259 C 
HETATM    2  O5  UNL     1      -0.791  51.292 -14.899  1.00  0.00    -0.265 OA
ENDROOT
BRANCH   1   3
HETATM    3  O4  UNL     1      -2.292  49.769 -15.710  1.00  0.00    -0.314 OA
BRANCH   3   4
HETATM    4  C21 UNL     1      -2.719  50.535 -16.826  1.00  0.00     0.260 C 
BRANCH   4   5
HETATM    5  C20 UNL     1      -2.200  50.160 -18.219  1.00  0.00     0.185 C 
HETATM    6  O3  UNL     1      -2.342  48.994 -18.611  1.00  0.00    -0.292 OA
BRANCH   5   7
HETATM    7  C19 UNL     1      -1.656  51.280 -19.137  1.00  0.00     0.128 C 
HETATM    8  C14 UNL     1      -1.268  50.880 -20.606  1.00  0.00    -0.002 C 
HETATM    9  C13 UNL     1      -2.421  50.747 -21.622  1.00  0.00     0.013 C 
HETATM   10  C15 UNL     1      -0.420  49.571 -20.636  1.00  0.00     0.019 C 
HETATM   11  C16 UNL     1      -0.430  52.137 -20.997  1.00  0.00     0.002 C 
HETATM   12  C12 UNL     1      -1.915  50.702 -23.082  1.00  0.00     0.007 C 
HETATM   13  C11 UNL     1      -1.044  51.938 -23.417  1.00  0.00     0.002 C 
HETATM   14  C2  UNL     1      -0.564  52.049 -24.903  1.00  0.00    -0.016 C 
HETATM   15  C10 UNL     1       0.148  52.061 -22.417  1.00  0.00    -0.004 C 
HETATM   16  C1  UNL     1       0.500  50.980 -25.243  1.00  0.00     0.020 C 
HETATM   17  C3  UNL     1      -1.758  51.893 -25.885  1.00  0.00     0.022 C 
HETATM   18  C7  UNL     1       0.034  53.448 -25.084  1.00  0.00    -0.068 C 
HETATM   19  C4  UNL     1      -1.407  52.241 -27.332  1.00  0.00     0.084 C 
HETATM   20  C5  UNL     1      -0.729  53.584 -27.437  1.00  0.00     0.149 C 
HETATM   21  O1  UNL     1      -0.731  54.241 -28.475  1.00  0.00    -0.293 OA
HETATM   22  C6  UNL     1      -0.038  54.128 -26.243  1.00  0.00     0.053 C 
HETATM   23  C8  UNL     1       0.593  54.145 -23.861  1.00  0.00     0.035 C 
HETATM   24  C9  UNL     1       1.115  53.205 -22.778  1.00  0.00     0.010 C 
HETATM   25  C17 UNL     1       0.522  52.281 -19.817  1.00  0.00     0.009 C 
HETATM   26  C18 UNL     1      -0.333  51.889 -18.595  1.00  0.00     0.047 C 
BRANCH   7  27
HETATM   27  O2  UNL     1      -2.637  52.331 -19.157  1.00  0.00    -0.381 OA
HETATM   28  H27 UNL     1      -3.452  51.970 -19.547  1.00  0.00     0.211 HD
ENDBRANCH   7  27
ENDBRANCH   5   7
ENDBRANCH   4   5
ENDBRANCH   3   4
ENDBRANCH   1   3
BRANCH   1  29
HETATM   29  C23 UNL     1      -2.214  50.078 -13.369  1.00  0.00     0.120 C 
BRANCH  29  30
HETATM   30  C24 UNL     1      -1.113  49.817 -12.350  1.00  0.00     0.112 C 
BRANCH  30  31
HETATM   31  C25 UNL     1      -1.213  50.745 -11.159  1.00  0.00     0.217 C 
HETATM   32  O6  UNL     1      -0.379  50.790 -10.263  1.00  0.00    -0.274 OA
HETATM   33  N1  UNL     1      -2.344  51.533 -11.192  1.00  0.00    -0.361 N 
HETATM   34  H34 UNL     1      -2.996  51.440 -11.961  1.00  0.00     0.162 HD
BRANCH  33  35
HETATM   35  C26 UNL     1      -2.676  52.449 -10.120  1.00  0.00     0.122 C 
BRANCH  35  36
HETATM   36  C27 UNL     1      -2.979  53.867 -10.609  1.00  0.00     0.020 C 
BRANCH  36  37
HETATM   37  C28 UNL     1      -1.918  54.917 -10.245  1.00  0.00     0.002 C 
BRANCH  37  38
HETATM   38  C29 UNL     1      -0.543  54.335  -9.897  1.00  0.00     0.009 C 
BRANCH  38  39
HETATM   39  C30 UNL     1       0.352  54.176 -11.128  1.00  0.00     0.103 C 
BRANCH  39  40
HETATM   40  C31 UNL     1       1.823  53.980 -10.794  1.00  0.00     0.217 C 
HETATM   41  O7  UNL     1       2.293  52.934 -10.354  1.00  0.00    -0.274 OA
HETATM   42  N2  UNL     1       2.571  55.111 -11.044  1.00  0.00    -0.357 N 
HETATM   43  H45 UNL     1       2.148  55.863 -11.574  1.00  0.00     0.162 HD
BRANCH  42  44
HETATM   44  C32 UNL     1       4.006  55.127 -10.875  1.00  0.00     0.161 C 
BRANCH  44  45
HETATM   45  C33 UNL     1       4.386  55.786  -9.573  1.00  0.00    -0.040 A 
HETATM   46  C34 UNL     1       5.506  55.347  -8.846  1.00  0.00     0.010 A 
HETATM   47  C35 UNL     1       5.841  55.951  -7.633  1.00  0.00     0.019 A 
HETATM   48  C36 UNL     1       5.062  57.003  -7.132  1.00  0.00     0.037 A 
HETATM   49  C38 UNL     1       3.941  57.443  -7.848  1.00  0.00     0.019 A 
HETATM   50  C39 UNL     1       3.602  56.831  -9.058  1.00  0.00     0.010 A 
BRANCH  48  51
HETATM   51  C37 UNL     1       5.457  57.612  -5.839  1.00  0.00     0.176 C 
HETATM   52  O8  UNL     1       4.746  57.728  -4.857  1.00  0.00    -0.646 OA
BRANCH  51  53
HETATM   53  O9  UNL     1       6.730  58.051  -5.833  1.00  0.00    -0.773 OA
HETATM   54  H50 UNL     1       6.851  58.421  -4.933  1.00  0.00     0.167 HD
ENDBRANCH  51  53
ENDBRANCH  48  51
ENDBRANCH  44  45
ENDBRANCH  42  44
ENDBRANCH  39  40
ENDBRANCH  38  39
ENDBRANCH  37  38
ENDBRANCH  36  37
ENDBRANCH  35  36
ENDBRANCH  33  35
ENDBRANCH  30  31
ENDBRANCH  29  30
ENDBRANCH   1  29
TORSDOF 18
ENDMDL
MODEL 3
REMARK minimizedAffinity -9.54386806
REMARK CNNscore 0.438302368
REMARK CNNaffinity 7.50942469
REMARK  18 active torsions:
REMARK  status: ('A' for Active; 'I' for Inactive)
REMARK    1  A    between atoms: C19_20  and  O2_21 
REMARK    2  A    between atoms: C19_20  and  C20_22 
REMARK    3  A    between atoms: C20_22  and  C21_24 
REMARK    4  A    between atoms: C21_24  and  O4_25 
REMARK    5  A    between atoms: O4_25  and  C22_26 
REMARK    6  A    between atoms: C22_26  and  C23_28 
REMARK    7  A    between atoms: C23_28  and  C24_29 
REMARK    8  A    between atoms: C24_29  and  C25_30 
REMARK       I    between atoms: C25_30  and  N1_32 
REMARK    9  A    between atoms: N1_32  and  C26_33 
REMARK   10  A    between atoms: C26_33  and  C27_34 
REMARK   11  A    between atoms: C27_34  and  C28_35 
REMARK   12  A    between atoms: C28_35  and  C29_36 
REMARK   13  A    between atoms: C29_36  and  C30_37 
REMARK   14  A    between atoms: C30_37  and  C31_38 
REMARK       I    between atoms: C31_38  and  N2_40 
REMARK   15  A    between atoms: N2_40  and  C32_41 
REMARK   16  A    between atoms: C32_41  and  C33_42 
REMARK   17  A    between atoms: C36_45  and  C37_46 
REMARK   18  A    between atoms: C37_46  and  O9_48 
ROOT
HETATM    1  C22 UNL     1       1.256  53.806 -21.886  1.00  0.00     0.259 C 
HETATM    2  O5  UNL     1       1.604  54.810 -21.282  1.00  0.00    -0.265 OA
ENDROOT
BRANCH   1   3
HETATM    3  O4  UNL     1       1.452  53.595 -23.214  1.00  0.00    -0.314 OA
BRANCH   3   4
HETATM    4  C21 UNL     1       0.541  52.713 -23.852  1.00  0.00     0.260 C 
BRANCH   4   5
HETATM    5  C20 UNL     1      -0.450  53.288 -24.870  1.00  0.00     0.185 C 
HETATM    6  O3  UNL     1      -0.314  54.463 -25.233  1.00  0.00    -0.292 OA
BRANCH   5   7
HETATM    7  C19 UNL     1      -1.487  52.339 -25.517  1.00  0.00     0.128 C 
HETATM    8  C14 UNL     1      -2.272  51.371 -24.559  1.00  0.00    -0.002 C 
HETATM    9  C13 UNL     1      -3.459  51.972 -23.778  1.00  0.00     0.013 C 
HETATM   10  C15 UNL     1      -1.313  50.668 -23.549  1.00  0.00     0.019 C 
HETATM   11  C16 UNL     1      -2.848  50.380 -25.617  1.00  0.00     0.002 C 
HETATM   12  C12 UNL     1      -4.362  50.884 -23.154  1.00  0.00     0.007 C 
HETATM   13  C11 UNL     1      -4.872  49.888 -24.225  1.00  0.00     0.002 C 
HETATM   14  C2  UNL     1      -5.881  48.803 -23.720  1.00  0.00    -0.016 C 
HETATM   15  C10 UNL     1      -3.675  49.246 -24.996  1.00  0.00    -0.004 C 
HETATM   16  C1  UNL     1      -5.192  47.757 -22.814  1.00  0.00     0.020 C 
HETATM   17  C3  UNL     1      -7.048  49.456 -22.929  1.00  0.00     0.022 C 
HETATM   18  C7  UNL     1      -6.461  48.112 -24.958  1.00  0.00    -0.068 C 
HETATM   19  C4  UNL     1      -8.195  48.492 -22.626  1.00  0.00     0.084 C 
HETATM   20  C5  UNL     1      -8.656  47.764 -23.864  1.00  0.00     0.149 C 
HETATM   21  O1  UNL     1      -9.781  47.279 -23.958  1.00  0.00    -0.293 OA
HETATM   22  C6  UNL     1      -7.718  47.634 -25.005  1.00  0.00     0.053 C 
HETATM   23  C8  UNL     1      -5.629  48.104 -26.223  1.00  0.00     0.035 C 
HETATM   24  C9  UNL     1      -4.122  48.158 -25.992  1.00  0.00     0.010 C 
HETATM   25  C17 UNL     1      -1.620  50.031 -26.448  1.00  0.00     0.009 C 
HETATM   26  C18 UNL     1      -0.829  51.352 -26.523  1.00  0.00     0.047 C 
BRANCH   7  27
HETATM   27  O2  UNL     1      -2.412  53.154 -26.257  1.00  0.00    -0.381 OA
HETATM   28  H27 UNL     1      -2.867  53.736 -25.624  1.00  0.00     0.211 HD
ENDBRANCH   7  27
ENDBRANCH   5   7
ENDBRANCH   4   5
ENDBRANCH   3   4
ENDBRANCH   1   3
BRANCH   1  29
HETATM   29  C23 UNL     1       0.488  52.667 -21.267  1.00  0.00     0.120 C 
BRANCH  29  30
HETATM   30  C24 UNL     1      -0.168  53.068 -19.952  1.00  0.00     0.112 C 
BRANCH  30  31
HETATM   31  C25 UNL     1       0.353  52.253 -18.789  1.00  0.00     0.217 C 
HETATM   32  O6  UNL     1       0.028  51.092 -18.575  1.00  0.00    -0.274 OA
HETATM   33  N1  UNL     1       1.231  52.960 -17.995  1.00  0.00    -0.361 N 
HETATM   34  H34 UNL     1       1.452  53.921 -18.226  1.00  0.00     0.162 HD
BRANCH  33  35
HETATM   35  C26 UNL     1       1.803  52.397 -16.788  1.00  0.00     0.122 C 
BRANCH  35  36
HETATM   36  C27 UNL     1       3.262  52.802 -16.566  1.00  0.00     0.020 C 
BRANCH  36  37
HETATM   37  C28 UNL     1       3.985  52.027 -15.453  1.00  0.00     0.002 C 
BRANCH  37  38
HETATM   38  C29 UNL     1       3.076  51.116 -14.620  1.00  0.00     0.009 C 
BRANCH  38  39
HETATM   39  C30 UNL     1       3.851  50.331 -13.559  1.00  0.00     0.103 C 
BRANCH  39  40
HETATM   40  C31 UNL     1       3.508  50.729 -12.132  1.00  0.00     0.217 C 
HETATM   41  O7  UNL     1       4.184  50.421 -11.153  1.00  0.00    -0.274 OA
HETATM   42  N2  UNL     1       2.354  51.480 -12.062  1.00  0.00    -0.357 N 
HETATM   43  H45 UNL     1       1.961  51.844 -12.921  1.00  0.00     0.162 HD
BRANCH  42  44
HETATM   44  C32 UNL     1       1.883  52.035 -10.814  1.00  0.00     0.161 C 
BRANCH  44  45
HETATM   45  C33 UNL     1       0.443  52.469 -10.927  1.00  0.00    -0.040 A 
HETATM   46  C34 UNL     1       0.053  53.765 -10.554  1.00  0.00     0.010 A 
HETATM   47  C35 UNL     1      -1.285  54.154 -10.645  1.00  0.00     0.019 A 
HETATM   48  C36 UNL     1      -2.250  53.250 -11.112  1.00  0.00     0.037 A 
HETATM   49  C38 UNL     1      -1.869  51.953 -11.482  1.00  0.00     0.019 A 
HETATM   50  C39 UNL     1      -0.531  51.564 -11.381  1.00  0.00     0.010 A 
BRANCH  48  51
HETATM   51  C37 UNL     1      -3.659  53.708 -11.190  1.00  0.00     0.176 C 
HETATM   52  O8  UNL     1      -4.345  54.066 -10.251  1.00  0.00    -0.646 OA
BRANCH  51  53
HETATM   53  O9  UNL     1      -4.144  53.697 -12.446  1.00  0.00    -0.773 OA
HETATM   54  H50 UNL     1      -5.066  54.018 -12.347  1.00  0.00     0.167 HD
ENDBRANCH  51  53
ENDBRANCH  48  51
ENDBRANCH  44  45
ENDBRANCH  42  44
ENDBRANCH  39  40
ENDBRANCH  38  39
ENDBRANCH  37  38
ENDBRANCH  36  37
ENDBRANCH  35  36
ENDBRANCH  33  35
ENDBRANCH  30  31
ENDBRANCH  29  30
ENDBRANCH   1  29
TORSDOF 18
ENDMDL
MODEL 4
REMARK minimizedAffinity -8.87590218
REMARK CNNscore 0.43778336
REMARK CNNaffinity 6.86573792
REMARK  18 active torsions:
REMARK  status: ('A' for Active; 'I' for Inactive)
REMARK    1  A    between atoms: C19_20  and  O2_21 
REMARK    2  A    between atoms: C19_20  and  C20_22 
REMARK    3  A    between atoms: C20_22  and  C21_24 
REMARK    4  A    between atoms: C21_24  and  O4_25 
REMARK    5  A    between atoms: O4_25  and  C22_26 
REMARK    6  A    between atoms: C22_26  and  C23_28 
REMARK    7  A    between atoms: C23_28  and  C24_29 
REMARK    8  A    between atoms: C24_29  and  C25_30 
REMARK       I    between atoms: C25_30  and  N1_32 
REMARK    9  A    between atoms: N1_32  and  C26_33 
REMARK   10  A    between atoms: C26_33  and  C27_34 
REMARK   11  A    between atoms: C27_34  and  C28_35 
REMARK   12  A    between atoms: C28_35  and  C29_36 
REMARK   13  A    between atoms: C29_36  and  C30_37 
REMARK   14  A    between atoms: C30_37  and  C31_38 
REMARK       I    between atoms: C31_38  and  N2_40 
REMARK   15  A    between atoms: N2_40  and  C32_41 
REMARK   16  A    between atoms: C32_41  and  C33_42 
REMARK   17  A    between atoms: C36_45  and  C37_46 
REMARK   18  A    between atoms: C37_46  and  O9_48 
ROOT
HETATM    1  C22 UNL     1      -2.717  50.618 -17.352  1.00  0.00     0.259 C 
HETATM    2  O5  UNL     1      -2.597  51.609 -18.057  1.00  0.00    -0.265 OA
ENDROOT
BRANCH   1   3
HETATM    3  O4  UNL     1      -2.607  49.337 -17.793  1.00  0.00    -0.314 OA
BRANCH   3   4
HETATM    4  C21 UNL     1      -3.668  48.858 -18.606  1.00  0.00     0.260 C 
BRANCH   4   5
HETATM    5  C20 UNL     1      -3.477  47.538 -19.363  1.00  0.00     0.185 C 
HETATM    6  O3  UNL     1      -3.610  46.474 -18.745  1.00  0.00    -0.292 OA
BRANCH   5   7
HETATM    7  C19 UNL     1      -3.275  47.583 -20.896  1.00  0.00     0.128 C 
HETATM    8  C14 UNL     1      -2.952  48.981 -21.538  1.00  0.00    -0.002 C 
HETATM    9  C13 UNL     1      -1.496  49.478 -21.434  1.00  0.00     0.013 C 
HETATM   10  C15 UNL     1      -3.901  50.092 -20.992  1.00  0.00     0.019 C 
HETATM   11  C16 UNL     1      -3.236  48.643 -23.035  1.00  0.00     0.002 C 
HETATM   12  C12 UNL     1      -1.211  50.665 -22.383  1.00  0.00     0.007 C 
HETATM   13  C11 UNL     1      -1.554  50.311 -23.850  1.00  0.00     0.002 C 
HETATM   14  C2  UNL     1      -1.206  51.405 -24.914  1.00  0.00    -0.016 C 
HETATM   15  C10 UNL     1      -3.038  49.841 -23.973  1.00  0.00    -0.004 C 
HETATM   16  C1  UNL     1      -2.140  52.632 -24.800  1.00  0.00     0.020 C 
HETATM   17  C3  UNL     1       0.265  51.883 -24.757  1.00  0.00     0.022 C 
HETATM   18  C7  UNL     1      -1.363  50.763 -26.295  1.00  0.00    -0.068 C 
HETATM   19  C4  UNL     1       0.748  52.760 -25.913  1.00  0.00     0.084 C 
HETATM   20  C5  UNL     1       0.474  52.122 -27.252  1.00  0.00     0.149 C 
HETATM   21  O1  UNL     1       1.112  52.414 -28.260  1.00  0.00    -0.293 OA
HETATM   22  C6  UNL     1      -0.602  51.106 -27.351  1.00  0.00     0.053 C 
HETATM   23  C8  UNL     1      -2.313  49.591 -26.430  1.00  0.00     0.035 C 
HETATM   24  C9  UNL     1      -3.466  49.591 -25.432  1.00  0.00     0.010 C 
HETATM   25  C17 UNL     1      -4.601  47.971 -22.970  1.00  0.00     0.009 C 
HETATM   26  C18 UNL     1      -4.553  47.148 -21.667  1.00  0.00     0.047 C 
BRANCH   7  27
HETATM   27  O2  UNL     1      -2.237  46.642 -21.219  1.00  0.00    -0.381 OA
HETATM   28  H27 UNL     1      -1.420  46.940 -20.784  1.00  0.00     0.211 HD
ENDBRANCH   7  27
ENDBRANCH   5   7
ENDBRANCH   4   5
ENDBRANCH   3   4
ENDBRANCH   1   3
BRANCH   1  29
HETATM   29  C23 UNL     1      -3.078  50.655 -15.889  1.00  0.00     0.120 C 
BRANCH  29  30
HETATM   30  C24 UNL     1      -1.843  50.708 -14.999  1.00  0.00     0.112 C 
BRANCH  30  31
HETATM   31  C25 UNL     1      -1.954  51.786 -13.943  1.00  0.00     0.217 C 
HETATM   32  O6  UNL     1      -0.986  52.303 -13.399  1.00  0.00    -0.274 OA
HETATM   33  N1  UNL     1      -3.261  52.120 -13.658  1.00  0.00    -0.361 N 
HETATM   34  H34 UNL     1      -4.015  51.647 -14.142  1.00  0.00     0.162 HD
BRANCH  33  35
HETATM   35  C26 UNL     1      -3.604  53.084 -12.632  1.00  0.00     0.122 C 
BRANCH  35  36
HETATM   36  C27 UNL     1      -3.682  52.472 -11.232  1.00  0.00     0.020 C 
BRANCH  36  37
HETATM   37  C28 UNL     1      -2.547  52.886 -10.282  1.00  0.00     0.002 C 
BRANCH  37  38
HETATM   38  C29 UNL     1      -2.425  54.398 -10.060  1.00  0.00     0.009 C 
BRANCH  38  39
HETATM   39  C30 UNL     1      -1.102  54.960 -10.589  1.00  0.00     0.103 C 
BRANCH  39  40
HETATM   40  C31 UNL     1       0.098  54.070 -10.302  1.00  0.00     0.217 C 
HETATM   41  O7  UNL     1       0.418  53.693  -9.177  1.00  0.00    -0.274 OA
HETATM   42  N2  UNL     1       0.784  53.732 -11.449  1.00  0.00    -0.357 N 
HETATM   43  H45 UNL     1       0.354  53.927 -12.345  1.00  0.00     0.162 HD
BRANCH  42  44
HETATM   44  C32 UNL     1       1.911  52.828 -11.422  1.00  0.00     0.161 C 
BRANCH  44  45
HETATM   45  C33 UNL     1       3.084  53.453 -10.710  1.00  0.00    -0.040 A 
HETATM   46  C34 UNL     1       3.727  52.779  -9.658  1.00  0.00     0.010 A 
HETATM   47  C35 UNL     1       4.801  53.372  -8.992  1.00  0.00     0.019 A 
HETATM   48  C36 UNL     1       5.247  54.647  -9.370  1.00  0.00     0.037 A 
HETATM   49  C38 UNL     1       4.607  55.327 -10.415  1.00  0.00     0.019 A 
HETATM   50  C39 UNL     1       3.527  54.735 -11.074  1.00  0.00     0.010 A 
BRANCH  48  51
HETATM   51  C37 UNL     1       6.391  55.235  -8.632  1.00  0.00     0.176 C 
HETATM   52  O8  UNL     1       6.313  56.030  -7.713  1.00  0.00    -0.646 OA
BRANCH  51  53
HETATM   53  O9  UNL     1       7.583  54.801  -9.080  1.00  0.00    -0.773 OA
HETATM   54  H50 UNL     1       8.234  55.263  -8.511  1.00  0.00     0.167 HD
ENDBRANCH  51  53
ENDBRANCH  48  51
ENDBRANCH  44  45
ENDBRANCH  42  44
ENDBRANCH  39  40
ENDBRANCH  38  39
ENDBRANCH  37  38
ENDBRANCH  36  37
ENDBRANCH  35  36
ENDBRANCH  33  35
ENDBRANCH  30  31
ENDBRANCH  29  30
ENDBRANCH   1  29
TORSDOF 18
ENDMDL
MODEL 5
REMARK minimizedAffinity -9.04206467
REMARK CNNscore 0.399797112
REMARK CNNaffinity 6.30031538
REMARK  18 active torsions:
REMARK  status: ('A' for Active; 'I' for Inactive)
REMARK    1  A    between atoms: C19_20  and  O2_21 
REMARK    2  A    between atoms: C19_20  and  C20_22 
REMARK    3  A    between atoms: C20_22  and  C21_24 
REMARK    4  A    between atoms: C21_24  and  O4_25 
REMARK    5  A    between atoms: O4_25  and  C22_26 
REMARK    6  A    between atoms: C22_26  and  C23_28 
REMARK    7  A    between atoms: C23_28  and  C24_29 
REMARK    8  A    between atoms: C24_29  and  C25_30 
REMARK       I    between atoms: C25_30  and  N1_32 
REMARK    9  A    between atoms: N1_32  and  C26_33 
REMARK   10  A    between atoms: C26_33  and  C27_34 
REMARK   11  A    between atoms: C27_34  and  C28_35 
REMARK   12  A    between atoms: C28_35  and  C29_36 
REMARK   13  A    between atoms: C29_36  and  C30_37 
REMARK   14  A    between atoms: C30_37  and  C31_38 
REMARK       I    between atoms: C31_38  and  N2_40 
REMARK   15  A    between atoms: N2_40  and  C32_41 
REMARK   16  A    between atoms: C32_41  and  C33_42 
REMARK   17  A    between atoms: C36_45  and  C37_46 
REMARK   18  A    between atoms: C37_46  and  O9_48 
ROOT
HETATM    1  C22 UNL     1      -2.573  49.879 -25.101  1.00  0.00     0.259 C 
HETATM    2  O5  UNL     1      -1.855  50.683 -25.676  1.00  0.00    -0.265 OA
ENDROOT
BRANCH   1   3
HETATM    3  O4  UNL     1      -3.083  50.051 -23.853  1.00  0.00    -0.314 OA
BRANCH   3   4
HETATM    4  C21 UNL     1      -2.266  49.623 -22.774  1.00  0.00     0.260 C 
BRANCH   4   5
HETATM    5  C20 UNL     1      -2.366  50.364 -21.436  1.00  0.00     0.185 C 
HETATM    6  O3  UNL     1      -3.478  50.484 -20.905  1.00  0.00    -0.292 OA
BRANCH   5   7
HETATM    7  C19 UNL     1      -1.061  50.799 -20.727  1.00  0.00     0.128 C 
HETATM    8  C14 UNL     1      -1.072  50.830 -19.156  1.00  0.00    -0.002 C 
HETATM    9  C13 UNL     1      -0.897  49.481 -18.429  1.00  0.00     0.013 C 
HETATM   10  C15 UNL     1      -2.353  51.531 -18.609  1.00  0.00     0.019 C 
HETATM   11  C16 UNL     1       0.216  51.676 -18.912  1.00  0.00     0.002 C 
HETATM   12  C12 UNL     1      -0.571  49.661 -16.929  1.00  0.00     0.007 C 
HETATM   13  C11 UNL     1       0.681  50.548 -16.723  1.00  0.00     0.002 C 
HETATM   14  C2  UNL     1       1.164  50.712 -15.244  1.00  0.00    -0.016 C 
HETATM   15  C10 UNL     1       0.498  51.931 -17.425  1.00  0.00    -0.004 C 
HETATM   16  C1  UNL     1       0.189  51.579 -14.415  1.00  0.00     0.020 C 
HETATM   17  C3  UNL     1       1.310  49.328 -14.552  1.00  0.00     0.022 C 
HETATM   18  C7  UNL     1       2.541  51.380 -15.287  1.00  0.00    -0.068 C 
HETATM   19  C4  UNL     1       2.016  49.394 -13.197  1.00  0.00     0.084 C 
HETATM   20  C5  UNL     1       3.317  50.153 -13.280  1.00  0.00     0.149 C 
HETATM   21  O1  UNL     1       4.223  49.990 -12.467  1.00  0.00    -0.293 OA
HETATM   22  C6  UNL     1       3.505  51.127 -14.382  1.00  0.00     0.053 C 
HETATM   23  C8  UNL     1       2.874  52.246 -16.484  1.00  0.00     0.035 C 
HETATM   24  C9  UNL     1       1.667  52.898 -17.150  1.00  0.00     0.010 C 
HETATM   25  C17 UNL     1       0.014  52.865 -19.842  1.00  0.00     0.009 C 
HETATM   26  C18 UNL     1      -0.658  52.256 -21.088  1.00  0.00     0.047 C 
BRANCH   7  27
HETATM   27  O2  UNL     1      -0.011  49.934 -21.195  1.00  0.00    -0.381 OA
HETATM   28  H27 UNL     1      -0.230  49.026 -20.923  1.00  0.00     0.211 HD
ENDBRANCH   7  27
ENDBRANCH   5   7
ENDBRANCH   4   5
ENDBRANCH   3   4
ENDBRANCH   1   3
BRANCH   1  29
HETATM   29  C23 UNL     1      -2.953  48.531 -25.657  1.00  0.00     0.120 C 
BRANCH  29  30
HETATM   30  C24 UNL     1      -4.351  48.537 -26.262  1.00  0.00     0.112 C 
BRANCH  30  31
HETATM   31  C25 UNL     1      -4.319  48.777 -27.755  1.00  0.00     0.217 C 
HETATM   32  O6  UNL     1      -3.486  49.483 -28.310  1.00  0.00    -0.274 OA
HETATM   33  N1  UNL     1      -5.330  48.118 -28.422  1.00  0.00    -0.361 N 
HETATM   34  H34 UNL     1      -5.990  47.555 -27.899  1.00  0.00     0.162 HD
BRANCH  33  35
HETATM   35  C26 UNL     1      -5.530  48.257 -29.850  1.00  0.00     0.122 C 
BRANCH  35  36
HETATM   36  C27 UNL     1      -5.109  47.018 -30.642  1.00  0.00     0.020 C 
BRANCH  36  37
HETATM   37  C28 UNL     1      -5.756  46.888 -32.030  1.00  0.00     0.002 C 
BRANCH  37  38
HETATM   38  C29 UNL     1      -7.232  47.299 -32.084  1.00  0.00     0.009 C 
BRANCH  38  39
HETATM   39  C30 UNL     1      -7.696  47.625 -33.506  1.00  0.00     0.103 C 
BRANCH  39  40
HETATM   40  C31 UNL     1      -8.671  46.609 -34.079  1.00  0.00     0.217 C 
HETATM   41  O7  UNL     1      -9.326  45.826 -33.395  1.00  0.00    -0.274 OA
HETATM   42  N2  UNL     1      -8.740  46.668 -35.455  1.00  0.00    -0.357 N 
HETATM   43  H45 UNL     1      -8.314  47.456 -35.926  1.00  0.00     0.162 HD
BRANCH  42  44
HETATM   44  C32 UNL     1      -9.662  45.848 -36.206  1.00  0.00     0.161 C 
BRANCH  44  45
HETATM   45  C33 UNL     1     -10.720  46.695 -36.867  1.00  0.00    -0.040 A 
HETATM   46  C34 UNL     1     -12.082  46.489 -36.588  1.00  0.00     0.010 A 
HETATM   47  C35 UNL     1     -13.056  47.265 -37.218  1.00  0.00     0.019 A 
HETATM   48  C36 UNL     1     -12.681  48.260 -38.133  1.00  0.00     0.037 A 
HETATM   49  C38 UNL     1     -11.325  48.467 -38.420  1.00  0.00     0.019 A 
HETATM   50  C39 UNL     1     -10.353  47.683 -37.795  1.00  0.00     0.010 A 
BRANCH  48  51
HETATM   51  C37 UNL     1     -13.753  49.058 -38.777  1.00  0.00     0.176 C 
HETATM   52  O8  UNL     1     -13.680  50.235 -39.081  1.00  0.00    -0.646 OA
BRANCH  51  53
HETATM   53  O9  UNL     1     -14.869  48.344 -39.012  1.00  0.00    -0.773 OA
HETATM   54  H50 UNL     1     -15.479  48.987 -39.432  1.00  0.00     0.167 HD
ENDBRANCH  51  53
ENDBRANCH  48  51
ENDBRANCH  44  45
ENDBRANCH  42  44
ENDBRANCH  39  40
ENDBRANCH  38  39
ENDBRANCH  37  38
ENDBRANCH  36  37
ENDBRANCH  35  36
ENDBRANCH  33  35
ENDBRANCH  30  31
ENDBRANCH  29  30
ENDBRANCH   1  29
TORSDOF 18
ENDMDL
MODEL 6
REMARK minimizedAffinity -8.69226837
REMARK CNNscore 0.383761048
REMARK CNNaffinity 6.64233446
REMARK  18 active torsions:
REMARK  status: ('A' for Active; 'I' for Inactive)
REMARK    1  A    between atoms: C19_20  and  O2_21 
REMARK    2  A    between atoms: C19_20  and  C20_22 
REMARK    3  A    between atoms: C20_22  and  C21_24 
REMARK    4  A    between atoms: C21_24  and  O4_25 
REMARK    5  A    between atoms: O4_25  and  C22_26 
REMARK    6  A    between atoms: C22_26  and  C23_28 
REMARK    7  A    between atoms: C23_28  and  C24_29 
REMARK    8  A    between atoms: C24_29  and  C25_30 
REMARK       I    between atoms: C25_30  and  N1_32 
REMARK    9  A    between atoms: N1_32  and  C26_33 
REMARK   10  A    between atoms: C26_33  and  C27_34 
REMARK   11  A    between atoms: C27_34  and  C28_35 
REMARK   12  A    between atoms: C28_35  and  C29_36 
REMARK   13  A    between atoms: C29_36  and  C30_37 
REMARK   14  A    between atoms: C30_37  and  C31_38 
REMARK       I    between atoms: C31_38  and  N2_40 
REMARK   15  A    between atoms: N2_40  and  C32_41 
REMARK   16  A    between atoms: C32_41  and  C33_42 
REMARK   17  A    between atoms: C36_45  and  C37_46 
REMARK   18  A    between atoms: C37_46  and  O9_48 
ROOT
HETATM    1  C22 UNL     1      -3.062  51.341 -14.536  1.00  0.00     0.259 C 
HETATM    2  O5  UNL     1      -3.546  52.314 -13.978  1.00  0.00    -0.265 OA
ENDROOT
BRANCH   1   3
HETATM    3  O4  UNL     1      -3.100  51.120 -15.877  1.00  0.00    -0.314 OA
BRANCH   3   4
HETATM    4  C21 UNL     1      -2.737  49.818 -16.311  1.00  0.00     0.260 C 
BRANCH   4   5
HETATM    5  C20 UNL     1      -1.558  49.666 -17.278  1.00  0.00     0.185 C 
HETATM    6  O3  UNL     1      -0.407  49.749 -16.829  1.00  0.00    -0.292 OA
BRANCH   5   7
HETATM    7  C19 UNL     1      -1.846  49.267 -18.744  1.00  0.00     0.128 C 
HETATM    8  C14 UNL     1      -1.708  50.389 -19.836  1.00  0.00    -0.002 C 
HETATM    9  C13 UNL     1      -0.280  50.726 -20.314  1.00  0.00     0.013 C 
HETATM   10  C15 UNL     1      -2.411  51.708 -19.389  1.00  0.00     0.019 C 
HETATM   11  C16 UNL     1      -2.454  49.689 -21.013  1.00  0.00     0.002 C 
HETATM   12  C12 UNL     1      -0.280  51.568 -21.611  1.00  0.00     0.007 C 
HETATM   13  C11 UNL     1      -1.073  50.867 -22.741  1.00  0.00     0.002 C 
HETATM   14  C2  UNL     1      -1.050  51.582 -24.133  1.00  0.00    -0.016 C 
HETATM   15  C10 UNL     1      -2.532  50.555 -22.279  1.00  0.00    -0.004 C 
HETATM   16  C1  UNL     1      -1.873  52.891 -24.118  1.00  0.00     0.020 C 
HETATM   17  C3  UNL     1       0.406  51.914 -24.562  1.00  0.00     0.022 C 
HETATM   18  C7  UNL     1      -1.648  50.609 -25.153  1.00  0.00    -0.068 C 
HETATM   19  C4  UNL     1       0.523  52.380 -26.014  1.00  0.00     0.084 C 
HETATM   20  C5  UNL     1      -0.172  51.435 -26.963  1.00  0.00     0.149 C 
HETATM   21  O1  UNL     1       0.125  51.367 -28.153  1.00  0.00    -0.293 OA
HETATM   22  C6  UNL     1      -1.248  50.561 -26.438  1.00  0.00     0.053 C 
HETATM   23  C8  UNL     1      -2.619  49.561 -24.652  1.00  0.00     0.035 C 
HETATM   24  C9  UNL     1      -3.402  49.965 -23.406  1.00  0.00     0.010 C 
HETATM   25  C17 UNL     1      -3.745  49.220 -20.357  1.00  0.00     0.009 C 
HETATM   26  C18 UNL     1      -3.311  48.786 -18.943  1.00  0.00     0.047 C 
BRANCH   7  27
HETATM   27  O2  UNL     1      -0.983  48.161 -19.064  1.00  0.00    -0.381 OA
HETATM   28  H27 UNL     1      -0.064  48.472 -18.996  1.00  0.00     0.211 HD
ENDBRANCH   7  27
ENDBRANCH   5   7
ENDBRANCH   4   5
ENDBRANCH   3   4
ENDBRANCH   1   3
BRANCH   1  29
HETATM   29  C23 UNL     1      -2.403  50.191 -13.819  1.00  0.00     0.120 C 
BRANCH  29  30
HETATM   30  C24 UNL     1      -2.969  49.992 -12.419  1.00  0.00     0.112 C 
BRANCH  30  31
HETATM   31  C25 UNL     1      -2.249  50.839 -11.393  1.00  0.00     0.217 C 
HETATM   32  O6  UNL     1      -1.089  50.648 -11.050  1.00  0.00    -0.274 OA
HETATM   33  N1  UNL     1      -3.041  51.848 -10.885  1.00  0.00    -0.361 N 
HETATM   34  H34 UNL     1      -3.996  51.945 -11.209  1.00  0.00     0.162 HD
BRANCH  33  35
HETATM   35  C26 UNL     1      -2.577  52.740  -9.843  1.00  0.00     0.122 C 
BRANCH  35  36
HETATM   36  C27 UNL     1      -2.845  54.216 -10.148  1.00  0.00     0.020 C 
BRANCH  36  37
HETATM   37  C28 UNL     1      -1.587  55.064 -10.387  1.00  0.00     0.002 C 
BRANCH  37  38
HETATM   38  C29 UNL     1      -0.270  54.360 -10.039  1.00  0.00     0.009 C 
BRANCH  38  39
HETATM   39  C30 UNL     1       0.466  53.852 -11.281  1.00  0.00     0.103 C 
BRANCH  39  40
HETATM   40  C31 UNL     1       1.965  53.689 -11.079  1.00  0.00     0.217 C 
HETATM   41  O7  UNL     1       2.542  52.605 -11.077  1.00  0.00    -0.274 OA
HETATM   42  N2  UNL     1       2.603  54.898 -10.902  1.00  0.00    -0.357 N 
HETATM   43  H45 UNL     1       2.091  55.749 -11.099  1.00  0.00     0.162 HD
BRANCH  42  44
HETATM   44  C32 UNL     1       4.039  54.988 -10.772  1.00  0.00     0.161 C 
BRANCH  44  45
HETATM   45  C33 UNL     1       4.421  55.704  -9.501  1.00  0.00    -0.040 A 
HETATM   46  C34 UNL     1       5.579  55.341  -8.793  1.00  0.00     0.010 A 
HETATM   47  C35 UNL     1       5.916  55.997  -7.607  1.00  0.00     0.019 A 
HETATM   48  C36 UNL     1       5.099  57.026  -7.115  1.00  0.00     0.037 A 
HETATM   49  C38 UNL     1       3.940  57.389  -7.813  1.00  0.00     0.019 A 
HETATM   50  C39 UNL     1       3.600  56.726  -8.995  1.00  0.00     0.010 A 
BRANCH  48  51
HETATM   51  C37 UNL     1       5.498  57.692  -5.852  1.00  0.00     0.176 C 
HETATM   52  O8  UNL     1       4.799  57.825  -4.864  1.00  0.00    -0.646 OA
BRANCH  51  53
HETATM   53  O9  UNL     1       6.759  58.163  -5.883  1.00  0.00    -0.773 OA
HETATM   54  H50 UNL     1       6.883  58.568  -4.999  1.00  0.00     0.167 HD
ENDBRANCH  51  53
ENDBRANCH  48  51
ENDBRANCH  44  45
ENDBRANCH  42  44
ENDBRANCH  39  40
ENDBRANCH  38  39
ENDBRANCH  37  38
ENDBRANCH  36  37
ENDBRANCH  35  36
ENDBRANCH  33  35
ENDBRANCH  30  31
ENDBRANCH  29  30
ENDBRANCH   1  29
TORSDOF 18
ENDMDL
MODEL 7
REMARK minimizedAffinity -8.44885159
REMARK CNNscore 0.350740641
REMARK CNNaffinity 6.72901392
REMARK  18 active torsions:
REMARK  status: ('A' for Active; 'I' for Inactive)
REMARK    1  A    between atoms: C19_20  and  O2_21 
REMARK    2  A    between atoms: C19_20  and  C20_22 
REMARK    3  A    between atoms: C20_22  and  C21_24 
REMARK    4  A    between atoms: C21_24  and  O4_25 
REMARK    5  A    between atoms: O4_25  and  C22_26 
REMARK    6  A    between atoms: C22_26  and  C23_28 
REMARK    7  A    between atoms: C23_28  and  C24_29 
REMARK    8  A    between atoms: C24_29  and  C25_30 
REMARK       I    between atoms: C25_30  and  N1_32 
REMARK    9  A    between atoms: N1_32  and  C26_33 
REMARK   10  A    between atoms: C26_33  and  C27_34 
REMARK   11  A    between atoms: C27_34  and  C28_35 
REMARK   12  A    between atoms: C28_35  and  C29_36 
REMARK   13  A    between atoms: C29_36  and  C30_37 
REMARK   14  A    between atoms: C30_37  and  C31_38 
REMARK       I    between atoms: C31_38  and  N2_40 
REMARK   15  A    between atoms: N2_40  and  C32_41 
REMARK   16  A    between atoms: C32_41  and  C33_42 
REMARK   17  A    between atoms: C36_45  and  C37_46 
REMARK   18  A    between atoms: C37_46  and  O9_48 
ROOT
HETATM    1  C22 UNL     1       0.345  52.665 -22.538  1.00  0.00     0.259 C 
HETATM    2  O5  UNL     1       0.697  52.972 -23.667  1.00  0.00    -0.265 OA
ENDROOT
BRANCH   1   3
HETATM    3  O4  UNL     1      -0.857  52.112 -22.226  1.00  0.00    -0.314 OA
BRANCH   3   4
HETATM    4  C21 UNL     1      -0.996  50.722 -22.481  1.00  0.00     0.260 C 
BRANCH   4   5
HETATM    5  C20 UNL     1      -1.884  50.272 -23.647  1.00  0.00     0.185 C 
HETATM    6  O3  UNL     1      -1.558  50.589 -24.798  1.00  0.00    -0.292 OA
BRANCH   5   7
HETATM    7  C19 UNL     1      -3.065  49.316 -23.356  1.00  0.00     0.128 C 
HETATM    8  C14 UNL     1      -4.243  49.291 -24.396  1.00  0.00    -0.002 C 
HETATM    9  C13 UNL     1      -4.023  48.465 -25.680  1.00  0.00     0.013 C 
HETATM   10  C15 UNL     1      -4.680  50.733 -24.797  1.00  0.00     0.019 C 
HETATM   11  C16 UNL     1      -5.322  48.562 -23.538  1.00  0.00     0.002 C 
HETATM   12  C12 UNL     1      -5.339  48.218 -26.452  1.00  0.00     0.007 C 
HETATM   13  C11 UNL     1      -6.404  47.542 -25.554  1.00  0.00     0.002 C 
HETATM   14  C2  UNL     1      -7.743  47.150 -26.264  1.00  0.00    -0.016 C 
HETATM   15  C10 UNL     1      -6.661  48.390 -24.269  1.00  0.00    -0.004 C 
HETATM   16  C1  UNL     1      -8.582  48.396 -26.633  1.00  0.00     0.020 C 
HETATM   17  C3  UNL     1      -7.468  46.335 -27.557  1.00  0.00     0.022 C 
HETATM   18  C7  UNL     1      -8.531  46.267 -25.291  1.00  0.00    -0.068 C 
HETATM   19  C4  UNL     1      -8.723  45.705 -28.161  1.00  0.00     0.084 C 
HETATM   20  C5  UNL     1      -9.513  44.933 -27.133  1.00  0.00     0.149 C 
HETATM   21  O1  UNL     1     -10.291  44.035 -27.444  1.00  0.00    -0.293 OA
HETATM   22  C6  UNL     1      -9.340  45.273 -25.700  1.00  0.00     0.053 C 
HETATM   23  C8  UNL     1      -8.266  46.431 -23.809  1.00  0.00     0.035 C 
HETATM   24  C9  UNL     1      -7.799  47.824 -23.398  1.00  0.00     0.010 C 
HETATM   25  C17 UNL     1      -5.288  49.341 -22.229  1.00  0.00     0.009 C 
HETATM   26  C18 UNL     1      -3.796  49.677 -22.032  1.00  0.00     0.047 C 
BRANCH   7  27
HETATM   27  O2  UNL     1      -2.518  47.995 -23.199  1.00  0.00    -0.381 OA
HETATM   28  H27 UNL     1      -2.108  47.742 -24.044  1.00  0.00     0.211 HD
ENDBRANCH   7  27
ENDBRANCH   5   7
ENDBRANCH   4   5
ENDBRANCH   3   4
ENDBRANCH   1   3
BRANCH   1  29
HETATM   29  C23 UNL     1       1.161  52.914 -21.296  1.00  0.00     0.120 C 
BRANCH  29  30
HETATM   30  C24 UNL     1       0.302  53.410 -20.140  1.00  0.00     0.112 C 
BRANCH  30  31
HETATM   31  C25 UNL     1       0.566  52.635 -18.867  1.00  0.00     0.217 C 
HETATM   32  O6  UNL     1      -0.089  51.660 -18.520  1.00  0.00    -0.274 OA
HETATM   33  N1  UNL     1       1.621  53.145 -18.142  1.00  0.00    -0.361 N 
HETATM   34  H34 UNL     1       2.117  53.960 -18.485  1.00  0.00     0.162 HD
BRANCH  33  35
HETATM   35  C26 UNL     1       2.009  52.599 -16.857  1.00  0.00     0.122 C 
BRANCH  35  36
HETATM   36  C27 UNL     1       3.497  52.777 -16.550  1.00  0.00     0.020 C 
BRANCH  36  37
HETATM   37  C28 UNL     1       4.025  51.911 -15.395  1.00  0.00     0.002 C 
BRANCH  37  38
HETATM   38  C29 UNL     1       2.961  51.500 -14.371  1.00  0.00     0.009 C 
BRANCH  38  39
HETATM   39  C30 UNL     1       3.114  50.044 -13.924  1.00  0.00     0.103 C 
BRANCH  39  40
HETATM   40  C31 UNL     1       4.015  49.868 -12.712  1.00  0.00     0.217 C 
HETATM   41  O7  UNL     1       5.213  49.602 -12.780  1.00  0.00    -0.274 OA
HETATM   42  N2  UNL     1       3.336  50.046 -11.525  1.00  0.00    -0.357 N 
HETATM   43  H45 UNL     1       2.405  50.441 -11.556  1.00  0.00     0.162 HD
BRANCH  42  44
HETATM   44  C32 UNL     1       4.011  50.005 -10.249  1.00  0.00     0.161 C 
BRANCH  44  45
HETATM   45  C33 UNL     1       4.519  51.371  -9.864  1.00  0.00    -0.040 A 
HETATM   46  C34 UNL     1       5.779  51.526  -9.262  1.00  0.00     0.010 A 
HETATM   47  C35 UNL     1       6.233  52.793  -8.892  1.00  0.00     0.019 A 
HETATM   48  C36 UNL     1       5.434  53.923  -9.122  1.00  0.00     0.037 A 
HETATM   49  C38 UNL     1       4.174  53.776  -9.717  1.00  0.00     0.019 A 
HETATM   50  C39 UNL     1       3.718  52.505 -10.078  1.00  0.00     0.010 A 
BRANCH  48  51
HETATM   51  C37 UNL     1       5.960  55.247  -8.711  1.00  0.00     0.176 C 
HETATM   52  O8  UNL     1       5.338  56.109  -8.117  1.00  0.00    -0.646 OA
BRANCH  51  53
HETATM   53  O9  UNL     1       7.245  55.433  -9.065  1.00  0.00    -0.773 OA
HETATM   54  H50 UNL     1       7.455  56.333  -8.735  1.00  0.00     0.167 HD
ENDBRANCH  51  53
ENDBRANCH  48  51
ENDBRANCH  44  45
ENDBRANCH  42  44
ENDBRANCH  39  40
ENDBRANCH  38  39
ENDBRANCH  37  38
ENDBRANCH  36  37
ENDBRANCH  35  36
ENDBRANCH  33  35
ENDBRANCH  30  31
ENDBRANCH  29  30
ENDBRANCH   1  29
TORSDOF 18
ENDMDL
MODEL 8
REMARK minimizedAffinity -8.2121706
REMARK CNNscore 0.3374255
REMARK CNNaffinity 6.61617994
REMARK  18 active torsions:
REMARK  status: ('A' for Active; 'I' for Inactive)
REMARK    1  A    between atoms: C19_20  and  O2_21 
REMARK    2  A    between atoms: C19_20  and  C20_22 
REMARK    3  A    between atoms: C20_22  and  C21_24 
REMARK    4  A    between atoms: C21_24  and  O4_25 
REMARK    5  A    between atoms: O4_25  and  C22_26 
REMARK    6  A    between atoms: C22_26  and  C23_28 
REMARK    7  A    between atoms: C23_28  and  C24_29 
REMARK    8  A    between atoms: C24_29  and  C25_30 
REMARK       I    between atoms: C25_30  and  N1_32 
REMARK    9  A    between atoms: N1_32  and  C26_33 
REMARK   10  A    between atoms: C26_33  and  C27_34 
REMARK   11  A    between atoms: C27_34  and  C28_35 
REMARK   12  A    between atoms: C28_35  and  C29_36 
REMARK   13  A    between atoms: C29_36  and  C30_37 
REMARK   14  A    between atoms: C30_37  and  C31_38 
REMARK       I    between atoms: C31_38  and  N2_40 
REMARK   15  A    between atoms: N2_40  and  C32_41 
REMARK   16  A    between atoms: C32_41  and  C33_42 
REMARK   17  A    between atoms: C36_45  and  C37_46 
REMARK   18  A    between atoms: C37_46  and  O9_48 
ROOT
HETATM    1  C22 UNL     1       0.401  52.741 -22.646  1.00  0.00     0.259 C 
HETATM    2  O5  UNL     1       0.861  53.224 -23.670  1.00  0.00    -0.265 OA
ENDROOT
BRANCH   1   3
HETATM    3  O4  UNL     1      -0.827  52.165 -22.546  1.00  0.00    -0.314 OA
BRANCH   3   4
HETATM    4  C21 UNL     1      -1.112  51.128 -23.472  1.00  0.00     0.260 C 
BRANCH   4   5
HETATM    5  C20 UNL     1      -2.575  50.841 -23.828  1.00  0.00     0.185 C 
HETATM    6  O3  UNL     1      -3.226  51.715 -24.416  1.00  0.00    -0.292 OA
BRANCH   5   7
HETATM    7  C19 UNL     1      -3.137  49.422 -23.577  1.00  0.00     0.128 C 
HETATM    8  C14 UNL     1      -4.627  49.315 -23.086  1.00  0.00    -0.002 C 
HETATM    9  C13 UNL     1      -5.727  49.450 -24.160  1.00  0.00     0.013 C 
HETATM   10  C15 UNL     1      -4.922  50.325 -21.936  1.00  0.00     0.019 C 
HETATM   11  C16 UNL     1      -4.623  47.836 -22.590  1.00  0.00     0.002 C 
HETATM   12  C12 UNL     1      -7.108  48.985 -23.646  1.00  0.00     0.007 C 
HETATM   13  C11 UNL     1      -7.055  47.533 -23.112  1.00  0.00     0.002 C 
HETATM   14  C2  UNL     1      -8.424  46.922 -22.662  1.00  0.00    -0.016 C 
HETATM   15  C10 UNL     1      -5.969  47.394 -21.998  1.00  0.00    -0.004 C 
HETATM   16  C1  UNL     1      -8.942  47.575 -21.359  1.00  0.00     0.020 C 
HETATM   17  C3  UNL     1      -9.500  47.097 -23.768  1.00  0.00     0.022 C 
HETATM   18  C7  UNL     1      -8.200  45.424 -22.435  1.00  0.00    -0.068 C 
HETATM   19  C4  UNL     1     -10.782  46.307 -23.504  1.00  0.00     0.084 C 
HETATM   20  C5  UNL     1     -10.493  44.861 -23.186  1.00  0.00     0.149 C 
HETATM   21  O1  UNL     1     -11.329  43.975 -23.344  1.00  0.00    -0.293 OA
HETATM   22  C6  UNL     1      -9.152  44.501 -22.665  1.00  0.00     0.053 C 
HETATM   23  C8  UNL     1      -6.803  44.960 -22.080  1.00  0.00     0.035 C 
HETATM   24  C9  UNL     1      -5.956  45.997 -21.348  1.00  0.00     0.010 C 
HETATM   25  C17 UNL     1      -3.377  47.782 -21.715  1.00  0.00     0.009 C 
HETATM   26  C18 UNL     1      -2.362  48.676 -22.454  1.00  0.00     0.047 C 
BRANCH   7  27
HETATM   27  O2  UNL     1      -2.964  48.671 -24.791  1.00  0.00    -0.381 OA
HETATM   28  H27 UNL     1      -3.493  49.102 -25.485  1.00  0.00     0.211 HD
ENDBRANCH   7  27
ENDBRANCH   5   7
ENDBRANCH   4   5
ENDBRANCH   3   4
ENDBRANCH   1   3
BRANCH   1  29
HETATM   29  C23 UNL     1       1.093  52.769 -21.308  1.00  0.00     0.120 C 
BRANCH  29  30
HETATM   30  C24 UNL     1       0.157  53.210 -20.190  1.00  0.00     0.112 C 
BRANCH  30  31
HETATM   31  C25 UNL     1       0.447  52.488 -18.892  1.00  0.00     0.217 C 
HETATM   32  O6  UNL     1      -0.128  51.465 -18.543  1.00  0.00    -0.274 OA
HETATM   33  N1  UNL     1       1.426  53.109 -18.146  1.00  0.00    -0.361 N 
HETATM   34  H34 UNL     1       1.856  53.958 -18.492  1.00  0.00     0.162 HD
BRANCH  33  35
HETATM   35  C26 UNL     1       1.818  52.627 -16.837  1.00  0.00     0.122 C 
BRANCH  35  36
HETATM   36  C27 UNL     1       3.280  52.926 -16.497  1.00  0.00     0.020 C 
BRANCH  36  37
HETATM   37  C28 UNL     1       3.868  52.067 -15.366  1.00  0.00     0.002 C 
BRANCH  37  38
HETATM   38  C29 UNL     1       2.833  51.535 -14.368  1.00  0.00     0.009 C 
BRANCH  38  39
HETATM   39  C30 UNL     1       3.076  50.069 -14.002  1.00  0.00     0.103 C 
BRANCH  39  40
HETATM   40  C31 UNL     1       4.022  49.882 -12.825  1.00  0.00     0.217 C 
HETATM   41  O7  UNL     1       5.222  49.649 -12.941  1.00  0.00    -0.274 OA
HETATM   42  N2  UNL     1       3.378  50.007 -11.612  1.00  0.00    -0.357 N 
HETATM   43  H45 UNL     1       2.436  50.379 -11.601  1.00  0.00     0.162 HD
BRANCH  42  44
HETATM   44  C32 UNL     1       4.097  49.947 -10.360  1.00  0.00     0.161 C 
BRANCH  44  45
HETATM   45  C33 UNL     1       4.584  51.314  -9.953  1.00  0.00    -0.040 A 
HETATM   46  C34 UNL     1       5.848  51.480  -9.363  1.00  0.00     0.010 A 
HETATM   47  C35 UNL     1       6.285  52.747  -8.972  1.00  0.00     0.019 A 
HETATM   48  C36 UNL     1       5.462  53.866  -9.169  1.00  0.00     0.037 A 
HETATM   49  C38 UNL     1       4.198  53.709  -9.752  1.00  0.00     0.019 A 
HETATM   50  C39 UNL     1       3.760  52.438 -10.134  1.00  0.00     0.010 A 
BRANCH  48  51
HETATM   51  C37 UNL     1       5.969  55.191  -8.737  1.00  0.00     0.176 C 
HETATM   52  O8  UNL     1       5.338  56.030  -8.119  1.00  0.00    -0.646 OA
BRANCH  51  53
HETATM   53  O9  UNL     1       7.248  55.407  -9.099  1.00  0.00    -0.773 OA
HETATM   54  H50 UNL     1       7.445  56.303  -8.753  1.00  0.00     0.167 HD
ENDBRANCH  51  53
ENDBRANCH  48  51
ENDBRANCH  44  45
ENDBRANCH  42  44
ENDBRANCH  39  40
ENDBRANCH  38  39
ENDBRANCH  37  38
ENDBRANCH  36  37
ENDBRANCH  35  36
ENDBRANCH  33  35
ENDBRANCH  30  31
ENDBRANCH  29  30
ENDBRANCH   1  29
TORSDOF 18
ENDMDL
MODEL 9
REMARK minimizedAffinity -9.49760056
REMARK CNNscore 0.269992501
REMARK CNNaffinity 7.16772079
REMARK  18 active torsions:
REMARK  status: ('A' for Active; 'I' for Inactive)
REMARK    1  A    between atoms: C19_20  and  O2_21 
REMARK    2  A    between atoms: C19_20  and  C20_22 
REMARK    3  A    between atoms: C20_22  and  C21_24 
REMARK    4  A    between atoms: C21_24  and  O4_25 
REMARK    5  A    between atoms: O4_25  and  C22_26 
REMARK    6  A    between atoms: C22_26  and  C23_28 
REMARK    7  A    between atoms: C23_28  and  C24_29 
REMARK    8  A    between atoms: C24_29  and  C25_30 
REMARK       I    between atoms: C25_30  and  N1_32 
REMARK    9  A    between atoms: N1_32  and  C26_33 
REMARK   10  A    between atoms: C26_33  and  C27_34 
REMARK   11  A    between atoms: C27_34  and  C28_35 
REMARK   12  A    between atoms: C28_35  and  C29_36 
REMARK   13  A    between atoms: C29_36  and  C30_37 
REMARK   14  A    between atoms: C30_37  and  C31_38 
REMARK       I    between atoms: C31_38  and  N2_40 
REMARK   15  A    between atoms: N2_40  and  C32_41 
REMARK   16  A    between atoms: C32_41  and  C33_42 
REMARK   17  A    between atoms: C36_45  and  C37_46 
REMARK   18  A    between atoms: C37_46  and  O9_48 
ROOT
HETATM    1  C22 UNL     1       1.347  53.928 -21.736  1.00  0.00     0.259 C 
HETATM    2  O5  UNL     1       2.165  54.835 -21.712  1.00  0.00    -0.265 OA
ENDROOT
BRANCH   1   3
HETATM    3  O4  UNL     1       0.422  53.746 -22.716  1.00  0.00    -0.314 OA
BRANCH   3   4
HETATM    4  C21 UNL     1       0.923  53.385 -23.994  1.00  0.00     0.260 C 
BRANCH   4   5
HETATM    5  C20 UNL     1       0.119  53.778 -25.238  1.00  0.00     0.185 C 
HETATM    6  O3  UNL     1       0.307  54.895 -25.738  1.00  0.00    -0.292 OA
BRANCH   5   7
HETATM    7  C19 UNL     1      -0.783  52.715 -25.908  1.00  0.00     0.128 C 
HETATM    8  C14 UNL     1      -1.632  51.792 -24.961  1.00  0.00    -0.002 C 
HETATM    9  C13 UNL     1      -2.934  52.389 -24.388  1.00  0.00     0.013 C 
HETATM   10  C15 UNL     1      -0.773  51.241 -23.782  1.00  0.00     0.019 C 
HETATM   11  C16 UNL     1      -2.024  50.677 -25.979  1.00  0.00     0.002 C 
HETATM   12  C12 UNL     1      -3.854  51.309 -23.773  1.00  0.00     0.007 C 
HETATM   13  C11 UNL     1      -4.178  50.192 -24.795  1.00  0.00     0.002 C 
HETATM   14  C2  UNL     1      -5.188  49.099 -24.312  1.00  0.00    -0.016 C 
HETATM   15  C10 UNL     1      -2.866  49.556 -25.354  1.00  0.00    -0.004 C 
HETATM   16  C1  UNL     1      -4.567  48.182 -23.233  1.00  0.00     0.020 C 
HETATM   17  C3  UNL     1      -6.474  49.749 -23.730  1.00  0.00     0.022 C 
HETATM   18  C7  UNL     1      -5.577  48.265 -25.536  1.00  0.00    -0.068 C 
HETATM   19  C4  UNL     1      -7.602  48.750 -23.474  1.00  0.00     0.084 C 
HETATM   20  C5  UNL     1      -7.871  47.887 -24.682  1.00  0.00     0.149 C 
HETATM   21  O1  UNL     1      -8.951  47.328 -24.861  1.00  0.00    -0.293 OA
HETATM   22  C6  UNL     1      -6.794  47.711 -25.686  1.00  0.00     0.053 C 
HETATM   23  C8  UNL     1      -4.596  48.194 -26.687  1.00  0.00     0.035 C 
HETATM   24  C9  UNL     1      -3.133  48.358 -26.286  1.00  0.00     0.010 C 
HETATM   25  C17 UNL     1      -0.688  50.329 -26.621  1.00  0.00     0.009 C 
HETATM   26  C18 UNL     1       0.041  51.683 -26.729  1.00  0.00     0.047 C 
BRANCH   7  27
HETATM   27  O2  UNL     1      -1.648  53.404 -26.828  1.00  0.00    -0.381 OA
HETATM   28  H27 UNL     1      -2.206  54.012 -26.312  1.00  0.00     0.211 HD
ENDBRANCH   7  27
ENDBRANCH   5   7
ENDBRANCH   4   5
ENDBRANCH   3   4
ENDBRANCH   1   3
BRANCH   1  29
HETATM   29  C23 UNL     1       1.185  52.901 -20.645  1.00  0.00     0.120 C 
BRANCH  29  30
HETATM   30  C24 UNL     1       0.971  53.546 -19.282  1.00  0.00     0.112 C 
BRANCH  30  31
HETATM   31  C25 UNL     1       0.723  52.516 -18.202  1.00  0.00     0.217 C 
HETATM   32  O6  UNL     1       1.231  52.566 -17.088  1.00  0.00    -0.274 OA
HETATM   33  N1  UNL     1      -0.134  51.515 -18.608  1.00  0.00    -0.361 N 
HETATM   34  H34 UNL     1      -0.514  51.531 -19.547  1.00  0.00     0.162 HD
BRANCH  33  35
HETATM   35  C26 UNL     1      -0.461  50.389 -17.757  1.00  0.00     0.122 C 
BRANCH  35  36
HETATM   36  C27 UNL     1      -1.903  49.905 -17.923  1.00  0.00     0.020 C 
BRANCH  36  37
HETATM   37  C28 UNL     1      -2.908  50.517 -16.934  1.00  0.00     0.002 C 
BRANCH  37  38
HETATM   38  C29 UNL     1      -2.657  50.152 -15.466  1.00  0.00     0.009 C 
BRANCH  38  39
HETATM   39  C30 UNL     1      -2.581  51.385 -14.563  1.00  0.00     0.103 C 
BRANCH  39  40
HETATM   40  C31 UNL     1      -2.872  51.089 -13.100  1.00  0.00     0.217 C 
HETATM   41  O7  UNL     1      -2.681  49.998 -12.570  1.00  0.00    -0.274 OA
HETATM   42  N2  UNL     1      -3.371  52.189 -12.434  1.00  0.00    -0.357 N 
HETATM   43  H45 UNL     1      -3.325  53.092 -12.889  1.00  0.00     0.162 HD
BRANCH  42  44
HETATM   44  C32 UNL     1      -3.643  52.159 -11.015  1.00  0.00     0.161 C 
BRANCH  44  45
HETATM   45  C33 UNL     1      -2.718  53.087 -10.270  1.00  0.00    -0.040 A 
HETATM   46  C34 UNL     1      -2.411  54.359 -10.783  1.00  0.00     0.010 A 
HETATM   47  C35 UNL     1      -1.539  55.205 -10.096  1.00  0.00     0.019 A 
HETATM   48  C36 UNL     1      -0.963  54.791  -8.885  1.00  0.00     0.037 A 
HETATM   49  C38 UNL     1      -1.261  53.522  -8.370  1.00  0.00     0.019 A 
HETATM   50  C39 UNL     1      -2.127  52.674  -9.064  1.00  0.00     0.010 A 
BRANCH  48  51
HETATM   51  C37 UNL     1      -0.043  55.725  -8.193  1.00  0.00     0.176 C 
HETATM   52  O8  UNL     1      -0.374  56.666  -7.494  1.00  0.00    -0.646 OA
BRANCH  51  53
HETATM   53  O9  UNL     1       1.255  55.436  -8.406  1.00  0.00    -0.773 OA
HETATM   54  H50 UNL     1       1.738  56.121  -7.897  1.00  0.00     0.167 HD
ENDBRANCH  51  53
ENDBRANCH  48  51
ENDBRANCH  44  45
ENDBRANCH  42  44
ENDBRANCH  39  40
ENDBRANCH  38  39
ENDBRANCH  37  38
ENDBRANCH  36  37
ENDBRANCH  35  36
ENDBRANCH  33  35
ENDBRANCH  30  31
ENDBRANCH  29  30
ENDBRANCH   1  29
TORSDOF 18
ENDMDL
