MODEL 1
REMARK minimizedAffinity -7.58386898
REMARK CNNscore 0.690979958
REMARK CNNaffinity 6.83658361
REMARK  14 active torsions:
REMARK  status: ('A' for Active; 'I' for Inactive)
REMARK    1  A    between atoms: O1_2  and  C2_3 
REMARK    2  A    between atoms: C2_3  and  C3_4 
REMARK    3  A    between atoms: C3_4  and  C4_5 
REMARK    4  A    between atoms: C4_5  and  O2_6 
REMARK    5  A    between atoms: O2_6  and  C5_7 
REMARK    6  A    between atoms: C20_23  and  C21_24 
REMARK    7  A    between atoms: C21_24  and  O4_26 
REMARK    8  A    between atoms: C21_24  and  C23_27 
REMARK    9  A    between atoms: C23_27  and  O5_28 
REMARK   10  A    between atoms: C23_27  and  C24_29 
REMARK   11  A    between atoms: C25_31  and  C26_32 
REMARK   12  A    between atoms: C26_32  and  O7_33 
REMARK   13  A    between atoms: C27_34  and  C28_35 
REMARK   14  A    between atoms: C37_44  and  O8_45 
ROOT
HETATM    1  C5  UNL     1       1.916   6.187  10.604  1.00  0.00     0.122 C 
HETATM    2  C6  UNL     1       2.170   7.671  10.330  1.00  0.00     0.033 C 
HETATM    3  C7  UNL     1       1.557   8.582  11.395  1.00  0.00     0.013 C 
HETATM    4  C8  UNL     1       0.042   8.314  11.665  1.00  0.00    -0.026 C 
HETATM    5  C9  UNL     1      -0.753   8.713  10.396  1.00  0.00     0.016 C 
HETATM    6  C10 UNL     1      -0.153   6.806  11.968  1.00  0.00     0.071 C 
HETATM    7  C11 UNL     1       0.430   5.912  10.859  1.00  0.00     0.045 C 
HETATM    8  C12 UNL     1       0.458   6.413  13.314  1.00  0.00     0.154 C 
HETATM    9  O3  UNL     1       0.919   5.295  13.542  1.00  0.00    -0.293 OA
HETATM   10  C13 UNL     1       0.432   7.386  14.426  1.00  0.00     0.057 C 
HETATM   11  C14 UNL     1      -0.007   8.639  14.243  1.00  0.00    -0.037 C 
HETATM   12  C15 UNL     1      -0.418   9.200  12.883  1.00  0.00     0.026 C 
HETATM   13  C16 UNL     1      -1.924   9.554  12.946  1.00  0.00     0.011 C 
HETATM   14  C17 UNL     1      -2.279  10.469  14.145  1.00  0.00     0.014 C 
HETATM   15  C18 UNL     1      -1.792   9.898  15.500  1.00  0.00    -0.002 C 
HETATM   16  C19 UNL     1      -2.618   8.626  15.828  1.00  0.00     0.019 C 
HETATM   17  C20 UNL     1      -1.787  10.899  16.709  1.00  0.00     0.034 C 
HETATM   18  C35 UNL     1      -0.672  10.307  17.638  1.00  0.00     0.012 C 
HETATM   19  C36 UNL     1       0.143   9.297  16.812  1.00  0.00     0.044 C 
HETATM   20  C37 UNL     1      -0.257   9.607  15.373  1.00  0.00     0.089 C 
ENDROOT
BRANCH  17  21
HETATM   21  C21 UNL     1      -3.109  11.259  17.479  1.00  0.00     0.087 C 
HETATM   22  C22 UNL     1      -3.134  10.475  18.813  1.00  0.00     0.049 C 
BRANCH  21  23
HETATM   23  O4  UNL     1      -4.248  10.831  16.725  1.00  0.00    -0.387 OA
HETATM   24  H34 UNL     1      -4.327   9.865  16.794  1.00  0.00     0.210 HD
ENDBRANCH  21  23
BRANCH  21  25
HETATM   25  C23 UNL     1      -3.242  12.791  17.758  1.00  0.00     0.181 C 
BRANCH  25  26
HETATM   26  O5  UNL     1      -1.936  13.362  17.961  1.00  0.00    -0.390 OA
HETATM   27  H36 UNL     1      -2.108  14.263  18.304  1.00  0.00     0.210 HD
ENDBRANCH  25  26
BRANCH  25  28
HETATM   28  C24 UNL     1      -4.098  13.183  18.981  1.00  0.00     0.158 C 
HETATM   29  O6  UNL     1      -3.386  14.183  19.754  1.00  0.00    -0.375 OA
HETATM   30  C25 UNL     1      -4.339  14.724  20.697  1.00  0.00     0.150 C 
HETATM   31  C27 UNL     1      -5.755  14.408  20.153  1.00  0.00     0.027 C 
HETATM   32  C33 UNL     1      -5.469  13.814  18.760  1.00  0.00     0.020 C 
HETATM   33  C34 UNL     1      -5.476  14.932  17.708  1.00  0.00     0.013 C 
BRANCH  30  34
HETATM   34  C26 UNL     1      -4.065  16.218  20.881  1.00  0.00     0.196 C 
BRANCH  34  35
HETATM   35  O7  UNL     1      -3.233  16.713  19.839  1.00  0.00    -0.398 OA
HETATM   36  H41 UNL     1      -3.134  17.669  19.988  1.00  0.00     0.209 HD
ENDBRANCH  34  35
ENDBRANCH  30  34
BRANCH  31  37
HETATM   37  C28 UNL     1      -6.514  13.422  21.072  1.00  0.00    -0.007 C 
HETATM   38  C29 UNL     1      -6.430  13.781  22.558  1.00  0.00     0.005 C 
HETATM   39  C30 UNL     1      -7.535  12.948  23.191  1.00  0.00     0.000 C 
HETATM   40  C31 UNL     1      -8.627  12.844  22.130  1.00  0.00     0.000 C 
HETATM   41  C32 UNL     1      -8.029  13.403  20.841  1.00  0.00     0.005 C 
ENDBRANCH  31  37
ENDBRANCH  25  28
ENDBRANCH  21  25
ENDBRANCH  17  21
BRANCH  20  42
HETATM   42  O8  UNL     1       0.459  10.805  15.028  1.00  0.00    -0.384 OA
HETATM   43  H60 UNL     1       1.403  10.579  15.000  1.00  0.00     0.211 HD
ENDBRANCH  20  42
BRANCH   1  44
HETATM   44  O2  UNL     1       2.302   5.418   9.460  1.00  0.00    -0.386 OA
BRANCH  44  45
HETATM   45  C4  UNL     1       2.968   6.195   8.465  1.00  0.00     0.170 C 
BRANCH  45  46
HETATM   46  C3  UNL     1       2.549   5.702   7.087  1.00  0.00     0.052 C 
BRANCH  46  47
HETATM   47  C2  UNL     1       3.337   4.463   6.666  1.00  0.00     0.169 C 
BRANCH  47  48
HETATM   48  O1  UNL     1       3.753   3.703   7.803  1.00  0.00    -0.396 OA
HETATM   49  C1  UNL     1       5.002   3.052   7.607  1.00  0.00     0.201 C 
ENDBRANCH  47  48
ENDBRANCH  46  47
ENDBRANCH  45  46
ENDBRANCH  44  45
ENDBRANCH   1  44
TORSDOF 14
ENDMDL
MODEL 2
REMARK minimizedAffinity -7.60839844
REMARK CNNscore 0.497656137
REMARK CNNaffinity 6.89794397
REMARK  14 active torsions:
REMARK  status: ('A' for Active; 'I' for Inactive)
REMARK    1  A    between atoms: O1_2  and  C2_3 
REMARK    2  A    between atoms: C2_3  and  C3_4 
REMARK    3  A    between atoms: C3_4  and  C4_5 
REMARK    4  A    between atoms: C4_5  and  O2_6 
REMARK    5  A    between atoms: O2_6  and  C5_7 
REMARK    6  A    between atoms: C20_23  and  C21_24 
REMARK    7  A    between atoms: C21_24  and  O4_26 
REMARK    8  A    between atoms: C21_24  and  C23_27 
REMARK    9  A    between atoms: C23_27  and  O5_28 
REMARK   10  A    between atoms: C23_27  and  C24_29 
REMARK   11  A    between atoms: C25_31  and  C26_32 
REMARK   12  A    between atoms: C26_32  and  O7_33 
REMARK   13  A    between atoms: C27_34  and  C28_35 
REMARK   14  A    between atoms: C37_44  and  O8_45 
ROOT
HETATM    1  C5  UNL     1      -3.915   6.205  13.409  1.00  0.00     0.122 C 
HETATM    2  C6  UNL     1      -2.402   5.981  13.390  1.00  0.00     0.033 C 
HETATM    3  C7  UNL     1      -1.638   7.024  14.207  1.00  0.00     0.013 C 
HETATM    4  C8  UNL     1      -1.989   8.501  13.841  1.00  0.00    -0.026 C 
HETATM    5  C9  UNL     1      -1.481   8.776  12.404  1.00  0.00     0.016 C 
HETATM    6  C10 UNL     1      -3.528   8.681  13.909  1.00  0.00     0.071 C 
HETATM    7  C11 UNL     1      -4.270   7.650  13.040  1.00  0.00     0.045 C 
HETATM    8  C12 UNL     1      -4.047   8.604  15.345  1.00  0.00     0.154 C 
HETATM    9  O3  UNL     1      -5.166   8.182  15.634  1.00  0.00    -0.293 OA
HETATM   10  C13 UNL     1      -3.205   9.129  16.441  1.00  0.00     0.057 C 
HETATM   11  C14 UNL     1      -1.957   9.560  16.214  1.00  0.00    -0.037 C 
HETATM   12  C15 UNL     1      -1.262   9.460  14.857  1.00  0.00     0.026 C 
HETATM   13  C16 UNL     1      -0.973  10.897  14.360  1.00  0.00     0.011 C 
HETATM   14  C17 UNL     1      -0.211  11.754  15.401  1.00  0.00     0.014 C 
HETATM   15  C18 UNL     1      -0.911  11.782  16.783  1.00  0.00    -0.002 C 
HETATM   16  C19 UNL     1      -2.242  12.570  16.648  1.00  0.00     0.019 C 
HETATM   17  C20 UNL     1      -0.053  12.318  17.982  1.00  0.00     0.034 C 
HETATM   18  C35 UNL     1      -0.704  11.603  19.215  1.00  0.00     0.012 C 
HETATM   19  C36 UNL     1      -1.586  10.459  18.686  1.00  0.00     0.044 C 
HETATM   20  C37 UNL     1      -1.131  10.298  17.238  1.00  0.00     0.089 C 
ENDROOT
BRANCH  17  21
HETATM   21  C21 UNL     1       0.170  13.858  18.205  1.00  0.00     0.087 C 
HETATM   22  C22 UNL     1      -0.923  14.383  19.165  1.00  0.00     0.049 C 
BRANCH  21  23
HETATM   23  O4  UNL     1       0.010  14.561  16.968  1.00  0.00    -0.387 OA
HETATM   24  H34 UNL     1      -0.937  14.606  16.753  1.00  0.00     0.210 HD
ENDBRANCH  21  23
BRANCH  21  25
HETATM   25  C23 UNL     1       1.587  14.180  18.781  1.00  0.00     0.181 C 
BRANCH  25  26
HETATM   26  O5  UNL     1       2.515  14.388  17.700  1.00  0.00    -0.390 OA
HETATM   27  H36 UNL     1       3.395  14.402  18.127  1.00  0.00     0.210 HD
ENDBRANCH  25  26
BRANCH  25  28
HETATM   28  C24 UNL     1       2.203  13.104  19.700  1.00  0.00     0.158 C 
HETATM   29  O6  UNL     1       3.507  12.735  19.185  1.00  0.00    -0.375 OA
HETATM   30  C25 UNL     1       4.154  11.966  20.224  1.00  0.00     0.150 C 
HETATM   31  C27 UNL     1       3.438  12.301  21.557  1.00  0.00     0.027 C 
HETATM   32  C33 UNL     1       2.481  13.441  21.162  1.00  0.00     0.020 C 
HETATM   33  C34 UNL     1       3.174  14.795  21.366  1.00  0.00     0.013 C 
BRANCH  30  34
HETATM   34  C26 UNL     1       5.650  12.289  20.226  1.00  0.00     0.196 C 
BRANCH  34  35
HETATM   35  O7  UNL     1       6.247  11.918  21.463  1.00  0.00    -0.398 OA
HETATM   36  H41 UNL     1       7.198  12.107  21.383  1.00  0.00     0.209 HD
ENDBRANCH  34  35
ENDBRANCH  30  34
BRANCH  31  37
HETATM   37  C28 UNL     1       2.692  11.073  22.129  1.00  0.00    -0.007 C 
HETATM   38  C29 UNL     1       2.623   9.891  21.159  1.00  0.00     0.005 C 
HETATM   39  C30 UNL     1       2.224   8.721  22.048  1.00  0.00     0.000 C 
HETATM   40  C31 UNL     1       2.852   9.010  23.409  1.00  0.00     0.000 C 
HETATM   41  C32 UNL     1       3.382  10.441  23.343  1.00  0.00     0.005 C 
ENDBRANCH  31  37
ENDBRANCH  25  28
ENDBRANCH  21  25
ENDBRANCH  17  21
BRANCH  20  42
HETATM   42  O8  UNL     1       0.124   9.600  17.308  1.00  0.00    -0.384 OA
HETATM   43  H60 UNL     1      -0.064   8.703  17.630  1.00  0.00     0.211 HD
ENDBRANCH  20  42
BRANCH   1  44
HETATM   44  O2  UNL     1      -4.537   5.352  12.442  1.00  0.00    -0.386 OA
BRANCH  44  45
HETATM   45  C4  UNL     1      -4.991   4.119  12.997  1.00  0.00     0.170 C 
BRANCH  45  46
HETATM   46  C3  UNL     1      -6.458   4.255  13.376  1.00  0.00     0.052 C 
BRANCH  46  47
HETATM   47  C2  UNL     1      -7.162   5.320  12.536  1.00  0.00     0.169 C 
BRANCH  47  48
HETATM   48  O1  UNL     1      -8.577   5.121  12.528  1.00  0.00    -0.396 OA
HETATM   49  C1  UNL     1      -9.269   6.024  13.381  1.00  0.00     0.201 C 
ENDBRANCH  47  48
ENDBRANCH  46  47
ENDBRANCH  45  46
ENDBRANCH  44  45
ENDBRANCH   1  44
TORSDOF 14
ENDMDL
MODEL 3
REMARK minimizedAffinity -7.72351885
REMARK CNNscore 0.465925008
REMARK CNNaffinity 6.41550064
REMARK  14 active torsions:
REMARK  status: ('A' for Active; 'I' for Inactive)
REMARK    1  A    between atoms: O1_2  and  C2_3 
REMARK    2  A    between atoms: C2_3  and  C3_4 
REMARK    3  A    between atoms: C3_4  and  C4_5 
REMARK    4  A    between atoms: C4_5  and  O2_6 
REMARK    5  A    between atoms: O2_6  and  C5_7 
REMARK    6  A    between atoms: C20_23  and  C21_24 
REMARK    7  A    between atoms: C21_24  and  O4_26 
REMARK    8  A    between atoms: C21_24  and  C23_27 
REMARK    9  A    between atoms: C23_27  and  O5_28 
REMARK   10  A    between atoms: C23_27  and  C24_29 
REMARK   11  A    between atoms: C25_31  and  C26_32 
REMARK   12  A    between atoms: C26_32  and  O7_33 
REMARK   13  A    between atoms: C27_34  and  C28_35 
REMARK   14  A    between atoms: C37_44  and  O8_45 
ROOT
HETATM    1  C5  UNL     1       6.695  12.905  22.509  1.00  0.00     0.122 C 
HETATM    2  C6  UNL     1       5.963  11.665  23.026  1.00  0.00     0.033 C 
HETATM    3  C7  UNL     1       4.821  11.226  22.108  1.00  0.00     0.013 C 
HETATM    4  C8  UNL     1       3.813  12.366  21.756  1.00  0.00    -0.026 C 
HETATM    5  C9  UNL     1       3.058  12.759  23.051  1.00  0.00     0.016 C 
HETATM    6  C10 UNL     1       4.604  13.582  21.208  1.00  0.00     0.071 C 
HETATM    7  C11 UNL     1       5.714  14.033  22.173  1.00  0.00     0.045 C 
HETATM    8  C12 UNL     1       5.209  13.293  19.833  1.00  0.00     0.154 C 
HETATM    9  O3  UNL     1       6.257  13.804  19.440  1.00  0.00    -0.293 OA
HETATM   10  C13 UNL     1       4.473  12.422  18.894  1.00  0.00     0.057 C 
HETATM   11  C14 UNL     1       3.351  11.790  19.265  1.00  0.00    -0.037 C 
HETATM   12  C15 UNL     1       2.792  11.826  20.687  1.00  0.00     0.026 C 
HETATM   13  C16 UNL     1       1.410  12.523  20.641  1.00  0.00     0.011 C 
HETATM   14  C17 UNL     1       0.452  11.895  19.597  1.00  0.00     0.014 C 
HETATM   15  C18 UNL     1       1.076  11.818  18.181  1.00  0.00    -0.002 C 
HETATM   16  C19 UNL     1       1.231  13.260  17.629  1.00  0.00     0.019 C 
HETATM   17  C20 UNL     1       0.337  10.892  17.151  1.00  0.00     0.034 C 
HETATM   18  C35 UNL     1       1.489  10.487  16.168  1.00  0.00     0.012 C 
HETATM   19  C36 UNL     1       2.828  10.837  16.841  1.00  0.00     0.044 C 
HETATM   20  C37 UNL     1       2.445  11.065  18.301  1.00  0.00     0.089 C 
ENDROOT
BRANCH  17  21
HETATM   21  C21 UNL     1      -0.968  11.367  16.414  1.00  0.00     0.087 C 
HETATM   22  C22 UNL     1      -0.578  11.918  15.022  1.00  0.00     0.049 C 
BRANCH  21  23
HETATM   23  O4  UNL     1      -1.573  12.446  17.133  1.00  0.00    -0.387 OA
HETATM   24  H34 UNL     1      -1.052  13.253  16.986  1.00  0.00     0.210 HD
ENDBRANCH  21  23
BRANCH  21  25
HETATM   25  C23 UNL     1      -2.018  10.220  16.259  1.00  0.00     0.181 C 
BRANCH  25  26
HETATM   26  O5  UNL     1      -2.205   9.558  17.524  1.00  0.00    -0.390 OA
HETATM   27  H36 UNL     1      -2.723   8.756  17.312  1.00  0.00     0.210 HD
ENDBRANCH  25  26
BRANCH  25  28
HETATM   28  C24 UNL     1      -1.675   9.124  15.227  1.00  0.00     0.158 C 
HETATM   29  O6  UNL     1      -1.904   7.824  15.826  1.00  0.00    -0.375 OA
HETATM   30  C25 UNL     1      -1.859   6.863  14.746  1.00  0.00     0.150 C 
HETATM   31  C27 UNL     1      -2.106   7.641  13.429  1.00  0.00     0.027 C 
HETATM   32  C33 UNL     1      -2.460   9.058  13.920  1.00  0.00     0.020 C 
HETATM   33  C34 UNL     1      -3.979   9.179  14.102  1.00  0.00     0.013 C 
BRANCH  30  34
HETATM   34  C26 UNL     1      -2.886   5.761  15.016  1.00  0.00     0.196 C 
BRANCH  34  35
HETATM   35  O7  UNL     1      -3.511   5.949  16.279  1.00  0.00    -0.398 OA
HETATM   36  H41 UNL     1      -4.178   5.247  16.370  1.00  0.00     0.209 HD
ENDBRANCH  34  35
ENDBRANCH  30  34
BRANCH  31  37
HETATM   37  C28 UNL     1      -0.858   7.627  12.514  1.00  0.00    -0.007 C 
HETATM   38  C29 UNL     1      -0.702   6.334  11.710  1.00  0.00     0.005 C 
HETATM   39  C30 UNL     1       0.312   6.700  10.635  1.00  0.00     0.000 C 
HETATM   40  C31 UNL     1       0.072   8.177  10.334  1.00  0.00     0.000 C 
HETATM   41  C32 UNL     1      -0.895   8.683  11.403  1.00  0.00     0.005 C 
ENDBRANCH  31  37
ENDBRANCH  25  28
ENDBRANCH  21  25
ENDBRANCH  17  21
BRANCH  20  42
HETATM   42  O8  UNL     1       2.253   9.752  18.854  1.00  0.00    -0.384 OA
HETATM   43  H60 UNL     1       3.122   9.317  18.871  1.00  0.00     0.211 HD
ENDBRANCH  20  42
BRANCH   1  44
HETATM   44  O2  UNL     1       7.578  13.395  23.524  1.00  0.00    -0.386 OA
BRANCH  44  45
HETATM   45  C4  UNL     1       8.309  14.551  23.116  1.00  0.00     0.170 C 
BRANCH  45  46
HETATM   46  C3  UNL     1       7.944  15.715  24.025  1.00  0.00     0.052 C 
BRANCH  46  47
HETATM   47  C2  UNL     1       9.002  15.943  25.104  1.00  0.00     0.169 C 
BRANCH  47  48
HETATM   48  O1  UNL     1       8.888  17.249  25.674  1.00  0.00    -0.396 OA
HETATM   49  C1  UNL     1       9.939  18.120  25.277  1.00  0.00     0.201 C 
ENDBRANCH  47  48
ENDBRANCH  46  47
ENDBRANCH  45  46
ENDBRANCH  44  45
ENDBRANCH   1  44
TORSDOF 14
ENDMDL
MODEL 4
REMARK minimizedAffinity -7.48966408
REMARK CNNscore 0.462872118
REMARK CNNaffinity 5.81063223
REMARK  14 active torsions:
REMARK  status: ('A' for Active; 'I' for Inactive)
REMARK    1  A    between atoms: O1_2  and  C2_3 
REMARK    2  A    between atoms: C2_3  and  C3_4 
REMARK    3  A    between atoms: C3_4  and  C4_5 
REMARK    4  A    between atoms: C4_5  and  O2_6 
REMARK    5  A    between atoms: O2_6  and  C5_7 
REMARK    6  A    between atoms: C20_23  and  C21_24 
REMARK    7  A    between atoms: C21_24  and  O4_26 
REMARK    8  A    between atoms: C21_24  and  C23_27 
REMARK    9  A    between atoms: C23_27  and  O5_28 
REMARK   10  A    between atoms: C23_27  and  C24_29 
REMARK   11  A    between atoms: C25_31  and  C26_32 
REMARK   12  A    between atoms: C26_32  and  O7_33 
REMARK   13  A    between atoms: C27_34  and  C28_35 
REMARK   14  A    between atoms: C37_44  and  O8_45 
ROOT
HETATM    1  C5  UNL     1     -13.847  -5.649  15.717  1.00  0.00     0.122 C 
HETATM    2  C6  UNL     1     -12.748  -4.827  15.040  1.00  0.00     0.033 C 
HETATM    3  C7  UNL     1     -13.154  -3.370  14.813  1.00  0.00     0.013 C 
HETATM    4  C8  UNL     1     -14.519  -3.197  14.072  1.00  0.00    -0.026 C 
HETATM    5  C9  UNL     1     -14.351  -3.720  12.623  1.00  0.00     0.016 C 
HETATM    6  C10 UNL     1     -15.600  -4.022  14.817  1.00  0.00     0.071 C 
HETATM    7  C11 UNL     1     -15.188  -5.495  14.990  1.00  0.00     0.045 C 
HETATM    8  C12 UNL     1     -15.931  -3.422  16.185  1.00  0.00     0.154 C 
HETATM    9  O3  UNL     1     -16.292  -4.099  17.146  1.00  0.00    -0.293 OA
HETATM   10  C13 UNL     1     -15.895  -1.954  16.351  1.00  0.00     0.057 C 
HETATM   11  C14 UNL     1     -15.465  -1.153  15.367  1.00  0.00    -0.037 C 
HETATM   12  C15 UNL     1     -14.891  -1.668  14.048  1.00  0.00     0.026 C 
HETATM   13  C16 UNL     1     -15.827  -1.205  12.905  1.00  0.00     0.011 C 
HETATM   14  C17 UNL     1     -16.099   0.320  12.927  1.00  0.00     0.014 C 
HETATM   15  C18 UNL     1     -16.620   0.817  14.299  1.00  0.00    -0.002 C 
HETATM   16  C19 UNL     1     -18.046   0.245  14.523  1.00  0.00     0.019 C 
HETATM   17  C20 UNL     1     -16.587   2.368  14.529  1.00  0.00     0.034 C 
HETATM   18  C35 UNL     1     -16.483   2.480  16.089  1.00  0.00     0.012 C 
HETATM   19  C36 UNL     1     -16.084   1.098  16.635  1.00  0.00     0.044 C 
HETATM   20  C37 UNL     1     -15.603   0.349  15.396  1.00  0.00     0.089 C 
ENDROOT
BRANCH  17  21
HETATM   21  C21 UNL     1     -17.684   3.311  13.913  1.00  0.00     0.087 C 
HETATM   22  C22 UNL     1     -19.079   2.732  14.248  1.00  0.00     0.049 C 
BRANCH  21  23
HETATM   23  O4  UNL     1     -17.572   3.326  12.486  1.00  0.00    -0.387 OA
HETATM   24  H34 UNL     1     -17.921   2.490  12.134  1.00  0.00     0.210 HD
ENDBRANCH  21  23
BRANCH  21  25
HETATM   25  C23 UNL     1     -17.575   4.779  14.437  1.00  0.00     0.181 C 
BRANCH  25  26
HETATM   26  O5  UNL     1     -18.812   5.474  14.195  1.00  0.00    -0.390 OA
HETATM   27  H36 UNL     1     -18.610   6.414  14.377  1.00  0.00     0.210 HD
ENDBRANCH  25  26
BRANCH  25  28
HETATM   28  C24 UNL     1     -16.450   5.635  13.817  1.00  0.00     0.158 C 
HETATM   29  O6  UNL     1     -17.006   6.440  12.746  1.00  0.00    -0.375 OA
HETATM   30  C25 UNL     1     -16.000   7.422  12.409  1.00  0.00     0.150 C 
HETATM   31  C27 UNL     1     -15.039   7.530  13.619  1.00  0.00     0.027 C 
HETATM   32  C33 UNL     1     -15.723   6.656  14.688  1.00  0.00     0.020 C 
HETATM   33  C34 UNL     1     -16.659   7.520  15.544  1.00  0.00     0.013 C 
BRANCH  30  34
HETATM   34  C26 UNL     1     -16.690   8.739  12.047  1.00  0.00     0.196 C 
BRANCH  34  35
HETATM   35  O7  UNL     1     -16.976   8.796  10.656  1.00  0.00    -0.398 OA
HETATM   36  H41 UNL     1     -17.451   9.630  10.500  1.00  0.00     0.209 HD
ENDBRANCH  34  35
ENDBRANCH  30  34
BRANCH  31  37
HETATM   37  C28 UNL     1     -13.618   7.029  13.268  1.00  0.00    -0.007 C 
HETATM   38  C29 UNL     1     -12.685   8.135  12.769  1.00  0.00     0.005 C 
HETATM   39  C30 UNL     1     -11.300   7.510  12.873  1.00  0.00     0.000 C 
HETATM   40  C31 UNL     1     -11.368   6.565  14.069  1.00  0.00     0.000 C 
HETATM   41  C32 UNL     1     -12.840   6.483  14.470  1.00  0.00     0.005 C 
ENDBRANCH  31  37
ENDBRANCH  25  28
ENDBRANCH  21  25
ENDBRANCH  17  21
BRANCH  20  42
HETATM   42  O8  UNL     1     -14.291   0.869  15.122  1.00  0.00    -0.384 OA
HETATM   43  H60 UNL     1     -13.711   0.584  15.847  1.00  0.00     0.211 HD
ENDBRANCH  20  42
BRANCH   1  44
HETATM   44  O2  UNL     1     -13.497  -7.036  15.679  1.00  0.00    -0.386 OA
BRANCH  44  45
HETATM   45  C4  UNL     1     -13.596  -7.671  16.953  1.00  0.00     0.170 C 
BRANCH  45  46
HETATM   46  C3  UNL     1     -12.437  -8.644  17.114  1.00  0.00     0.052 C 
BRANCH  46  47
HETATM   47  C2  UNL     1     -11.194  -8.172  16.361  1.00  0.00     0.169 C 
BRANCH  47  48
HETATM   48  O1  UNL     1     -10.013  -8.798  16.867  1.00  0.00    -0.396 OA
HETATM   49  C1  UNL     1      -9.821  -8.577  18.258  1.00  0.00     0.201 C 
ENDBRANCH  47  48
ENDBRANCH  46  47
ENDBRANCH  45  46
ENDBRANCH  44  45
ENDBRANCH   1  44
TORSDOF 14
ENDMDL
MODEL 5
REMARK minimizedAffinity -9.26816463
REMARK CNNscore 0.440685332
REMARK CNNaffinity 7.0634017
REMARK  14 active torsions:
REMARK  status: ('A' for Active; 'I' for Inactive)
REMARK    1  A    between atoms: O1_2  and  C2_3 
REMARK    2  A    between atoms: C2_3  and  C3_4 
REMARK    3  A    between atoms: C3_4  and  C4_5 
REMARK    4  A    between atoms: C4_5  and  O2_6 
REMARK    5  A    between atoms: O2_6  and  C5_7 
REMARK    6  A    between atoms: C20_23  and  C21_24 
REMARK    7  A    between atoms: C21_24  and  O4_26 
REMARK    8  A    between atoms: C21_24  and  C23_27 
REMARK    9  A    between atoms: C23_27  and  O5_28 
REMARK   10  A    between atoms: C23_27  and  C24_29 
REMARK   11  A    between atoms: C25_31  and  C26_32 
REMARK   12  A    between atoms: C26_32  and  O7_33 
REMARK   13  A    between atoms: C27_34  and  C28_35 
REMARK   14  A    between atoms: C37_44  and  O8_45 
ROOT
HETATM    1  C5  UNL     1      -6.175   7.546  14.992  1.00  0.00     0.122 C 
HETATM    2  C6  UNL     1      -5.610   6.223  15.515  1.00  0.00     0.033 C 
HETATM    3  C7  UNL     1      -4.081   6.197  15.530  1.00  0.00     0.013 C 
HETATM    4  C8  UNL     1      -3.425   6.586  14.167  1.00  0.00    -0.026 C 
HETATM    5  C9  UNL     1      -3.760   5.479  13.136  1.00  0.00     0.016 C 
HETATM    6  C10 UNL     1      -4.007   7.946  13.701  1.00  0.00     0.071 C 
HETATM    7  C11 UNL     1      -5.545   7.930  13.648  1.00  0.00     0.045 C 
HETATM    8  C12 UNL     1      -3.540   9.099  14.590  1.00  0.00     0.154 C 
HETATM    9  O3  UNL     1      -4.217  10.105  14.798  1.00  0.00    -0.293 OA
HETATM   10  C13 UNL     1      -2.182   9.052  15.172  1.00  0.00     0.057 C 
HETATM   11  C14 UNL     1      -1.403   7.970  15.033  1.00  0.00    -0.037 C 
HETATM   12  C15 UNL     1      -1.865   6.676  14.365  1.00  0.00     0.026 C 
HETATM   13  C16 UNL     1      -0.998   6.454  13.102  1.00  0.00     0.011 C 
HETATM   14  C17 UNL     1       0.523   6.508  13.397  1.00  0.00     0.014 C 
HETATM   15  C18 UNL     1       0.945   7.805  14.131  1.00  0.00    -0.002 C 
HETATM   16  C19 UNL     1       0.776   9.002  13.157  1.00  0.00     0.019 C 
HETATM   17  C20 UNL     1       2.374   7.798  14.779  1.00  0.00     0.034 C 
HETATM   18  C35 UNL     1       2.227   8.837  15.943  1.00  0.00     0.012 C 
HETATM   19  C36 UNL     1       0.725   9.090  16.162  1.00  0.00     0.044 C 
HETATM   20  C37 UNL     1       0.056   7.940  15.415  1.00  0.00     0.089 C 
ENDROOT
BRANCH  17  21
HETATM   21  C21 UNL     1       3.666   8.017  13.912  1.00  0.00     0.087 C 
HETATM   22  C22 UNL     1       3.728   9.502  13.482  1.00  0.00     0.049 C 
BRANCH  21  23
HETATM   23  O4  UNL     1       3.591   7.240  12.713  1.00  0.00    -0.387 OA
HETATM   24  H34 UNL     1       2.964   7.663  12.103  1.00  0.00     0.210 HD
ENDBRANCH  21  23
BRANCH  21  25
HETATM   25  C23 UNL     1       4.973   7.628  14.677  1.00  0.00     0.181 C 
BRANCH  25  26
HETATM   26  O5  UNL     1       4.639   6.859  15.847  1.00  0.00    -0.390 OA
HETATM   27  H36 UNL     1       5.471   6.811  16.360  1.00  0.00     0.210 HD
ENDBRANCH  25  26
BRANCH  25  28
HETATM   28  C24 UNL     1       5.854   8.804  15.150  1.00  0.00     0.158 C 
HETATM   29  O6  UNL     1       6.762   8.329  16.177  1.00  0.00    -0.375 OA
HETATM   30  C25 UNL     1       7.746   9.371  16.365  1.00  0.00     0.150 C 
HETATM   31  C27 UNL     1       7.726  10.258  15.095  1.00  0.00     0.027 C 
HETATM   32  C33 UNL     1       6.778   9.493  14.151  1.00  0.00     0.020 C 
HETATM   33  C34 UNL     1       7.586   8.522  13.279  1.00  0.00     0.013 C 
BRANCH  30  34
HETATM   34  C26 UNL     1       9.105   8.728  16.650  1.00  0.00     0.196 C 
BRANCH  34  35
HETATM   35  O7  UNL     1       8.949   7.378  17.069  1.00  0.00    -0.398 OA
HETATM   36  H41 UNL     1       9.844   7.016  17.189  1.00  0.00     0.209 HD
ENDBRANCH  34  35
ENDBRANCH  30  34
BRANCH  31  37
HETATM   37  C28 UNL     1       7.225  11.688  15.404  1.00  0.00    -0.007 C 
HETATM   38  C29 UNL     1       5.718  11.866  15.207  1.00  0.00     0.005 C 
HETATM   39  C30 UNL     1       5.413  13.171  15.929  1.00  0.00     0.000 C 
HETATM   40  C31 UNL     1       6.400  13.234  17.092  1.00  0.00     0.000 C 
HETATM   41  C32 UNL     1       7.400  12.101  16.870  1.00  0.00     0.005 C 
ENDBRANCH  31  37
ENDBRANCH  25  28
ENDBRANCH  21  25
ENDBRANCH  17  21
BRANCH  20  42
HETATM   42  O8  UNL     1       0.216   6.790  16.263  1.00  0.00    -0.384 OA
HETATM   43  H60 UNL     1      -0.323   6.941  17.057  1.00  0.00     0.211 HD
ENDBRANCH  20  42
BRANCH   1  44
HETATM   44  O2  UNL     1      -7.584   7.412  14.780  1.00  0.00    -0.386 OA
BRANCH  44  45
HETATM   45  C4  UNL     1      -7.992   6.059  14.578  1.00  0.00     0.170 C 
BRANCH  45  46
HETATM   46  C3  UNL     1      -8.712   5.952  13.241  1.00  0.00     0.052 C 
BRANCH  46  47
HETATM   47  C2  UNL     1      -8.181   4.790  12.404  1.00  0.00     0.169 C 
BRANCH  47  48
HETATM   48  O1  UNL     1      -8.553   3.532  12.969  1.00  0.00    -0.396 OA
HETATM   49  C1  UNL     1      -7.471   2.612  13.035  1.00  0.00     0.201 C 
ENDBRANCH  47  48
ENDBRANCH  46  47
ENDBRANCH  45  46
ENDBRANCH  44  45
ENDBRANCH   1  44
TORSDOF 14
ENDMDL
MODEL 6
REMARK minimizedAffinity -7.48339128
REMARK CNNscore 0.351415515
REMARK CNNaffinity 6.19619036
REMARK  14 active torsions:
REMARK  status: ('A' for Active; 'I' for Inactive)
REMARK    1  A    between atoms: O1_2  and  C2_3 
REMARK    2  A    between atoms: C2_3  and  C3_4 
REMARK    3  A    between atoms: C3_4  and  C4_5 
REMARK    4  A    between atoms: C4_5  and  O2_6 
REMARK    5  A    between atoms: O2_6  and  C5_7 
REMARK    6  A    between atoms: C20_23  and  C21_24 
REMARK    7  A    between atoms: C21_24  and  O4_26 
REMARK    8  A    between atoms: C21_24  and  C23_27 
REMARK    9  A    between atoms: C23_27  and  O5_28 
REMARK   10  A    between atoms: C23_27  and  C24_29 
REMARK   11  A    between atoms: C25_31  and  C26_32 
REMARK   12  A    between atoms: C26_32  and  O7_33 
REMARK   13  A    between atoms: C27_34  and  C28_35 
REMARK   14  A    between atoms: C37_44  and  O8_45 
ROOT
HETATM    1  C5  UNL     1      -3.998   6.594  13.372  1.00  0.00     0.122 C 
HETATM    2  C6  UNL     1      -4.346   8.032  12.984  1.00  0.00     0.033 C 
HETATM    3  C7  UNL     1      -3.397   9.059  13.606  1.00  0.00     0.013 C 
HETATM    4  C8  UNL     1      -3.233   8.919  15.153  1.00  0.00    -0.026 C 
HETATM    5  C9  UNL     1      -4.586   9.282  15.816  1.00  0.00     0.016 C 
HETATM    6  C10 UNL     1      -2.849   7.454  15.486  1.00  0.00     0.071 C 
HETATM    7  C11 UNL     1      -3.847   6.445  14.890  1.00  0.00     0.045 C 
HETATM    8  C12 UNL     1      -1.436   7.115  15.010  1.00  0.00     0.154 C 
HETATM    9  O3  UNL     1      -1.099   5.986  14.656  1.00  0.00    -0.293 OA
HETATM   10  C13 UNL     1      -0.396   8.164  15.046  1.00  0.00     0.057 C 
HETATM   11  C14 UNL     1      -0.695   9.429  15.373  1.00  0.00    -0.037 C 
HETATM   12  C15 UNL     1      -2.117   9.920  15.635  1.00  0.00     0.026 C 
HETATM   13  C16 UNL     1      -2.200  10.384  17.110  1.00  0.00     0.011 C 
HETATM   14  C17 UNL     1      -1.096  11.405  17.484  1.00  0.00     0.014 C 
HETATM   15  C18 UNL     1       0.329  10.899  17.146  1.00  0.00    -0.002 C 
HETATM   16  C19 UNL     1       0.670   9.715  18.090  1.00  0.00     0.019 C 
HETATM   17  C20 UNL     1       1.466  11.980  17.157  1.00  0.00     0.034 C 
HETATM   18  C35 UNL     1       2.519  11.378  16.165  1.00  0.00     0.012 C 
HETATM   19  C36 UNL     1       1.830  10.255  15.369  1.00  0.00     0.044 C 
HETATM   20  C37 UNL     1       0.345  10.490  15.633  1.00  0.00     0.089 C 
ENDROOT
BRANCH  17  21
HETATM   21  C21 UNL     1       2.101  12.487  18.502  1.00  0.00     0.087 C 
HETATM   22  C22 UNL     1       1.052  12.346  19.630  1.00  0.00     0.049 C 
BRANCH  21  23
HETATM   23  O4  UNL     1       2.418  13.879  18.401  1.00  0.00    -0.387 OA
HETATM   24  H34 UNL     1       1.595  14.394  18.455  1.00  0.00     0.210 HD
ENDBRANCH  21  23
BRANCH  21  25
HETATM   25  C23 UNL     1       3.401  11.706  18.882  1.00  0.00     0.181 C 
BRANCH  25  26
HETATM   26  O5  UNL     1       3.074  10.337  19.183  1.00  0.00    -0.390 OA
HETATM   27  H36 UNL     1       3.888   9.967  19.580  1.00  0.00     0.210 HD
ENDBRANCH  25  26
BRANCH  25  28
HETATM   28  C24 UNL     1       4.189  12.254  20.090  1.00  0.00     0.158 C 
HETATM   29  O6  UNL     1       3.337  13.158  20.839  1.00  0.00    -0.375 OA
HETATM   30  C25 UNL     1       4.006  13.401  22.098  1.00  0.00     0.150 C 
HETATM   31  C27 UNL     1       5.017  12.246  22.311  1.00  0.00     0.027 C 
HETATM   32  C33 UNL     1       4.698  11.284  21.151  1.00  0.00     0.020 C 
HETATM   33  C34 UNL     1       3.654  10.254  21.603  1.00  0.00     0.013 C 
BRANCH  30  34
HETATM   34  C26 UNL     1       2.957  13.519  23.205  1.00  0.00     0.196 C 
BRANCH  34  35
HETATM   35  O7  UNL     1       1.940  14.445  22.844  1.00  0.00    -0.398 OA
HETATM   36  H41 UNL     1       1.287  14.441  23.565  1.00  0.00     0.209 HD
ENDBRANCH  34  35
ENDBRANCH  30  34
BRANCH  31  37
HETATM   37  C28 UNL     1       6.478  12.752  22.276  1.00  0.00    -0.007 C 
HETATM   38  C29 UNL     1       6.683  14.084  23.002  1.00  0.00     0.005 C 
HETATM   39  C30 UNL     1       8.193  14.168  23.178  1.00  0.00     0.000 C 
HETATM   40  C31 UNL     1       8.666  12.726  23.341  1.00  0.00     0.000 C 
HETATM   41  C32 UNL     1       7.465  11.840  23.013  1.00  0.00     0.005 C 
ENDBRANCH  31  37
ENDBRANCH  25  28
ENDBRANCH  21  25
ENDBRANCH  17  21
BRANCH  20  42
HETATM   42  O8  UNL     1      -0.017  11.607  14.804  1.00  0.00    -0.384 OA
HETATM   43  H60 UNL     1       0.047  11.313  13.880  1.00  0.00     0.211 HD
ENDBRANCH  20  42
BRANCH   1  44
HETATM   44  O2  UNL     1      -5.054   5.720  12.960  1.00  0.00    -0.386 OA
BRANCH  44  45
HETATM   45  C4  UNL     1      -6.008   5.474  13.993  1.00  0.00     0.170 C 
BRANCH  45  46
HETATM   46  C3  UNL     1      -7.157   4.655  13.422  1.00  0.00     0.052 C 
BRANCH  46  47
HETATM   47  C2  UNL     1      -6.748   3.919  12.148  1.00  0.00     0.169 C 
BRANCH  47  48
HETATM   48  O1  UNL     1      -6.705   2.505  12.357  1.00  0.00    -0.396 OA
HETATM   49  C1  UNL     1      -5.918   1.825  11.387  1.00  0.00     0.201 C 
ENDBRANCH  47  48
ENDBRANCH  46  47
ENDBRANCH  45  46
ENDBRANCH  44  45
ENDBRANCH   1  44
TORSDOF 14
ENDMDL
MODEL 7
REMARK minimizedAffinity -7.71574306
REMARK CNNscore 0.338535368
REMARK CNNaffinity 6.50262499
REMARK  14 active torsions:
REMARK  status: ('A' for Active; 'I' for Inactive)
REMARK    1  A    between atoms: O1_2  and  C2_3 
REMARK    2  A    between atoms: C2_3  and  C3_4 
REMARK    3  A    between atoms: C3_4  and  C4_5 
REMARK    4  A    between atoms: C4_5  and  O2_6 
REMARK    5  A    between atoms: O2_6  and  C5_7 
REMARK    6  A    between atoms: C20_23  and  C21_24 
REMARK    7  A    between atoms: C21_24  and  O4_26 
REMARK    8  A    between atoms: C21_24  and  C23_27 
REMARK    9  A    between atoms: C23_27  and  O5_28 
REMARK   10  A    between atoms: C23_27  and  C24_29 
REMARK   11  A    between atoms: C25_31  and  C26_32 
REMARK   12  A    between atoms: C26_32  and  O7_33 
REMARK   13  A    between atoms: C27_34  and  C28_35 
REMARK   14  A    between atoms: C37_44  and  O8_45 
ROOT
HETATM    1  C5  UNL     1      12.081  12.952  17.711  1.00  0.00     0.122 C 
HETATM    2  C6  UNL     1      10.939  12.752  18.709  1.00  0.00     0.033 C 
HETATM    3  C7  UNL     1       9.795  11.912  18.138  1.00  0.00     0.013 C 
HETATM    4  C8  UNL     1       9.255  12.423  16.765  1.00  0.00    -0.026 C 
HETATM    5  C9  UNL     1       8.570  13.794  16.995  1.00  0.00     0.016 C 
HETATM    6  C10 UNL     1      10.446  12.576  15.784  1.00  0.00     0.071 C 
HETATM    7  C11 UNL     1      11.561  13.465  16.363  1.00  0.00     0.045 C 
HETATM    8  C12 UNL     1      11.031  11.221  15.383  1.00  0.00     0.154 C 
HETATM    9  O3  UNL     1      12.217  11.058  15.101  1.00  0.00    -0.293 OA
HETATM   10  C13 UNL     1      10.125  10.060  15.250  1.00  0.00     0.057 C 
HETATM   11  C14 UNL     1       8.831  10.146  15.587  1.00  0.00    -0.037 C 
HETATM   12  C15 UNL     1       8.202  11.386  16.219  1.00  0.00     0.026 C 
HETATM   13  C16 UNL     1       7.139  11.937  15.238  1.00  0.00     0.011 C 
HETATM   14  C17 UNL     1       6.115  10.864  14.792  1.00  0.00     0.014 C 
HETATM   15  C18 UNL     1       6.790   9.594  14.214  1.00  0.00    -0.002 C 
HETATM   16  C19 UNL     1       7.460   9.962  12.863  1.00  0.00     0.019 C 
HETATM   17  C20 UNL     1       5.872   8.330  14.068  1.00  0.00     0.034 C 
HETATM   18  C35 UNL     1       6.899   7.150  14.155  1.00  0.00     0.012 C 
HETATM   19  C36 UNL     1       8.219   7.714  14.710  1.00  0.00     0.044 C 
HETATM   20  C37 UNL     1       7.817   9.072  15.277  1.00  0.00     0.089 C 
ENDROOT
BRANCH  17  21
HETATM   21  C21 UNL     1       4.863   8.186  12.871  1.00  0.00     0.087 C 
HETATM   22  C22 UNL     1       5.304   6.990  11.993  1.00  0.00     0.049 C 
BRANCH  21  23
HETATM   23  O4  UNL     1       4.915   9.351  12.041  1.00  0.00    -0.387 OA
HETATM   24  H34 UNL     1       5.732   9.326  11.515  1.00  0.00     0.210 HD
ENDBRANCH  21  23
BRANCH  21  25
HETATM   25  C23 UNL     1       3.390   7.981  13.351  1.00  0.00     0.181 C 
BRANCH  25  26
HETATM   26  O5  UNL     1       3.371   7.124  14.507  1.00  0.00    -0.390 OA
HETATM   27  H36 UNL     1       2.427   6.899  14.635  1.00  0.00     0.210 HD
ENDBRANCH  25  26
BRANCH  25  28
HETATM   28  C24 UNL     1       2.423   7.363  12.319  1.00  0.00     0.158 C 
HETATM   29  O6  UNL     1       1.772   6.212  12.913  1.00  0.00    -0.375 OA
HETATM   30  C25 UNL     1       0.680   5.861  12.033  1.00  0.00     0.150 C 
HETATM   31  C27 UNL     1       0.364   7.109  11.171  1.00  0.00     0.027 C 
HETATM   32  C33 UNL     1       1.259   8.198  11.793  1.00  0.00     0.020 C 
HETATM   33  C34 UNL     1       0.485   8.943  12.890  1.00  0.00     0.013 C 
BRANCH  30  34
HETATM   34  C26 UNL     1      -0.502   5.374  12.873  1.00  0.00     0.196 C 
BRANCH  34  35
HETATM   35  O7  UNL     1      -1.695   6.062  12.519  1.00  0.00    -0.398 OA
HETATM   36  H41 UNL     1      -2.411   5.678  13.053  1.00  0.00     0.209 HD
ENDBRANCH  34  35
ENDBRANCH  30  34
BRANCH  31  37
HETATM   37  C28 UNL     1       0.680   6.867   9.676  1.00  0.00    -0.007 C 
HETATM   38  C29 UNL     1       0.734   8.152   8.846  1.00  0.00     0.005 C 
HETATM   39  C30 UNL     1       1.429   7.720   7.562  1.00  0.00     0.000 C 
HETATM   40  C31 UNL     1       2.402   6.619   7.975  1.00  0.00     0.000 C 
HETATM   41  C32 UNL     1       2.072   6.275   9.427  1.00  0.00     0.005 C 
ENDBRANCH  31  37
ENDBRANCH  25  28
ENDBRANCH  21  25
ENDBRANCH  17  21
BRANCH  20  42
HETATM   42  O8  UNL     1       7.156   8.786  16.521  1.00  0.00    -0.384 OA
HETATM   43  H60 UNL     1       7.826   8.431  17.128  1.00  0.00     0.211 HD
ENDBRANCH  20  42
BRANCH   1  44
HETATM   44  O2  UNL     1      12.991  13.933  18.219  1.00  0.00    -0.386 OA
BRANCH  44  45
HETATM   45  C4  UNL     1      14.359  13.548  18.083  1.00  0.00     0.170 C 
BRANCH  45  46
HETATM   46  C3  UNL     1      14.751  12.684  19.273  1.00  0.00     0.052 C 
BRANCH  46  47
HETATM   47  C2  UNL     1      16.202  12.215  19.178  1.00  0.00     0.169 C 
BRANCH  47  48
HETATM   48  O1  UNL     1      16.739  11.925  20.470  1.00  0.00    -0.396 OA
HETATM   49  C1  UNL     1      16.479  12.949  21.422  1.00  0.00     0.201 C 
ENDBRANCH  47  48
ENDBRANCH  46  47
ENDBRANCH  45  46
ENDBRANCH  44  45
ENDBRANCH   1  44
TORSDOF 14
ENDMDL
MODEL 8
REMARK minimizedAffinity -8.94734859
REMARK CNNscore 0.330315858
REMARK CNNaffinity 6.6908288
REMARK  14 active torsions:
REMARK  status: ('A' for Active; 'I' for Inactive)
REMARK    1  A    between atoms: O1_2  and  C2_3 
REMARK    2  A    between atoms: C2_3  and  C3_4 
REMARK    3  A    between atoms: C3_4  and  C4_5 
REMARK    4  A    between atoms: C4_5  and  O2_6 
REMARK    5  A    between atoms: O2_6  and  C5_7 
REMARK    6  A    between atoms: C20_23  and  C21_24 
REMARK    7  A    between atoms: C21_24  and  O4_26 
REMARK    8  A    between atoms: C21_24  and  C23_27 
REMARK    9  A    between atoms: C23_27  and  O5_28 
REMARK   10  A    between atoms: C23_27  and  C24_29 
REMARK   11  A    between atoms: C25_31  and  C26_32 
REMARK   12  A    between atoms: C26_32  and  O7_33 
REMARK   13  A    between atoms: C27_34  and  C28_35 
REMARK   14  A    between atoms: C37_44  and  O8_45 
ROOT
HETATM    1  C5  UNL     1      -5.680   6.756  14.280  1.00  0.00     0.122 C 
HETATM    2  C6  UNL     1      -5.516   8.161  13.695  1.00  0.00     0.033 C 
HETATM    3  C7  UNL     1      -4.120   8.402  13.117  1.00  0.00     0.013 C 
HETATM    4  C8  UNL     1      -2.957   8.067  14.104  1.00  0.00    -0.026 C 
HETATM    5  C9  UNL     1      -3.007   9.084  15.272  1.00  0.00     0.016 C 
HETATM    6  C10 UNL     1      -3.153   6.625  14.639  1.00  0.00     0.071 C 
HETATM    7  C11 UNL     1      -4.548   6.423  15.258  1.00  0.00     0.045 C 
HETATM    8  C12 UNL     1      -2.923   5.578  13.549  1.00  0.00     0.154 C 
HETATM    9  O3  UNL     1      -3.504   4.493  13.526  1.00  0.00    -0.293 OA
HETATM   10  C13 UNL     1      -1.902   5.834  12.512  1.00  0.00     0.057 C 
HETATM   11  C14 UNL     1      -1.263   7.010  12.441  1.00  0.00    -0.037 C 
HETATM   12  C15 UNL     1      -1.589   8.204  13.336  1.00  0.00     0.026 C 
HETATM   13  C16 UNL     1      -0.342   8.508  14.202  1.00  0.00     0.011 C 
HETATM   14  C17 UNL     1       0.950   8.678  13.362  1.00  0.00     0.014 C 
HETATM   15  C18 UNL     1       1.214   7.476  12.421  1.00  0.00    -0.002 C 
HETATM   16  C19 UNL     1       1.569   6.237  13.286  1.00  0.00     0.019 C 
HETATM   17  C20 UNL     1       2.281   7.705  11.293  1.00  0.00     0.034 C 
HETATM   18  C35 UNL     1       1.830   6.692  10.185  1.00  0.00     0.012 C 
HETATM   19  C36 UNL     1       0.398   6.237  10.517  1.00  0.00     0.044 C 
HETATM   20  C37 UNL     1      -0.071   7.258  11.550  1.00  0.00     0.089 C 
ENDROOT
BRANCH  17  21
HETATM   21  C21 UNL     1       3.821   7.643  11.598  1.00  0.00     0.087 C 
HETATM   22  C22 UNL     1       4.488   6.679  10.589  1.00  0.00     0.049 C 
BRANCH  21  23
HETATM   23  O4  UNL     1       4.041   7.096  12.903  1.00  0.00    -0.387 OA
HETATM   24  H34 UNL     1       3.886   6.137  12.872  1.00  0.00     0.210 HD
ENDBRANCH  21  23
BRANCH  21  25
HETATM   25  C23 UNL     1       4.503   9.047  11.526  1.00  0.00     0.181 C 
BRANCH  25  26
HETATM   26  O5  UNL     1       4.948   9.302  10.180  1.00  0.00    -0.390 OA
HETATM   27  H36 UNL     1       5.513  10.098  10.251  1.00  0.00     0.210 HD
ENDBRANCH  25  26
BRANCH  25  28
HETATM   28  C24 UNL     1       5.724   9.254  12.448  1.00  0.00     0.158 C 
HETATM   29  O6  UNL     1       6.865   9.639  11.640  1.00  0.00    -0.375 OA
HETATM   30  C25 UNL     1       7.878  10.104  12.561  1.00  0.00     0.150 C 
HETATM   31  C27 UNL     1       7.162  10.473  13.884  1.00  0.00     0.027 C 
HETATM   32  C33 UNL     1       5.671  10.333  13.525  1.00  0.00     0.020 C 
HETATM   33  C34 UNL     1       5.127  11.680  13.029  1.00  0.00     0.013 C 
BRANCH  30  34
HETATM   34  C26 UNL     1       8.637  11.269  11.920  1.00  0.00     0.196 C 
BRANCH  34  35
HETATM   35  O7  UNL     1       8.841  11.039  10.532  1.00  0.00    -0.398 OA
HETATM   36  H41 UNL     1       9.285  11.829  10.179  1.00  0.00     0.209 HD
ENDBRANCH  34  35
ENDBRANCH  30  34
BRANCH  31  37
HETATM   37  C28 UNL     1       7.583   9.538  15.042  1.00  0.00    -0.007 C 
HETATM   38  C29 UNL     1       8.512   8.402  14.605  1.00  0.00     0.005 C 
HETATM   39  C30 UNL     1       9.088   7.887  15.917  1.00  0.00     0.000 C 
HETATM   40  C31 UNL     1       9.172   9.105  16.832  1.00  0.00     0.000 C 
HETATM   41  C32 UNL     1       8.422  10.230  16.122  1.00  0.00     0.005 C 
ENDBRANCH  31  37
ENDBRANCH  25  28
ENDBRANCH  21  25
ENDBRANCH  17  21
BRANCH  20  42
HETATM   42  O8  UNL     1      -0.381   8.444  10.800  1.00  0.00    -0.384 OA
HETATM   43  H60 UNL     1      -1.157   8.244  10.252  1.00  0.00     0.211 HD
ENDBRANCH  20  42
BRANCH   1  44
HETATM   44  O2  UNL     1      -6.910   6.683  15.008  1.00  0.00    -0.386 OA
BRANCH  44  45
HETATM   45  C4  UNL     1      -7.922   5.950  14.320  1.00  0.00     0.170 C 
BRANCH  45  46
HETATM   46  C3  UNL     1      -7.407   4.549  14.026  1.00  0.00     0.052 C 
BRANCH  46  47
HETATM   47  C2  UNL     1      -8.183   3.889  12.887  1.00  0.00     0.169 C 
BRANCH  47  48
HETATM   48  O1  UNL     1      -7.997   2.471  12.887  1.00  0.00    -0.396 OA
HETATM   49  C1  UNL     1      -6.851   2.062  12.153  1.00  0.00     0.201 C 
ENDBRANCH  47  48
ENDBRANCH  46  47
ENDBRANCH  45  46
ENDBRANCH  44  45
ENDBRANCH   1  44
TORSDOF 14
ENDMDL
MODEL 9
REMARK minimizedAffinity -7.88677311
REMARK CNNscore 0.316264302
REMARK CNNaffinity 6.66148186
REMARK  14 active torsions:
REMARK  status: ('A' for Active; 'I' for Inactive)
REMARK    1  A    between atoms: O1_2  and  C2_3 
REMARK    2  A    between atoms: C2_3  and  C3_4 
REMARK    3  A    between atoms: C3_4  and  C4_5 
REMARK    4  A    between atoms: C4_5  and  O2_6 
REMARK    5  A    between atoms: O2_6  and  C5_7 
REMARK    6  A    between atoms: C20_23  and  C21_24 
REMARK    7  A    between atoms: C21_24  and  O4_26 
REMARK    8  A    between atoms: C21_24  and  C23_27 
REMARK    9  A    between atoms: C23_27  and  O5_28 
REMARK   10  A    between atoms: C23_27  and  C24_29 
REMARK   11  A    between atoms: C25_31  and  C26_32 
REMARK   12  A    between atoms: C26_32  and  O7_33 
REMARK   13  A    between atoms: C27_34  and  C28_35 
REMARK   14  A    between atoms: C37_44  and  O8_45 
ROOT
HETATM    1  C5  UNL     1      -9.750   7.215  14.396  1.00  0.00     0.122 C 
HETATM    2  C6  UNL     1      -9.365   8.391  15.296  1.00  0.00     0.033 C 
HETATM    3  C7  UNL     1      -7.863   8.678  15.285  1.00  0.00     0.013 C 
HETATM    4  C8  UNL     1      -6.974   7.429  15.585  1.00  0.00    -0.026 C 
HETATM    5  C9  UNL     1      -7.215   7.008  17.057  1.00  0.00     0.016 C 
HETATM    6  C10 UNL     1      -7.382   6.282  14.625  1.00  0.00     0.071 C 
HETATM    7  C11 UNL     1      -8.890   5.981  14.692  1.00  0.00     0.045 C 
HETATM    8  C12 UNL     1      -6.986   6.582  13.179  1.00  0.00     0.154 C 
HETATM    9  O3  UNL     1      -7.618   6.168  12.209  1.00  0.00    -0.293 OA
HETATM   10  C13 UNL     1      -5.744   7.340  12.919  1.00  0.00     0.057 C 
HETATM   11  C14 UNL     1      -5.027   7.867  13.921  1.00  0.00    -0.037 C 
HETATM   12  C15 UNL     1      -5.463   7.825  15.385  1.00  0.00     0.026 C 
HETATM   13  C16 UNL     1      -4.423   6.989  16.170  1.00  0.00     0.011 C 
HETATM   14  C17 UNL     1      -2.968   7.478  15.955  1.00  0.00     0.014 C 
HETATM   15  C18 UNL     1      -2.582   7.568  14.457  1.00  0.00    -0.002 C 
HETATM   16  C19 UNL     1      -2.514   6.130  13.876  1.00  0.00     0.019 C 
HETATM   17  C20 UNL     1      -1.278   8.376  14.128  1.00  0.00     0.034 C 
HETATM   18  C35 UNL     1      -1.537   8.862  12.661  1.00  0.00     0.012 C 
HETATM   19  C36 UNL     1      -3.035   8.675  12.360  1.00  0.00     0.044 C 
HETATM   20  C37 UNL     1      -3.652   8.461  13.739  1.00  0.00     0.089 C 
ENDROOT
BRANCH  17  21
HETATM   21  C21 UNL     1       0.148   7.745  14.328  1.00  0.00     0.087 C 
HETATM   22  C22 UNL     1       0.184   7.027  15.698  1.00  0.00     0.049 C 
BRANCH  21  23
HETATM   23  O4  UNL     1       1.139   8.777  14.374  1.00  0.00    -0.387 OA
HETATM   24  H34 UNL     1       1.084   9.227  15.234  1.00  0.00     0.210 HD
ENDBRANCH  21  23
BRANCH  21  25
HETATM   25  C23 UNL     1       0.524   6.743  13.189  1.00  0.00     0.181 C 
BRANCH  25  26
HETATM   26  O5  UNL     1       0.586   5.406  13.719  1.00  0.00    -0.390 OA
HETATM   27  H36 UNL     1       0.996   4.874  13.008  1.00  0.00     0.210 HD
ENDBRANCH  25  26
BRANCH  25  28
HETATM   28  C24 UNL     1       1.869   7.005  12.477  1.00  0.00     0.158 C 
HETATM   29  O6  UNL     1       2.298   5.786  11.818  1.00  0.00    -0.375 OA
HETATM   30  C25 UNL     1       3.381   6.159  10.936  1.00  0.00     0.150 C 
HETATM   31  C27 UNL     1       3.268   7.685  10.689  1.00  0.00     0.027 C 
HETATM   32  C33 UNL     1       1.935   8.051  11.369  1.00  0.00     0.020 C 
HETATM   33  C34 UNL     1       0.790   7.952  10.353  1.00  0.00     0.013 C 
BRANCH  30  34
HETATM   34  C26 UNL     1       3.298   5.318   9.661  1.00  0.00     0.196 C 
BRANCH  34  35
HETATM   35  O7  UNL     1       3.019   3.958   9.968  1.00  0.00    -0.398 OA
HETATM   36  H41 UNL     1       2.935   3.489   9.120  1.00  0.00     0.209 HD
ENDBRANCH  34  35
ENDBRANCH  30  34
BRANCH  31  37
HETATM   37  C28 UNL     1       4.470   8.452  11.290  1.00  0.00    -0.007 C 
HETATM   38  C29 UNL     1       5.287   9.222  10.251  1.00  0.00     0.005 C 
HETATM   39  C30 UNL     1       6.124  10.178  11.089  1.00  0.00     0.000 C 
HETATM   40  C31 UNL     1       5.263  10.517  12.303  1.00  0.00     0.000 C 
HETATM   41  C32 UNL     1       4.067   9.568  12.260  1.00  0.00     0.005 C 
ENDBRANCH  31  37
ENDBRANCH  25  28
ENDBRANCH  21  25
ENDBRANCH  17  21
BRANCH  20  42
HETATM   42  O8  UNL     1      -3.706   9.766  14.339  1.00  0.00    -0.384 OA
HETATM   43  H60 UNL     1      -4.352  10.288  13.836  1.00  0.00     0.211 HD
ENDBRANCH  20  42
BRANCH   1  44
HETATM   44  O2  UNL     1     -11.113   6.854  14.640  1.00  0.00    -0.386 OA
BRANCH  44  45
HETATM   45  C4  UNL     1     -11.925   6.920  13.468  1.00  0.00     0.170 C 
BRANCH  45  46
HETATM   46  C3  UNL     1     -13.390   6.935  13.879  1.00  0.00     0.052 C 
BRANCH  46  47
HETATM   47  C2  UNL     1     -14.156   8.070  13.202  1.00  0.00     0.169 C 
BRANCH  47  48
HETATM   48  O1  UNL     1     -15.403   7.611  12.674  1.00  0.00    -0.396 OA
HETATM   49  C1  UNL     1     -15.873   6.429  13.309  1.00  0.00     0.201 C 
ENDBRANCH  47  48
ENDBRANCH  46  47
ENDBRANCH  45  46
ENDBRANCH  44  45
ENDBRANCH   1  44
TORSDOF 14
ENDMDL
