MODEL 1
REMARK minimizedAffinity -8.77538776
REMARK CNNscore 0.563638687
REMARK CNNaffinity 6.88622665
REMARK  7 active torsions:
REMARK  status: ('A' for Active; 'I' for Inactive)
REMARK    1  A    between atoms: C4_4  and  C5_5 
REMARK    2  A    between atoms: C5_5  and  C6_6 
REMARK    3  A    between atoms: C6_6  and  C7_7 
REMARK    4  A    between atoms: C7_7  and  C9_9 
REMARK    5  A    between atoms: C23_23  and  O1_24 
REMARK    6  A    between atoms: C24_25  and  C26_27 
REMARK    7  A    between atoms: C26_27  and  O2_28 
ROOT
HETATM    1  C9  UNL     1       1.501   8.276  10.827  1.00  0.00    -0.002 C 
HETATM    2  C10 UNL     1       0.284   7.959   9.941  1.00  0.00     0.006 C 
HETATM    3  C11 UNL     1      -0.196   6.601  10.411  1.00  0.00     0.010 C 
HETATM    4  C12 UNL     1       0.087   6.560  11.922  1.00  0.00     0.023 C 
HETATM    5  C13 UNL     1      -1.203   6.427  12.706  1.00  0.00    -0.072 C 
HETATM    6  C14 UNL     1      -1.904   7.507  13.115  1.00  0.00    -0.068 C 
HETATM    7  C15 UNL     1      -1.356   8.885  12.837  1.00  0.00     0.036 C 
HETATM    8  C16 UNL     1       0.164   8.957  12.932  1.00  0.00     0.014 C 
HETATM    9  C17 UNL     1       0.969   7.810  12.244  1.00  0.00    -0.032 C 
HETATM   10  C18 UNL     1       2.055   7.399  13.258  1.00  0.00     0.016 C 
HETATM   11  C19 UNL     1      -3.262   7.383  13.848  1.00  0.00    -0.016 C 
HETATM   12  C20 UNL     1      -2.919   7.510  15.351  1.00  0.00     0.020 C 
HETATM   13  C21 UNL     1      -4.236   8.521  13.447  1.00  0.00     0.016 C 
HETATM   14  C22 UNL     1      -5.645   8.337  13.996  1.00  0.00     0.034 C 
HETATM   15  C23 UNL     1      -6.262   7.016  13.551  1.00  0.00     0.128 C 
HETATM   16  C24 UNL     1      -5.408   5.766  13.918  1.00  0.00     0.008 C 
HETATM   17  C25 UNL     1      -5.535   5.436  15.422  1.00  0.00     0.020 C 
HETATM   18  C27 UNL     1      -3.927   6.013  13.441  1.00  0.00     0.011 C 
HETATM   19  C28 UNL     1      -2.957   4.852  13.725  1.00  0.00     0.011 C 
HETATM   20  C29 UNL     1      -1.669   5.007  12.916  1.00  0.00     0.035 C 
ENDROOT
BRANCH   1  21
HETATM   21  C7  UNL     1       2.836   7.618  10.325  1.00  0.00    -0.014 C 
HETATM   22  C8  UNL     1       4.075   8.383  10.835  1.00  0.00     0.010 C 
BRANCH  21  23
HETATM   23  C6  UNL     1       2.961   7.433   8.788  1.00  0.00     0.008 C 
BRANCH  23  24
HETATM   24  C5  UNL     1       2.600   6.066   8.188  1.00  0.00     0.028 C 
BRANCH  24  25
HETATM   25  C4  UNL     1       3.504   4.925   8.552  1.00  0.00    -0.025 C 
HETATM   26  C2  UNL     1       3.977   3.966   7.730  1.00  0.00    -0.091 C 
HETATM   27  C1  UNL     1       4.930   2.921   8.247  1.00  0.00     0.042 C 
HETATM   28  C3  UNL     1       3.634   3.841   6.271  1.00  0.00     0.042 C 
ENDBRANCH  24  25
ENDBRANCH  23  24
ENDBRANCH  21  23
ENDBRANCH   1  21
BRANCH  16  29
HETATM   29  C26 UNL     1      -5.990   4.541  13.138  1.00  0.00     0.176 C 
BRANCH  29  30
HETATM   30  O2  UNL     1      -7.189   4.054  13.742  1.00  0.00    -0.400 OA
HETATM   31  H43 UNL     1      -7.445   3.251  13.253  1.00  0.00     0.209 HD
ENDBRANCH  29  30
ENDBRANCH  16  29
BRANCH  15  32
HETATM   32  O1  UNL     1      -7.567   6.953  14.119  1.00  0.00    -0.395 OA
HETATM   33  H37 UNL     1      -7.931   6.073  13.877  1.00  0.00     0.210 HD
ENDBRANCH  15  32
TORSDOF 7
ENDMDL
MODEL 2
REMARK minimizedAffinity -6.61499357
REMARK CNNscore 0.512831032
REMARK CNNaffinity 5.88665152
REMARK  7 active torsions:
REMARK  status: ('A' for Active; 'I' for Inactive)
REMARK    1  A    between atoms: C4_4  and  C5_5 
REMARK    2  A    between atoms: C5_5  and  C6_6 
REMARK    3  A    between atoms: C6_6  and  C7_7 
REMARK    4  A    between atoms: C7_7  and  C9_9 
REMARK    5  A    between atoms: C23_23  and  O1_24 
REMARK    6  A    between atoms: C24_25  and  C26_27 
REMARK    7  A    between atoms: C26_27  and  O2_28 
ROOT
HETATM    1  C9  UNL     1       3.777   8.165  11.988  1.00  0.00    -0.002 C 
HETATM    2  C10 UNL     1       4.793   8.867  11.071  1.00  0.00     0.006 C 
HETATM    3  C11 UNL     1       5.159  10.143  11.800  1.00  0.00     0.010 C 
HETATM    4  C12 UNL     1       5.108   9.796  13.298  1.00  0.00     0.023 C 
HETATM    5  C13 UNL     1       6.474   9.956  13.932  1.00  0.00    -0.072 C 
HETATM    6  C14 UNL     1       7.364   8.941  13.978  1.00  0.00    -0.068 C 
HETATM    7  C15 UNL     1       6.963   7.591  13.435  1.00  0.00     0.036 C 
HETATM    8  C16 UNL     1       5.497   7.254  13.688  1.00  0.00     0.014 C 
HETATM    9  C17 UNL     1       4.455   8.380  13.404  1.00  0.00    -0.032 C 
HETATM   10  C18 UNL     1       3.492   8.369  14.608  1.00  0.00     0.016 C 
HETATM   11  C19 UNL     1       8.790   9.114  14.554  1.00  0.00    -0.016 C 
HETATM   12  C20 UNL     1       8.700   8.597  16.008  1.00  0.00     0.020 C 
HETATM   13  C21 UNL     1       9.830   8.271  13.773  1.00  0.00     0.016 C 
HETATM   14  C22 UNL     1      11.271   8.552  14.181  1.00  0.00     0.034 C 
HETATM   15  C23 UNL     1      11.636  10.022  14.006  1.00  0.00     0.128 C 
HETATM   16  C24 UNL     1      10.694  11.001  14.766  1.00  0.00     0.008 C 
HETATM   17  C25 UNL     1      11.004  10.999  16.280  1.00  0.00     0.020 C 
HETATM   18  C27 UNL     1       9.201  10.630  14.421  1.00  0.00     0.011 C 
HETATM   19  C28 UNL     1       8.144  11.524  15.094  1.00  0.00     0.011 C 
HETATM   20  C29 UNL     1       6.778  11.349  14.429  1.00  0.00     0.035 C 
ENDROOT
BRANCH   1  21
HETATM   21  C7  UNL     1       2.308   8.694  11.824  1.00  0.00    -0.014 C 
HETATM   22  C8  UNL     1       1.660   9.007  13.188  1.00  0.00     0.010 C 
BRANCH  21  23
HETATM   23  C6  UNL     1       1.348   7.780  11.014  1.00  0.00     0.008 C 
BRANCH  23  24
HETATM   24  C5  UNL     1       0.576   8.398   9.838  1.00  0.00     0.028 C 
BRANCH  24  25
HETATM   25  C4  UNL     1       0.747   7.724   8.508  1.00  0.00    -0.025 C 
HETATM   26  C2  UNL     1       1.809   7.812   7.680  1.00  0.00    -0.091 C 
HETATM   27  C1  UNL     1       1.847   7.017   6.403  1.00  0.00     0.042 C 
HETATM   28  C3  UNL     1       3.023   8.664   7.931  1.00  0.00     0.042 C 
ENDBRANCH  24  25
ENDBRANCH  23  24
ENDBRANCH  21  23
ENDBRANCH   1  21
BRANCH  16  29
HETATM   29  C26 UNL     1      10.985  12.448  14.249  1.00  0.00     0.176 C 
BRANCH  29  30
HETATM   30  O2  UNL     1      12.190  12.973  14.807  1.00  0.00    -0.400 OA
HETATM   31  H43 UNL     1      12.263  13.896  14.504  1.00  0.00     0.209 HD
ENDBRANCH  29  30
ENDBRANCH  16  29
BRANCH  15  32
HETATM   32  O1  UNL     1      12.993  10.166  14.414  1.00  0.00    -0.395 OA
HETATM   33  H37 UNL     1      13.198  11.125  14.355  1.00  0.00     0.210 HD
ENDBRANCH  15  32
TORSDOF 7
ENDMDL
MODEL 3
REMARK minimizedAffinity -8.76704216
REMARK CNNscore 0.471103698
REMARK CNNaffinity 7.09429932
REMARK  7 active torsions:
REMARK  status: ('A' for Active; 'I' for Inactive)
REMARK    1  A    between atoms: C4_4  and  C5_5 
REMARK    2  A    between atoms: C5_5  and  C6_6 
REMARK    3  A    between atoms: C6_6  and  C7_7 
REMARK    4  A    between atoms: C7_7  and  C9_9 
REMARK    5  A    between atoms: C23_23  and  O1_24 
REMARK    6  A    between atoms: C24_25  and  C26_27 
REMARK    7  A    between atoms: C26_27  and  O2_28 
ROOT
HETATM    1  C9  UNL     1      -0.002   8.803  12.800  1.00  0.00    -0.002 C 
HETATM    2  C10 UNL     1      -1.037   8.774  11.662  1.00  0.00     0.006 C 
HETATM    3  C11 UNL     1      -1.426   7.316  11.527  1.00  0.00     0.010 C 
HETATM    4  C12 UNL     1      -1.360   6.735  12.950  1.00  0.00     0.023 C 
HETATM    5  C13 UNL     1      -2.728   6.257  13.397  1.00  0.00    -0.072 C 
HETATM    6  C14 UNL     1      -3.595   7.072  14.034  1.00  0.00    -0.068 C 
HETATM    7  C15 UNL     1      -3.169   8.482  14.364  1.00  0.00     0.036 C 
HETATM    8  C16 UNL     1      -1.695   8.590  14.742  1.00  0.00     0.014 C 
HETATM    9  C17 UNL     1      -0.678   7.820  13.843  1.00  0.00    -0.032 C 
HETATM   10  C18 UNL     1       0.290   7.119  14.817  1.00  0.00     0.016 C 
HETATM   11  C19 UNL     1      -5.022   6.619  14.427  1.00  0.00    -0.016 C 
HETATM   12  C20 UNL     1      -4.915   6.200  15.911  1.00  0.00     0.020 C 
HETATM   13  C21 UNL     1      -6.048   7.774  14.293  1.00  0.00     0.016 C 
HETATM   14  C22 UNL     1      -7.492   7.330  14.486  1.00  0.00     0.034 C 
HETATM   15  C23 UNL     1      -7.889   6.236  13.500  1.00  0.00     0.128 C 
HETATM   16  C24 UNL     1      -6.964   4.984  13.541  1.00  0.00     0.008 C 
HETATM   17  C25 UNL     1      -7.268   4.116  14.783  1.00  0.00     0.020 C 
HETATM   18  C27 UNL     1      -5.465   5.464  13.450  1.00  0.00     0.011 C 
HETATM   19  C28 UNL     1      -4.425   4.331  13.467  1.00  0.00     0.011 C 
HETATM   20  C29 UNL     1      -3.058   4.837  13.003  1.00  0.00     0.035 C 
ENDROOT
BRANCH   1  21
HETATM   21  C7  UNL     1       1.455   8.445  12.339  1.00  0.00    -0.014 C 
HETATM   22  C8  UNL     1       2.502   9.379  12.980  1.00  0.00     0.010 C 
BRANCH  21  23
HETATM   23  C6  UNL     1       1.689   8.414  10.803  1.00  0.00     0.008 C 
BRANCH  23  24
HETATM   24  C5  UNL     1       2.844   7.559  10.261  1.00  0.00     0.028 C 
BRANCH  24  25
HETATM   25  C4  UNL     1       2.767   7.189   8.808  1.00  0.00    -0.025 C 
HETATM   26  C2  UNL     1       1.778   7.489   7.942  1.00  0.00    -0.091 C 
HETATM   27  C1  UNL     1       1.886   7.093   6.494  1.00  0.00     0.042 C 
HETATM   28  C3  UNL     1       0.518   8.228   8.301  1.00  0.00     0.042 C 
ENDBRANCH  24  25
ENDBRANCH  23  24
ENDBRANCH  21  23
ENDBRANCH   1  21
BRANCH  16  29
HETATM   29  C26 UNL     1      -7.287   4.106  12.288  1.00  0.00     0.176 C 
BRANCH  29  30
HETATM   30  O2  UNL     1      -8.313   3.151  12.566  1.00  0.00    -0.400 OA
HETATM   31  H43 UNL     1      -8.403   2.594  11.772  1.00  0.00     0.209 HD
ENDBRANCH  29  30
ENDBRANCH  16  29
BRANCH  15  32
HETATM   32  O1  UNL     1      -9.247   5.902  13.771  1.00  0.00    -0.395 OA
HETATM   33  H37 UNL     1      -9.472   5.156  13.173  1.00  0.00     0.210 HD
ENDBRANCH  15  32
TORSDOF 7
ENDMDL
MODEL 4
REMARK minimizedAffinity -6.7705617
REMARK CNNscore 0.452072144
REMARK CNNaffinity 6.17124701
REMARK  7 active torsions:
REMARK  status: ('A' for Active; 'I' for Inactive)
REMARK    1  A    between atoms: C4_4  and  C5_5 
REMARK    2  A    between atoms: C5_5  and  C6_6 
REMARK    3  A    between atoms: C6_6  and  C7_7 
REMARK    4  A    between atoms: C7_7  and  C9_9 
REMARK    5  A    between atoms: C23_23  and  O1_24 
REMARK    6  A    between atoms: C24_25  and  C26_27 
REMARK    7  A    between atoms: C26_27  and  O2_28 
ROOT
HETATM    1  C9  UNL     1       1.663   7.592  13.092  1.00  0.00    -0.002 C 
HETATM    2  C10 UNL     1       2.776   7.137  12.133  1.00  0.00     0.006 C 
HETATM    3  C11 UNL     1       3.452   8.417  11.687  1.00  0.00     0.010 C 
HETATM    4  C12 UNL     1       3.381   9.367  12.893  1.00  0.00     0.023 C 
HETATM    5  C13 UNL     1       4.772   9.716  13.384  1.00  0.00    -0.072 C 
HETATM    6  C14 UNL     1       5.407   8.974  14.317  1.00  0.00    -0.068 C 
HETATM    7  C15 UNL     1       4.686   7.799  14.933  1.00  0.00     0.036 C 
HETATM    8  C16 UNL     1       3.193   8.044  15.125  1.00  0.00     0.014 C 
HETATM    9  C17 UNL     1       2.426   8.697  13.933  1.00  0.00    -0.032 C 
HETATM   10  C18 UNL     1       1.535   9.787  14.559  1.00  0.00     0.016 C 
HETATM   11  C19 UNL     1       6.856   9.274  14.770  1.00  0.00    -0.016 C 
HETATM   12  C20 UNL     1       6.707  10.095  16.071  1.00  0.00     0.020 C 
HETATM   13  C21 UNL     1       7.644   7.974  15.071  1.00  0.00     0.016 C 
HETATM   14  C22 UNL     1       9.126   8.208  15.337  1.00  0.00     0.034 C 
HETATM   15  C23 UNL     1       9.811   8.909  14.169  1.00  0.00     0.128 C 
HETATM   16  C24 UNL     1       9.148  10.260  13.767  1.00  0.00     0.008 C 
HETATM   17  C25 UNL     1       9.509  11.371  14.778  1.00  0.00     0.020 C 
HETATM   18  C27 UNL     1       7.598  10.028  13.601  1.00  0.00     0.011 C 
HETATM   19  C28 UNL     1       6.801  11.279  13.191  1.00  0.00     0.011 C 
HETATM   20  C29 UNL     1       5.406  10.898  12.692  1.00  0.00     0.035 C 
ENDROOT
BRANCH   1  21
HETATM   21  C7  UNL     1       0.348   8.047  12.364  1.00  0.00    -0.014 C 
HETATM   22  C8  UNL     1      -0.907   7.723  13.200  1.00  0.00     0.010 C 
BRANCH  21  23
HETATM   23  C6  UNL     1       0.146   7.493  10.927  1.00  0.00     0.008 C 
BRANCH  23  24
HETATM   24  C5  UNL     1       0.368   8.447   9.743  1.00  0.00     0.028 C 
BRANCH  24  25
HETATM   25  C4  UNL     1       0.619   7.801   8.411  1.00  0.00    -0.025 C 
HETATM   26  C2  UNL     1       1.757   7.837   7.689  1.00  0.00    -0.091 C 
HETATM   27  C1  UNL     1       1.862   7.078   6.394  1.00  0.00     0.042 C 
HETATM   28  C3  UNL     1       2.997   8.594   8.080  1.00  0.00     0.042 C 
ENDBRANCH  24  25
ENDBRANCH  23  24
ENDBRANCH  21  23
ENDBRANCH   1  21
BRANCH  16  29
HETATM   29  C26 UNL     1       9.742  10.695  12.387  1.00  0.00     0.176 C 
BRANCH  29  30
HETATM   30  O2  UNL     1      11.079  11.180  12.521  1.00  0.00    -0.400 OA
HETATM   31  H43 UNL     1      11.351  11.503  11.643  1.00  0.00     0.209 HD
ENDBRANCH  29  30
ENDBRANCH  16  29
BRANCH  15  32
HETATM   32  O1  UNL     1      11.180   9.074  14.526  1.00  0.00    -0.395 OA
HETATM   33  H37 UNL     1      11.596   9.580  13.794  1.00  0.00     0.210 HD
ENDBRANCH  15  32
TORSDOF 7
ENDMDL
MODEL 5
REMARK minimizedAffinity -8.09034538
REMARK CNNscore 0.417104661
REMARK CNNaffinity 6.70336771
REMARK  7 active torsions:
REMARK  status: ('A' for Active; 'I' for Inactive)
REMARK    1  A    between atoms: C4_4  and  C5_5 
REMARK    2  A    between atoms: C5_5  and  C6_6 
REMARK    3  A    between atoms: C6_6  and  C7_7 
REMARK    4  A    between atoms: C7_7  and  C9_9 
REMARK    5  A    between atoms: C23_23  and  O1_24 
REMARK    6  A    between atoms: C24_25  and  C26_27 
REMARK    7  A    between atoms: C26_27  and  O2_28 
ROOT
HETATM    1  C9  UNL     1      -3.144   6.562  14.631  1.00  0.00    -0.002 C 
HETATM    2  C10 UNL     1      -2.473   5.301  14.058  1.00  0.00     0.006 C 
HETATM    3  C11 UNL     1      -2.328   5.578  12.576  1.00  0.00     0.010 C 
HETATM    4  C12 UNL     1      -2.075   7.090  12.458  1.00  0.00     0.023 C 
HETATM    5  C13 UNL     1      -0.711   7.360  11.855  1.00  0.00    -0.072 C 
HETATM    6  C14 UNL     1       0.395   7.484  12.619  1.00  0.00    -0.068 C 
HETATM    7  C15 UNL     1       0.261   7.411  14.120  1.00  0.00     0.036 C 
HETATM    8  C16 UNL     1      -1.027   8.043  14.639  1.00  0.00     0.014 C 
HETATM    9  C17 UNL     1      -2.341   7.698  13.873  1.00  0.00    -0.032 C 
HETATM   10  C18 UNL     1      -3.087   9.036  13.703  1.00  0.00     0.016 C 
HETATM   11  C19 UNL     1       1.804   7.683  12.010  1.00  0.00    -0.016 C 
HETATM   12  C20 UNL     1       2.055   9.208  12.070  1.00  0.00     0.020 C 
HETATM   13  C21 UNL     1       2.894   6.951  12.835  1.00  0.00     0.016 C 
HETATM   14  C22 UNL     1       4.267   6.961  12.174  1.00  0.00     0.034 C 
HETATM   15  C23 UNL     1       4.234   6.334  10.784  1.00  0.00     0.128 C 
HETATM   16  C24 UNL     1       3.202   6.991   9.820  1.00  0.00     0.008 C 
HETATM   17  C25 UNL     1       3.720   8.352   9.305  1.00  0.00     0.020 C 
HETATM   18  C27 UNL     1       1.811   7.075  10.556  1.00  0.00     0.011 C 
HETATM   19  C28 UNL     1       0.677   7.695   9.720  1.00  0.00     0.011 C 
HETATM   20  C29 UNL     1      -0.687   7.400  10.345  1.00  0.00     0.035 C 
ENDROOT
BRANCH   1  21
HETATM   21  C7  UNL     1      -4.706   6.576  14.468  1.00  0.00    -0.014 C 
HETATM   22  C8  UNL     1      -5.421   6.292  15.805  1.00  0.00     0.010 C 
BRANCH  21  23
HETATM   23  C6  UNL     1      -5.280   5.624  13.383  1.00  0.00     0.008 C 
BRANCH  23  24
HETATM   24  C5  UNL     1      -6.530   4.800  13.727  1.00  0.00     0.028 C 
BRANCH  24  25
HETATM   25  C4  UNL     1      -7.789   5.579  13.972  1.00  0.00    -0.025 C 
HETATM   26  C2  UNL     1      -8.726   5.919  13.063  1.00  0.00    -0.091 C 
HETATM   27  C1  UNL     1      -9.969   6.653  13.489  1.00  0.00     0.042 C 
HETATM   28  C3  UNL     1      -8.648   5.608  11.593  1.00  0.00     0.042 C 
ENDBRANCH  24  25
ENDBRANCH  23  24
ENDBRANCH  21  23
ENDBRANCH   1  21
BRANCH  16  29
HETATM   29  C26 UNL     1       3.054   6.063   8.570  1.00  0.00     0.176 C 
BRANCH  29  30
HETATM   30  O2  UNL     1       3.284   4.693   8.902  1.00  0.00    -0.400 OA
HETATM   31  H43 UNL     1       3.254   4.191   8.067  1.00  0.00     0.209 HD
ENDBRANCH  29  30
ENDBRANCH  16  29
BRANCH  15  32
HETATM   32  O1  UNL     1       5.559   6.397  10.266  1.00  0.00    -0.395 OA
HETATM   33  H37 UNL     1       5.514   6.047   9.350  1.00  0.00     0.210 HD
ENDBRANCH  15  32
TORSDOF 7
ENDMDL
MODEL 6
REMARK minimizedAffinity -7.41430378
REMARK CNNscore 0.377432644
REMARK CNNaffinity 6.70761299
REMARK  7 active torsions:
REMARK  status: ('A' for Active; 'I' for Inactive)
REMARK    1  A    between atoms: C4_4  and  C5_5 
REMARK    2  A    between atoms: C5_5  and  C6_6 
REMARK    3  A    between atoms: C6_6  and  C7_7 
REMARK    4  A    between atoms: C7_7  and  C9_9 
REMARK    5  A    between atoms: C23_23  and  O1_24 
REMARK    6  A    between atoms: C24_25  and  C26_27 
REMARK    7  A    between atoms: C26_27  and  O2_28 
ROOT
HETATM    1  C9  UNL     1      -6.809   5.734  14.806  1.00  0.00    -0.002 C 
HETATM    2  C10 UNL     1      -6.245   5.098  13.524  1.00  0.00     0.006 C 
HETATM    3  C11 UNL     1      -5.745   6.265  12.698  1.00  0.00     0.010 C 
HETATM    4  C12 UNL     1      -5.231   7.302  13.712  1.00  0.00     0.023 C 
HETATM    5  C13 UNL     1      -3.745   7.537  13.532  1.00  0.00    -0.072 C 
HETATM    6  C14 UNL     1      -2.821   6.802  14.187  1.00  0.00    -0.068 C 
HETATM    7  C15 UNL     1      -3.282   5.755  15.172  1.00  0.00     0.036 C 
HETATM    8  C16 UNL     1      -4.531   6.167  15.946  1.00  0.00     0.014 C 
HETATM    9  C17 UNL     1      -5.691   6.810  15.123  1.00  0.00    -0.032 C 
HETATM   10  C18 UNL     1      -6.157   8.029  15.943  1.00  0.00     0.016 C 
HETATM   11  C19 UNL     1      -1.302   6.981  13.954  1.00  0.00    -0.016 C 
HETATM   12  C20 UNL     1      -0.826   7.904  15.100  1.00  0.00     0.020 C 
HETATM   13  C21 UNL     1      -0.545   5.630  14.035  1.00  0.00     0.016 C 
HETATM   14  C22 UNL     1       0.919   5.727  13.627  1.00  0.00     0.034 C 
HETATM   15  C23 UNL     1       1.082   6.269  12.211  1.00  0.00     0.128 C 
HETATM   16  C24 UNL     1       0.398   7.649  11.981  1.00  0.00     0.008 C 
HETATM   17  C25 UNL     1       1.227   8.786  12.619  1.00  0.00     0.020 C 
HETATM   18  C27 UNL     1      -1.085   7.569  12.507  1.00  0.00     0.011 C 
HETATM   19  C28 UNL     1      -1.899   8.863  12.336  1.00  0.00     0.011 C 
HETATM   20  C29 UNL     1      -3.394   8.595  12.514  1.00  0.00     0.035 C 
ENDROOT
BRANCH   1  21
HETATM   21  C7  UNL     1      -8.277   6.269  14.652  1.00  0.00    -0.014 C 
HETATM   22  C8  UNL     1      -8.914   5.812  13.324  1.00  0.00     0.010 C 
BRANCH  21  23
HETATM   23  C6  UNL     1      -8.452   7.807  14.786  1.00  0.00     0.008 C 
BRANCH  23  24
HETATM   24  C5  UNL     1      -9.719   8.337  15.476  1.00  0.00     0.028 C 
BRANCH  24  25
HETATM   25  C4  UNL     1      -9.810   9.826  15.635  1.00  0.00    -0.025 C 
HETATM   26  C2  UNL     1     -10.445  10.504  16.614  1.00  0.00    -0.091 C 
HETATM   27  C1  UNL     1     -10.387  12.007  16.661  1.00  0.00     0.042 C 
HETATM   28  C3  UNL     1     -11.234   9.867  17.724  1.00  0.00     0.042 C 
ENDBRANCH  24  25
ENDBRANCH  23  24
ENDBRANCH  21  23
ENDBRANCH   1  21
BRANCH  16  29
HETATM   29  C26 UNL     1       0.372   7.921  10.441  1.00  0.00     0.176 C 
BRANCH  29  30
HETATM   30  O2  UNL     1       1.647   8.347   9.960  1.00  0.00    -0.400 OA
HETATM   31  H43 UNL     1       1.534   8.572   9.019  1.00  0.00     0.209 HD
ENDBRANCH  29  30
ENDBRANCH  16  29
BRANCH  15  32
HETATM   32  O1  UNL     1       2.479   6.315  11.940  1.00  0.00    -0.395 OA
HETATM   33  H37 UNL     1       2.574   6.721  11.051  1.00  0.00     0.210 HD
ENDBRANCH  15  32
TORSDOF 7
ENDMDL
MODEL 7
REMARK minimizedAffinity -6.19552994
REMARK CNNscore 0.376066118
REMARK CNNaffinity 6.76004076
REMARK  7 active torsions:
REMARK  status: ('A' for Active; 'I' for Inactive)
REMARK    1  A    between atoms: C4_4  and  C5_5 
REMARK    2  A    between atoms: C5_5  and  C6_6 
REMARK    3  A    between atoms: C6_6  and  C7_7 
REMARK    4  A    between atoms: C7_7  and  C9_9 
REMARK    5  A    between atoms: C23_23  and  O1_24 
REMARK    6  A    between atoms: C24_25  and  C26_27 
REMARK    7  A    between atoms: C26_27  and  O2_28 
ROOT
HETATM    1  C9  UNL     1     -13.704   9.054  13.782  1.00  0.00    -0.002 C 
HETATM    2  C10 UNL     1     -12.741   9.337  12.617  1.00  0.00     0.006 C 
HETATM    3  C11 UNL     1     -11.550  10.023  13.254  1.00  0.00     0.010 C 
HETATM    4  C12 UNL     1     -11.408   9.396  14.651  1.00  0.00     0.023 C 
HETATM    5  C13 UNL     1     -10.082   8.674  14.782  1.00  0.00    -0.072 C 
HETATM    6  C14 UNL     1      -9.943   7.372  14.454  1.00  0.00    -0.068 C 
HETATM    7  C15 UNL     1     -11.156   6.597  13.999  1.00  0.00     0.036 C 
HETATM    8  C16 UNL     1     -12.435   7.008  14.721  1.00  0.00     0.014 C 
HETATM    9  C17 UNL     1     -12.692   8.538  14.887  1.00  0.00    -0.032 C 
HETATM   10  C18 UNL     1     -13.151   8.727  16.346  1.00  0.00     0.016 C 
HETATM   11  C19 UNL     1      -8.578   6.644  14.510  1.00  0.00    -0.016 C 
HETATM   12  C20 UNL     1      -8.572   5.909  15.870  1.00  0.00     0.020 C 
HETATM   13  C21 UNL     1      -8.432   5.608  13.366  1.00  0.00     0.016 C 
HETATM   14  C22 UNL     1      -7.038   5.003  13.267  1.00  0.00     0.034 C 
HETATM   15  C23 UNL     1      -5.966   6.070  13.070  1.00  0.00     0.128 C 
HETATM   16  C24 UNL     1      -5.964   7.173  14.169  1.00  0.00     0.008 C 
HETATM   17  C25 UNL     1      -5.338   6.642  15.478  1.00  0.00     0.020 C 
HETATM   18  C27 UNL     1      -7.434   7.715  14.339  1.00  0.00     0.011 C 
HETATM   19  C28 UNL     1      -7.592   8.827  15.391  1.00  0.00     0.011 C 
HETATM   20  C29 UNL     1      -8.932   9.545  15.230  1.00  0.00     0.035 C 
ENDROOT
BRANCH   1  21
HETATM   21  C7  UNL     1     -14.603  10.281  14.171  1.00  0.00    -0.014 C 
HETATM   22  C8  UNL     1     -15.987   9.833  14.684  1.00  0.00     0.010 C 
BRANCH  21  23
HETATM   23  C6  UNL     1     -14.805  11.349  13.061  1.00  0.00     0.008 C 
BRANCH  23  24
HETATM   24  C5  UNL     1     -16.046  11.238  12.162  1.00  0.00     0.028 C 
BRANCH  24  25
HETATM   25  C4  UNL     1     -17.123  12.257  12.394  1.00  0.00    -0.025 C 
HETATM   26  C2  UNL     1     -17.200  13.497  11.869  1.00  0.00    -0.091 C 
HETATM   27  C1  UNL     1     -18.388  14.374  12.158  1.00  0.00     0.042 C 
HETATM   28  C3  UNL     1     -16.164  14.112  10.969  1.00  0.00     0.042 C 
ENDBRANCH  24  25
ENDBRANCH  23  24
ENDBRANCH  21  23
ENDBRANCH   1  21
BRANCH  16  29
HETATM   29  C26 UNL     1      -5.050   8.342  13.675  1.00  0.00     0.176 C 
BRANCH  29  30
HETATM   30  O2  UNL     1      -3.675   8.097  13.974  1.00  0.00    -0.400 OA
HETATM   31  H43 UNL     1      -3.182   8.895  13.711  1.00  0.00     0.209 HD
ENDBRANCH  29  30
ENDBRANCH  16  29
BRANCH  15  32
HETATM   32  O1  UNL     1      -4.714   5.395  12.991  1.00  0.00    -0.395 OA
HETATM   33  H37 UNL     1      -4.028   6.094  12.925  1.00  0.00     0.210 HD
ENDBRANCH  15  32
TORSDOF 7
ENDMDL
MODEL 8
REMARK minimizedAffinity -6.45011282
REMARK CNNscore 0.365623415
REMARK CNNaffinity 6.01676178
REMARK  7 active torsions:
REMARK  status: ('A' for Active; 'I' for Inactive)
REMARK    1  A    between atoms: C4_4  and  C5_5 
REMARK    2  A    between atoms: C5_5  and  C6_6 
REMARK    3  A    between atoms: C6_6  and  C7_7 
REMARK    4  A    between atoms: C7_7  and  C9_9 
REMARK    5  A    between atoms: C23_23  and  O1_24 
REMARK    6  A    between atoms: C24_25  and  C26_27 
REMARK    7  A    between atoms: C26_27  and  O2_28 
ROOT
HETATM    1  C9  UNL     1      -7.275 -10.459  -0.904  1.00  0.00    -0.002 C 
HETATM    2  C10 UNL     1      -7.409  -9.177  -0.065  1.00  0.00     0.006 C 
HETATM    3  C11 UNL     1      -8.010  -9.632   1.249  1.00  0.00     0.010 C 
HETATM    4  C12 UNL     1      -7.441 -11.039   1.501  1.00  0.00     0.023 C 
HETATM    5  C13 UNL     1      -6.605 -11.061   2.764  1.00  0.00    -0.072 C 
HETATM    6  C14 UNL     1      -5.281 -10.797   2.748  1.00  0.00    -0.068 C 
HETATM    7  C15 UNL     1      -4.603 -10.530   1.427  1.00  0.00     0.036 C 
HETATM    8  C16 UNL     1      -5.166 -11.367   0.283  1.00  0.00     0.014 C 
HETATM    9  C17 UNL     1      -6.720 -11.470   0.183  1.00  0.00    -0.032 C 
HETATM   10  C18 UNL     1      -7.022 -12.959  -0.081  1.00  0.00     0.016 C 
HETATM   11  C19 UNL     1      -4.432 -10.740   4.041  1.00  0.00    -0.016 C 
HETATM   12  C20 UNL     1      -3.766 -12.132   4.144  1.00  0.00     0.020 C 
HETATM   13  C21 UNL     1      -3.332  -9.650   3.959  1.00  0.00     0.016 C 
HETATM   14  C22 UNL     1      -2.595  -9.429   5.273  1.00  0.00     0.034 C 
HETATM   15  C23 UNL     1      -3.545  -9.048   6.403  1.00  0.00     0.128 C 
HETATM   16  C24 UNL     1      -4.695 -10.073   6.632  1.00  0.00     0.008 C 
HETATM   17  C25 UNL     1      -4.172 -11.332   7.360  1.00  0.00     0.020 C 
HETATM   18  C27 UNL     1      -5.381 -10.377   5.246  1.00  0.00     0.011 C 
HETATM   19  C28 UNL     1      -6.552 -11.372   5.313  1.00  0.00     0.011 C 
HETATM   20  C29 UNL     1      -7.384 -11.323   4.031  1.00  0.00     0.035 C 
ENDROOT
BRANCH   1  21
HETATM   21  C7  UNL     1      -8.598 -10.874  -1.639  1.00  0.00    -0.014 C 
HETATM   22  C8  UNL     1      -8.310 -11.514  -3.013  1.00  0.00     0.010 C 
BRANCH  21  23
HETATM   23  C6  UNL     1      -9.650  -9.747  -1.825  1.00  0.00     0.008 C 
BRANCH  23  24
HETATM   24  C5  UNL     1     -10.082  -9.383  -3.254  1.00  0.00     0.028 C 
BRANCH  24  25
HETATM   25  C4  UNL     1     -10.248  -7.919  -3.542  1.00  0.00    -0.025 C 
HETATM   26  C2  UNL     1      -9.270  -7.000  -3.684  1.00  0.00    -0.091 C 
HETATM   27  C1  UNL     1      -9.608  -5.576  -4.035  1.00  0.00     0.042 C 
HETATM   28  C3  UNL     1      -7.801  -7.280  -3.527  1.00  0.00     0.042 C 
ENDBRANCH  24  25
ENDBRANCH  23  24
ENDBRANCH  21  23
ENDBRANCH   1  21
BRANCH  16  29
HETATM   29  C26 UNL     1      -5.748  -9.410   7.580  1.00  0.00     0.176 C 
BRANCH  29  30
HETATM   30  O2  UNL     1      -5.978  -8.043   7.235  1.00  0.00    -0.400 OA
HETATM   31  H43 UNL     1      -6.578  -7.679   7.910  1.00  0.00     0.209 HD
ENDBRANCH  29  30
ENDBRANCH  16  29
BRANCH  15  32
HETATM   32  O1  UNL     1      -2.753  -8.868   7.572  1.00  0.00    -0.395 OA
HETATM   33  H37 UNL     1      -3.380  -8.683   8.305  1.00  0.00     0.210 HD
ENDBRANCH  15  32
TORSDOF 7
ENDMDL
MODEL 9
REMARK minimizedAffinity -6.65960598
REMARK CNNscore 0.362867892
REMARK CNNaffinity 5.85904455
REMARK  7 active torsions:
REMARK  status: ('A' for Active; 'I' for Inactive)
REMARK    1  A    between atoms: C4_4  and  C5_5 
REMARK    2  A    between atoms: C5_5  and  C6_6 
REMARK    3  A    between atoms: C6_6  and  C7_7 
REMARK    4  A    between atoms: C7_7  and  C9_9 
REMARK    5  A    between atoms: C23_23  and  O1_24 
REMARK    6  A    between atoms: C24_25  and  C26_27 
REMARK    7  A    between atoms: C26_27  and  O2_28 
ROOT
HETATM    1  C9  UNL     1      -8.527  -7.483  -4.353  1.00  0.00    -0.002 C 
HETATM    2  C10 UNL     1      -7.877  -6.614  -3.263  1.00  0.00     0.006 C 
HETATM    3  C11 UNL     1      -8.621  -6.966  -1.991  1.00  0.00     0.010 C 
HETATM    4  C12 UNL     1      -8.982  -8.456  -2.120  1.00  0.00     0.023 C 
HETATM    5  C13 UNL     1      -8.307  -9.267  -1.032  1.00  0.00    -0.072 C 
HETATM    6  C14 UNL     1      -7.079  -9.804  -1.200  1.00  0.00    -0.068 C 
HETATM    7  C15 UNL     1      -6.384  -9.641  -2.530  1.00  0.00     0.036 C 
HETATM    8  C16 UNL     1      -7.340  -9.689  -3.717  1.00  0.00     0.014 C 
HETATM    9  C17 UNL     1      -8.661  -8.866  -3.593  1.00  0.00    -0.032 C 
HETATM   10  C18 UNL     1      -9.779  -9.797  -4.102  1.00  0.00     0.016 C 
HETATM   11  C19 UNL     1      -6.347 -10.568  -0.070  1.00  0.00    -0.016 C 
HETATM   12  C20 UNL     1      -6.622 -12.063  -0.355  1.00  0.00     0.020 C 
HETATM   13  C21 UNL     1      -4.818 -10.313  -0.102  1.00  0.00     0.016 C 
HETATM   14  C22 UNL     1      -4.081 -10.890   1.099  1.00  0.00     0.034 C 
HETATM   15  C23 UNL     1      -4.619 -10.342   2.417  1.00  0.00     0.128 C 
HETATM   16  C24 UNL     1      -6.149 -10.556   2.611  1.00  0.00     0.008 C 
HETATM   17  C25 UNL     1      -6.457 -12.024   2.979  1.00  0.00     0.020 C 
HETATM   18  C27 UNL     1      -6.894 -10.054   1.316  1.00  0.00     0.011 C 
HETATM   19  C28 UNL     1      -8.426 -10.190   1.361  1.00  0.00     0.011 C 
HETATM   20  C29 UNL     1      -9.082  -9.355   0.261  1.00  0.00     0.035 C 
ENDROOT
BRANCH   1  21
HETATM   21  C7  UNL     1      -9.848  -6.874  -4.943  1.00  0.00    -0.014 C 
HETATM   22  C8  UNL     1      -9.903  -7.011  -6.479  1.00  0.00     0.010 C 
BRANCH  21  23
HETATM   23  C6  UNL     1     -10.139  -5.396  -4.564  1.00  0.00     0.008 C 
BRANCH  23  24
HETATM   24  C5  UNL     1      -9.892  -4.311  -5.623  1.00  0.00     0.028 C 
BRANCH  24  25
HETATM   25  C4  UNL     1     -10.381  -2.933  -5.284  1.00  0.00    -0.025 C 
HETATM   26  C2  UNL     1      -9.630  -1.852  -4.988  1.00  0.00    -0.091 C 
HETATM   27  C1  UNL     1     -10.281  -0.519  -4.731  1.00  0.00     0.042 C 
HETATM   28  C3  UNL     1      -8.129  -1.849  -4.898  1.00  0.00     0.042 C 
ENDBRANCH  24  25
ENDBRANCH  23  24
ENDBRANCH  21  23
ENDBRANCH   1  21
BRANCH  16  29
HETATM   29  C26 UNL     1      -6.607  -9.682   3.824  1.00  0.00     0.176 C 
BRANCH  29  30
HETATM   30  O2  UNL     1      -5.570  -9.551   4.798  1.00  0.00    -0.400 OA
HETATM   31  H43 UNL     1      -5.951  -9.066   5.553  1.00  0.00     0.209 HD
ENDBRANCH  29  30
ENDBRANCH  16  29
BRANCH  15  32
HETATM   32  O1  UNL     1      -3.861 -10.946   3.461  1.00  0.00    -0.395 OA
HETATM   33  H37 UNL     1      -4.256 -10.633   4.304  1.00  0.00     0.210 HD
ENDBRANCH  15  32
TORSDOF 7
ENDMDL
