MODEL 1
REMARK minimizedAffinity -8.63324356
REMARK CNNscore 0.609939814
REMARK CNNaffinity 7.04774714
REMARK  5 active torsions:
REMARK  status: ('A' for Active; 'I' for Inactive)
REMARK    1  A    between atoms: C2_2  and  C3_3 
REMARK    2  A    between atoms: C6_6  and  C7_7 
REMARK    3  A    between atoms: C7_7  and  O1_8 
REMARK    4  A    between atoms: C7_7  and  C8_9 
REMARK    5  A    between atoms: C26_32  and  O6_33 
ROOT
HETATM    1  C3  UNL     1       4.611  54.966  -7.214  1.00  0.00     0.008 C 
HETATM    2  C4  UNL     1       4.117  56.068  -8.123  1.00  0.00    -0.023 C 
HETATM    3  C5  UNL     1       2.850  56.494  -8.256  1.00  0.00     0.005 C 
HETATM    4  C6  UNL     1       1.610  55.962  -7.575  1.00  0.00     0.187 C 
HETATM    5  O2  UNL     1       0.783  55.511  -8.673  1.00  0.00    -0.308 OA
HETATM    6  C12 UNL     1      -0.211  54.624  -8.373  1.00  0.00     0.276 C 
HETATM    7  O3  UNL     1      -0.441  54.224  -7.235  1.00  0.00    -0.264 OA
HETATM    8  C13 UNL     1      -0.995  54.215  -9.670  1.00  0.00     0.095 C 
HETATM    9  C14 UNL     1      -1.136  55.524 -10.503  1.00  0.00     0.036 C 
HETATM   10  C15 UNL     1      -2.386  53.776  -9.241  1.00  0.00     0.003 C 
HETATM   11  C16 UNL     1      -3.365  53.336 -10.044  1.00  0.00     0.072 C 
HETATM   12  C17 UNL     1      -3.297  53.184 -11.512  1.00  0.00     0.245 C 
HETATM   13  O4  UNL     1      -4.335  53.254 -12.162  1.00  0.00    -0.268 OA
HETATM   14  N1  UNL     1      -2.120  52.880 -12.127  1.00  0.00    -0.320 N 
HETATM   15  C18 UNL     1      -0.849  52.638 -11.650  1.00  0.00     0.098 C 
HETATM   16  C19 UNL     1      -0.317  53.123 -10.512  1.00  0.00     0.045 C 
HETATM   17  C20 UNL     1       0.998  52.562 -10.067  1.00  0.00     0.194 C 
HETATM   18  O5  UNL     1       1.350  52.644  -8.900  1.00  0.00    -0.287 OA
HETATM   19  C21 UNL     1       1.872  51.839 -11.017  1.00  0.00     0.046 A 
HETATM   20  C22 UNL     1       1.332  51.443 -12.237  1.00  0.00     0.032 A 
HETATM   21  C23 UNL     1       2.081  50.685 -13.152  1.00  0.00     0.026 A 
HETATM   22  C24 UNL     1       3.382  50.278 -12.845  1.00  0.00    -0.027 A 
HETATM   23  C25 UNL     1       4.155  49.423 -13.808  1.00  0.00     0.051 C 
HETATM   24  C26 UNL     1       3.911  50.635 -11.604  1.00  0.00     0.086 A 
HETATM   25  C27 UNL     1       3.189  51.448 -10.706  1.00  0.00     0.059 A 
HETATM   26  C28 UNL     1       3.913  51.826  -9.468  1.00  0.00     0.163 C 
HETATM   27  O7  UNL     1       4.458  50.916  -8.841  1.00  0.00    -0.292 OA
HETATM   28  C29 UNL     1       4.165  53.293  -9.174  1.00  0.00     0.084 C 
HETATM   29  C30 UNL     1       4.225  53.539  -7.663  1.00  0.00     0.016 C 
HETATM   30  C31 UNL     1      -0.052  51.784 -12.584  1.00  0.00     0.210 C 
HETATM   31  O8  UNL     1      -0.549  51.400 -13.640  1.00  0.00    -0.285 OA
HETATM   32  H24 UNL     1      -2.277  52.574 -13.088  1.00  0.00     0.169 HD
ENDROOT
BRANCH   4  33
HETATM   33  C7  UNL     1       0.889  57.078  -6.747  1.00  0.00     0.174 C 
BRANCH  33  34
HETATM   34  O1  UNL     1      -0.539  56.996  -6.819  1.00  0.00    -0.389 OA
HETATM   35  H11 UNL     1      -0.785  56.086  -7.084  1.00  0.00     0.210 HD
ENDBRANCH  33  34
BRANCH  33  36
HETATM   36  C8  UNL     1       1.229  57.005  -5.282  1.00  0.00     0.009 C 
HETATM   37  C9  UNL     1       2.237  57.605  -4.618  1.00  0.00    -0.089 C 
HETATM   38  C10 UNL     1       2.421  57.374  -3.140  1.00  0.00     0.042 C 
HETATM   39  C11 UNL     1       3.246  58.544  -5.223  1.00  0.00     0.042 C 
ENDBRANCH  33  36
ENDBRANCH   4  33
BRANCH   1  40
HETATM   40  C2  UNL     1       6.123  55.110  -6.914  1.00  0.00     0.004 C 
HETATM   41  C1  UNL     1       7.012  55.442  -8.104  1.00  0.00     0.006 C 
ENDBRANCH   1  40
BRANCH  24  42
HETATM   42  O6  UNL     1       5.159  50.151 -11.297  1.00  0.00    -0.359 OA
HETATM   43  H29 UNL     1       5.267  50.159 -10.318  1.00  0.00     0.217 HD
ENDBRANCH  24  42
TORSDOF 5
ENDMDL
MODEL 2
REMARK minimizedAffinity -8.5923748
REMARK CNNscore 0.554611862
REMARK CNNaffinity 6.92366457
REMARK  5 active torsions:
REMARK  status: ('A' for Active; 'I' for Inactive)
REMARK    1  A    between atoms: C2_2  and  C3_3 
REMARK    2  A    between atoms: C6_6  and  C7_7 
REMARK    3  A    between atoms: C7_7  and  O1_8 
REMARK    4  A    between atoms: C7_7  and  C8_9 
REMARK    5  A    between atoms: C26_32  and  O6_33 
ROOT
HETATM    1  C3  UNL     1      -2.007  49.980 -21.642  1.00  0.00     0.008 C 
HETATM    2  C4  UNL     1      -1.529  48.569 -21.386  1.00  0.00    -0.023 C 
HETATM    3  C5  UNL     1      -2.063  47.681 -20.530  1.00  0.00     0.005 C 
HETATM    4  C6  UNL     1      -3.232  47.877 -19.591  1.00  0.00     0.187 C 
HETATM    5  O2  UNL     1      -2.657  47.665 -18.281  1.00  0.00    -0.308 OA
HETATM    6  C12 UNL     1      -3.350  48.162 -17.215  1.00  0.00     0.276 C 
HETATM    7  O3  UNL     1      -4.427  48.744 -17.319  1.00  0.00    -0.264 OA
HETATM    8  C13 UNL     1      -2.585  47.874 -15.875  1.00  0.00     0.095 C 
HETATM    9  C14 UNL     1      -2.012  46.432 -16.023  1.00  0.00     0.036 C 
HETATM   10  C15 UNL     1      -3.613  47.861 -14.756  1.00  0.00     0.003 C 
HETATM   11  C16 UNL     1      -3.370  47.663 -13.453  1.00  0.00     0.072 C 
HETATM   12  C17 UNL     1      -2.053  47.420 -12.832  1.00  0.00     0.245 C 
HETATM   13  O4  UNL     1      -2.003  46.790 -11.779  1.00  0.00    -0.268 OA
HETATM   14  N1  UNL     1      -0.921  47.959 -13.363  1.00  0.00    -0.320 N 
HETATM   15  C18 UNL     1      -0.694  48.779 -14.449  1.00  0.00     0.098 C 
HETATM   16  C19 UNL     1      -1.452  48.863 -15.559  1.00  0.00     0.045 C 
HETATM   17  C20 UNL     1      -1.156  49.973 -16.519  1.00  0.00     0.194 C 
HETATM   18  O5  UNL     1      -2.001  50.354 -17.314  1.00  0.00    -0.287 OA
HETATM   19  C21 UNL     1       0.144  50.678 -16.481  1.00  0.00     0.046 A 
HETATM   20  C22 UNL     1       0.963  50.491 -15.371  1.00  0.00     0.032 A 
HETATM   21  C23 UNL     1       2.174  51.190 -15.235  1.00  0.00     0.026 A 
HETATM   22  C24 UNL     1       2.572  52.121 -16.197  1.00  0.00    -0.027 A 
HETATM   23  C25 UNL     1       3.842  52.903 -16.014  1.00  0.00     0.051 C 
HETATM   24  C26 UNL     1       1.732  52.345 -17.289  1.00  0.00     0.086 A 
HETATM   25  C27 UNL     1       0.547  51.602 -17.466  1.00  0.00     0.059 A 
HETATM   26  C28 UNL     1      -0.197  51.879 -18.720  1.00  0.00     0.163 C 
HETATM   27  O7  UNL     1      -0.416  53.061 -18.988  1.00  0.00    -0.292 OA
HETATM   28  C29 UNL     1      -0.419  50.755 -19.713  1.00  0.00     0.084 C 
HETATM   29  C30 UNL     1      -1.718  50.976 -20.496  1.00  0.00     0.016 C 
HETATM   30  C31 UNL     1       0.562  49.576 -14.297  1.00  0.00     0.210 C 
HETATM   31  O8  UNL     1       1.259  49.440 -13.295  1.00  0.00    -0.285 OA
HETATM   32  H24 UNL     1      -0.144  47.906 -12.703  1.00  0.00     0.169 HD
ENDROOT
BRANCH   4  33
HETATM   33  C7  UNL     1      -4.375  46.847 -19.879  1.00  0.00     0.174 C 
BRANCH  33  34
HETATM   34  O1  UNL     1      -5.554  47.086 -19.103  1.00  0.00    -0.389 OA
HETATM   35  H11 UNL     1      -5.544  48.018 -18.802  1.00  0.00     0.210 HD
ENDBRANCH  33  34
BRANCH  33  36
HETATM   36  C8  UNL     1      -4.819  46.882 -21.318  1.00  0.00     0.009 C 
HETATM   37  C9  UNL     1      -5.380  47.897 -22.004  1.00  0.00    -0.089 C 
HETATM   38  C10 UNL     1      -5.783  47.714 -23.445  1.00  0.00     0.042 C 
HETATM   39  C11 UNL     1      -5.650  49.276 -21.462  1.00  0.00     0.042 C 
ENDBRANCH  33  36
ENDBRANCH   4  33
BRANCH   1  40
HETATM   40  C2  UNL     1      -1.532  50.500 -23.021  1.00  0.00     0.004 C 
HETATM   41  C1  UNL     1      -1.188  51.981 -23.094  1.00  0.00     0.006 C 
ENDBRANCH   1  40
BRANCH  24  42
HETATM   42  O6  UNL     1       2.109  53.325 -18.174  1.00  0.00    -0.359 OA
HETATM   43  H29 UNL     1       1.312  53.628 -18.667  1.00  0.00     0.217 HD
ENDBRANCH  24  42
TORSDOF 5
ENDMDL
MODEL 3
REMARK minimizedAffinity -12.1861734
REMARK CNNscore 0.526421249
REMARK CNNaffinity 7.58601189
REMARK  5 active torsions:
REMARK  status: ('A' for Active; 'I' for Inactive)
REMARK    1  A    between atoms: C2_2  and  C3_3 
REMARK    2  A    between atoms: C6_6  and  C7_7 
REMARK    3  A    between atoms: C7_7  and  O1_8 
REMARK    4  A    between atoms: C7_7  and  C8_9 
REMARK    5  A    between atoms: C26_32  and  O6_33 
ROOT
HETATM    1  C3  UNL     1      -5.235  48.230 -19.712  1.00  0.00     0.008 C 
HETATM    2  C4  UNL     1      -5.816  49.503 -20.284  1.00  0.00    -0.023 C 
HETATM    3  C5  UNL     1      -5.687  49.951 -21.545  1.00  0.00     0.005 C 
HETATM    4  C6  UNL     1      -4.905  49.329 -22.680  1.00  0.00     0.187 C 
HETATM    5  O2  UNL     1      -3.927  50.340 -23.016  1.00  0.00    -0.308 OA
HETATM    6  C12 UNL     1      -2.831  49.928 -23.717  1.00  0.00     0.276 C 
HETATM    7  O3  UNL     1      -2.659  48.769 -24.087  1.00  0.00    -0.264 OA
HETATM    8  C13 UNL     1      -1.857  51.132 -23.977  1.00  0.00     0.095 C 
HETATM    9  C14 UNL     1      -2.774  52.346 -24.313  1.00  0.00     0.036 C 
HETATM   10  C15 UNL     1      -1.042  50.799 -25.216  1.00  0.00     0.003 C 
HETATM   11  C16 UNL     1      -0.086  51.560 -25.769  1.00  0.00     0.072 C 
HETATM   12  C17 UNL     1       0.376  52.877 -25.288  1.00  0.00     0.245 C 
HETATM   13  O4  UNL     1       0.862  53.664 -26.096  1.00  0.00    -0.268 OA
HETATM   14  N1  UNL     1       0.351  53.183 -23.962  1.00  0.00    -0.320 N 
HETATM   15  C18 UNL     1      -0.027  52.471 -22.842  1.00  0.00     0.098 C 
HETATM   16  C19 UNL     1      -0.934  51.476 -22.798  1.00  0.00     0.045 C 
HETATM   17  C20 UNL     1      -1.036  50.687 -21.529  1.00  0.00     0.194 C 
HETATM   18  O5  UNL     1      -1.522  49.566 -21.528  1.00  0.00    -0.287 OA
HETATM   19  C21 UNL     1      -0.491  51.220 -20.262  1.00  0.00     0.046 A 
HETATM   20  C22 UNL     1       0.360  52.320 -20.321  1.00  0.00     0.032 A 
HETATM   21  C23 UNL     1       0.974  52.828 -19.165  1.00  0.00     0.026 A 
HETATM   22  C24 UNL     1       0.773  52.218 -17.924  1.00  0.00    -0.027 A 
HETATM   23  C25 UNL     1       1.477  52.736 -16.703  1.00  0.00     0.051 C 
HETATM   24  C26 UNL     1      -0.044  51.088 -17.867  1.00  0.00     0.086 A 
HETATM   25  C27 UNL     1      -0.714  50.610 -19.012  1.00  0.00     0.059 A 
HETATM   26  C28 UNL     1      -1.623  49.460 -18.782  1.00  0.00     0.163 C 
HETATM   27  O7  UNL     1      -1.165  48.505 -18.153  1.00  0.00    -0.292 OA
HETATM   28  C29 UNL     1      -3.100  49.609 -19.093  1.00  0.00     0.084 C 
HETATM   29  C30 UNL     1      -3.705  48.260 -19.498  1.00  0.00     0.016 C 
HETATM   30  C31 UNL     1       0.661  52.959 -21.607  1.00  0.00     0.210 C 
HETATM   31  O8  UNL     1       1.445  53.902 -21.673  1.00  0.00    -0.285 OA
HETATM   32  H24 UNL     1       0.916  54.012 -23.765  1.00  0.00     0.169 HD
ENDROOT
BRANCH   4  33
HETATM   33  C7  UNL     1      -5.830  49.012 -23.903  1.00  0.00     0.174 C 
BRANCH  33  34
HETATM   34  O1  UNL     1      -6.820  50.020 -24.135  1.00  0.00    -0.389 OA
HETATM   35  H11 UNL     1      -6.522  50.851 -23.711  1.00  0.00     0.210 HD
ENDBRANCH  33  34
BRANCH  33  36
HETATM   36  C8  UNL     1      -5.051  48.901 -25.188  1.00  0.00     0.009 C 
HETATM   37  C9  UNL     1      -5.384  48.254 -26.323  1.00  0.00    -0.089 C 
HETATM   38  C10 UNL     1      -4.439  48.241 -27.497  1.00  0.00     0.042 C 
HETATM   39  C11 UNL     1      -6.672  47.514 -26.564  1.00  0.00     0.042 C 
ENDBRANCH  33  36
ENDBRANCH   4  33
BRANCH   1  40
HETATM   40  C2  UNL     1      -6.007  47.769 -18.451  1.00  0.00     0.004 C 
HETATM   41  C1  UNL     1      -7.304  48.509 -18.154  1.00  0.00     0.006 C 
ENDBRANCH   1  40
BRANCH  24  42
HETATM   42  O6  UNL     1      -0.155  50.462 -16.650  1.00  0.00    -0.359 OA
HETATM   43  H29 UNL     1      -0.439  49.530 -16.800  1.00  0.00     0.217 HD
ENDBRANCH  24  42
TORSDOF 5
ENDMDL
MODEL 4
REMARK minimizedAffinity -7.96360636
REMARK CNNscore 0.515155494
REMARK CNNaffinity 6.93675089
REMARK  5 active torsions:
REMARK  status: ('A' for Active; 'I' for Inactive)
REMARK    1  A    between atoms: C2_2  and  C3_3 
REMARK    2  A    between atoms: C6_6  and  C7_7 
REMARK    3  A    between atoms: C7_7  and  O1_8 
REMARK    4  A    between atoms: C7_7  and  C8_9 
REMARK    5  A    between atoms: C26_32  and  O6_33 
ROOT
HETATM    1  C3  UNL     1       3.847  54.404  -9.778  1.00  0.00     0.008 C 
HETATM    2  C4  UNL     1       2.693  55.380  -9.767  1.00  0.00    -0.023 C 
HETATM    3  C5  UNL     1       1.528  55.243  -9.112  1.00  0.00     0.005 C 
HETATM    4  C6  UNL     1       1.064  54.077  -8.267  1.00  0.00     0.187 C 
HETATM    5  O2  UNL     1      -0.123  53.612  -8.949  1.00  0.00    -0.308 OA
HETATM    6  C12 UNL     1      -0.538  52.343  -8.668  1.00  0.00     0.276 C 
HETATM    7  O3  UNL     1       0.028  51.607  -7.864  1.00  0.00    -0.264 OA
HETATM    8  C13 UNL     1      -1.817  51.982  -9.504  1.00  0.00     0.095 C 
HETATM    9  C14 UNL     1      -2.695  53.270  -9.499  1.00  0.00     0.036 C 
HETATM   10  C15 UNL     1      -2.566  50.898  -8.746  1.00  0.00     0.003 C 
HETATM   11  C16 UNL     1      -3.706  50.303  -9.126  1.00  0.00     0.072 C 
HETATM   12  C17 UNL     1      -4.470  50.573 -10.360  1.00  0.00     0.245 C 
HETATM   13  O4  UNL     1      -5.678  50.356 -10.367  1.00  0.00    -0.268 OA
HETATM   14  N1  UNL     1      -3.837  50.969 -11.499  1.00  0.00    -0.320 N 
HETATM   15  C18 UNL     1      -2.509  51.181 -11.808  1.00  0.00     0.098 C 
HETATM   16  C19 UNL     1      -1.537  51.539 -10.948  1.00  0.00     0.045 C 
HETATM   17  C20 UNL     1      -0.124  51.502 -11.444  1.00  0.00     0.194 C 
HETATM   18  O5  UNL     1       0.811  51.425 -10.662  1.00  0.00    -0.287 OA
HETATM   19  C21 UNL     1       0.168  51.489 -12.894  1.00  0.00     0.046 A 
HETATM   20  C22 UNL     1      -0.878  51.226 -13.774  1.00  0.00     0.032 A 
HETATM   21  C23 UNL     1      -0.656  51.121 -15.157  1.00  0.00     0.026 A 
HETATM   22  C24 UNL     1       0.632  51.246 -15.684  1.00  0.00    -0.027 A 
HETATM   23  C25 UNL     1       0.866  51.079 -17.158  1.00  0.00     0.051 C 
HETATM   24  C26 UNL     1       1.690  51.465 -14.801  1.00  0.00     0.086 A 
HETATM   25  C27 UNL     1       1.467  51.634 -13.419  1.00  0.00     0.059 A 
HETATM   26  C28 UNL     1       2.672  51.956 -12.615  1.00  0.00     0.163 C 
HETATM   27  O7  UNL     1       3.660  51.240 -12.782  1.00  0.00    -0.292 OA
HETATM   28  C29 UNL     1       2.722  53.261 -11.844  1.00  0.00     0.084 C 
HETATM   29  C30 UNL     1       3.592  53.115 -10.591  1.00  0.00     0.016 C 
HETATM   30  C31 UNL     1      -2.240  51.018 -13.270  1.00  0.00     0.210 C 
HETATM   31  O8  UNL     1      -3.159  50.742 -14.037  1.00  0.00    -0.285 OA
HETATM   32  H24 UNL     1      -4.451  50.881 -12.310  1.00  0.00     0.169 HD
ENDROOT
BRANCH   4  33
HETATM   33  C7  UNL     1       0.736  54.527  -6.804  1.00  0.00     0.174 C 
BRANCH  33  34
HETATM   34  O1  UNL     1       0.954  53.494  -5.837  1.00  0.00    -0.389 OA
HETATM   35  H11 UNL     1       1.571  52.835  -6.220  1.00  0.00     0.210 HD
ENDBRANCH  33  34
BRANCH  33  36
HETATM   36  C8  UNL     1       1.591  55.686  -6.363  1.00  0.00     0.009 C 
HETATM   37  C9  UNL     1       1.240  56.763  -5.631  1.00  0.00    -0.089 C 
HETATM   38  C10 UNL     1       2.252  57.837  -5.322  1.00  0.00     0.042 C 
HETATM   39  C11 UNL     1      -0.123  57.016  -5.045  1.00  0.00     0.042 C 
ENDBRANCH  33  36
ENDBRANCH   4  33
BRANCH   1  40
HETATM   40  C2  UNL     1       5.177  55.099 -10.158  1.00  0.00     0.004 C 
HETATM   41  C1  UNL     1       6.390  54.727  -9.317  1.00  0.00     0.006 C 
ENDBRANCH   1  40
BRANCH  24  42
HETATM   42  O6  UNL     1       2.953  51.500 -15.339  1.00  0.00    -0.359 OA
HETATM   43  H29 UNL     1       3.604  51.305 -14.626  1.00  0.00     0.217 HD
ENDBRANCH  24  42
TORSDOF 5
ENDMDL
MODEL 5
REMARK minimizedAffinity -7.75407791
REMARK CNNscore 0.452909172
REMARK CNNaffinity 6.6867795
REMARK  5 active torsions:
REMARK  status: ('A' for Active; 'I' for Inactive)
REMARK    1  A    between atoms: C2_2  and  C3_3 
REMARK    2  A    between atoms: C6_6  and  C7_7 
REMARK    3  A    between atoms: C7_7  and  O1_8 
REMARK    4  A    between atoms: C7_7  and  C8_9 
REMARK    5  A    between atoms: C26_32  and  O6_33 
ROOT
HETATM    1  C3  UNL     1       5.574  51.998  -9.020  1.00  0.00     0.008 C 
HETATM    2  C4  UNL     1       5.310  53.255  -9.816  1.00  0.00    -0.023 C 
HETATM    3  C5  UNL     1       4.293  54.117  -9.647  1.00  0.00     0.005 C 
HETATM    4  C6  UNL     1       3.148  54.027  -8.663  1.00  0.00     0.187 C 
HETATM    5  O2  UNL     1       1.975  53.970  -9.507  1.00  0.00    -0.308 OA
HETATM    6  C12 UNL     1       0.831  53.485  -8.941  1.00  0.00     0.276 C 
HETATM    7  O3  UNL     1       0.754  53.127  -7.768  1.00  0.00    -0.264 OA
HETATM    8  C13 UNL     1      -0.337  53.462  -9.989  1.00  0.00     0.095 C 
HETATM    9  C14 UNL     1      -0.190  54.781 -10.806  1.00  0.00     0.036 C 
HETATM   10  C15 UNL     1      -1.644  53.529  -9.216  1.00  0.00     0.003 C 
HETATM   11  C16 UNL     1      -2.879  53.519  -9.737  1.00  0.00     0.072 C 
HETATM   12  C17 UNL     1      -3.228  53.439 -11.170  1.00  0.00     0.245 C 
HETATM   13  O4  UNL     1      -4.295  53.917 -11.545  1.00  0.00    -0.268 OA
HETATM   14  N1  UNL     1      -2.429  52.769 -12.045  1.00  0.00    -0.320 N 
HETATM   15  C18 UNL     1      -1.257  52.058 -11.889  1.00  0.00     0.098 C 
HETATM   16  C19 UNL     1      -0.328  52.251 -10.934  1.00  0.00     0.045 C 
HETATM   17  C20 UNL     1       0.760  51.229 -10.809  1.00  0.00     0.194 C 
HETATM   18  O5  UNL     1       1.389  51.110  -9.768  1.00  0.00    -0.287 OA
HETATM   19  C21 UNL     1       1.053  50.297 -11.920  1.00  0.00     0.046 A 
HETATM   20  C22 UNL     1       0.128  50.195 -12.955  1.00  0.00     0.032 A 
HETATM   21  C23 UNL     1       0.305  49.273 -14.000  1.00  0.00     0.026 A 
HETATM   22  C24 UNL     1       1.402  48.408 -14.010  1.00  0.00    -0.027 A 
HETATM   23  C25 UNL     1       1.554  47.390 -15.104  1.00  0.00     0.051 C 
HETATM   24  C26 UNL     1       2.308  48.477 -12.951  1.00  0.00     0.086 A 
HETATM   25  C27 UNL     1       2.172  49.441 -11.931  1.00  0.00     0.059 A 
HETATM   26  C28 UNL     1       3.260  49.459 -10.923  1.00  0.00     0.163 C 
HETATM   27  O7  UNL     1       3.571  48.379 -10.420  1.00  0.00    -0.292 OA
HETATM   28  C29 UNL     1       4.091  50.717 -10.751  1.00  0.00     0.084 C 
HETATM   29  C30 UNL     1       4.599  50.835  -9.311  1.00  0.00     0.016 C 
HETATM   30  C31 UNL     1      -1.077  51.031 -12.961  1.00  0.00     0.210 C 
HETATM   31  O8  UNL     1      -1.919  50.914 -13.848  1.00  0.00    -0.285 OA
HETATM   32  H24 UNL     1      -2.915  52.597 -12.927  1.00  0.00     0.169 HD
ENDROOT
BRANCH   4  33
HETATM   33  C7  UNL     1       3.105  55.278  -7.722  1.00  0.00     0.174 C 
BRANCH  33  34
HETATM   34  O1  UNL     1       4.114  56.246  -8.029  1.00  0.00    -0.389 OA
HETATM   35  H11 UNL     1       4.409  56.106  -8.953  1.00  0.00     0.210 HD
ENDBRANCH  33  34
BRANCH  33  36
HETATM   36  C8  UNL     1       1.793  56.011  -7.814  1.00  0.00     0.009 C 
HETATM   37  C9  UNL     1       1.256  56.894  -6.947  1.00  0.00    -0.089 C 
HETATM   38  C10 UNL     1      -0.099  57.498  -7.215  1.00  0.00     0.042 C 
HETATM   39  C11 UNL     1       1.905  57.379  -5.679  1.00  0.00     0.042 C 
ENDBRANCH  33  36
ENDBRANCH   4  33
BRANCH   1  40
HETATM   40  C2  UNL     1       7.059  51.570  -9.108  1.00  0.00     0.004 C 
HETATM   41  C1  UNL     1       7.345  50.307  -9.907  1.00  0.00     0.006 C 
ENDBRANCH   1  40
BRANCH  24  42
HETATM   42  O6  UNL     1       3.329  47.558 -12.945  1.00  0.00    -0.359 OA
HETATM   43  H29 UNL     1       3.667  47.470 -12.023  1.00  0.00     0.217 HD
ENDBRANCH  24  42
TORSDOF 5
ENDMDL
MODEL 6
REMARK minimizedAffinity -7.51600313
REMARK CNNscore 0.440846592
REMARK CNNaffinity 6.18224335
REMARK  5 active torsions:
REMARK  status: ('A' for Active; 'I' for Inactive)
REMARK    1  A    between atoms: C2_2  and  C3_3 
REMARK    2  A    between atoms: C6_6  and  C7_7 
REMARK    3  A    between atoms: C7_7  and  O1_8 
REMARK    4  A    between atoms: C7_7  and  C8_9 
REMARK    5  A    between atoms: C26_32  and  O6_33 
ROOT
HETATM    1  C3  UNL     1     -10.066  39.648 -30.457  1.00  0.00     0.008 C 
HETATM    2  C4  UNL     1     -10.065  40.339 -31.802  1.00  0.00    -0.023 C 
HETATM    3  C5  UNL     1      -9.246  41.327 -32.199  1.00  0.00     0.005 C 
HETATM    4  C6  UNL     1      -8.163  42.019 -31.402  1.00  0.00     0.187 C 
HETATM    5  O2  UNL     1      -8.591  43.400 -31.369  1.00  0.00    -0.308 OA
HETATM    6  C12 UNL     1      -8.048  44.191 -30.399  1.00  0.00     0.276 C 
HETATM    7  O3  UNL     1      -7.215  43.794 -29.589  1.00  0.00    -0.264 OA
HETATM    8  C13 UNL     1      -8.633  45.646 -30.481  1.00  0.00     0.095 C 
HETATM    9  C14 UNL     1      -8.728  45.971 -32.003  1.00  0.00     0.036 C 
HETATM   10  C15 UNL     1      -7.610  46.584 -29.861  1.00  0.00     0.003 C 
HETATM   11  C16 UNL     1      -7.728  47.912 -29.722  1.00  0.00     0.072 C 
HETATM   12  C17 UNL     1      -8.877  48.740 -30.139  1.00  0.00     0.245 C 
HETATM   13  O4  UNL     1      -8.685  49.922 -30.411  1.00  0.00    -0.268 OA
HETATM   14  N1  UNL     1     -10.140  48.233 -30.135  1.00  0.00    -0.320 N 
HETATM   15  C18 UNL     1     -10.655  47.004 -29.779  1.00  0.00     0.098 C 
HETATM   16  C19 UNL     1     -10.006  45.825 -29.816  1.00  0.00     0.045 C 
HETATM   17  C20 UNL     1     -10.673  44.645 -29.179  1.00  0.00     0.194 C 
HETATM   18  O5  UNL     1     -10.021  43.674 -28.825  1.00  0.00    -0.287 OA
HETATM   19  C21 UNL     1     -12.126  44.657 -28.902  1.00  0.00     0.046 A 
HETATM   20  C22 UNL     1     -12.801  45.872 -28.978  1.00  0.00     0.032 A 
HETATM   21  C23 UNL     1     -14.164  45.968 -28.651  1.00  0.00     0.026 A 
HETATM   22  C24 UNL     1     -14.872  44.849 -28.208  1.00  0.00    -0.027 A 
HETATM   23  C25 UNL     1     -16.315  44.974 -27.810  1.00  0.00     0.051 C 
HETATM   24  C26 UNL     1     -14.188  43.638 -28.088  1.00  0.00     0.086 A 
HETATM   25  C27 UNL     1     -12.836  43.519 -28.473  1.00  0.00     0.059 A 
HETATM   26  C28 UNL     1     -12.267  42.152 -28.381  1.00  0.00     0.163 C 
HETATM   27  O7  UNL     1     -12.441  41.546 -27.322  1.00  0.00    -0.292 OA
HETATM   28  C29 UNL     1     -11.741  41.481 -29.635  1.00  0.00     0.084 C 
HETATM   29  C30 UNL     1     -10.609  40.507 -29.293  1.00  0.00     0.016 C 
HETATM   30  C31 UNL     1     -12.092  47.094 -29.372  1.00  0.00     0.210 C 
HETATM   31  O8  UNL     1     -12.671  48.176 -29.398  1.00  0.00    -0.285 OA
HETATM   32  H24 UNL     1     -10.835  48.978 -30.210  1.00  0.00     0.169 HD
ENDROOT
BRANCH   4  33
HETATM   33  C7  UNL     1      -6.766  41.877 -32.094  1.00  0.00     0.174 C 
BRANCH  33  34
HETATM   34  O1  UNL     1      -6.839  41.264 -33.385  1.00  0.00    -0.389 OA
HETATM   35  H11 UNL     1      -7.754  41.359 -33.723  1.00  0.00     0.210 HD
ENDBRANCH  33  34
BRANCH  33  36
HETATM   36  C8  UNL     1      -6.105  43.213 -32.312  1.00  0.00     0.009 C 
HETATM   37  C9  UNL     1      -4.816  43.479 -32.606  1.00  0.00    -0.089 C 
HETATM   38  C10 UNL     1      -4.346  44.903 -32.756  1.00  0.00     0.042 C 
HETATM   39  C11 UNL     1      -3.739  42.450 -32.827  1.00  0.00     0.042 C 
ENDBRANCH  33  36
ENDBRANCH   4  33
BRANCH   1  40
HETATM   40  C2  UNL     1     -10.733  38.254 -30.533  1.00  0.00     0.004 C 
HETATM   41  C1  UNL     1      -9.952  37.104 -29.912  1.00  0.00     0.006 C 
ENDBRANCH   1  40
BRANCH  24  42
HETATM   42  O6  UNL     1     -14.888  42.576 -27.570  1.00  0.00    -0.359 OA
HETATM   43  H29 UNL     1     -14.246  41.920 -27.211  1.00  0.00     0.217 HD
ENDBRANCH  24  42
TORSDOF 5
ENDMDL
MODEL 7
REMARK minimizedAffinity -7.73325729
REMARK CNNscore 0.412141234
REMARK CNNaffinity 6.0615325
REMARK  5 active torsions:
REMARK  status: ('A' for Active; 'I' for Inactive)
REMARK    1  A    between atoms: C2_2  and  C3_3 
REMARK    2  A    between atoms: C6_6  and  C7_7 
REMARK    3  A    between atoms: C7_7  and  O1_8 
REMARK    4  A    between atoms: C7_7  and  C8_9 
REMARK    5  A    between atoms: C26_32  and  O6_33 
ROOT
HETATM    1  C3  UNL     1      -4.818  49.111 -24.163  1.00  0.00     0.008 C 
HETATM    2  C4  UNL     1      -5.375  50.325 -23.456  1.00  0.00    -0.023 C 
HETATM    3  C5  UNL     1      -5.488  50.504 -22.129  1.00  0.00     0.005 C 
HETATM    4  C6  UNL     1      -5.132  49.535 -21.024  1.00  0.00     0.187 C 
HETATM    5  O2  UNL     1      -6.390  49.312 -20.346  1.00  0.00    -0.308 OA
HETATM    6  C12 UNL     1      -6.483  48.193 -19.570  1.00  0.00     0.276 C 
HETATM    7  O3  UNL     1      -5.558  47.402 -19.408  1.00  0.00    -0.264 OA
HETATM    8  C13 UNL     1      -7.912  48.083 -18.929  1.00  0.00     0.095 C 
HETATM    9  C14 UNL     1      -8.298  49.536 -18.517  1.00  0.00     0.036 C 
HETATM   10  C15 UNL     1      -7.780  47.253 -17.662  1.00  0.00     0.003 C 
HETATM   11  C16 UNL     1      -8.771  46.913 -16.826  1.00  0.00     0.072 C 
HETATM   12  C17 UNL     1     -10.197  47.270 -16.962  1.00  0.00     0.245 C 
HETATM   13  O4  UNL     1     -10.889  47.337 -15.950  1.00  0.00    -0.268 OA
HETATM   14  N1  UNL     1     -10.761  47.433 -18.191  1.00  0.00    -0.320 N 
HETATM   15  C18 UNL     1     -10.266  47.313 -19.472  1.00  0.00     0.098 C 
HETATM   16  C19 UNL     1      -8.987  47.492 -19.854  1.00  0.00     0.045 C 
HETATM   17  C20 UNL     1      -8.618  47.098 -21.251  1.00  0.00     0.194 C 
HETATM   18  O5  UNL     1      -7.457  46.860 -21.547  1.00  0.00    -0.287 OA
HETATM   19  C21 UNL     1      -9.659  46.923 -22.287  1.00  0.00     0.046 A 
HETATM   20  C22 UNL     1     -10.988  46.850 -21.879  1.00  0.00     0.032 A 
HETATM   21  C23 UNL     1     -12.019  46.606 -22.801  1.00  0.00     0.026 A 
HETATM   22  C24 UNL     1     -11.733  46.395 -24.152  1.00  0.00    -0.027 A 
HETATM   23  C25 UNL     1     -12.838  46.082 -25.120  1.00  0.00     0.051 C 
HETATM   24  C26 UNL     1     -10.398  46.423 -24.557  1.00  0.00     0.086 A 
HETATM   25  C27 UNL     1      -9.363  46.729 -23.650  1.00  0.00     0.059 A 
HETATM   26  C28 UNL     1      -8.005  46.817 -24.241  1.00  0.00     0.163 C 
HETATM   27  O7  UNL     1      -7.649  45.883 -24.961  1.00  0.00    -0.292 OA
HETATM   28  C29 UNL     1      -7.240  48.124 -24.151  1.00  0.00     0.084 C 
HETATM   29  C30 UNL     1      -5.730  47.865 -24.117  1.00  0.00     0.016 C 
HETATM   30  C31 UNL     1     -11.341  46.996 -20.463  1.00  0.00     0.210 C 
HETATM   31  O8  UNL     1     -12.506  46.889 -20.090  1.00  0.00    -0.285 OA
HETATM   32  H24 UNL     1     -11.781  47.436 -18.129  1.00  0.00     0.169 HD
ENDROOT
BRANCH   4  33
HETATM   33  C7  UNL     1      -4.067  50.144 -20.051  1.00  0.00     0.174 C 
BRANCH  33  34
HETATM   34  O1  UNL     1      -3.330  49.149 -19.333  1.00  0.00    -0.389 OA
HETATM   35  H11 UNL     1      -3.393  48.302 -19.821  1.00  0.00     0.210 HD
ENDBRANCH  33  34
BRANCH  33  36
HETATM   36  C8  UNL     1      -3.039  50.967 -20.782  1.00  0.00     0.009 C 
HETATM   37  C9  UNL     1      -2.054  50.552 -21.603  1.00  0.00    -0.089 C 
HETATM   38  C10 UNL     1      -1.101  51.547 -22.216  1.00  0.00     0.042 C 
HETATM   39  C11 UNL     1      -1.796  49.125 -22.009  1.00  0.00     0.042 C 
ENDBRANCH  33  36
ENDBRANCH   4  33
BRANCH   1  40
HETATM   40  C2  UNL     1      -4.344  49.453 -25.596  1.00  0.00     0.004 C 
HETATM   41  C1  UNL     1      -3.456  48.419 -26.272  1.00  0.00     0.006 C 
ENDBRANCH   1  40
BRANCH  24  42
HETATM   42  O6  UNL     1     -10.142  46.130 -25.874  1.00  0.00    -0.359 OA
HETATM   43  H29 UNL     1      -9.205  45.838 -25.955  1.00  0.00     0.217 HD
ENDBRANCH  24  42
TORSDOF 5
ENDMDL
MODEL 8
REMARK minimizedAffinity -10.6863432
REMARK CNNscore 0.398007959
REMARK CNNaffinity 7.21433067
REMARK  5 active torsions:
REMARK  status: ('A' for Active; 'I' for Inactive)
REMARK    1  A    between atoms: C2_2  and  C3_3 
REMARK    2  A    between atoms: C6_6  and  C7_7 
REMARK    3  A    between atoms: C7_7  and  O1_8 
REMARK    4  A    between atoms: C7_7  and  C8_9 
REMARK    5  A    between atoms: C26_32  and  O6_33 
ROOT
HETATM    1  C3  UNL     1      -1.448  50.759 -18.584  1.00  0.00     0.008 C 
HETATM    2  C4  UNL     1      -2.866  51.112 -18.971  1.00  0.00    -0.023 C 
HETATM    3  C5  UNL     1      -3.658  50.441 -19.825  1.00  0.00     0.005 C 
HETATM    4  C6  UNL     1      -3.325  49.209 -20.635  1.00  0.00     0.187 C 
HETATM    5  O2  UNL     1      -3.485  49.646 -22.004  1.00  0.00    -0.308 OA
HETATM    6  C12 UNL     1      -2.874  48.895 -22.967  1.00  0.00     0.276 C 
HETATM    7  O3  UNL     1      -2.233  47.876 -22.725  1.00  0.00    -0.264 OA
HETATM    8  C13 UNL     1      -3.119  49.514 -24.388  1.00  0.00     0.095 C 
HETATM    9  C14 UNL     1      -4.601  49.995 -24.384  1.00  0.00     0.036 C 
HETATM   10  C15 UNL     1      -2.990  48.389 -25.403  1.00  0.00     0.003 C 
HETATM   11  C16 UNL     1      -3.115  48.499 -26.733  1.00  0.00     0.072 C 
HETATM   12  C17 UNL     1      -3.399  49.734 -27.491  1.00  0.00     0.245 C 
HETATM   13  O4  UNL     1      -3.958  49.644 -28.580  1.00  0.00    -0.268 OA
HETATM   14  N1  UNL     1      -2.971  50.944 -27.037  1.00  0.00    -0.320 N 
HETATM   15  C18 UNL     1      -2.241  51.326 -25.930  1.00  0.00     0.098 C 
HETATM   16  C19 UNL     1      -2.185  50.679 -24.750  1.00  0.00     0.045 C 
HETATM   17  C20 UNL     1      -1.163  51.138 -23.756  1.00  0.00     0.194 C 
HETATM   18  O5  UNL     1      -0.784  50.397 -22.862  1.00  0.00    -0.287 OA
HETATM   19  C21 UNL     1      -0.541  52.475 -23.874  1.00  0.00     0.046 A 
HETATM   20  C22 UNL     1      -0.705  53.175 -25.066  1.00  0.00     0.032 A 
HETATM   21  C23 UNL     1      -0.076  54.414 -25.274  1.00  0.00     0.026 A 
HETATM   22  C24 UNL     1       0.760  54.962 -24.299  1.00  0.00    -0.027 A 
HETATM   23  C25 UNL     1       1.470  56.261 -24.553  1.00  0.00     0.051 C 
HETATM   24  C26 UNL     1       0.962  54.242 -23.120  1.00  0.00     0.086 A 
HETATM   25  C27 UNL     1       0.287  53.029 -22.878  1.00  0.00     0.059 A 
HETATM   26  C28 UNL     1       0.525  52.424 -21.544  1.00  0.00     0.163 C 
HETATM   27  O7  UNL     1       1.698  52.313 -21.184  1.00  0.00    -0.292 OA
HETATM   28  C29 UNL     1      -0.647  52.215 -20.604  1.00  0.00     0.084 C 
HETATM   29  C30 UNL     1      -0.398  51.011 -19.689  1.00  0.00     0.016 C 
HETATM   30  C31 UNL     1      -1.517  52.615 -26.151  1.00  0.00     0.210 C 
HETATM   31  O8  UNL     1      -1.630  53.207 -27.222  1.00  0.00    -0.285 OA
HETATM   32  H24 UNL     1      -3.027  51.653 -27.771  1.00  0.00     0.169 HD
ENDROOT
BRANCH   4  33
HETATM   33  C7  UNL     1      -4.298  48.028 -20.303  1.00  0.00     0.174 C 
BRANCH  33  34
HETATM   34  O1  UNL     1      -4.841  48.102 -18.981  1.00  0.00    -0.389 OA
HETATM   35  H11 UNL     1      -4.771  49.028 -18.668  1.00  0.00     0.210 HD
ENDBRANCH  33  34
BRANCH  33  36
HETATM   36  C8  UNL     1      -5.484  47.993 -21.231  1.00  0.00     0.009 C 
HETATM   37  C9  UNL     1      -6.588  48.766 -21.219  1.00  0.00    -0.089 C 
HETATM   38  C10 UNL     1      -7.685  48.546 -22.230  1.00  0.00     0.042 C 
HETATM   39  C11 UNL     1      -6.854  49.897 -20.261  1.00  0.00     0.042 C 
ENDBRANCH  33  36
ENDBRANCH   4  33
BRANCH   1  40
HETATM   40  C2  UNL     1      -1.054  51.392 -17.228  1.00  0.00     0.004 C 
HETATM   41  C1  UNL     1       0.435  51.419 -16.911  1.00  0.00     0.006 C 
ENDBRANCH   1  40
BRANCH  24  42
HETATM   42  O6  UNL     1       1.854  54.766 -22.217  1.00  0.00    -0.359 OA
HETATM   43  H29 UNL     1       2.173  54.040 -21.632  1.00  0.00     0.217 HD
ENDBRANCH  24  42
TORSDOF 5
ENDMDL
MODEL 9
REMARK minimizedAffinity -8.64832783
REMARK CNNscore 0.360456347
REMARK CNNaffinity 6.72181892
REMARK  5 active torsions:
REMARK  status: ('A' for Active; 'I' for Inactive)
REMARK    1  A    between atoms: C2_2  and  C3_3 
REMARK    2  A    between atoms: C6_6  and  C7_7 
REMARK    3  A    between atoms: C7_7  and  O1_8 
REMARK    4  A    between atoms: C7_7  and  C8_9 
REMARK    5  A    between atoms: C26_32  and  O6_33 
ROOT
HETATM    1  C3  UNL     1      -4.824  47.543 -21.067  1.00  0.00     0.008 C 
HETATM    2  C4  UNL     1      -3.643  46.716 -20.614  1.00  0.00    -0.023 C 
HETATM    3  C5  UNL     1      -3.118  46.670 -19.377  1.00  0.00     0.005 C 
HETATM    4  C6  UNL     1      -3.541  47.454 -18.155  1.00  0.00     0.187 C 
HETATM    5  O2  UNL     1      -2.364  48.222 -17.817  1.00  0.00    -0.308 OA
HETATM    6  C12 UNL     1      -2.548  49.314 -17.018  1.00  0.00     0.276 C 
HETATM    7  O3  UNL     1      -3.641  49.647 -16.568  1.00  0.00    -0.264 OA
HETATM    8  C13 UNL     1      -1.185  50.051 -16.767  1.00  0.00     0.095 C 
HETATM    9  C14 UNL     1      -0.130  48.921 -16.569  1.00  0.00     0.036 C 
HETATM   10  C15 UNL     1      -1.313  50.811 -15.457  1.00  0.00     0.003 C 
HETATM   11  C16 UNL     1      -0.374  51.581 -14.888  1.00  0.00     0.072 C 
HETATM   12  C17 UNL     1       0.978  51.854 -15.416  1.00  0.00     0.245 C 
HETATM   13  O4  UNL     1       1.874  52.138 -14.627  1.00  0.00    -0.268 OA
HETATM   14  N1  UNL     1       1.210  51.881 -16.757  1.00  0.00    -0.320 N 
HETATM   15  C18 UNL     1       0.390  51.714 -17.854  1.00  0.00     0.098 C 
HETATM   16  C19 UNL     1      -0.746  50.992 -17.899  1.00  0.00     0.045 C 
HETATM   17  C20 UNL     1      -1.602  51.120 -19.121  1.00  0.00     0.194 C 
HETATM   18  O5  UNL     1      -2.788  50.830 -19.087  1.00  0.00    -0.287 OA
HETATM   19  C21 UNL     1      -1.046  51.666 -20.379  1.00  0.00     0.046 A 
HETATM   20  C22 UNL     1       0.185  52.314 -20.329  1.00  0.00     0.032 A 
HETATM   21  C23 UNL     1       0.732  52.923 -21.470  1.00  0.00     0.026 A 
HETATM   22  C24 UNL     1       0.038  52.923 -22.682  1.00  0.00    -0.027 A 
HETATM   23  C25 UNL     1       0.608  53.624 -23.882  1.00  0.00     0.051 C 
HETATM   24  C26 UNL     1      -1.217  52.313 -22.725  1.00  0.00     0.086 A 
HETATM   25  C27 UNL     1      -1.746  51.645 -21.602  1.00  0.00     0.059 A 
HETATM   26  C28 UNL     1      -3.044  50.961 -21.822  1.00  0.00     0.163 C 
HETATM   27  O7  UNL     1      -3.936  51.618 -22.359  1.00  0.00    -0.292 OA
HETATM   28  C29 UNL     1      -3.134  49.460 -21.622  1.00  0.00     0.084 C 
HETATM   29  C30 UNL     1      -4.544  49.058 -21.178  1.00  0.00     0.016 C 
HETATM   30  C31 UNL     1       0.927  52.404 -19.067  1.00  0.00     0.210 C 
HETATM   31  O8  UNL     1       1.992  53.013 -19.006  1.00  0.00    -0.285 OA
HETATM   32  H24 UNL     1       2.112  52.313 -16.965  1.00  0.00     0.169 HD
ENDROOT
BRANCH   4  33
HETATM   33  C7  UNL     1      -3.952  46.503 -16.981  1.00  0.00     0.174 C 
BRANCH  33  34
HETATM   34  O1  UNL     1      -4.958  47.063 -16.131  1.00  0.00    -0.389 OA
HETATM   35  H11 UNL     1      -5.427  47.767 -16.626  1.00  0.00     0.210 HD
ENDBRANCH  33  34
BRANCH  33  36
HETATM   36  C8  UNL     1      -4.517  45.199 -17.480  1.00  0.00     0.009 C 
HETATM   37  C9  UNL     1      -3.968  43.969 -17.434  1.00  0.00    -0.089 C 
HETATM   38  C10 UNL     1      -4.696  42.787 -18.024  1.00  0.00     0.042 C 
HETATM   39  C11 UNL     1      -2.641  43.625 -16.812  1.00  0.00     0.042 C 
ENDBRANCH  33  36
ENDBRANCH   4  33
BRANCH   1  40
HETATM   40  C2  UNL     1      -5.471  46.958 -22.346  1.00  0.00     0.004 C 
HETATM   41  C1  UNL     1      -6.985  47.078 -22.444  1.00  0.00     0.006 C 
ENDBRANCH   1  40
BRANCH  24  42
HETATM   42  O6  UNL     1      -1.911  52.402 -23.907  1.00  0.00    -0.359 OA
HETATM   43  H29 UNL     1      -2.869  52.266 -23.720  1.00  0.00     0.217 HD
ENDBRANCH  24  42
TORSDOF 5
ENDMDL
