MODEL 1
REMARK minimizedAffinity -8.43022537
REMARK CNNscore 0.625861883
REMARK CNNaffinity 7.4089551
REMARK  10 active torsions:
REMARK  status: ('A' for Active; 'I' for Inactive)
REMARK    1  A    between atoms: C2_2  and  O2_4 
REMARK    2  A    between atoms: O2_4  and  C3_5 
REMARK    3  A    between atoms: C3_5  and  C4_6 
REMARK    4  A    between atoms: C4_6  and  N1_7 
REMARK       I    between atoms: N1_7  and  C6_9 
REMARK    5  A    between atoms: C6_9  and  C7_11 
REMARK    6  A    between atoms: C19_24  and  O5_25 
REMARK    7  A    between atoms: O5_25  and  C20_26 
REMARK    8  A    between atoms: C20_26  and  C21_28 
REMARK    9  A    between atoms: C21_28  and  C22_29 
REMARK   10  A    between atoms: C22_29  and  O7_32 
ROOT
HETATM    1  C7  UNL     1      -0.975  49.048 -17.038  1.00  0.00     0.077 C 
HETATM    2  C8  UNL     1      -1.286  49.164 -18.348  1.00  0.00    -0.070 C 
HETATM    3  C9  UNL     1      -0.388  49.798 -19.379  1.00  0.00     0.035 C 
HETATM    4  C10 UNL     1      -1.065  50.090 -20.724  1.00  0.00     0.010 C 
HETATM    5  C11 UNL     1      -2.493  50.657 -20.568  1.00  0.00     0.006 C 
HETATM    6  C12 UNL     1      -3.370  49.751 -19.654  1.00  0.00     0.068 C 
HETATM    7  C13 UNL     1      -4.622  49.140 -20.260  1.00  0.00     0.132 C 
HETATM    8  O4  UNL     1      -5.471  48.625 -19.522  1.00  0.00    -0.298 OA
HETATM    9  C14 UNL     1      -4.862  49.149 -21.748  1.00  0.00     0.085 C 
HETATM   10  C15 UNL     1      -3.767  49.800 -22.604  1.00  0.00     0.011 C 
HETATM   11  C16 UNL     1      -4.173  49.922 -24.132  1.00  0.00    -0.016 C 
HETATM   12  C17 UNL     1      -5.569  50.543 -24.373  1.00  0.00     0.018 C 
HETATM   13  C18 UNL     1      -4.242  48.496 -24.746  1.00  0.00     0.018 C 
HETATM   14  C19 UNL     1      -3.080  50.712 -24.920  1.00  0.00     0.140 C 
HETATM   15  C25 UNL     1      -2.761  52.052 -24.257  1.00  0.00     0.034 C 
HETATM   16  C26 UNL     1      -2.217  51.817 -22.857  1.00  0.00     0.012 C 
HETATM   17  C27 UNL     1      -3.209  51.087 -21.913  1.00  0.00    -0.035 C 
HETATM   18  C28 UNL     1      -4.318  52.107 -21.531  1.00  0.00     0.016 C 
HETATM   19  C29 UNL     1      -2.619  48.653 -18.856  1.00  0.00     0.022 C 
HETATM   20  C30 UNL     1      -2.433  47.317 -19.601  1.00  0.00     0.015 C 
ENDROOT
BRANCH   1  21
HETATM   21  C6  UNL     1       0.326  49.448 -16.412  1.00  0.00     0.243 C 
HETATM   22  N1  UNL     1       0.733  50.770 -16.567  1.00  0.00    -0.351 N 
HETATM   23  C5  UNL     1       1.955  51.186 -15.889  1.00  0.00     0.153 C 
HETATM   24  O3  UNL     1       0.992  48.623 -15.783  1.00  0.00    -0.268 OA
BRANCH  22  25
HETATM   25  C4  UNL     1       0.015  51.820 -17.308  1.00  0.00     0.152 C 
BRANCH  25  26
HETATM   26  C3  UNL     1       0.929  52.740 -18.127  1.00  0.00     0.198 C 
BRANCH  26  27
HETATM   27  O2  UNL     1       0.225  53.225 -19.283  1.00  0.00    -0.320 OA
BRANCH  27  28
HETATM   28  C2  UNL     1       0.997  53.554 -20.357  1.00  0.00     0.254 C 
HETATM   29  C1  UNL     1       1.061  52.397 -21.309  1.00  0.00     0.126 C 
HETATM   30  O1  UNL     1       1.544  54.631 -20.545  1.00  0.00    -0.266 OA
ENDBRANCH  27  28
ENDBRANCH  26  27
ENDBRANCH  25  26
ENDBRANCH  22  25
ENDBRANCH   1  21
BRANCH  14  31
HETATM   31  O5  UNL     1      -3.522  50.938 -26.276  1.00  0.00    -0.315 OA
BRANCH  31  32
HETATM   32  C20 UNL     1      -2.651  50.592 -27.261  1.00  0.00     0.262 C 
HETATM   33  O6  UNL     1      -2.963  50.231 -28.387  1.00  0.00    -0.265 OA
BRANCH  32  34
HETATM   34  C21 UNL     1      -1.232  50.698 -26.772  1.00  0.00     0.148 C 
BRANCH  34  35
HETATM   35  C22 UNL     1      -0.507  51.955 -27.258  1.00  0.00     0.059 C 
HETATM   36  C23 UNL     1       0.527  51.647 -28.342  1.00  0.00     0.045 C 
HETATM   37  C24 UNL     1       0.148  52.735 -26.115  1.00  0.00     0.045 C 
BRANCH  35  38
HETATM   38  O7  UNL     1      -1.487  52.814 -27.864  1.00  0.00    -0.390 OA
HETATM   39  H36 UNL     1      -2.124  53.093 -27.182  1.00  0.00     0.210 HD
ENDBRANCH  35  38
ENDBRANCH  34  35
ENDBRANCH  32  34
ENDBRANCH  31  32
ENDBRANCH  14  31
TORSDOF 10
ENDMDL
MODEL 2
REMARK minimizedAffinity -8.46650124
REMARK CNNscore 0.51975739
REMARK CNNaffinity 6.75881958
REMARK  10 active torsions:
REMARK  status: ('A' for Active; 'I' for Inactive)
REMARK    1  A    between atoms: C2_2  and  O2_4 
REMARK    2  A    between atoms: O2_4  and  C3_5 
REMARK    3  A    between atoms: C3_5  and  C4_6 
REMARK    4  A    between atoms: C4_6  and  N1_7 
REMARK       I    between atoms: N1_7  and  C6_9 
REMARK    5  A    between atoms: C6_9  and  C7_11 
REMARK    6  A    between atoms: C19_24  and  O5_25 
REMARK    7  A    between atoms: O5_25  and  C20_26 
REMARK    8  A    between atoms: C20_26  and  C21_28 
REMARK    9  A    between atoms: C21_28  and  C22_29 
REMARK   10  A    between atoms: C22_29  and  O7_32 
ROOT
HETATM    1  C7  UNL     1      -5.316  48.096 -26.384  1.00  0.00     0.077 C 
HETATM    2  C8  UNL     1      -4.714  48.683 -25.327  1.00  0.00    -0.070 C 
HETATM    3  C9  UNL     1      -3.420  49.452 -25.408  1.00  0.00     0.035 C 
HETATM    4  C10 UNL     1      -2.777  49.766 -24.051  1.00  0.00     0.010 C 
HETATM    5  C11 UNL     1      -2.849  48.582 -23.063  1.00  0.00     0.006 C 
HETATM    6  C12 UNL     1      -4.306  48.052 -22.912  1.00  0.00     0.068 C 
HETATM    7  C13 UNL     1      -4.937  48.106 -21.532  1.00  0.00     0.132 C 
HETATM    8  O4  UNL     1      -5.981  47.480 -21.311  1.00  0.00    -0.298 OA
HETATM    9  C14 UNL     1      -4.317  48.904 -20.414  1.00  0.00     0.085 C 
HETATM   10  C15 UNL     1      -3.026  49.659 -20.759  1.00  0.00     0.011 C 
HETATM   11  C16 UNL     1      -2.350  50.330 -19.490  1.00  0.00    -0.016 C 
HETATM   12  C17 UNL     1      -2.183  49.380 -18.281  1.00  0.00     0.018 C 
HETATM   13  C18 UNL     1      -3.262  51.484 -18.990  1.00  0.00     0.018 C 
HETATM   14  C19 UNL     1      -0.976  50.961 -19.882  1.00  0.00     0.140 C 
HETATM   15  C25 UNL     1      -0.076  49.959 -20.605  1.00  0.00     0.034 C 
HETATM   16  C26 UNL     1      -0.742  49.507 -21.895  1.00  0.00     0.012 C 
HETATM   17  C27 UNL     1      -2.105  48.797 -21.682  1.00  0.00    -0.035 C 
HETATM   18  C28 UNL     1      -1.806  47.386 -21.103  1.00  0.00     0.016 C 
HETATM   19  C29 UNL     1      -5.335  48.577 -23.949  1.00  0.00     0.022 C 
HETATM   20  C30 UNL     1      -6.028  49.898 -23.569  1.00  0.00     0.015 C 
ENDROOT
BRANCH   1  21
HETATM   21  C6  UNL     1      -4.851  48.174 -27.807  1.00  0.00     0.243 C 
HETATM   22  N1  UNL     1      -5.823  48.128 -28.803  1.00  0.00    -0.351 N 
HETATM   23  C5  UNL     1      -5.384  48.289 -30.184  1.00  0.00     0.153 C 
HETATM   24  O3  UNL     1      -3.650  48.282 -28.063  1.00  0.00    -0.268 OA
BRANCH  22  25
HETATM   25  C4  UNL     1      -7.274  47.988 -28.597  1.00  0.00     0.152 C 
BRANCH  25  26
HETATM   26  C3  UNL     1      -7.662  47.542 -27.182  1.00  0.00     0.198 C 
BRANCH  26  27
HETATM   27  O2  UNL     1      -9.092  47.568 -27.035  1.00  0.00    -0.320 OA
BRANCH  27  28
HETATM   28  C2  UNL     1      -9.565  47.405 -25.768  1.00  0.00     0.254 C 
HETATM   29  C1  UNL     1      -8.503  46.793 -24.905  1.00  0.00     0.126 C 
HETATM   30  O1  UNL     1     -10.675  47.726 -25.370  1.00  0.00    -0.266 OA
ENDBRANCH  27  28
ENDBRANCH  26  27
ENDBRANCH  25  26
ENDBRANCH  22  25
ENDBRANCH   1  21
BRANCH  14  31
HETATM   31  O5  UNL     1      -0.306  51.446 -18.699  1.00  0.00    -0.315 OA
BRANCH  31  32
HETATM   32  C20 UNL     1       0.266  52.676 -18.789  1.00  0.00     0.262 C 
HETATM   33  O6  UNL     1      -0.285  53.685 -19.204  1.00  0.00    -0.265 OA
BRANCH  32  34
HETATM   34  C21 UNL     1       1.694  52.630 -18.317  1.00  0.00     0.148 C 
BRANCH  34  35
HETATM   35  C22 UNL     1       1.837  52.371 -16.816  1.00  0.00     0.059 C 
HETATM   36  C23 UNL     1       3.294  52.429 -16.353  1.00  0.00     0.045 C 
HETATM   37  C24 UNL     1       1.202  51.046 -16.384  1.00  0.00     0.045 C 
BRANCH  35  38
HETATM   38  O7  UNL     1       1.150  53.428 -16.126  1.00  0.00    -0.390 OA
HETATM   39  H36 UNL     1       0.200  53.375 -16.339  1.00  0.00     0.210 HD
ENDBRANCH  35  38
ENDBRANCH  34  35
ENDBRANCH  32  34
ENDBRANCH  31  32
ENDBRANCH  14  31
TORSDOF 10
ENDMDL
MODEL 3
REMARK minimizedAffinity -7.92563105
REMARK CNNscore 0.506496072
REMARK CNNaffinity 6.66595125
REMARK  10 active torsions:
REMARK  status: ('A' for Active; 'I' for Inactive)
REMARK    1  A    between atoms: C2_2  and  O2_4 
REMARK    2  A    between atoms: O2_4  and  C3_5 
REMARK    3  A    between atoms: C3_5  and  C4_6 
REMARK    4  A    between atoms: C4_6  and  N1_7 
REMARK       I    between atoms: N1_7  and  C6_9 
REMARK    5  A    between atoms: C6_9  and  C7_11 
REMARK    6  A    between atoms: C19_24  and  O5_25 
REMARK    7  A    between atoms: O5_25  and  C20_26 
REMARK    8  A    between atoms: C20_26  and  C21_28 
REMARK    9  A    between atoms: C21_28  and  C22_29 
REMARK   10  A    between atoms: C22_29  and  O7_32 
ROOT
HETATM    1  C7  UNL     1      -1.255  50.722 -24.413  1.00  0.00     0.077 C 
HETATM    2  C8  UNL     1      -2.245  49.807 -24.326  1.00  0.00    -0.070 C 
HETATM    3  C9  UNL     1      -2.886  49.136 -25.514  1.00  0.00     0.035 C 
HETATM    4  C10 UNL     1      -4.177  48.372 -25.196  1.00  0.00     0.010 C 
HETATM    5  C11 UNL     1      -5.098  49.128 -24.214  1.00  0.00     0.006 C 
HETATM    6  C12 UNL     1      -4.334  49.548 -22.924  1.00  0.00     0.068 C 
HETATM    7  C13 UNL     1      -4.833  49.000 -21.599  1.00  0.00     0.132 C 
HETATM    8  O4  UNL     1      -4.424  49.490 -20.539  1.00  0.00    -0.298 OA
HETATM    9  C14 UNL     1      -5.825  47.866 -21.539  1.00  0.00     0.085 C 
HETATM   10  C15 UNL     1      -6.287  47.302 -22.890  1.00  0.00     0.011 C 
HETATM   11  C16 UNL     1      -7.452  46.236 -22.744  1.00  0.00    -0.016 C 
HETATM   12  C17 UNL     1      -8.630  46.698 -21.854  1.00  0.00     0.018 C 
HETATM   13  C18 UNL     1      -6.883  44.965 -22.053  1.00  0.00     0.018 C 
HETATM   14  C19 UNL     1      -7.969  45.805 -24.153  1.00  0.00     0.140 C 
HETATM   15  C25 UNL     1      -8.340  47.012 -25.015  1.00  0.00     0.034 C 
HETATM   16  C26 UNL     1      -7.112  47.881 -25.238  1.00  0.00     0.012 C 
HETATM   17  C27 UNL     1      -6.501  48.449 -23.930  1.00  0.00    -0.035 C 
HETATM   18  C28 UNL     1      -7.452  49.568 -23.422  1.00  0.00     0.016 C 
HETATM   19  C29 UNL     1      -2.789  49.409 -22.969  1.00  0.00     0.022 C 
HETATM   20  C30 UNL     1      -2.246  48.028 -22.556  1.00  0.00     0.015 C 
ENDROOT
BRANCH   1  21
HETATM   21  C6  UNL     1      -0.580  51.159 -25.677  1.00  0.00     0.243 C 
HETATM   22  N1  UNL     1      -0.173  52.488 -25.761  1.00  0.00    -0.351 N 
HETATM   23  C5  UNL     1       0.558  52.897 -26.954  1.00  0.00     0.153 C 
HETATM   24  O3  UNL     1      -0.397  50.354 -26.593  1.00  0.00    -0.268 OA
BRANCH  22  25
HETATM   25  C4  UNL     1      -0.359  53.521 -24.730  1.00  0.00     0.152 C 
BRANCH  25  26
HETATM   26  C3  UNL     1       0.876  53.750 -23.849  1.00  0.00     0.198 C 
BRANCH  26  27
HETATM   27  O2  UNL     1       0.648  53.208 -22.536  1.00  0.00    -0.320 OA
BRANCH  27  28
HETATM   28  C2  UNL     1       1.272  53.850 -21.509  1.00  0.00     0.254 C 
HETATM   29  C1  UNL     1       0.926  53.185 -20.211  1.00  0.00     0.126 C 
HETATM   30  O1  UNL     1       2.022  54.809 -21.613  1.00  0.00    -0.266 OA
ENDBRANCH  27  28
ENDBRANCH  26  27
ENDBRANCH  25  26
ENDBRANCH  22  25
ENDBRANCH   1  21
BRANCH  14  31
HETATM   31  O5  UNL     1      -9.117  44.942 -24.010  1.00  0.00    -0.315 OA
BRANCH  31  32
HETATM   32  C20 UNL     1     -10.042  44.995 -25.005  1.00  0.00     0.262 C 
HETATM   33  O6  UNL     1      -9.912  44.509 -26.119  1.00  0.00    -0.265 OA
BRANCH  32  34
HETATM   34  C21 UNL     1     -11.259  45.755 -24.554  1.00  0.00     0.148 C 
BRANCH  34  35
HETATM   35  C22 UNL     1     -12.115  46.286 -25.707  1.00  0.00     0.059 C 
HETATM   36  C23 UNL     1     -13.073  45.226 -26.255  1.00  0.00     0.045 C 
HETATM   37  C24 UNL     1     -11.273  46.870 -26.844  1.00  0.00     0.045 C 
BRANCH  35  38
HETATM   38  O7  UNL     1     -12.936  47.344 -25.186  1.00  0.00    -0.390 OA
HETATM   39  H36 UNL     1     -12.359  48.074 -24.895  1.00  0.00     0.210 HD
ENDBRANCH  35  38
ENDBRANCH  34  35
ENDBRANCH  32  34
ENDBRANCH  31  32
ENDBRANCH  14  31
TORSDOF 10
ENDMDL
MODEL 4
REMARK minimizedAffinity -6.63505363
REMARK CNNscore 0.488745809
REMARK CNNaffinity 5.94117355
REMARK  10 active torsions:
REMARK  status: ('A' for Active; 'I' for Inactive)
REMARK    1  A    between atoms: C2_2  and  O2_4 
REMARK    2  A    between atoms: O2_4  and  C3_5 
REMARK    3  A    between atoms: C3_5  and  C4_6 
REMARK    4  A    between atoms: C4_6  and  N1_7 
REMARK       I    between atoms: N1_7  and  C6_9 
REMARK    5  A    between atoms: C6_9  and  C7_11 
REMARK    6  A    between atoms: C19_24  and  O5_25 
REMARK    7  A    between atoms: O5_25  and  C20_26 
REMARK    8  A    between atoms: C20_26  and  C21_28 
REMARK    9  A    between atoms: C21_28  and  C22_29 
REMARK   10  A    between atoms: C22_29  and  O7_32 
ROOT
HETATM    1  C7  UNL     1      -7.937  45.604 -31.316  1.00  0.00     0.077 C 
HETATM    2  C8  UNL     1      -9.156  45.505 -30.741  1.00  0.00    -0.070 C 
HETATM    3  C9  UNL     1      -9.992  46.685 -30.320  1.00  0.00     0.035 C 
HETATM    4  C10 UNL     1     -11.188  46.334 -29.425  1.00  0.00     0.010 C 
HETATM    5  C11 UNL     1     -10.847  45.275 -28.354  1.00  0.00     0.006 C 
HETATM    6  C12 UNL     1     -10.199  44.010 -28.988  1.00  0.00     0.068 C 
HETATM    7  C13 UNL     1     -10.919  42.684 -28.813  1.00  0.00     0.132 C 
HETATM    8  O4  UNL     1     -10.333  41.628 -29.078  1.00  0.00    -0.298 OA
HETATM    9  C14 UNL     1     -12.341  42.621 -28.316  1.00  0.00     0.085 C 
HETATM   10  C15 UNL     1     -13.010  43.969 -28.011  1.00  0.00     0.011 C 
HETATM   11  C16 UNL     1     -14.435  43.808 -27.333  1.00  0.00    -0.016 C 
HETATM   12  C17 UNL     1     -14.461  42.840 -26.127  1.00  0.00     0.018 C 
HETATM   13  C18 UNL     1     -15.417  43.201 -28.374  1.00  0.00     0.018 C 
HETATM   14  C19 UNL     1     -14.999  45.205 -26.924  1.00  0.00     0.140 C 
HETATM   15  C25 UNL     1     -13.999  45.996 -26.080  1.00  0.00     0.034 C 
HETATM   16  C26 UNL     1     -12.732  46.245 -26.882  1.00  0.00     0.012 C 
HETATM   17  C27 UNL     1     -12.004  44.948 -27.323  1.00  0.00    -0.035 C 
HETATM   18  C28 UNL     1     -11.328  44.345 -26.059  1.00  0.00     0.016 C 
HETATM   19  C29 UNL     1      -9.754  44.139 -30.470  1.00  0.00     0.022 C 
HETATM   20  C30 UNL     1     -10.842  43.814 -31.509  1.00  0.00     0.015 C 
ENDROOT
BRANCH   1  21
HETATM   21  C6  UNL     1      -7.255  46.882 -31.700  1.00  0.00     0.243 C 
HETATM   22  N1  UNL     1      -6.384  47.449 -30.773  1.00  0.00    -0.351 N 
HETATM   23  C5  UNL     1      -5.655  48.646 -31.175  1.00  0.00     0.153 C 
HETATM   24  O3  UNL     1      -7.468  47.393 -32.802  1.00  0.00    -0.268 OA
BRANCH  22  25
HETATM   25  C4  UNL     1      -6.076  46.923 -29.434  1.00  0.00     0.152 C 
BRANCH  25  26
HETATM   26  C3  UNL     1      -5.614  47.991 -28.436  1.00  0.00     0.198 C 
BRANCH  26  27
HETATM   27  O2  UNL     1      -4.188  47.916 -28.264  1.00  0.00    -0.320 OA
BRANCH  27  28
HETATM   28  C2  UNL     1      -3.620  48.924 -27.545  1.00  0.00     0.254 C 
HETATM   29  C1  UNL     1      -3.693  48.607 -26.081  1.00  0.00     0.126 C 
HETATM   30  O1  UNL     1      -3.102  49.931 -28.006  1.00  0.00    -0.266 OA
ENDBRANCH  27  28
ENDBRANCH  26  27
ENDBRANCH  25  26
ENDBRANCH  22  25
ENDBRANCH   1  21
BRANCH  14  31
HETATM   31  O5  UNL     1     -16.229  45.039 -26.187  1.00  0.00    -0.315 OA
BRANCH  31  32
HETATM   32  C20 UNL     1     -16.251  45.543 -24.924  1.00  0.00     0.262 C 
HETATM   33  O6  UNL     1     -15.609  45.110 -23.978  1.00  0.00    -0.265 OA
BRANCH  32  34
HETATM   34  C21 UNL     1     -17.197  46.709 -24.838  1.00  0.00     0.148 C 
BRANCH  34  35
HETATM   35  C22 UNL     1     -18.583  46.339 -24.306  1.00  0.00     0.059 C 
HETATM   36  C23 UNL     1     -18.691  46.519 -22.790  1.00  0.00     0.045 C 
HETATM   37  C24 UNL     1     -19.003  44.920 -24.697  1.00  0.00     0.045 C 
BRANCH  35  38
HETATM   38  O7  UNL     1     -19.529  47.250 -24.891  1.00  0.00    -0.390 OA
HETATM   39  H36 UNL     1     -19.542  47.110 -25.855  1.00  0.00     0.210 HD
ENDBRANCH  35  38
ENDBRANCH  34  35
ENDBRANCH  32  34
ENDBRANCH  31  32
ENDBRANCH  14  31
TORSDOF 10
ENDMDL
MODEL 5
REMARK minimizedAffinity -6.47632694
REMARK CNNscore 0.399851352
REMARK CNNaffinity 6.59425354
REMARK  10 active torsions:
REMARK  status: ('A' for Active; 'I' for Inactive)
REMARK    1  A    between atoms: C2_2  and  O2_4 
REMARK    2  A    between atoms: O2_4  and  C3_5 
REMARK    3  A    between atoms: C3_5  and  C4_6 
REMARK    4  A    between atoms: C4_6  and  N1_7 
REMARK       I    between atoms: N1_7  and  C6_9 
REMARK    5  A    between atoms: C6_9  and  C7_11 
REMARK    6  A    between atoms: C19_24  and  O5_25 
REMARK    7  A    between atoms: O5_25  and  C20_26 
REMARK    8  A    between atoms: C20_26  and  C21_28 
REMARK    9  A    between atoms: C21_28  and  C22_29 
REMARK   10  A    between atoms: C22_29  and  O7_32 
ROOT
HETATM    1  C7  UNL     1       4.353  49.423 -10.935  1.00  0.00     0.077 C 
HETATM    2  C8  UNL     1       3.722  49.574 -12.120  1.00  0.00    -0.070 C 
HETATM    3  C9  UNL     1       4.246  50.410 -13.259  1.00  0.00     0.035 C 
HETATM    4  C10 UNL     1       3.229  50.677 -14.376  1.00  0.00     0.010 C 
HETATM    5  C11 UNL     1       1.816  50.995 -13.841  1.00  0.00     0.006 C 
HETATM    6  C12 UNL     1       1.322  49.902 -12.848  1.00  0.00     0.068 C 
HETATM    7  C13 UNL     1       0.060  49.139 -13.210  1.00  0.00     0.132 C 
HETATM    8  O4  UNL     1      -0.504  48.446 -12.355  1.00  0.00    -0.298 OA
HETATM    9  C14 UNL     1      -0.531  49.207 -14.596  1.00  0.00     0.085 C 
HETATM   10  C15 UNL     1       0.222  50.081 -15.608  1.00  0.00     0.011 C 
HETATM   11  C16 UNL     1      -0.554  50.236 -16.982  1.00  0.00    -0.016 C 
HETATM   12  C17 UNL     1      -2.040  50.638 -16.833  1.00  0.00     0.018 C 
HETATM   13  C18 UNL     1      -0.568  48.861 -17.706  1.00  0.00     0.018 C 
HETATM   14  C19 UNL     1       0.193  51.242 -17.914  1.00  0.00     0.140 C 
HETATM   15  C25 UNL     1       0.471  52.570 -17.208  1.00  0.00     0.034 C 
HETATM   16  C26 UNL     1       1.365  52.333 -16.001  1.00  0.00     0.012 C 
HETATM   17  C27 UNL     1       0.743  51.393 -14.936  1.00  0.00    -0.035 C 
HETATM   18  C28 UNL     1      -0.373  52.193 -14.207  1.00  0.00     0.016 C 
HETATM   19  C29 UNL     1       2.392  48.889 -12.360  1.00  0.00     0.022 C 
HETATM   20  C30 UNL     1       2.578  47.653 -13.260  1.00  0.00     0.015 C 
ENDROOT
BRANCH   1  21
HETATM   21  C6  UNL     1       5.697  49.985 -10.586  1.00  0.00     0.243 C 
HETATM   22  N1  UNL     1       5.728  51.137  -9.804  1.00  0.00    -0.351 N 
HETATM   23  C5  UNL     1       7.032  51.640  -9.391  1.00  0.00     0.153 C 
HETATM   24  O3  UNL     1       6.725  49.430 -10.981  1.00  0.00    -0.268 OA
BRANCH  22  25
HETATM   25  C4  UNL     1       4.560  51.875  -9.297  1.00  0.00     0.152 C 
BRANCH  25  26
HETATM   26  C3  UNL     1       4.575  53.372  -9.632  1.00  0.00     0.198 C 
BRANCH  26  27
HETATM   27  O2  UNL     1       3.453  53.697 -10.470  1.00  0.00    -0.320 OA
BRANCH  27  28
HETATM   28  C2  UNL     1       3.045  54.997 -10.444  1.00  0.00     0.254 C 
HETATM   29  C1  UNL     1       4.037  55.855 -11.170  1.00  0.00     0.126 C 
HETATM   30  O1  UNL     1       2.019  55.416  -9.930  1.00  0.00    -0.266 OA
ENDBRANCH  27  28
ENDBRANCH  26  27
ENDBRANCH  25  26
ENDBRANCH  22  25
ENDBRANCH   1  21
BRANCH  14  31
HETATM   31  O5  UNL     1      -0.590  51.482 -19.102  1.00  0.00    -0.315 OA
BRANCH  31  32
HETATM   32  C20 UNL     1       0.098  51.834 -20.220  1.00  0.00     0.262 C 
HETATM   33  O6  UNL     1       0.667  52.902 -20.395  1.00  0.00    -0.265 OA
BRANCH  32  34
HETATM   34  C21 UNL     1       0.053  50.727 -21.238  1.00  0.00     0.148 C 
BRANCH  34  35
HETATM   35  C22 UNL     1      -1.250  50.679 -22.038  1.00  0.00     0.059 C 
HETATM   36  C23 UNL     1      -1.949  49.322 -21.930  1.00  0.00     0.045 C 
HETATM   37  C24 UNL     1      -1.051  51.050 -23.510  1.00  0.00     0.045 C 
BRANCH  35  38
HETATM   38  O7  UNL     1      -2.147  51.644 -21.464  1.00  0.00    -0.390 OA
HETATM   39  H36 UNL     1      -1.767  52.534 -21.582  1.00  0.00     0.210 HD
ENDBRANCH  35  38
ENDBRANCH  34  35
ENDBRANCH  32  34
ENDBRANCH  31  32
ENDBRANCH  14  31
TORSDOF 10
ENDMDL
MODEL 6
REMARK minimizedAffinity -7.80403423
REMARK CNNscore 0.376795471
REMARK CNNaffinity 6.58344126
REMARK  10 active torsions:
REMARK  status: ('A' for Active; 'I' for Inactive)
REMARK    1  A    between atoms: C2_2  and  O2_4 
REMARK    2  A    between atoms: O2_4  and  C3_5 
REMARK    3  A    between atoms: C3_5  and  C4_6 
REMARK    4  A    between atoms: C4_6  and  N1_7 
REMARK       I    between atoms: N1_7  and  C6_9 
REMARK    5  A    between atoms: C6_9  and  C7_11 
REMARK    6  A    between atoms: C19_24  and  O5_25 
REMARK    7  A    between atoms: O5_25  and  C20_26 
REMARK    8  A    between atoms: C20_26  and  C21_28 
REMARK    9  A    between atoms: C21_28  and  C22_29 
REMARK   10  A    between atoms: C22_29  and  O7_32 
ROOT
HETATM    1  C7  UNL     1      -1.560  50.960 -24.700  1.00  0.00     0.077 C 
HETATM    2  C8  UNL     1      -2.468  49.971 -24.542  1.00  0.00    -0.070 C 
HETATM    3  C9  UNL     1      -3.054  49.170 -25.675  1.00  0.00     0.035 C 
HETATM    4  C10 UNL     1      -4.274  48.321 -25.294  1.00  0.00     0.010 C 
HETATM    5  C11 UNL     1      -5.251  49.061 -24.355  1.00  0.00     0.006 C 
HETATM    6  C12 UNL     1      -4.520  49.630 -23.104  1.00  0.00     0.068 C 
HETATM    7  C13 UNL     1      -4.963  49.132 -21.739  1.00  0.00     0.132 C 
HETATM    8  O4  UNL     1      -4.592  49.726 -20.719  1.00  0.00    -0.298 OA
HETATM    9  C14 UNL     1      -5.853  47.924 -21.594  1.00  0.00     0.085 C 
HETATM   10  C15 UNL     1      -6.271  47.233 -22.899  1.00  0.00     0.011 C 
HETATM   11  C16 UNL     1      -7.340  46.084 -22.669  1.00  0.00    -0.016 C 
HETATM   12  C17 UNL     1      -8.549  46.502 -21.799  1.00  0.00     0.018 C 
HETATM   13  C18 UNL     1      -6.661  44.915 -21.902  1.00  0.00     0.018 C 
HETATM   14  C19 UNL     1      -7.825  45.516 -24.041  1.00  0.00     0.140 C 
HETATM   15  C25 UNL     1      -8.303  46.627 -24.977  1.00  0.00     0.034 C 
HETATM   16  C26 UNL     1      -7.156  47.580 -25.271  1.00  0.00     0.012 C 
HETATM   17  C27 UNL     1      -6.589  48.285 -24.011  1.00  0.00    -0.035 C 
HETATM   18  C28 UNL     1      -7.630  49.350 -23.568  1.00  0.00     0.016 C 
HETATM   19  C29 UNL     1      -2.969  49.621 -23.155  1.00  0.00     0.022 C 
HETATM   20  C30 UNL     1      -2.307  48.322 -22.658  1.00  0.00     0.015 C 
ENDROOT
BRANCH   1  21
HETATM   21  C6  UNL     1      -0.931  51.367 -25.998  1.00  0.00     0.243 C 
HETATM   22  N1  UNL     1      -0.259  52.586 -26.031  1.00  0.00    -0.351 N 
HETATM   23  C5  UNL     1       0.425  52.947 -27.267  1.00  0.00     0.153 C 
HETATM   24  O3  UNL     1      -1.014  50.633 -26.985  1.00  0.00    -0.268 OA
BRANCH  22  25
HETATM   25  C4  UNL     1      -0.118  53.532 -24.913  1.00  0.00     0.152 C 
BRANCH  25  26
HETATM   26  C3  UNL     1       0.959  53.138 -23.895  1.00  0.00     0.198 C 
BRANCH  26  27
HETATM   27  O2  UNL     1       1.114  54.181 -22.918  1.00  0.00    -0.320 OA
BRANCH  27  28
HETATM   28  C2  UNL     1       1.271  53.772 -21.628  1.00  0.00     0.254 C 
HETATM   29  C1  UNL     1       0.888  52.327 -21.504  1.00  0.00     0.126 C 
HETATM   30  O1  UNL     1       1.682  54.456 -20.702  1.00  0.00    -0.266 OA
ENDBRANCH  27  28
ENDBRANCH  26  27
ENDBRANCH  25  26
ENDBRANCH  22  25
ENDBRANCH   1  21
BRANCH  14  31
HETATM   31  O5  UNL     1      -8.895  44.570 -23.829  1.00  0.00    -0.315 OA
BRANCH  31  32
HETATM   32  C20 UNL     1      -9.132  43.689 -24.835  1.00  0.00     0.262 C 
HETATM   33  O6  UNL     1     -10.099  43.711 -25.583  1.00  0.00    -0.265 OA
BRANCH  32  34
HETATM   34  C21 UNL     1      -8.041  42.655 -24.900  1.00  0.00     0.148 C 
BRANCH  34  35
HETATM   35  C22 UNL     1      -8.291  41.440 -24.004  1.00  0.00     0.059 C 
HETATM   36  C23 UNL     1      -9.780  41.212 -23.735  1.00  0.00     0.045 C 
HETATM   37  C24 UNL     1      -7.525  41.517 -22.681  1.00  0.00     0.045 C 
BRANCH  35  38
HETATM   38  O7  UNL     1      -7.824  40.278 -24.709  1.00  0.00    -0.390 OA
HETATM   39  H36 UNL     1      -6.860  40.353 -24.833  1.00  0.00     0.210 HD
ENDBRANCH  35  38
ENDBRANCH  34  35
ENDBRANCH  32  34
ENDBRANCH  31  32
ENDBRANCH  14  31
TORSDOF 10
ENDMDL
MODEL 7
REMARK minimizedAffinity -6.92618227
REMARK CNNscore 0.376025677
REMARK CNNaffinity 7.30519485
REMARK  10 active torsions:
REMARK  status: ('A' for Active; 'I' for Inactive)
REMARK    1  A    between atoms: C2_2  and  O2_4 
REMARK    2  A    between atoms: O2_4  and  C3_5 
REMARK    3  A    between atoms: C3_5  and  C4_6 
REMARK    4  A    between atoms: C4_6  and  N1_7 
REMARK       I    between atoms: N1_7  and  C6_9 
REMARK    5  A    between atoms: C6_9  and  C7_11 
REMARK    6  A    between atoms: C19_24  and  O5_25 
REMARK    7  A    between atoms: O5_25  and  C20_26 
REMARK    8  A    between atoms: C20_26  and  C21_28 
REMARK    9  A    between atoms: C21_28  and  C22_29 
REMARK   10  A    between atoms: C22_29  and  O7_32 
ROOT
HETATM    1  C7  UNL     1      -1.111  51.167 -22.468  1.00  0.00     0.077 C 
HETATM    2  C8  UNL     1      -1.275  51.219 -21.127  1.00  0.00    -0.070 C 
HETATM    3  C9  UNL     1      -0.743  52.324 -20.251  1.00  0.00     0.035 C 
HETATM    4  C10 UNL     1      -0.785  52.022 -18.747  1.00  0.00     0.010 C 
HETATM    5  C11 UNL     1      -0.368  50.574 -18.412  1.00  0.00     0.006 C 
HETATM    6  C12 UNL     1      -1.185  49.539 -19.240  1.00  0.00     0.068 C 
HETATM    7  C13 UNL     1      -2.038  48.540 -18.476  1.00  0.00     0.132 C 
HETATM    8  O4  UNL     1      -2.503  47.556 -19.064  1.00  0.00    -0.298 OA
HETATM    9  C14 UNL     1      -2.332  48.717 -17.008  1.00  0.00     0.085 C 
HETATM   10  C15 UNL     1      -1.727  49.961 -16.344  1.00  0.00     0.011 C 
HETATM   11  C16 UNL     1      -1.937  49.981 -14.772  1.00  0.00    -0.016 C 
HETATM   12  C17 UNL     1      -1.537  48.668 -14.059  1.00  0.00     0.018 C 
HETATM   13  C18 UNL     1      -3.450  50.172 -14.473  1.00  0.00     0.018 C 
HETATM   14  C19 UNL     1      -1.184  51.195 -14.142  1.00  0.00     0.140 C 
HETATM   15  C25 UNL     1       0.283  51.237 -14.570  1.00  0.00     0.034 C 
HETATM   16  C26 UNL     1       0.374  51.392 -16.080  1.00  0.00     0.012 C 
HETATM   17  C27 UNL     1      -0.279  50.227 -16.869  1.00  0.00    -0.035 C 
HETATM   18  C28 UNL     1       0.658  48.995 -16.735  1.00  0.00     0.016 C 
HETATM   19  C29 UNL     1      -2.023  50.111 -20.414  1.00  0.00     0.022 C 
HETATM   20  C30 UNL     1      -3.442  50.576 -20.038  1.00  0.00     0.015 C 
ENDROOT
BRANCH   1  21
HETATM   21  C6  UNL     1      -0.454  52.220 -23.307  1.00  0.00     0.243 C 
HETATM   22  N1  UNL     1      -0.598  52.122 -24.689  1.00  0.00    -0.351 N 
HETATM   23  C5  UNL     1      -0.032  53.189 -25.505  1.00  0.00     0.153 C 
HETATM   24  O3  UNL     1       0.180  53.133 -22.774  1.00  0.00    -0.268 OA
BRANCH  22  25
HETATM   25  C4  UNL     1      -1.322  51.066 -25.415  1.00  0.00     0.152 C 
BRANCH  25  26
HETATM   26  C3  UNL     1      -2.419  51.592 -26.349  1.00  0.00     0.198 C 
BRANCH  26  27
HETATM   27  O2  UNL     1      -3.473  50.621 -26.461  1.00  0.00    -0.320 OA
BRANCH  27  28
HETATM   28  C2  UNL     1      -3.467  49.863 -27.594  1.00  0.00     0.254 C 
HETATM   29  C1  UNL     1      -3.060  48.459 -27.263  1.00  0.00     0.126 C 
HETATM   30  O1  UNL     1      -3.768  50.246 -28.715  1.00  0.00    -0.266 OA
ENDBRANCH  27  28
ENDBRANCH  26  27
ENDBRANCH  25  26
ENDBRANCH  22  25
ENDBRANCH   1  21
BRANCH  14  31
HETATM   31  O5  UNL     1      -1.266  51.128 -12.702  1.00  0.00    -0.315 OA
BRANCH  31  32
HETATM   32  C20 UNL     1      -2.513  51.158 -12.164  1.00  0.00     0.262 C 
HETATM   33  O6  UNL     1      -3.148  50.182 -11.791  1.00  0.00    -0.265 OA
BRANCH  32  34
HETATM   34  C21 UNL     1      -3.027  52.571 -12.102  1.00  0.00     0.148 C 
BRANCH  34  35
HETATM   35  C22 UNL     1      -2.607  53.323 -10.837  1.00  0.00     0.059 C 
HETATM   36  C23 UNL     1      -2.289  52.377  -9.677  1.00  0.00     0.045 C 
HETATM   37  C24 UNL     1      -3.643  54.361 -10.399  1.00  0.00     0.045 C 
BRANCH  35  38
HETATM   38  O7  UNL     1      -1.387  54.024 -11.134  1.00  0.00    -0.390 OA
HETATM   39  H36 UNL     1      -1.569  54.692 -11.821  1.00  0.00     0.210 HD
ENDBRANCH  35  38
ENDBRANCH  34  35
ENDBRANCH  32  34
ENDBRANCH  31  32
ENDBRANCH  14  31
TORSDOF 10
ENDMDL
MODEL 8
REMARK minimizedAffinity -8.26068115
REMARK CNNscore 0.37018308
REMARK CNNaffinity 6.99992228
REMARK  10 active torsions:
REMARK  status: ('A' for Active; 'I' for Inactive)
REMARK    1  A    between atoms: C2_2  and  O2_4 
REMARK    2  A    between atoms: O2_4  and  C3_5 
REMARK    3  A    between atoms: C3_5  and  C4_6 
REMARK    4  A    between atoms: C4_6  and  N1_7 
REMARK       I    between atoms: N1_7  and  C6_9 
REMARK    5  A    between atoms: C6_9  and  C7_11 
REMARK    6  A    between atoms: C19_24  and  O5_25 
REMARK    7  A    between atoms: O5_25  and  C20_26 
REMARK    8  A    between atoms: C20_26  and  C21_28 
REMARK    9  A    between atoms: C21_28  and  C22_29 
REMARK   10  A    between atoms: C22_29  and  O7_32 
ROOT
HETATM    1  C7  UNL     1       0.074  51.853 -21.213  1.00  0.00     0.077 C 
HETATM    2  C8  UNL     1      -0.243  51.713 -19.906  1.00  0.00    -0.070 C 
HETATM    3  C9  UNL     1       0.266  52.613 -18.810  1.00  0.00     0.035 C 
HETATM    4  C10 UNL     1       0.023  52.089 -17.389  1.00  0.00     0.010 C 
HETATM    5  C11 UNL     1       0.283  50.573 -17.254  1.00  0.00     0.006 C 
HETATM    6  C12 UNL     1      -0.508  49.761 -18.321  1.00  0.00     0.068 C 
HETATM    7  C13 UNL     1      -1.521  48.743 -17.825  1.00  0.00     0.132 C 
HETATM    8  O4  UNL     1      -1.988  47.910 -18.612  1.00  0.00    -0.298 OA
HETATM    9  C14 UNL     1      -1.972  48.718 -16.387  1.00  0.00     0.085 C 
HETATM   10  C15 UNL     1      -1.355  49.781 -15.468  1.00  0.00     0.011 C 
HETATM   11  C16 UNL     1      -1.748  49.578 -13.945  1.00  0.00    -0.016 C 
HETATM   12  C17 UNL     1      -1.538  48.139 -13.419  1.00  0.00     0.018 C 
HETATM   13  C18 UNL     1      -3.266  49.865 -13.778  1.00  0.00     0.018 C 
HETATM   14  C19 UNL     1      -0.982  50.603 -13.049  1.00  0.00     0.140 C 
HETATM   15  C25 UNL     1       0.524  50.570 -13.309  1.00  0.00     0.034 C 
HETATM   16  C26 UNL     1       0.805  50.946 -14.755  1.00  0.00     0.012 C 
HETATM   17  C27 UNL     1       0.162  49.985 -15.788  1.00  0.00    -0.035 C 
HETATM   18  C28 UNL     1       0.977  48.663 -15.761  1.00  0.00     0.016 C 
HETATM   19  C29 UNL     1      -1.154  50.585 -19.467  1.00  0.00     0.022 C 
HETATM   20  C30 UNL     1      -2.567  51.120 -19.169  1.00  0.00     0.015 C 
ENDROOT
BRANCH   1  21
HETATM   21  C6  UNL     1       0.905  52.955 -21.795  1.00  0.00     0.243 C 
HETATM   22  N1  UNL     1       0.622  53.354 -23.098  1.00  0.00    -0.351 N 
HETATM   23  C5  UNL     1       1.371  54.481 -23.639  1.00  0.00     0.153 C 
HETATM   24  O3  UNL     1       1.798  53.479 -21.125  1.00  0.00    -0.268 OA
BRANCH  22  25
HETATM   25  C4  UNL     1      -0.411  52.782 -23.977  1.00  0.00     0.152 C 
BRANCH  25  26
HETATM   26  C3  UNL     1       0.006  52.687 -25.450  1.00  0.00     0.198 C 
BRANCH  26  27
HETATM   27  O2  UNL     1       1.421  52.450 -25.543  1.00  0.00    -0.320 OA
BRANCH  27  28
HETATM   28  C2  UNL     1       1.827  51.655 -26.573  1.00  0.00     0.254 C 
HETATM   29  C1  UNL     1       0.792  51.664 -27.658  1.00  0.00     0.126 C 
HETATM   30  O1  UNL     1       2.881  51.040 -26.632  1.00  0.00    -0.266 OA
ENDBRANCH  27  28
ENDBRANCH  26  27
ENDBRANCH  25  26
ENDBRANCH  22  25
ENDBRANCH   1  21
BRANCH  14  31
HETATM   31  O5  UNL     1      -1.238  50.323 -11.656  1.00  0.00    -0.315 OA
BRANCH  31  32
HETATM   32  C20 UNL     1      -1.459  51.397 -10.853  1.00  0.00     0.262 C 
HETATM   33  O6  UNL     1      -1.302  51.419  -9.641  1.00  0.00    -0.265 OA
BRANCH  32  34
HETATM   34  C21 UNL     1      -1.945  52.569 -11.661  1.00  0.00     0.148 C 
BRANCH  34  35
HETATM   35  C22 UNL     1      -3.406  52.938 -11.392  1.00  0.00     0.059 C 
HETATM   36  C23 UNL     1      -3.541  54.097 -10.403  1.00  0.00     0.045 C 
HETATM   37  C24 UNL     1      -4.236  51.743 -10.917  1.00  0.00     0.045 C 
BRANCH  35  38
HETATM   38  O7  UNL     1      -3.973  53.395 -12.632  1.00  0.00    -0.390 OA
HETATM   39  H36 UNL     1      -3.973  52.656 -13.267  1.00  0.00     0.210 HD
ENDBRANCH  35  38
ENDBRANCH  34  35
ENDBRANCH  32  34
ENDBRANCH  31  32
ENDBRANCH  14  31
TORSDOF 10
ENDMDL
MODEL 9
REMARK minimizedAffinity -6.71426916
REMARK CNNscore 0.368360758
REMARK CNNaffinity 6.74144506
REMARK  10 active torsions:
REMARK  status: ('A' for Active; 'I' for Inactive)
REMARK    1  A    between atoms: C2_2  and  O2_4 
REMARK    2  A    between atoms: O2_4  and  C3_5 
REMARK    3  A    between atoms: C3_5  and  C4_6 
REMARK    4  A    between atoms: C4_6  and  N1_7 
REMARK       I    between atoms: N1_7  and  C6_9 
REMARK    5  A    between atoms: C6_9  and  C7_11 
REMARK    6  A    between atoms: C19_24  and  O5_25 
REMARK    7  A    between atoms: O5_25  and  C20_26 
REMARK    8  A    between atoms: C20_26  and  C21_28 
REMARK    9  A    between atoms: C21_28  and  C22_29 
REMARK   10  A    between atoms: C22_29  and  O7_32 
ROOT
HETATM    1  C7  UNL     1      -2.809  47.370 -16.045  1.00  0.00     0.077 C 
HETATM    2  C8  UNL     1      -2.614  47.770 -17.321  1.00  0.00    -0.070 C 
HETATM    3  C9  UNL     1      -1.262  48.054 -17.923  1.00  0.00     0.035 C 
HETATM    4  C10 UNL     1      -1.305  48.777 -19.276  1.00  0.00     0.010 C 
HETATM    5  C11 UNL     1      -2.366  49.897 -19.326  1.00  0.00     0.006 C 
HETATM    6  C12 UNL     1      -3.768  49.376 -18.897  1.00  0.00     0.068 C 
HETATM    7  C13 UNL     1      -4.895  49.464 -19.912  1.00  0.00     0.132 C 
HETATM    8  O4  UNL     1      -6.065  49.297 -19.545  1.00  0.00    -0.298 OA
HETATM    9  C14 UNL     1      -4.624  49.757 -21.365  1.00  0.00     0.085 C 
HETATM   10  C15 UNL     1      -3.151  49.949 -21.752  1.00  0.00     0.011 C 
HETATM   11  C16 UNL     1      -2.967  50.421 -23.255  1.00  0.00    -0.016 C 
HETATM   12  C17 UNL     1      -3.853  51.623 -23.658  1.00  0.00     0.018 C 
HETATM   13  C18 UNL     1      -3.388  49.260 -24.198  1.00  0.00     0.018 C 
HETATM   14  C19 UNL     1      -1.464  50.730 -23.543  1.00  0.00     0.140 C 
HETATM   15  C25 UNL     1      -0.876  51.697 -22.515  1.00  0.00     0.034 C 
HETATM   16  C26 UNL     1      -0.944  51.077 -21.128  1.00  0.00     0.012 C 
HETATM   17  C27 UNL     1      -2.387  50.760 -20.655  1.00  0.00    -0.035 C 
HETATM   18  C28 UNL     1      -3.068  52.112 -20.307  1.00  0.00     0.016 C 
HETATM   19  C29 UNL     1      -3.803  47.970 -18.239  1.00  0.00     0.022 C 
HETATM   20  C30 UNL     1      -3.927  46.792 -19.223  1.00  0.00     0.015 C 
ENDROOT
BRANCH   1  21
HETATM   21  C6  UNL     1      -1.729  47.071 -15.051  1.00  0.00     0.243 C 
HETATM   22  N1  UNL     1      -0.997  48.146 -14.553  1.00  0.00    -0.351 N 
HETATM   23  C5  UNL     1      -0.003  47.869 -13.524  1.00  0.00     0.153 C 
HETATM   24  O3  UNL     1      -1.516  45.909 -14.696  1.00  0.00    -0.268 OA
BRANCH  22  25
HETATM   25  C4  UNL     1      -1.169  49.560 -14.924  1.00  0.00     0.152 C 
BRANCH  25  26
HETATM   26  C3  UNL     1       0.067  50.428 -14.657  1.00  0.00     0.198 C 
BRANCH  26  27
HETATM   27  O2  UNL     1      -0.036  51.663 -15.386  1.00  0.00    -0.320 OA
BRANCH  27  28
HETATM   28  C2  UNL     1       0.651  51.720 -16.562  1.00  0.00     0.254 C 
HETATM   29  C1  UNL     1       2.032  52.248 -16.317  1.00  0.00     0.126 C 
HETATM   30  O1  UNL     1       0.229  51.376 -17.656  1.00  0.00    -0.266 OA
ENDBRANCH  27  28
ENDBRANCH  26  27
ENDBRANCH  25  26
ENDBRANCH  22  25
ENDBRANCH   1  21
BRANCH  14  31
HETATM   31  O5  UNL     1      -1.325  51.289 -24.867  1.00  0.00    -0.315 OA
BRANCH  31  32
HETATM   32  C20 UNL     1      -0.672  52.478 -24.957  1.00  0.00     0.262 C 
HETATM   33  O6  UNL     1      -1.190  53.580 -24.852  1.00  0.00    -0.265 OA
BRANCH  32  34
HETATM   34  C21 UNL     1       0.792  52.256 -25.223  1.00  0.00     0.148 C 
BRANCH  34  35
HETATM   35  C22 UNL     1       1.085  51.691 -26.615  1.00  0.00     0.059 C 
HETATM   36  C23 UNL     1       2.584  51.507 -26.864  1.00  0.00     0.045 C 
HETATM   37  C24 UNL     1       0.467  52.532 -27.734  1.00  0.00     0.045 C 
BRANCH  35  38
HETATM   38  O7  UNL     1       0.500  50.380 -26.682  1.00  0.00    -0.390 OA
HETATM   39  H36 UNL     1      -0.468  50.465 -26.602  1.00  0.00     0.210 HD
ENDBRANCH  35  38
ENDBRANCH  34  35
ENDBRANCH  32  34
ENDBRANCH  31  32
ENDBRANCH  14  31
TORSDOF 10
ENDMDL
