MODEL 1
REMARK minimizedAffinity -7.620368
REMARK CNNscore 0.812446773
REMARK CNNaffinity 7.23155212
REMARK  7 active torsions:
REMARK  status: ('A' for Active; 'I' for Inactive)
REMARK    1  A    between atoms: O1_2  and  C2_3 
REMARK    2  A    between atoms: C2_3  and  C3_5 
REMARK    3  A    between atoms: C5_7  and  C6_8 
REMARK    4  A    between atoms: C6_8  and  C7_9 
REMARK    5  A    between atoms: C7_9  and  C8_10 
REMARK    6  A    between atoms: C8_10  and  C10_12 
REMARK    7  A    between atoms: C17_19  and  O3_20 
ROOT
HETATM    1  C10 UNL     1      -2.263  52.941  -9.273  1.00  0.00    -0.002 C 
HETATM    2  C11 UNL     1      -1.971  51.955  -8.132  1.00  0.00     0.007 C 
HETATM    3  C12 UNL     1      -0.551  52.279  -7.708  1.00  0.00     0.015 C 
HETATM    4  C13 UNL     1       0.217  52.427  -9.040  1.00  0.00    -0.005 C 
HETATM    5  C14 UNL     1       0.488  51.012  -9.635  1.00  0.00     0.021 C 
HETATM    6  C15 UNL     1       1.566  53.151  -8.809  1.00  0.00     0.002 C 
HETATM    7  C16 UNL     1       1.915  54.352  -9.338  1.00  0.00    -0.032 C 
HETATM    8  C17 UNL     1       0.877  55.144 -10.119  1.00  0.00     0.149 C 
HETATM    9  C18 UNL     1      -0.566  54.742  -9.808  1.00  0.00     0.047 C 
HETATM   10  C19 UNL     1      -0.839  53.220  -9.941  1.00  0.00    -0.026 C 
HETATM   11  C20 UNL     1      -0.743  52.821 -11.431  1.00  0.00     0.016 C 
HETATM   12  C21 UNL     1       3.321  55.030  -9.159  1.00  0.00    -0.012 C 
HETATM   13  C22 UNL     1       3.784  55.556 -10.541  1.00  0.00     0.021 C 
HETATM   14  C23 UNL     1       3.170  56.221  -8.175  1.00  0.00     0.021 C 
HETATM   15  C24 UNL     1       4.484  56.900  -7.819  1.00  0.00     0.080 C 
HETATM   16  C25 UNL     1       5.483  55.909  -7.272  1.00  0.00     0.135 C 
HETATM   17  O4  UNL     1       6.076  56.152  -6.220  1.00  0.00    -0.297 OA
HETATM   18  C26 UNL     1       5.774  54.660  -8.116  1.00  0.00     0.018 C 
HETATM   19  C27 UNL     1       6.695  55.063  -9.289  1.00  0.00     0.023 C 
HETATM   20  C28 UNL     1       6.602  53.667  -7.261  1.00  0.00     0.023 C 
HETATM   21  C29 UNL     1       4.399  54.023  -8.593  1.00  0.00     0.020 C 
HETATM   22  C30 UNL     1       3.772  53.207  -7.457  1.00  0.00     0.090 C 
HETATM   23  C31 UNL     1       2.526  52.482  -7.871  1.00  0.00     0.157 C 
HETATM   24  O5  UNL     1       2.280  51.389  -7.362  1.00  0.00    -0.293 OA
ENDROOT
BRANCH   1  25
HETATM   25  C8  UNL     1      -3.468  52.493 -10.153  1.00  0.00    -0.014 C 
HETATM   26  C9  UNL     1      -3.936  53.619 -11.098  1.00  0.00     0.010 C 
BRANCH  25  27
HETATM   27  C7  UNL     1      -3.215  51.214 -10.988  1.00  0.00     0.008 C 
BRANCH  27  28
HETATM   28  C6  UNL     1      -3.909  49.943 -10.482  1.00  0.00     0.028 C 
BRANCH  28  29
HETATM   29  C5  UNL     1      -5.387  50.175 -10.316  1.00  0.00    -0.014 C 
HETATM   30  C3  UNL     1      -6.383  49.287 -10.521  1.00  0.00     0.009 C 
HETATM   31  C4  UNL     1      -6.206  47.872 -10.993  1.00  0.00     0.054 C 
BRANCH  30  32
HETATM   32  C2  UNL     1      -7.816  49.659 -10.283  1.00  0.00     0.288 C 
HETATM   33  O2  UNL     1      -8.678  49.572 -11.147  1.00  0.00    -0.260 OA
BRANCH  32  34
HETATM   34  O1  UNL     1      -8.017  50.107  -9.016  1.00  0.00    -0.323 OA
HETATM   35  C1  UNL     1      -8.960  49.335  -8.272  1.00  0.00     0.213 C 
ENDBRANCH  32  34
ENDBRANCH  30  32
ENDBRANCH  28  29
ENDBRANCH  27  28
ENDBRANCH  25  27
ENDBRANCH   1  25
BRANCH   8  36
HETATM   36  O3  UNL     1       1.143  55.014 -11.508  1.00  0.00    -0.391 OA
HETATM   37  H25 UNL     1       0.480  55.541 -11.984  1.00  0.00     0.210 HD
ENDBRANCH   8  36
TORSDOF 7
ENDMDL
MODEL 2
REMARK minimizedAffinity -7.84473753
REMARK CNNscore 0.796226263
REMARK CNNaffinity 7.08101463
REMARK  7 active torsions:
REMARK  status: ('A' for Active; 'I' for Inactive)
REMARK    1  A    between atoms: O1_2  and  C2_3 
REMARK    2  A    between atoms: C2_3  and  C3_5 
REMARK    3  A    between atoms: C5_7  and  C6_8 
REMARK    4  A    between atoms: C6_8  and  C7_9 
REMARK    5  A    between atoms: C7_9  and  C8_10 
REMARK    6  A    between atoms: C8_10  and  C10_12 
REMARK    7  A    between atoms: C17_19  and  O3_20 
ROOT
HETATM    1  C10 UNL     1       4.011  55.720  -8.720  1.00  0.00    -0.002 C 
HETATM    2  C11 UNL     1       4.463  55.397 -10.152  1.00  0.00     0.007 C 
HETATM    3  C12 UNL     1       3.229  54.818 -10.816  1.00  0.00     0.015 C 
HETATM    4  C13 UNL     1       2.660  53.836  -9.767  1.00  0.00    -0.005 C 
HETATM    5  C14 UNL     1       3.527  52.540  -9.757  1.00  0.00     0.021 C 
HETATM    6  C15 UNL     1       1.196  53.468 -10.108  1.00  0.00     0.002 C 
HETATM    7  C16 UNL     1       0.114  53.747  -9.336  1.00  0.00    -0.032 C 
HETATM    8  C17 UNL     1       0.298  54.603  -8.092  1.00  0.00     0.149 C 
HETATM    9  C18 UNL     1       1.566  55.457  -8.113  1.00  0.00     0.047 C 
HETATM   10  C19 UNL     1       2.862  54.654  -8.409  1.00  0.00    -0.026 C 
HETATM   11  C20 UNL     1       3.160  53.723  -7.212  1.00  0.00     0.016 C 
HETATM   12  C21 UNL     1      -1.354  53.291  -9.659  1.00  0.00    -0.012 C 
HETATM   13  C22 UNL     1      -1.982  52.725  -8.361  1.00  0.00     0.021 C 
HETATM   14  C23 UNL     1      -2.161  54.531 -10.128  1.00  0.00     0.021 C 
HETATM   15  C24 UNL     1      -3.576  54.212 -10.587  1.00  0.00     0.080 C 
HETATM   16  C25 UNL     1      -3.576  53.163 -11.673  1.00  0.00     0.135 C 
HETATM   17  O4  UNL     1      -4.214  53.351 -12.709  1.00  0.00    -0.297 OA
HETATM   18  C26 UNL     1      -2.831  51.851 -11.388  1.00  0.00     0.018 C 
HETATM   19  C27 UNL     1      -3.697  50.989 -10.443  1.00  0.00     0.023 C 
HETATM   20  C28 UNL     1      -2.727  51.045 -12.708  1.00  0.00     0.023 C 
HETATM   21  C29 UNL     1      -1.398  52.187 -10.789  1.00  0.00     0.020 C 
HETATM   22  C30 UNL     1      -0.435  52.584 -11.913  1.00  0.00     0.090 C 
HETATM   23  C31 UNL     1       0.970  52.805 -11.434  1.00  0.00     0.157 C 
HETATM   24  O5  UNL     1       1.902  52.515 -12.181  1.00  0.00    -0.293 OA
ENDROOT
BRANCH   1  25
HETATM   25  C8  UNL     1       5.210  55.889  -7.741  1.00  0.00    -0.014 C 
HETATM   26  C9  UNL     1       6.548  55.491  -8.398  1.00  0.00     0.010 C 
BRANCH  25  27
HETATM   27  C7  UNL     1       5.355  57.309  -7.139  1.00  0.00     0.008 C 
BRANCH  27  28
HETATM   28  C6  UNL     1       5.571  57.365  -5.621  1.00  0.00     0.028 C 
BRANCH  28  29
HETATM   29  C5  UNL     1       6.742  58.249  -5.284  1.00  0.00    -0.014 C 
HETATM   30  C3  UNL     1       8.039  57.887  -5.186  1.00  0.00     0.009 C 
HETATM   31  C4  UNL     1       8.572  56.495  -5.370  1.00  0.00     0.054 C 
BRANCH  30  32
HETATM   32  C2  UNL     1       9.104  58.894  -4.870  1.00  0.00     0.288 C 
HETATM   33  O2  UNL     1       8.876  59.942  -4.280  1.00  0.00    -0.260 OA
BRANCH  32  34
HETATM   34  O1  UNL     1      10.321  58.502  -5.328  1.00  0.00    -0.323 OA
HETATM   35  C1  UNL     1      11.395  58.777  -4.429  1.00  0.00     0.213 C 
ENDBRANCH  32  34
ENDBRANCH  30  32
ENDBRANCH  28  29
ENDBRANCH  27  28
ENDBRANCH  25  27
ENDBRANCH   1  25
BRANCH   8  36
HETATM   36  O3  UNL     1       0.279  53.765  -6.945  1.00  0.00    -0.391 OA
HETATM   37  H25 UNL     1       0.380  54.334  -6.164  1.00  0.00     0.210 HD
ENDBRANCH   8  36
TORSDOF 7
ENDMDL
MODEL 3
REMARK minimizedAffinity -7.52894402
REMARK CNNscore 0.690159619
REMARK CNNaffinity 6.60263062
REMARK  7 active torsions:
REMARK  status: ('A' for Active; 'I' for Inactive)
REMARK    1  A    between atoms: O1_2  and  C2_3 
REMARK    2  A    between atoms: C2_3  and  C3_5 
REMARK    3  A    between atoms: C5_7  and  C6_8 
REMARK    4  A    between atoms: C6_8  and  C7_9 
REMARK    5  A    between atoms: C7_9  and  C8_10 
REMARK    6  A    between atoms: C8_10  and  C10_12 
REMARK    7  A    between atoms: C17_19  and  O3_20 
ROOT
HETATM    1  C10 UNL     1     -12.345  45.537 -26.084  1.00  0.00    -0.002 C 
HETATM    2  C11 UNL     1     -11.749  44.122 -26.055  1.00  0.00     0.007 C 
HETATM    3  C12 UNL     1     -10.550  44.197 -26.980  1.00  0.00     0.015 C 
HETATM    4  C13 UNL     1     -11.070  44.971 -28.212  1.00  0.00    -0.005 C 
HETATM    5  C14 UNL     1     -11.951  44.021 -29.079  1.00  0.00     0.021 C 
HETATM    6  C15 UNL     1      -9.887  45.490 -29.064  1.00  0.00     0.002 C 
HETATM    7  C16 UNL     1      -9.599  46.796 -29.299  1.00  0.00    -0.032 C 
HETATM    8  C17 UNL     1     -10.402  47.869 -28.578  1.00  0.00     0.149 C 
HETATM    9  C18 UNL     1     -11.101  47.370 -27.313  1.00  0.00     0.047 C 
HETATM   10  C19 UNL     1     -11.971  46.103 -27.532  1.00  0.00    -0.026 C 
HETATM   11  C20 UNL     1     -13.190  46.476 -28.407  1.00  0.00     0.016 C 
HETATM   12  C21 UNL     1      -8.443  47.301 -30.236  1.00  0.00    -0.012 C 
HETATM   13  C22 UNL     1      -9.006  48.430 -31.135  1.00  0.00     0.021 C 
HETATM   14  C23 UNL     1      -7.302  47.866 -29.347  1.00  0.00     0.021 C 
HETATM   15  C24 UNL     1      -6.063  48.285 -30.123  1.00  0.00     0.080 C 
HETATM   16  C25 UNL     1      -5.536  47.151 -30.970  1.00  0.00     0.135 C 
HETATM   17  O4  UNL     1      -4.343  46.853 -30.923  1.00  0.00    -0.297 OA
HETATM   18  C26 UNL     1      -6.523  46.468 -31.927  1.00  0.00     0.018 C 
HETATM   19  C27 UNL     1      -6.739  47.387 -33.150  1.00  0.00     0.023 C 
HETATM   20  C28 UNL     1      -5.859  45.183 -32.486  1.00  0.00     0.023 C 
HETATM   21  C29 UNL     1      -7.867  46.144 -31.144  1.00  0.00     0.020 C 
HETATM   22  C30 UNL     1      -7.692  44.881 -30.293  1.00  0.00     0.090 C 
HETATM   23  C31 UNL     1      -8.958  44.449 -29.615  1.00  0.00     0.157 C 
HETATM   24  O5  UNL     1      -9.161  43.247 -29.449  1.00  0.00    -0.293 OA
ENDROOT
BRANCH   1  25
HETATM   25  C8  UNL     1     -13.820  45.574 -25.585  1.00  0.00    -0.014 C 
HETATM   26  C9  UNL     1     -14.124  44.416 -24.612  1.00  0.00     0.010 C 
BRANCH  25  27
HETATM   27  C7  UNL     1     -14.241  46.907 -24.919  1.00  0.00     0.008 C 
BRANCH  27  28
HETATM   28  C6  UNL     1     -15.471  46.832 -24.006  1.00  0.00     0.028 C 
BRANCH  28  29
HETATM   29  C5  UNL     1     -16.725  46.652 -24.817  1.00  0.00    -0.014 C 
HETATM   30  C3  UNL     1     -17.969  46.399 -24.357  1.00  0.00     0.009 C 
HETATM   31  C4  UNL     1     -18.344  46.214 -22.913  1.00  0.00     0.054 C 
BRANCH  30  32
HETATM   32  C2  UNL     1     -19.133  46.274 -25.293  1.00  0.00     0.288 C 
HETATM   33  O2  UNL     1     -20.256  46.674 -25.016  1.00  0.00    -0.260 OA
BRANCH  32  34
HETATM   34  O1  UNL     1     -18.785  45.660 -26.453  1.00  0.00    -0.323 OA
HETATM   35  C1  UNL     1     -19.238  44.310 -26.554  1.00  0.00     0.213 C 
ENDBRANCH  32  34
ENDBRANCH  30  32
ENDBRANCH  28  29
ENDBRANCH  27  28
ENDBRANCH  25  27
ENDBRANCH   1  25
BRANCH   8  36
HETATM   36  O3  UNL     1     -11.345  48.428 -29.482  1.00  0.00    -0.391 OA
HETATM   37  H25 UNL     1     -11.832  49.121 -29.005  1.00  0.00     0.210 HD
ENDBRANCH   8  36
TORSDOF 7
ENDMDL
MODEL 4
REMARK minimizedAffinity -7.56716681
REMARK CNNscore 0.666270733
REMARK CNNaffinity 7.26391172
REMARK  7 active torsions:
REMARK  status: ('A' for Active; 'I' for Inactive)
REMARK    1  A    between atoms: O1_2  and  C2_3 
REMARK    2  A    between atoms: C2_3  and  C3_5 
REMARK    3  A    between atoms: C5_7  and  C6_8 
REMARK    4  A    between atoms: C6_8  and  C7_9 
REMARK    5  A    between atoms: C7_9  and  C8_10 
REMARK    6  A    between atoms: C8_10  and  C10_12 
REMARK    7  A    between atoms: C17_19  and  O3_20 
ROOT
HETATM    1  C10 UNL     1       4.171  55.107  -9.043  1.00  0.00    -0.002 C 
HETATM    2  C11 UNL     1       4.534  54.867 -10.515  1.00  0.00     0.007 C 
HETATM    3  C12 UNL     1       3.240  54.397 -11.151  1.00  0.00     0.015 C 
HETATM    4  C13 UNL     1       2.675  53.370 -10.144  1.00  0.00    -0.005 C 
HETATM    5  C14 UNL     1       3.473  52.037 -10.271  1.00  0.00     0.021 C 
HETATM    6  C15 UNL     1       1.178  53.098 -10.431  1.00  0.00     0.002 C 
HETATM    7  C16 UNL     1       0.152  53.372  -9.585  1.00  0.00    -0.032 C 
HETATM    8  C17 UNL     1       0.442  54.127  -8.295  1.00  0.00     0.149 C 
HETATM    9  C18 UNL     1       1.750  54.918  -8.325  1.00  0.00     0.047 C 
HETATM   10  C19 UNL     1       2.986  54.078  -8.745  1.00  0.00    -0.026 C 
HETATM   11  C20 UNL     1       3.295  53.050  -7.633  1.00  0.00     0.016 C 
HETATM   12  C21 UNL     1      -1.352  53.011  -9.860  1.00  0.00    -0.012 C 
HETATM   13  C22 UNL     1      -1.942  52.384  -8.573  1.00  0.00     0.021 C 
HETATM   14  C23 UNL     1      -2.116  54.320 -10.197  1.00  0.00     0.021 C 
HETATM   15  C24 UNL     1      -3.567  54.103 -10.601  1.00  0.00     0.080 C 
HETATM   16  C25 UNL     1      -3.675  53.136 -11.756  1.00  0.00     0.135 C 
HETATM   17  O4  UNL     1      -4.354  53.429 -12.741  1.00  0.00    -0.297 OA
HETATM   18  C26 UNL     1      -2.985  51.773 -11.603  1.00  0.00     0.018 C 
HETATM   19  C27 UNL     1      -3.846  50.887 -10.676  1.00  0.00     0.023 C 
HETATM   20  C28 UNL     1      -2.989  51.060 -12.980  1.00  0.00     0.023 C 
HETATM   21  C29 UNL     1      -1.509  51.996 -11.060  1.00  0.00     0.020 C 
HETATM   22  C30 UNL     1      -0.584  52.426 -12.204  1.00  0.00     0.090 C 
HETATM   23  C31 UNL     1       0.852  52.544 -11.786  1.00  0.00     0.157 C 
HETATM   24  O5  UNL     1       1.730  52.265 -12.601  1.00  0.00    -0.293 OA
ENDROOT
BRANCH   1  25
HETATM   25  C8  UNL     1       5.425  55.147  -8.119  1.00  0.00    -0.014 C 
HETATM   26  C9  UNL     1       6.725  54.875  -8.905  1.00  0.00     0.010 C 
BRANCH  25  27
HETATM   27  C7  UNL     1       5.594  56.463  -7.319  1.00  0.00     0.008 C 
BRANCH  27  28
HETATM   28  C6  UNL     1       4.442  57.467  -7.446  1.00  0.00     0.028 C 
BRANCH  28  29
HETATM   29  C5  UNL     1       3.876  57.802  -6.092  1.00  0.00    -0.014 C 
HETATM   30  C3  UNL     1       2.574  57.867  -5.742  1.00  0.00     0.009 C 
HETATM   31  C4  UNL     1       1.410  57.641  -6.665  1.00  0.00     0.054 C 
BRANCH  30  32
HETATM   32  C2  UNL     1       2.163  58.186  -4.336  1.00  0.00     0.288 C 
HETATM   33  O2  UNL     1       2.772  58.977  -3.628  1.00  0.00    -0.260 OA
BRANCH  32  34
HETATM   34  O1  UNL     1       1.061  57.486  -3.961  1.00  0.00    -0.323 OA
HETATM   35  C1  UNL     1       0.059  58.279  -3.326  1.00  0.00     0.213 C 
ENDBRANCH  32  34
ENDBRANCH  30  32
ENDBRANCH  28  29
ENDBRANCH  27  28
ENDBRANCH  25  27
ENDBRANCH   1  25
BRANCH   8  36
HETATM   36  O3  UNL     1       0.437  53.210  -7.211  1.00  0.00    -0.391 OA
HETATM   37  H25 UNL     1       0.606  53.715  -6.398  1.00  0.00     0.210 HD
ENDBRANCH   8  36
TORSDOF 7
ENDMDL
MODEL 5
REMARK minimizedAffinity -7.84354973
REMARK CNNscore 0.660228372
REMARK CNNaffinity 7.00583839
REMARK  7 active torsions:
REMARK  status: ('A' for Active; 'I' for Inactive)
REMARK    1  A    between atoms: O1_2  and  C2_3 
REMARK    2  A    between atoms: C2_3  and  C3_5 
REMARK    3  A    between atoms: C5_7  and  C6_8 
REMARK    4  A    between atoms: C6_8  and  C7_9 
REMARK    5  A    between atoms: C7_9  and  C8_10 
REMARK    6  A    between atoms: C8_10  and  C10_12 
REMARK    7  A    between atoms: C17_19  and  O3_20 
ROOT
HETATM    1  C10 UNL     1       3.415  56.552  -8.768  1.00  0.00    -0.002 C 
HETATM    2  C11 UNL     1       3.931  56.246 -10.182  1.00  0.00     0.007 C 
HETATM    3  C12 UNL     1       2.793  55.496 -10.845  1.00  0.00     0.015 C 
HETATM    4  C13 UNL     1       2.332  54.482  -9.774  1.00  0.00    -0.005 C 
HETATM    5  C14 UNL     1       3.354  53.307  -9.709  1.00  0.00     0.021 C 
HETATM    6  C15 UNL     1       0.932  53.922 -10.125  1.00  0.00     0.002 C 
HETATM    7  C16 UNL     1      -0.191  54.086  -9.379  1.00  0.00    -0.032 C 
HETATM    8  C17 UNL     1      -0.140  54.996  -8.160  1.00  0.00     0.149 C 
HETATM    9  C18 UNL     1       1.012  56.001  -8.190  1.00  0.00     0.047 C 
HETATM   10  C19 UNL     1       2.403  55.360  -8.440  1.00  0.00    -0.026 C 
HETATM   11  C20 UNL     1       2.793  54.511  -7.209  1.00  0.00     0.016 C 
HETATM   12  C21 UNL     1      -1.584  53.439  -9.710  1.00  0.00    -0.012 C 
HETATM   13  C22 UNL     1      -2.160  52.838  -8.404  1.00  0.00     0.021 C 
HETATM   14  C23 UNL     1      -2.531  54.553 -10.231  1.00  0.00     0.021 C 
HETATM   15  C24 UNL     1      -3.885  54.045 -10.701  1.00  0.00     0.080 C 
HETATM   16  C25 UNL     1      -3.733  52.972 -11.752  1.00  0.00     0.135 C 
HETATM   17  O4  UNL     1      -4.370  53.047 -12.803  1.00  0.00    -0.297 OA
HETATM   18  C26 UNL     1      -2.834  51.773 -11.413  1.00  0.00     0.018 C 
HETATM   19  C27 UNL     1      -3.604  50.838 -10.454  1.00  0.00     0.023 C 
HETATM   20  C28 UNL     1      -2.605  50.947 -12.705  1.00  0.00     0.023 C 
HETATM   21  C29 UNL     1      -1.467  52.305 -10.804  1.00  0.00     0.020 C 
HETATM   22  C30 UNL     1      -0.540  52.786 -11.925  1.00  0.00     0.090 C 
HETATM   23  C31 UNL     1       0.816  53.196 -11.432  1.00  0.00     0.157 C 
HETATM   24  O5  UNL     1       1.792  53.004 -12.156  1.00  0.00    -0.293 OA
ENDROOT
BRANCH   1  25
HETATM   25  C8  UNL     1       4.565  56.900  -7.776  1.00  0.00    -0.014 C 
HETATM   26  C9  UNL     1       4.031  57.576  -6.496  1.00  0.00     0.010 C 
BRANCH  25  27
HETATM   27  C7  UNL     1       5.452  55.697  -7.372  1.00  0.00     0.008 C 
BRANCH  27  28
HETATM   28  C6  UNL     1       6.762  55.547  -8.156  1.00  0.00     0.028 C 
BRANCH  28  29
HETATM   29  C5  UNL     1       6.880  54.161  -8.731  1.00  0.00    -0.014 C 
HETATM   30  C3  UNL     1       6.918  52.994  -8.054  1.00  0.00     0.009 C 
HETATM   31  C4  UNL     1       6.879  52.852  -6.558  1.00  0.00     0.054 C 
BRANCH  30  32
HETATM   32  C2  UNL     1       7.009  51.682  -8.773  1.00  0.00     0.288 C 
HETATM   33  O2  UNL     1       7.750  50.776  -8.415  1.00  0.00    -0.260 OA
BRANCH  32  34
HETATM   34  O1  UNL     1       6.188  51.641  -9.854  1.00  0.00    -0.323 OA
HETATM   35  C1  UNL     1       5.807  50.322 -10.244  1.00  0.00     0.213 C 
ENDBRANCH  32  34
ENDBRANCH  30  32
ENDBRANCH  28  29
ENDBRANCH  27  28
ENDBRANCH  25  27
ENDBRANCH   1  25
BRANCH   8  36
HETATM   36  O3  UNL     1      -0.075  54.197  -6.988  1.00  0.00    -0.391 OA
HETATM   37  H25 UNL     1      -0.061  54.798  -6.224  1.00  0.00     0.210 HD
ENDBRANCH   8  36
TORSDOF 7
ENDMDL
MODEL 6
REMARK minimizedAffinity -6.86829424
REMARK CNNscore 0.654635429
REMARK CNNaffinity 6.78090048
REMARK  7 active torsions:
REMARK  status: ('A' for Active; 'I' for Inactive)
REMARK    1  A    between atoms: O1_2  and  C2_3 
REMARK    2  A    between atoms: C2_3  and  C3_5 
REMARK    3  A    between atoms: C5_7  and  C6_8 
REMARK    4  A    between atoms: C6_8  and  C7_9 
REMARK    5  A    between atoms: C7_9  and  C8_10 
REMARK    6  A    between atoms: C8_10  and  C10_12 
REMARK    7  A    between atoms: C17_19  and  O3_20 
ROOT
HETATM    1  C10 UNL     1       3.544  53.828 -10.626  1.00  0.00    -0.002 C 
HETATM    2  C11 UNL     1       3.132  55.275 -10.935  1.00  0.00     0.007 C 
HETATM    3  C12 UNL     1       3.885  56.107  -9.917  1.00  0.00     0.015 C 
HETATM    4  C13 UNL     1       3.699  55.341  -8.587  1.00  0.00    -0.005 C 
HETATM    5  C14 UNL     1       2.258  55.596  -8.049  1.00  0.00     0.021 C 
HETATM    6  C15 UNL     1       4.729  55.821  -7.537  1.00  0.00     0.002 C 
HETATM    7  C16 UNL     1       5.699  55.052  -6.978  1.00  0.00    -0.032 C 
HETATM    8  C17 UNL     1       5.907  53.636  -7.494  1.00  0.00     0.149 C 
HETATM    9  C18 UNL     1       5.345  53.403  -8.897  1.00  0.00     0.047 C 
HETATM   10  C19 UNL     1       3.859  53.823  -9.060  1.00  0.00    -0.026 C 
HETATM   11  C20 UNL     1       2.974  52.863  -8.232  1.00  0.00     0.016 C 
HETATM   12  C21 UNL     1       6.682  55.535  -5.851  1.00  0.00    -0.012 C 
HETATM   13  C22 UNL     1       6.752  54.433  -4.765  1.00  0.00     0.021 C 
HETATM   14  C23 UNL     1       8.087  55.737  -6.479  1.00  0.00     0.021 C 
HETATM   15  C24 UNL     1       9.116  56.318  -5.521  1.00  0.00     0.080 C 
HETATM   16  C25 UNL     1       8.634  57.617  -4.921  1.00  0.00     0.135 C 
HETATM   17  O4  UNL     1       9.366  58.607  -4.931  1.00  0.00    -0.297 OA
HETATM   18  C26 UNL     1       7.257  57.613  -4.241  1.00  0.00     0.018 C 
HETATM   19  C27 UNL     1       7.392  56.933  -2.860  1.00  0.00     0.023 C 
HETATM   20  C28 UNL     1       6.849  59.079  -3.943  1.00  0.00     0.023 C 
HETATM   21  C29 UNL     1       6.209  56.892  -5.193  1.00  0.00     0.020 C 
HETATM   22  C30 UNL     1       5.751  57.850  -6.297  1.00  0.00     0.090 C 
HETATM   23  C31 UNL     1       4.673  57.273  -7.167  1.00  0.00     0.157 C 
HETATM   24  O5  UNL     1       3.817  58.027  -7.628  1.00  0.00    -0.293 OA
ENDROOT
BRANCH   1  25
HETATM   25  C8  UNL     1       2.557  52.785 -11.231  1.00  0.00    -0.014 C 
HETATM   26  C9  UNL     1       1.121  53.342 -11.323  1.00  0.00     0.010 C 
BRANCH  25  27
HETATM   27  C7  UNL     1       2.969  52.239 -12.620  1.00  0.00     0.008 C 
BRANCH  27  28
HETATM   28  C6  UNL     1       2.153  51.044 -13.130  1.00  0.00     0.028 C 
BRANCH  28  29
HETATM   29  C5  UNL     1       1.531  51.356 -14.465  1.00  0.00    -0.014 C 
HETATM   30  C3  UNL     1       2.161  51.775 -15.583  1.00  0.00     0.009 C 
HETATM   31  C4  UNL     1       3.634  52.045 -15.706  1.00  0.00     0.054 C 
BRANCH  30  32
HETATM   32  C2  UNL     1       1.405  52.017 -16.855  1.00  0.00     0.288 C 
HETATM   33  O2  UNL     1       1.798  52.780 -17.728  1.00  0.00    -0.260 OA
BRANCH  32  34
HETATM   34  O1  UNL     1       0.250  51.304 -16.900  1.00  0.00    -0.323 OA
HETATM   35  C1  UNL     1      -0.387  51.311 -18.177  1.00  0.00     0.213 C 
ENDBRANCH  32  34
ENDBRANCH  30  32
ENDBRANCH  28  29
ENDBRANCH  27  28
ENDBRANCH  25  27
ENDBRANCH   1  25
BRANCH   8  36
HETATM   36  O3  UNL     1       5.339  52.718  -6.571  1.00  0.00    -0.391 OA
HETATM   37  H25 UNL     1       5.499  51.822  -6.912  1.00  0.00     0.210 HD
ENDBRANCH   8  36
TORSDOF 7
ENDMDL
MODEL 7
REMARK minimizedAffinity -7.68790388
REMARK CNNscore 0.649719059
REMARK CNNaffinity 6.74893618
REMARK  7 active torsions:
REMARK  status: ('A' for Active; 'I' for Inactive)
REMARK    1  A    between atoms: O1_2  and  C2_3 
REMARK    2  A    between atoms: C2_3  and  C3_5 
REMARK    3  A    between atoms: C5_7  and  C6_8 
REMARK    4  A    between atoms: C6_8  and  C7_9 
REMARK    5  A    between atoms: C7_9  and  C8_10 
REMARK    6  A    between atoms: C8_10  and  C10_12 
REMARK    7  A    between atoms: C17_19  and  O3_20 
ROOT
HETATM    1  C10 UNL     1       1.769  54.812  -8.820  1.00  0.00    -0.002 C 
HETATM    2  C11 UNL     1       2.113  53.784  -7.732  1.00  0.00     0.007 C 
HETATM    3  C12 UNL     1       1.111  52.666  -7.938  1.00  0.00     0.015 C 
HETATM    4  C13 UNL     1      -0.235  53.396  -8.148  1.00  0.00    -0.005 C 
HETATM    5  C14 UNL     1      -0.761  53.904  -6.772  1.00  0.00     0.021 C 
HETATM    6  C15 UNL     1      -1.279  52.439  -8.772  1.00  0.00     0.002 C 
HETATM    7  C16 UNL     1      -1.860  52.594  -9.989  1.00  0.00    -0.032 C 
HETATM    8  C17 UNL     1      -1.378  53.714 -10.899  1.00  0.00     0.149 C 
HETATM    9  C18 UNL     1       0.022  54.225 -10.558  1.00  0.00     0.047 C 
HETATM   10  C19 UNL     1       0.201  54.627  -9.069  1.00  0.00    -0.026 C 
HETATM   11  C20 UNL     1      -0.644  55.890  -8.786  1.00  0.00     0.016 C 
HETATM   12  C21 UNL     1      -2.980  51.657 -10.569  1.00  0.00    -0.012 C 
HETATM   13  C22 UNL     1      -4.092  52.549 -11.176  1.00  0.00     0.021 C 
HETATM   14  C23 UNL     1      -2.355  50.776 -11.684  1.00  0.00     0.021 C 
HETATM   15  C24 UNL     1      -3.304  49.735 -12.256  1.00  0.00     0.080 C 
HETATM   16  C25 UNL     1      -3.871  48.854 -11.168  1.00  0.00     0.135 C 
HETATM   17  O4  UNL     1      -3.842  47.630 -11.292  1.00  0.00    -0.297 OA
HETATM   18  C26 UNL     1      -4.544  49.549  -9.976  1.00  0.00     0.018 C 
HETATM   19  C27 UNL     1      -5.941  50.040 -10.418  1.00  0.00     0.023 C 
HETATM   20  C28 UNL     1      -4.806  48.493  -8.871  1.00  0.00     0.023 C 
HETATM   21  C29 UNL     1      -3.604  50.721  -9.460  1.00  0.00     0.020 C 
HETATM   22  C30 UNL     1      -2.476  50.151  -8.593  1.00  0.00     0.090 C 
HETATM   23  C31 UNL     1      -1.615  51.213  -7.976  1.00  0.00     0.157 C 
HETATM   24  O5  UNL     1      -1.132  51.011  -6.862  1.00  0.00    -0.293 OA
ENDROOT
BRANCH   1  25
HETATM   25  C8  UNL     1       2.354  56.223  -8.515  1.00  0.00    -0.014 C 
HETATM   26  C9  UNL     1       2.683  56.394  -7.017  1.00  0.00     0.010 C 
BRANCH  25  27
HETATM   27  C7  UNL     1       3.607  56.594  -9.345  1.00  0.00     0.008 C 
BRANCH  27  28
HETATM   28  C6  UNL     1       3.834  55.759 -10.611  1.00  0.00     0.028 C 
BRANCH  28  29
HETATM   29  C5  UNL     1       4.428  54.419 -10.264  1.00  0.00    -0.014 C 
HETATM   30  C3  UNL     1       5.549  54.181  -9.551  1.00  0.00     0.009 C 
HETATM   31  C4  UNL     1       6.458  55.231  -8.979  1.00  0.00     0.054 C 
BRANCH  30  32
HETATM   32  C2  UNL     1       6.000  52.781  -9.260  1.00  0.00     0.288 C 
HETATM   33  O2  UNL     1       7.168  52.425  -9.355  1.00  0.00    -0.260 OA
BRANCH  32  34
HETATM   34  O1  UNL     1       4.964  51.981  -8.900  1.00  0.00    -0.323 OA
HETATM   35  C1  UNL     1       5.054  51.480  -7.566  1.00  0.00     0.213 C 
ENDBRANCH  32  34
ENDBRANCH  30  32
ENDBRANCH  28  29
ENDBRANCH  27  28
ENDBRANCH  25  27
ENDBRANCH   1  25
BRANCH   8  36
HETATM   36  O3  UNL     1      -2.319  54.777 -10.866  1.00  0.00    -0.391 OA
HETATM   37  H25 UNL     1      -2.000  55.471 -11.466  1.00  0.00     0.210 HD
ENDBRANCH   8  36
TORSDOF 7
ENDMDL
MODEL 8
REMARK minimizedAffinity -8.57376194
REMARK CNNscore 0.568143725
REMARK CNNaffinity 6.63511419
REMARK  7 active torsions:
REMARK  status: ('A' for Active; 'I' for Inactive)
REMARK    1  A    between atoms: O1_2  and  C2_3 
REMARK    2  A    between atoms: C2_3  and  C3_5 
REMARK    3  A    between atoms: C5_7  and  C6_8 
REMARK    4  A    between atoms: C6_8  and  C7_9 
REMARK    5  A    between atoms: C7_9  and  C8_10 
REMARK    6  A    between atoms: C8_10  and  C10_12 
REMARK    7  A    between atoms: C17_19  and  O3_20 
ROOT
HETATM    1  C10 UNL     1      -2.541  50.901 -17.428  1.00  0.00    -0.002 C 
HETATM    2  C11 UNL     1      -1.171  51.582 -17.559  1.00  0.00     0.007 C 
HETATM    3  C12 UNL     1      -0.992  51.788 -19.050  1.00  0.00     0.015 C 
HETATM    4  C13 UNL     1      -1.437  50.446 -19.674  1.00  0.00    -0.005 C 
HETATM    5  C14 UNL     1      -0.311  49.387 -19.467  1.00  0.00     0.021 C 
HETATM    6  C15 UNL     1      -1.706  50.615 -21.189  1.00  0.00     0.002 C 
HETATM    7  C16 UNL     1      -2.906  50.439 -21.800  1.00  0.00    -0.032 C 
HETATM    8  C17 UNL     1      -4.138  50.182 -20.944  1.00  0.00     0.149 C 
HETATM    9  C18 UNL     1      -3.985  50.635 -19.492  1.00  0.00     0.047 C 
HETATM   10  C19 UNL     1      -2.717  50.081 -18.788  1.00  0.00    -0.026 C 
HETATM   11  C20 UNL     1      -2.874  48.555 -18.599  1.00  0.00     0.016 C 
HETATM   12  C21 UNL     1      -3.140  50.534 -23.350  1.00  0.00    -0.012 C 
HETATM   13  C22 UNL     1      -4.013  49.330 -23.783  1.00  0.00     0.021 C 
HETATM   14  C23 UNL     1      -3.895  51.857 -23.653  1.00  0.00     0.021 C 
HETATM   15  C24 UNL     1      -4.086  52.136 -25.136  1.00  0.00     0.080 C 
HETATM   16  C25 UNL     1      -2.767  52.121 -25.871  1.00  0.00     0.135 C 
HETATM   17  O4  UNL     1      -2.473  53.050 -26.623  1.00  0.00    -0.297 OA
HETATM   18  C26 UNL     1      -1.878  50.880 -25.701  1.00  0.00     0.018 C 
HETATM   19  C27 UNL     1      -2.461  49.736 -26.560  1.00  0.00     0.023 C 
HETATM   20  C28 UNL     1      -0.484  51.185 -26.308  1.00  0.00     0.023 C 
HETATM   21  C29 UNL     1      -1.783  50.517 -24.158  1.00  0.00     0.020 C 
HETATM   22  C30 UNL     1      -0.773  51.435 -23.460  1.00  0.00     0.090 C 
HETATM   23  C31 UNL     1      -0.546  51.073 -22.022  1.00  0.00     0.157 C 
HETATM   24  O5  UNL     1       0.572  51.245 -21.538  1.00  0.00    -0.293 OA
ENDROOT
BRANCH   1  25
HETATM   25  C8  UNL     1      -2.725  50.190 -16.054  1.00  0.00    -0.014 C 
HETATM   26  C9  UNL     1      -1.449  49.435 -15.625  1.00  0.00     0.010 C 
BRANCH  25  27
HETATM   27  C7  UNL     1      -3.163  51.123 -14.899  1.00  0.00     0.008 C 
BRANCH  27  28
HETATM   28  C6  UNL     1      -2.379  50.970 -13.590  1.00  0.00     0.028 C 
BRANCH  28  29
HETATM   29  C5  UNL     1      -2.606  52.156 -12.692  1.00  0.00    -0.014 C 
HETATM   30  C3  UNL     1      -3.064  52.146 -11.422  1.00  0.00     0.009 C 
HETATM   31  C4  UNL     1      -3.472  50.922 -10.652  1.00  0.00     0.054 C 
BRANCH  30  32
HETATM   32  C2  UNL     1      -3.210  53.416 -10.639  1.00  0.00     0.288 C 
HETATM   33  O2  UNL     1      -4.247  54.065 -10.610  1.00  0.00    -0.260 OA
BRANCH  32  34
HETATM   34  O1  UNL     1      -2.061  53.747  -9.995  1.00  0.00    -0.323 OA
HETATM   35  C1  UNL     1      -1.585  55.059 -10.296  1.00  0.00     0.213 C 
ENDBRANCH  32  34
ENDBRANCH  30  32
ENDBRANCH  28  29
ENDBRANCH  27  28
ENDBRANCH  25  27
ENDBRANCH   1  25
BRANCH   8  36
HETATM   36  O3  UNL     1      -4.464  48.801 -21.005  1.00  0.00    -0.391 OA
HETATM   37  H25 UNL     1      -5.262  48.664 -20.467  1.00  0.00     0.210 HD
ENDBRANCH   8  36
TORSDOF 7
ENDMDL
MODEL 9
REMARK minimizedAffinity -9.46035194
REMARK CNNscore 0.503994942
REMARK CNNaffinity 7.29258966
REMARK  7 active torsions:
REMARK  status: ('A' for Active; 'I' for Inactive)
REMARK    1  A    between atoms: O1_2  and  C2_3 
REMARK    2  A    between atoms: C2_3  and  C3_5 
REMARK    3  A    between atoms: C5_7  and  C6_8 
REMARK    4  A    between atoms: C6_8  and  C7_9 
REMARK    5  A    between atoms: C7_9  and  C8_10 
REMARK    6  A    between atoms: C8_10  and  C10_12 
REMARK    7  A    between atoms: C17_19  and  O3_20 
ROOT
HETATM    1  C10 UNL     1      -0.330  50.046 -19.208  1.00  0.00    -0.002 C 
HETATM    2  C11 UNL     1      -1.355  49.033 -19.738  1.00  0.00     0.007 C 
HETATM    3  C12 UNL     1      -1.415  49.302 -21.229  1.00  0.00     0.015 C 
HETATM    4  C13 UNL     1      -1.476  50.842 -21.335  1.00  0.00    -0.005 C 
HETATM    5  C14 UNL     1      -2.914  51.323 -20.973  1.00  0.00     0.021 C 
HETATM    6  C15 UNL     1      -1.131  51.300 -22.773  1.00  0.00     0.002 C 
HETATM    7  C16 UNL     1      -0.065  52.066 -23.120  1.00  0.00    -0.032 C 
HETATM    8  C17 UNL     1       0.970  52.413 -22.060  1.00  0.00     0.149 C 
HETATM    9  C18 UNL     1       0.961  51.469 -20.858  1.00  0.00     0.047 C 
HETATM   10  C19 UNL     1      -0.436  51.289 -20.206  1.00  0.00    -0.026 C 
HETATM   11  C20 UNL     1      -0.850  52.618 -19.532  1.00  0.00     0.016 C 
HETATM   12  C21 UNL     1       0.221  52.590 -24.574  1.00  0.00    -0.012 C 
HETATM   13  C22 UNL     1       0.604  54.088 -24.481  1.00  0.00     0.021 C 
HETATM   14  C23 UNL     1       1.412  51.785 -25.160  1.00  0.00     0.021 C 
HETATM   15  C24 UNL     1       1.724  52.111 -26.613  1.00  0.00     0.080 C 
HETATM   16  C25 UNL     1       0.506  51.932 -27.488  1.00  0.00     0.135 C 
HETATM   17  O4  UNL     1       0.588  51.274 -28.526  1.00  0.00    -0.297 OA
HETATM   18  C26 UNL     1      -0.777  52.665 -27.071  1.00  0.00     0.018 C 
HETATM   19  C27 UNL     1      -0.632  54.158 -27.440  1.00  0.00     0.023 C 
HETATM   20  C28 UNL     1      -1.951  52.136 -27.935  1.00  0.00     0.023 C 
HETATM   21  C29 UNL     1      -1.032  52.426 -25.521  1.00  0.00     0.020 C 
HETATM   22  C30 UNL     1      -1.652  51.042 -25.295  1.00  0.00     0.090 C 
HETATM   23  C31 UNL     1      -2.027  50.793 -23.864  1.00  0.00     0.157 C 
HETATM   24  O5  UNL     1      -3.015  50.102 -23.622  1.00  0.00    -0.293 OA
ENDROOT
BRANCH   1  25
HETATM   25  C8  UNL     1      -0.448  50.264 -17.670  1.00  0.00    -0.014 C 
HETATM   26  C9  UNL     1      -0.847  48.967 -16.936  1.00  0.00     0.010 C 
BRANCH  25  27
HETATM   27  C7  UNL     1       0.824  50.842 -17.002  1.00  0.00     0.008 C 
BRANCH  27  28
HETATM   28  C6  UNL     1       0.662  51.286 -15.542  1.00  0.00     0.028 C 
BRANCH  28  29
HETATM   29  C5  UNL     1       1.646  50.570 -14.657  1.00  0.00    -0.014 C 
HETATM   30  C3  UNL     1       2.953  50.860 -14.484  1.00  0.00     0.009 C 
HETATM   31  C4  UNL     1       3.702  51.960 -15.181  1.00  0.00     0.054 C 
BRANCH  30  32
HETATM   32  C2  UNL     1       3.805  50.069 -13.537  1.00  0.00     0.288 C 
HETATM   33  O2  UNL     1       4.922  49.661 -13.829  1.00  0.00    -0.260 OA
BRANCH  32  34
HETATM   34  O1  UNL     1       3.180  49.860 -12.350  1.00  0.00    -0.323 OA
HETATM   35  C1  UNL     1       3.497  50.827 -11.349  1.00  0.00     0.213 C 
ENDBRANCH  32  34
ENDBRANCH  30  32
ENDBRANCH  28  29
ENDBRANCH  27  28
ENDBRANCH  25  27
ENDBRANCH   1  25
BRANCH   8  36
HETATM   36  O3  UNL     1       0.772  53.756 -21.641  1.00  0.00    -0.391 OA
HETATM   37  H25 UNL     1       1.453  53.961 -20.979  1.00  0.00     0.210 HD
ENDBRANCH   8  36
TORSDOF 7
ENDMDL
