MODEL 1
REMARK minimizedAffinity -7.61265659
REMARK CNNscore 0.717548847
REMARK CNNaffinity 6.3308053
REMARK  9 active torsions:
REMARK  status: ('A' for Active; 'I' for Inactive)
REMARK    1  A    between atoms: C2_2  and  C33_38 
REMARK    2  A    between atoms: C3_3  and  C4_4 
REMARK    3  A    between atoms: C4_4  and  O1_5 
REMARK    4  A    between atoms: C4_4  and  C5_6 
REMARK    5  A    between atoms: C5_6  and  C6_7 
REMARK    6  A    between atoms: C6_7  and  C8_9 
REMARK    7  A    between atoms: C10_11  and  O2_12 
REMARK    8  A    between atoms: C32_36  and  O5_37 
REMARK    9  A    between atoms: C33_38  and  O7_40 
ROOT
HETATM    1  C8  UNL     1      10.629  11.088  15.322  1.00  0.00     0.002 C 
HETATM    2  C9  UNL     1      10.259  10.736  16.782  1.00  0.00     0.038 C 
HETATM    3  C10 UNL     1       8.947   9.917  16.706  1.00  0.00     0.132 C 
HETATM    4  C11 UNL     1       8.776   9.546  15.197  1.00  0.00     0.017 C 
HETATM    5  C12 UNL     1       9.625   8.275  14.874  1.00  0.00     0.023 C 
HETATM    6  C13 UNL     1       7.372   9.252  14.646  1.00  0.00    -0.029 C 
HETATM    7  C14 UNL     1       7.044   9.605  13.374  1.00  0.00     0.003 C 
HETATM    8  C15 UNL     1       8.155  10.153  12.463  1.00  0.00     0.157 C 
HETATM    9  O3  UNL     1       8.011  10.224  11.244  1.00  0.00    -0.293 OA
HETATM   10  C16 UNL     1       9.457  10.659  13.065  1.00  0.00     0.094 C 
HETATM   11  C17 UNL     1       9.282  10.916  14.553  1.00  0.00    -0.016 C 
HETATM   12  C18 UNL     1       8.238  12.087  14.869  1.00  0.00     0.011 C 
HETATM   13  C19 UNL     1       7.731  12.989  13.720  1.00  0.00     0.001 C 
HETATM   14  C20 UNL     1       6.230  13.309  13.783  1.00  0.00     0.000 C 
HETATM   15  C21 UNL     1       5.267  12.111  13.799  1.00  0.00     0.001 C 
HETATM   16  C22 UNL     1       5.296  11.186  12.558  1.00  0.00     0.015 C 
HETATM   17  C23 UNL     1       5.585   9.647  12.833  1.00  0.00    -0.004 C 
HETATM   18  C24 UNL     1       5.456   8.858  11.486  1.00  0.00     0.022 C 
HETATM   19  C25 UNL     1       4.972   7.425  11.629  1.00  0.00     0.080 C 
HETATM   20  C26 UNL     1       3.578   7.390  12.201  1.00  0.00     0.135 C 
HETATM   21  O4  UNL     1       2.785   6.512  11.855  1.00  0.00    -0.297 OA
HETATM   22  C27 UNL     1       3.198   8.472  13.214  1.00  0.00     0.018 C 
HETATM   23  C28 UNL     1       2.277   7.832  14.279  1.00  0.00     0.023 C 
HETATM   24  C29 UNL     1       2.347   9.527  12.481  1.00  0.00     0.023 C 
HETATM   25  C30 UNL     1       4.498   9.090  13.868  1.00  0.00     0.017 C 
HETATM   26  C31 UNL     1       5.134   8.110  14.873  1.00  0.00     0.043 C 
HETATM   27  C32 UNL     1       6.355   8.668  15.591  1.00  0.00     0.149 C 
ENDROOT
BRANCH   1  28
HETATM   28  C6  UNL     1      11.569  12.309  15.097  1.00  0.00    -0.011 C 
HETATM   29  C7  UNL     1      11.107  13.054  13.829  1.00  0.00     0.010 C 
BRANCH  28  30
HETATM   30  C5  UNL     1      13.081  12.020  15.027  1.00  0.00     0.040 C 
BRANCH  30  31
HETATM   31  C4  UNL     1      13.865  12.133  16.350  1.00  0.00     0.142 C 
BRANCH  31  32
HETATM   32  C3  UNL     1      13.003  11.899  17.553  1.00  0.00     0.018 C 
HETATM   33  C2  UNL     1      13.221  12.296  18.824  1.00  0.00     0.010 C 
HETATM   34  C1  UNL     1      14.421  13.038  19.327  1.00  0.00     0.055 C 
BRANCH  33  35
HETATM   35  C33 UNL     1      12.167  11.941  19.810  1.00  0.00     0.171 C 
HETATM   36  O6  UNL     1      11.488  12.714  20.464  1.00  0.00    -0.646 OA
BRANCH  35  37
HETATM   37  O7  UNL     1      12.021  10.613  19.948  1.00  0.00    -0.773 OA
HETATM   38  H48 UNL     1      11.309  10.533  20.615  1.00  0.00     0.167 HD
ENDBRANCH  35  37
ENDBRANCH  33  35
ENDBRANCH  31  32
BRANCH  31  39
HETATM   39  O1  UNL     1      14.852  11.103  16.370  1.00  0.00    -0.392 OA
HETATM   40  H6  UNL     1      15.477  11.284  15.648  1.00  0.00     0.210 HD
ENDBRANCH  31  39
ENDBRANCH  30  31
ENDBRANCH  28  30
ENDBRANCH   1  28
BRANCH   3  41
HETATM   41  O2  UNL     1       8.986   8.775  17.548  1.00  0.00    -0.394 OA
HETATM   42  H17 UNL     1       9.279   9.067  18.431  1.00  0.00     0.210 HD
ENDBRANCH   3  41
BRANCH  27  43
HETATM   43  O5  UNL     1       6.887   7.566  16.316  1.00  0.00    -0.391 OA
HETATM   44  H47 UNL     1       7.638   7.879  16.859  1.00  0.00     0.210 HD
ENDBRANCH  27  43
TORSDOF 9
ENDMDL
MODEL 2
REMARK minimizedAffinity -8.64990425
REMARK CNNscore 0.659220695
REMARK CNNaffinity 6.71973944
REMARK  9 active torsions:
REMARK  status: ('A' for Active; 'I' for Inactive)
REMARK    1  A    between atoms: C2_2  and  C33_38 
REMARK    2  A    between atoms: C3_3  and  C4_4 
REMARK    3  A    between atoms: C4_4  and  O1_5 
REMARK    4  A    between atoms: C4_4  and  C5_6 
REMARK    5  A    between atoms: C5_6  and  C6_7 
REMARK    6  A    between atoms: C6_7  and  C8_9 
REMARK    7  A    between atoms: C10_11  and  O2_12 
REMARK    8  A    between atoms: C32_36  and  O5_37 
REMARK    9  A    between atoms: C33_38  and  O7_40 
ROOT
HETATM    1  C8  UNL     1       1.211   7.772  11.869  1.00  0.00     0.002 C 
HETATM    2  C9  UNL     1       0.864   7.114  13.227  1.00  0.00     0.038 C 
HETATM    3  C10 UNL     1       2.078   7.375  14.151  1.00  0.00     0.132 C 
HETATM    4  C11 UNL     1       2.942   8.447  13.411  1.00  0.00     0.017 C 
HETATM    5  C12 UNL     1       2.371   9.871  13.706  1.00  0.00     0.023 C 
HETATM    6  C13 UNL     1       4.447   8.540  13.706  1.00  0.00    -0.029 C 
HETATM    7  C14 UNL     1       5.322   8.873  12.720  1.00  0.00     0.003 C 
HETATM    8  C15 UNL     1       4.753   9.307  11.360  1.00  0.00     0.157 C 
HETATM    9  O3  UNL     1       5.448   9.885  10.526  1.00  0.00    -0.293 OA
HETATM   10  C16 UNL     1       3.310   8.991  10.998  1.00  0.00     0.094 C 
HETATM   11  C17 UNL     1       2.763   7.910  11.918  1.00  0.00    -0.016 C 
HETATM   12  C18 UNL     1       3.513   6.506  11.749  1.00  0.00     0.011 C 
HETATM   13  C19 UNL     1       4.477   6.293  10.560  1.00  0.00     0.001 C 
HETATM   14  C20 UNL     1       5.768   5.540  10.919  1.00  0.00     0.000 C 
HETATM   15  C21 UNL     1       6.639   6.151  12.028  1.00  0.00     0.001 C 
HETATM   16  C22 UNL     1       7.214   7.563  11.756  1.00  0.00     0.015 C 
HETATM   17  C23 UNL     1       6.864   8.684  12.828  1.00  0.00    -0.004 C 
HETATM   18  C24 UNL     1       7.625  10.001  12.450  1.00  0.00     0.022 C 
HETATM   19  C25 UNL     1       8.018  10.872  13.630  1.00  0.00     0.080 C 
HETATM   20  C26 UNL     1       8.985  10.144  14.529  1.00  0.00     0.135 C 
HETATM   21  O4  UNL     1       9.867  10.763  15.127  1.00  0.00    -0.297 OA
HETATM   22  C27 UNL     1       8.823   8.628  14.667  1.00  0.00     0.018 C 
HETATM   23  C28 UNL     1       9.154   8.239  16.127  1.00  0.00     0.023 C 
HETATM   24  C29 UNL     1       9.893   7.957  13.784  1.00  0.00     0.023 C 
HETATM   25  C30 UNL     1       7.354   8.196  14.271  1.00  0.00     0.017 C 
HETATM   26  C31 UNL     1       6.345   8.590  15.368  1.00  0.00     0.043 C 
HETATM   27  C32 UNL     1       4.918   8.144  15.081  1.00  0.00     0.149 C 
ENDROOT
BRANCH   1  28
HETATM   28  C6  UNL     1       0.457   7.252  10.609  1.00  0.00    -0.011 C 
HETATM   29  C7  UNL     1       0.204   8.444   9.665  1.00  0.00     0.010 C 
BRANCH  28  30
HETATM   30  C5  UNL     1      -0.852   6.476  10.852  1.00  0.00     0.040 C 
BRANCH  30  31
HETATM   31  C4  UNL     1      -0.708   5.032  11.377  1.00  0.00     0.142 C 
BRANCH  31  32
HETATM   32  C3  UNL     1      -1.867   4.163  11.000  1.00  0.00     0.018 C 
HETATM   33  C2  UNL     1      -3.057   4.045  11.625  1.00  0.00     0.010 C 
HETATM   34  C1  UNL     1      -3.470   4.743  12.884  1.00  0.00     0.055 C 
BRANCH  33  35
HETATM   35  C33 UNL     1      -4.037   3.118  10.999  1.00  0.00     0.171 C 
HETATM   36  O6  UNL     1      -4.626   2.201  11.544  1.00  0.00    -0.646 OA
BRANCH  35  37
HETATM   37  O7  UNL     1      -4.220   3.374   9.694  1.00  0.00    -0.773 OA
HETATM   38  H48 UNL     1      -4.876   2.699   9.421  1.00  0.00     0.167 HD
ENDBRANCH  35  37
ENDBRANCH  33  35
ENDBRANCH  31  32
BRANCH  31  39
HETATM   39  O1  UNL     1       0.436   4.448  10.756  1.00  0.00    -0.392 OA
HETATM   40  H6  UNL     1       1.217   4.944  11.056  1.00  0.00     0.210 HD
ENDBRANCH  31  39
ENDBRANCH  30  31
ENDBRANCH  28  30
ENDBRANCH   1  28
BRANCH   3  41
HETATM   41  O2  UNL     1       1.675   7.798  15.446  1.00  0.00    -0.394 OA
HETATM   42  H17 UNL     1       0.998   7.173  15.765  1.00  0.00     0.210 HD
ENDBRANCH   3  41
BRANCH  27  43
HETATM   43  O5  UNL     1       4.134   8.756  16.098  1.00  0.00    -0.391 OA
HETATM   44  H47 UNL     1       3.209   8.448  16.011  1.00  0.00     0.210 HD
ENDBRANCH  27  43
TORSDOF 9
ENDMDL
MODEL 3
REMARK minimizedAffinity -7.40374231
REMARK CNNscore 0.595512688
REMARK CNNaffinity 5.91061258
REMARK  9 active torsions:
REMARK  status: ('A' for Active; 'I' for Inactive)
REMARK    1  A    between atoms: C2_2  and  C33_38 
REMARK    2  A    between atoms: C3_3  and  C4_4 
REMARK    3  A    between atoms: C4_4  and  O1_5 
REMARK    4  A    between atoms: C4_4  and  C5_6 
REMARK    5  A    between atoms: C5_6  and  C6_7 
REMARK    6  A    between atoms: C6_7  and  C8_9 
REMARK    7  A    between atoms: C10_11  and  O2_12 
REMARK    8  A    between atoms: C32_36  and  O5_37 
REMARK    9  A    between atoms: C33_38  and  O7_40 
ROOT
HETATM    1  C8  UNL     1     -17.635   1.077  13.986  1.00  0.00     0.002 C 
HETATM    2  C9  UNL     1     -18.354   0.706  15.305  1.00  0.00     0.038 C 
HETATM    3  C10 UNL     1     -17.724  -0.627  15.776  1.00  0.00     0.132 C 
HETATM    4  C11 UNL     1     -16.446  -0.816  14.896  1.00  0.00     0.017 C 
HETATM    5  C12 UNL     1     -15.263  -0.002  15.514  1.00  0.00     0.023 C 
HETATM    6  C13 UNL     1     -15.891  -2.230  14.663  1.00  0.00    -0.029 C 
HETATM    7  C14 UNL     1     -15.314  -2.556  13.475  1.00  0.00     0.003 C 
HETATM    8  C15 UNL     1     -15.090  -1.436  12.446  1.00  0.00     0.157 C 
HETATM    9  O3  UNL     1     -14.334  -1.585  11.488  1.00  0.00    -0.293 OA
HETATM   10  C16 UNL     1     -15.838  -0.117  12.574  1.00  0.00     0.094 C 
HETATM   11  C17 UNL     1     -17.025  -0.278  13.511  1.00  0.00    -0.016 C 
HETATM   12  C18 UNL     1     -18.132  -1.289  12.951  1.00  0.00     0.011 C 
HETATM   13  C19 UNL     1     -18.050  -1.779  11.487  1.00  0.00     0.001 C 
HETATM   14  C20 UNL     1     -18.366  -3.271  11.301  1.00  0.00     0.000 C 
HETATM   15  C21 UNL     1     -17.505  -4.265  12.098  1.00  0.00     0.001 C 
HETATM   16  C22 UNL     1     -15.988  -4.267  11.790  1.00  0.00     0.015 C 
HETATM   17  C23 UNL     1     -15.018  -4.016  13.025  1.00  0.00    -0.004 C 
HETATM   18  C24 UNL     1     -13.535  -4.173  12.545  1.00  0.00     0.022 C 
HETATM   19  C25 UNL     1     -12.574  -4.693  13.600  1.00  0.00     0.080 C 
HETATM   20  C26 UNL     1     -12.961  -6.085  14.031  1.00  0.00     0.135 C 
HETATM   21  O4  UNL     1     -12.095  -6.902  14.348  1.00  0.00    -0.297 OA
HETATM   22  C27 UNL     1     -14.451  -6.430  14.060  1.00  0.00     0.018 C 
HETATM   23  C28 UNL     1     -14.706  -7.362  15.268  1.00  0.00     0.023 C 
HETATM   24  C29 UNL     1     -14.769  -7.258  12.799  1.00  0.00     0.023 C 
HETATM   25  C30 UNL     1     -15.318  -5.111  14.153  1.00  0.00     0.017 C 
HETATM   26  C31 UNL     1     -15.243  -4.496  15.564  1.00  0.00     0.043 C 
HETATM   27  C32 UNL     1     -16.109  -3.256  15.743  1.00  0.00     0.149 C 
ENDROOT
BRANCH   1  28
HETATM   28  C6  UNL     1     -18.373   2.047  13.017  1.00  0.00    -0.011 C 
HETATM   29  C7  UNL     1     -18.911   1.231  11.825  1.00  0.00     0.010 C 
BRANCH  28  30
HETATM   30  C5  UNL     1     -17.578   3.268  12.514  1.00  0.00     0.040 C 
BRANCH  30  31
HETATM   31  C4  UNL     1     -17.771   4.584  13.296  1.00  0.00     0.142 C 
BRANCH  31  32
HETATM   32  C3  UNL     1     -17.007   5.726  12.701  1.00  0.00     0.018 C 
HETATM   33  C2  UNL     1     -15.878   6.303  13.163  1.00  0.00     0.010 C 
HETATM   34  C1  UNL     1     -15.151   5.945  14.423  1.00  0.00     0.055 C 
BRANCH  33  35
HETATM   35  C33 UNL     1     -15.324   7.409  12.338  1.00  0.00     0.171 C 
HETATM   36  O6  UNL     1     -14.476   8.217  12.674  1.00  0.00    -0.646 OA
BRANCH  35  37
HETATM   37  O7  UNL     1     -15.880   7.463  11.117  1.00  0.00    -0.773 OA
HETATM   38  H48 UNL     1     -15.427   8.224  10.697  1.00  0.00     0.167 HD
ENDBRANCH  35  37
ENDBRANCH  33  35
ENDBRANCH  31  32
BRANCH  31  39
HETATM   39  O1  UNL     1     -19.147   4.949  13.215  1.00  0.00    -0.392 OA
HETATM   40  H6  UNL     1     -19.660   4.263  13.674  1.00  0.00     0.210 HD
ENDBRANCH  31  39
ENDBRANCH  30  31
ENDBRANCH  28  30
ENDBRANCH   1  28
BRANCH   3  41
HETATM   41  O2  UNL     1     -17.433  -0.613  17.166  1.00  0.00    -0.394 OA
HETATM   42  H17 UNL     1     -18.233  -0.308  17.633  1.00  0.00     0.210 HD
ENDBRANCH   3  41
BRANCH  27  43
HETATM   43  O5  UNL     1     -15.759  -2.750  17.025  1.00  0.00    -0.391 OA
HETATM   44  H47 UNL     1     -16.338  -1.987  17.232  1.00  0.00     0.210 HD
ENDBRANCH  27  43
TORSDOF 9
ENDMDL
MODEL 4
REMARK minimizedAffinity -7.46054697
REMARK CNNscore 0.533011734
REMARK CNNaffinity 6.28612137
REMARK  9 active torsions:
REMARK  status: ('A' for Active; 'I' for Inactive)
REMARK    1  A    between atoms: C2_2  and  C33_38 
REMARK    2  A    between atoms: C3_3  and  C4_4 
REMARK    3  A    between atoms: C4_4  and  O1_5 
REMARK    4  A    between atoms: C4_4  and  C5_6 
REMARK    5  A    between atoms: C5_6  and  C6_7 
REMARK    6  A    between atoms: C6_7  and  C8_9 
REMARK    7  A    between atoms: C10_11  and  O2_12 
REMARK    8  A    between atoms: C32_36  and  O5_37 
REMARK    9  A    between atoms: C33_38  and  O7_40 
ROOT
HETATM    1  C8  UNL     1      -1.652  10.314  16.686  1.00  0.00     0.002 C 
HETATM    2  C9  UNL     1      -0.361  10.343  17.539  1.00  0.00     0.038 C 
HETATM    3  C10 UNL     1       0.790   9.934  16.588  1.00  0.00     0.132 C 
HETATM    4  C11 UNL     1       0.183   9.998  15.149  1.00  0.00     0.017 C 
HETATM    5  C12 UNL     1       0.233  11.470  14.628  1.00  0.00     0.023 C 
HETATM    6  C13 UNL     1       0.801   9.146  14.030  1.00  0.00    -0.029 C 
HETATM    7  C14 UNL     1       0.014   8.613  13.057  1.00  0.00     0.003 C 
HETATM    8  C15 UNL     1      -1.468   9.017  13.019  1.00  0.00     0.157 C 
HETATM    9  O3  UNL     1      -2.166   8.813  12.027  1.00  0.00    -0.293 OA
HETATM   10  C16 UNL     1      -2.120   9.653  14.238  1.00  0.00     0.094 C 
HETATM   11  C17 UNL     1      -1.266   9.412  15.473  1.00  0.00    -0.016 C 
HETATM   12  C18 UNL     1      -1.154   7.865  15.866  1.00  0.00     0.011 C 
HETATM   13  C19 UNL     1      -2.077   6.833  15.177  1.00  0.00     0.001 C 
HETATM   14  C20 UNL     1      -1.380   5.518  14.795  1.00  0.00     0.000 C 
HETATM   15  C21 UNL     1      -0.154   5.627  13.875  1.00  0.00     0.001 C 
HETATM   16  C22 UNL     1      -0.397   6.224  12.468  1.00  0.00     0.015 C 
HETATM   17  C23 UNL     1       0.480   7.493  12.080  1.00  0.00    -0.004 C 
HETATM   18  C24 UNL     1       0.183   7.879  10.591  1.00  0.00     0.022 C 
HETATM   19  C25 UNL     1       1.352   8.503   9.849  1.00  0.00     0.080 C 
HETATM   20  C26 UNL     1       2.498   7.529   9.746  1.00  0.00     0.135 C 
HETATM   21  O4  UNL     1       3.229   7.530   8.754  1.00  0.00    -0.297 OA
HETATM   22  C27 UNL     1       2.711   6.559  10.910  1.00  0.00     0.018 C 
HETATM   23  C28 UNL     1       4.233   6.362  11.101  1.00  0.00     0.023 C 
HETATM   24  C29 UNL     1       2.145   5.188  10.490  1.00  0.00     0.023 C 
HETATM   25  C30 UNL     1       2.029   7.118  12.222  1.00  0.00     0.017 C 
HETATM   26  C31 UNL     1       2.838   8.292  12.810  1.00  0.00     0.043 C 
HETATM   27  C32 UNL     1       2.272   8.837  14.114  1.00  0.00     0.149 C 
ENDROOT
BRANCH   1  28
HETATM   28  C6  UNL     1      -3.005  10.164  17.442  1.00  0.00    -0.011 C 
HETATM   29  C7  UNL     1      -4.140  10.087  16.401  1.00  0.00     0.010 C 
BRANCH  28  30
HETATM   30  C5  UNL     1      -3.329  11.228  18.509  1.00  0.00     0.040 C 
BRANCH  30  31
HETATM   31  C4  UNL     1      -4.135  12.454  18.034  1.00  0.00     0.142 C 
BRANCH  31  32
HETATM   32  C3  UNL     1      -4.625  13.298  19.170  1.00  0.00     0.018 C 
HETATM   33  C2  UNL     1      -3.934  14.207  19.890  1.00  0.00     0.010 C 
HETATM   34  C1  UNL     1      -2.483  14.546  19.732  1.00  0.00     0.055 C 
BRANCH  33  35
HETATM   35  C33 UNL     1      -4.696  14.921  20.948  1.00  0.00     0.171 C 
HETATM   36  O6  UNL     1      -4.329  15.146  22.088  1.00  0.00    -0.646 OA
BRANCH  35  37
HETATM   37  O7  UNL     1      -5.911  15.309  20.527  1.00  0.00    -0.773 OA
HETATM   38  H48 UNL     1      -6.290  15.756  21.313  1.00  0.00     0.167 HD
ENDBRANCH  35  37
ENDBRANCH  33  35
ENDBRANCH  31  32
BRANCH  31  39
HETATM   39  O1  UNL     1      -3.265  13.289  17.273  1.00  0.00    -0.392 OA
HETATM   40  H6  UNL     1      -3.002  12.793  16.481  1.00  0.00     0.210 HD
ENDBRANCH  31  39
ENDBRANCH  30  31
ENDBRANCH  28  30
ENDBRANCH   1  28
BRANCH   3  41
HETATM   41  O2  UNL     1       1.925  10.774  16.740  1.00  0.00    -0.394 OA
HETATM   42  H17 UNL     1       2.130  10.827  17.692  1.00  0.00     0.210 HD
ENDBRANCH   3  41
BRANCH  27  43
HETATM   43  O5  UNL     1       3.038  10.006  14.382  1.00  0.00    -0.391 OA
HETATM   44  H47 UNL     1       2.769  10.366  15.252  1.00  0.00     0.210 HD
ENDBRANCH  27  43
TORSDOF 9
ENDMDL
MODEL 5
REMARK minimizedAffinity -7.58623695
REMARK CNNscore 0.515593767
REMARK CNNaffinity 6.65629816
REMARK  9 active torsions:
REMARK  status: ('A' for Active; 'I' for Inactive)
REMARK    1  A    between atoms: C2_2  and  C33_38 
REMARK    2  A    between atoms: C3_3  and  C4_4 
REMARK    3  A    between atoms: C4_4  and  O1_5 
REMARK    4  A    between atoms: C4_4  and  C5_6 
REMARK    5  A    between atoms: C5_6  and  C6_7 
REMARK    6  A    between atoms: C6_7  and  C8_9 
REMARK    7  A    between atoms: C10_11  and  O2_12 
REMARK    8  A    between atoms: C32_36  and  O5_37 
REMARK    9  A    between atoms: C33_38  and  O7_40 
ROOT
HETATM    1  C8  UNL     1       3.753   8.896  13.913  1.00  0.00     0.002 C 
HETATM    2  C9  UNL     1       3.542  10.295  14.540  1.00  0.00     0.038 C 
HETATM    3  C10 UNL     1       2.082  10.317  15.054  1.00  0.00     0.132 C 
HETATM    4  C11 UNL     1       1.599   8.832  15.002  1.00  0.00     0.017 C 
HETATM    5  C12 UNL     1       2.074   8.084  16.290  1.00  0.00     0.023 C 
HETATM    6  C13 UNL     1       0.098   8.528  14.883  1.00  0.00    -0.029 C 
HETATM    7  C14 UNL     1      -0.333   7.452  14.171  1.00  0.00     0.003 C 
HETATM    8  C15 UNL     1       0.720   6.470  13.633  1.00  0.00     0.157 C 
HETATM    9  O3  UNL     1       0.410   5.347  13.237  1.00  0.00    -0.293 OA
HETATM   10  C16 UNL     1       2.180   6.885  13.544  1.00  0.00     0.094 C 
HETATM   11  C17 UNL     1       2.301   8.399  13.636  1.00  0.00    -0.016 C 
HETATM   12  C18 UNL     1       1.614   9.157  12.405  1.00  0.00     0.011 C 
HETATM   13  C19 UNL     1       1.157   8.349  11.169  1.00  0.00     0.001 C 
HETATM   14  C20 UNL     1      -0.204   8.783  10.599  1.00  0.00     0.000 C 
HETATM   15  C21 UNL     1      -1.401   8.743  11.561  1.00  0.00     0.001 C 
HETATM   16  C22 UNL     1      -1.777   7.357  12.139  1.00  0.00     0.015 C 
HETATM   17  C23 UNL     1      -1.809   7.240  13.725  1.00  0.00    -0.004 C 
HETATM   18  C24 UNL     1      -2.322   5.813  14.118  1.00  0.00     0.022 C 
HETATM   19  C25 UNL     1      -3.093   5.749  15.425  1.00  0.00     0.080 C 
HETATM   20  C26 UNL     1      -4.353   6.572  15.339  1.00  0.00     0.135 C 
HETATM   21  O4  UNL     1      -5.369   6.219  15.940  1.00  0.00    -0.297 OA
HETATM   22  C27 UNL     1      -4.313   7.844  14.490  1.00  0.00     0.018 C 
HETATM   23  C28 UNL     1      -5.181   8.917  15.189  1.00  0.00     0.023 C 
HETATM   24  C29 UNL     1      -5.002   7.537  13.146  1.00  0.00     0.023 C 
HETATM   25  C30 UNL     1      -2.821   8.334  14.307  1.00  0.00     0.017 C 
HETATM   26  C31 UNL     1      -2.280   8.963  15.607  1.00  0.00     0.043 C 
HETATM   27  C32 UNL     1      -0.868   9.517  15.482  1.00  0.00     0.149 C 
ENDROOT
BRANCH   1  28
HETATM   28  C6  UNL     1       4.902   8.745  12.872  1.00  0.00    -0.011 C 
HETATM   29  C7  UNL     1       5.540   7.353  13.048  1.00  0.00     0.010 C 
BRANCH  28  30
HETATM   30  C5  UNL     1       5.990   9.836  12.873  1.00  0.00     0.040 C 
BRANCH  30  31
HETATM   31  C4  UNL     1       6.150  10.647  11.571  1.00  0.00     0.142 C 
BRANCH  31  32
HETATM   32  C3  UNL     1       7.584  10.825  11.176  1.00  0.00     0.018 C 
HETATM   33  C2  UNL     1       8.437  11.800  11.554  1.00  0.00     0.010 C 
HETATM   34  C1  UNL     1       8.117  12.964  12.440  1.00  0.00     0.055 C 
BRANCH  33  35
HETATM   35  C33 UNL     1       9.821  11.701  11.020  1.00  0.00     0.171 C 
HETATM   36  O6  UNL     1      10.306  12.362  10.118  1.00  0.00    -0.646 OA
BRANCH  35  37
HETATM   37  O7  UNL     1      10.541  10.750  11.639  1.00  0.00    -0.773 OA
HETATM   38  H48 UNL     1      11.411  10.799  11.191  1.00  0.00     0.167 HD
ENDBRANCH  35  37
ENDBRANCH  33  35
ENDBRANCH  31  32
BRANCH  31  39
HETATM   39  O1  UNL     1       5.541   9.911  10.513  1.00  0.00    -0.392 OA
HETATM   40  H6  UNL     1       4.590   9.857  10.704  1.00  0.00     0.210 HD
ENDBRANCH  31  39
ENDBRANCH  30  31
ENDBRANCH  28  30
ENDBRANCH   1  28
BRANCH   3  41
HETATM   41  O2  UNL     1       1.987  10.877  16.356  1.00  0.00    -0.394 OA
HETATM   42  H17 UNL     1       2.472  11.723  16.351  1.00  0.00     0.210 HD
ENDBRANCH   3  41
BRANCH  27  43
HETATM   43  O5  UNL     1      -0.497   9.872  16.808  1.00  0.00    -0.391 OA
HETATM   44  H47 UNL     1       0.381  10.305  16.785  1.00  0.00     0.210 HD
ENDBRANCH  27  43
TORSDOF 9
ENDMDL
MODEL 6
REMARK minimizedAffinity -7.41793919
REMARK CNNscore 0.501045704
REMARK CNNaffinity 6.66868448
REMARK  9 active torsions:
REMARK  status: ('A' for Active; 'I' for Inactive)
REMARK    1  A    between atoms: C2_2  and  C33_38 
REMARK    2  A    between atoms: C3_3  and  C4_4 
REMARK    3  A    between atoms: C4_4  and  O1_5 
REMARK    4  A    between atoms: C4_4  and  C5_6 
REMARK    5  A    between atoms: C5_6  and  C6_7 
REMARK    6  A    between atoms: C6_7  and  C8_9 
REMARK    7  A    between atoms: C10_11  and  O2_12 
REMARK    8  A    between atoms: C32_36  and  O5_37 
REMARK    9  A    between atoms: C33_38  and  O7_40 
ROOT
HETATM    1  C8  UNL     1     -11.457   8.494  14.469  1.00  0.00     0.002 C 
HETATM    2  C9  UNL     1     -11.324   8.787  12.955  1.00  0.00     0.038 C 
HETATM    3  C10 UNL     1     -12.736   9.197  12.472  1.00  0.00     0.132 C 
HETATM    4  C11 UNL     1     -13.566   9.443  13.774  1.00  0.00     0.017 C 
HETATM    5  C12 UNL     1     -13.292  10.888  14.302  1.00  0.00     0.023 C 
HETATM    6  C13 UNL     1     -15.096   9.305  13.733  1.00  0.00    -0.029 C 
HETATM    7  C14 UNL     1     -15.772   8.822  14.809  1.00  0.00     0.003 C 
HETATM    8  C15 UNL     1     -14.989   8.574  16.108  1.00  0.00     0.157 C 
HETATM    9  O3  UNL     1     -15.562   8.415  17.184  1.00  0.00    -0.293 OA
HETATM   10  C16 UNL     1     -13.471   8.481  16.080  1.00  0.00     0.094 C 
HETATM   11  C17 UNL     1     -12.986   8.247  14.658  1.00  0.00    -0.016 C 
HETATM   12  C18 UNL     1     -13.463   6.843  14.057  1.00  0.00     0.011 C 
HETATM   13  C19 UNL     1     -14.099   5.788  14.991  1.00  0.00     0.001 C 
HETATM   14  C20 UNL     1     -15.311   5.059  14.389  1.00  0.00     0.000 C 
HETATM   15  C21 UNL     1     -16.486   5.936  13.926  1.00  0.00     0.001 C 
HETATM   16  C22 UNL     1     -17.189   6.779  15.016  1.00  0.00     0.015 C 
HETATM   17  C23 UNL     1     -17.254   8.348  14.761  1.00  0.00    -0.004 C 
HETATM   18  C24 UNL     1     -18.101   9.013  15.900  1.00  0.00     0.022 C 
HETATM   19  C25 UNL     1     -18.869  10.254  15.483  1.00  0.00     0.080 C 
HETATM   20  C26 UNL     1     -19.890   9.918  14.426  1.00  0.00     0.135 C 
HETATM   21  O4  UNL     1     -20.964  10.521  14.384  1.00  0.00    -0.297 OA
HETATM   22  C27 UNL     1     -19.539   8.815  13.425  1.00  0.00     0.018 C 
HETATM   23  C28 UNL     1     -20.122   9.212  12.048  1.00  0.00     0.023 C 
HETATM   24  C29 UNL     1     -20.278   7.533  13.857  1.00  0.00     0.023 C 
HETATM   25  C30 UNL     1     -17.972   8.617  13.356  1.00  0.00     0.017 C 
HETATM   26  C31 UNL     1     -17.298   9.777  12.597  1.00  0.00     0.043 C 
HETATM   27  C32 UNL     1     -15.793   9.617  12.435  1.00  0.00     0.149 C 
ENDROOT
BRANCH   1  28
HETATM   28  C6  UNL     1     -10.377   7.580  15.118  1.00  0.00    -0.011 C 
HETATM   29  C7  UNL     1      -9.684   8.368  16.247  1.00  0.00     0.010 C 
BRANCH  28  30
HETATM   30  C5  UNL     1      -9.326   6.964  14.173  1.00  0.00     0.040 C 
BRANCH  30  31
HETATM   31  C4  UNL     1      -8.042   6.422  14.833  1.00  0.00     0.142 C 
BRANCH  31  32
HETATM   32  C3  UNL     1      -7.648   5.076  14.308  1.00  0.00     0.018 C 
HETATM   33  C2  UNL     1      -7.793   4.595  13.055  1.00  0.00     0.010 C 
HETATM   34  C1  UNL     1      -8.432   5.306  11.902  1.00  0.00     0.055 C 
BRANCH  33  35
HETATM   35  C33 UNL     1      -7.276   3.222  12.817  1.00  0.00     0.171 C 
HETATM   36  O6  UNL     1      -7.907   2.181  12.889  1.00  0.00    -0.646 OA
BRANCH  35  37
HETATM   37  O7  UNL     1      -5.968   3.214  12.513  1.00  0.00    -0.773 OA
HETATM   38  H48 UNL     1      -5.772   2.262  12.387  1.00  0.00     0.167 HD
ENDBRANCH  35  37
ENDBRANCH  33  35
ENDBRANCH  31  32
BRANCH  31  39
HETATM   39  O1  UNL     1      -6.968   7.300  14.502  1.00  0.00    -0.392 OA
HETATM   40  H6  UNL     1      -7.159   8.162  14.908  1.00  0.00     0.210 HD
ENDBRANCH  31  39
ENDBRANCH  30  31
ENDBRANCH  28  30
ENDBRANCH   1  28
BRANCH   3  41
HETATM   41  O2  UNL     1     -12.696  10.338  11.627  1.00  0.00    -0.394 OA
HETATM   42  H17 UNL     1     -12.020  10.177  10.943  1.00  0.00     0.210 HD
ENDBRANCH   3  41
BRANCH  27  43
HETATM   43  O5  UNL     1     -15.352  10.853  11.887  1.00  0.00    -0.391 OA
HETATM   44  H47 UNL     1     -14.395  10.787  11.691  1.00  0.00     0.210 HD
ENDBRANCH  27  43
TORSDOF 9
ENDMDL
MODEL 7
REMARK minimizedAffinity -8.91791058
REMARK CNNscore 0.500866055
REMARK CNNaffinity 6.90032387
REMARK  9 active torsions:
REMARK  status: ('A' for Active; 'I' for Inactive)
REMARK    1  A    between atoms: C2_2  and  C33_38 
REMARK    2  A    between atoms: C3_3  and  C4_4 
REMARK    3  A    between atoms: C4_4  and  O1_5 
REMARK    4  A    between atoms: C4_4  and  C5_6 
REMARK    5  A    between atoms: C5_6  and  C6_7 
REMARK    6  A    between atoms: C6_7  and  C8_9 
REMARK    7  A    between atoms: C10_11  and  O2_12 
REMARK    8  A    between atoms: C32_36  and  O5_37 
REMARK    9  A    between atoms: C33_38  and  O7_40 
ROOT
HETATM    1  C8  UNL     1      -2.156   5.975  12.761  1.00  0.00     0.002 C 
HETATM    2  C9  UNL     1      -3.038   5.142  13.721  1.00  0.00     0.038 C 
HETATM    3  C10 UNL     1      -3.649   6.151  14.725  1.00  0.00     0.132 C 
HETATM    4  C11 UNL     1      -3.364   7.563  14.120  1.00  0.00     0.017 C 
HETATM    5  C12 UNL     1      -4.459   7.907  13.059  1.00  0.00     0.023 C 
HETATM    6  C13 UNL     1      -3.298   8.784  15.050  1.00  0.00    -0.029 C 
HETATM    7  C14 UNL     1      -2.435   9.803  14.788  1.00  0.00     0.003 C 
HETATM    8  C15 UNL     1      -1.657   9.773  13.463  1.00  0.00     0.157 C 
HETATM    9  O3  UNL     1      -1.087  10.772  13.027  1.00  0.00    -0.293 OA
HETATM   10  C16 UNL     1      -1.542   8.478  12.672  1.00  0.00     0.094 C 
HETATM   11  C17 UNL     1      -1.896   7.292  13.555  1.00  0.00    -0.016 C 
HETATM   12  C18 UNL     1      -0.873   7.087  14.769  1.00  0.00     0.011 C 
HETATM   13  C19 UNL     1       0.453   7.881  14.793  1.00  0.00     0.001 C 
HETATM   14  C20 UNL     1       0.839   8.426  16.178  1.00  0.00     0.000 C 
HETATM   15  C21 UNL     1      -0.183   9.343  16.869  1.00  0.00     0.001 C 
HETATM   16  C22 UNL     1      -0.526  10.666  16.141  1.00  0.00     0.015 C 
HETATM   17  C23 UNL     1      -2.063  10.912  15.815  1.00  0.00    -0.004 C 
HETATM   18  C24 UNL     1      -2.228  12.341  15.193  1.00  0.00     0.022 C 
HETATM   19  C25 UNL     1      -3.552  13.020  15.495  1.00  0.00     0.080 C 
HETATM   20  C26 UNL     1      -3.705  13.253  16.976  1.00  0.00     0.135 C 
HETATM   21  O4  UNL     1      -4.302  14.247  17.392  1.00  0.00    -0.297 OA
HETATM   22  C27 UNL     1      -3.098  12.216  17.924  1.00  0.00     0.018 C 
HETATM   23  C28 UNL     1      -4.039  12.070  19.144  1.00  0.00     0.023 C 
HETATM   24  C29 UNL     1      -1.773  12.788  18.464  1.00  0.00     0.023 C 
HETATM   25  C30 UNL     1      -2.902  10.837  17.176  1.00  0.00     0.017 C 
HETATM   26  C31 UNL     1      -4.253  10.125  16.962  1.00  0.00     0.043 C 
HETATM   27  C32 UNL     1      -4.131   8.757  16.304  1.00  0.00     0.149 C 
ENDROOT
BRANCH   1  28
HETATM   28  C6  UNL     1      -1.027   5.224  11.995  1.00  0.00    -0.011 C 
HETATM   29  C7  UNL     1       0.032   4.763  13.015  1.00  0.00     0.010 C 
BRANCH  28  30
HETATM   30  C5  UNL     1      -0.356   5.977  10.830  1.00  0.00     0.040 C 
BRANCH  30  31
HETATM   31  C4  UNL     1       1.180   6.103  10.886  1.00  0.00     0.142 C 
BRANCH  31  32
HETATM   32  C3  UNL     1       1.767   6.594   9.599  1.00  0.00     0.018 C 
HETATM   33  C2  UNL     1       1.332   7.605   8.818  1.00  0.00     0.010 C 
HETATM   34  C1  UNL     1       0.115   8.447   9.053  1.00  0.00     0.055 C 
BRANCH  33  35
HETATM   35  C33 UNL     1       2.140   7.888   7.603  1.00  0.00     0.171 C 
HETATM   36  O6  UNL     1       2.983   8.758   7.472  1.00  0.00    -0.646 OA
BRANCH  35  37
HETATM   37  O7  UNL     1       1.838   7.065   6.585  1.00  0.00    -0.773 OA
HETATM   38  H48 UNL     1       2.436   7.364   5.869  1.00  0.00     0.167 HD
ENDBRANCH  35  37
ENDBRANCH  33  35
ENDBRANCH  31  32
BRANCH  31  39
HETATM   39  O1  UNL     1       1.508   7.086  11.866  1.00  0.00    -0.392 OA
HETATM   40  H6  UNL     1       1.214   6.749  12.729  1.00  0.00     0.210 HD
ENDBRANCH  31  39
ENDBRANCH  30  31
ENDBRANCH  28  30
ENDBRANCH   1  28
BRANCH   3  41
HETATM   41  O2  UNL     1      -5.034   5.916  14.935  1.00  0.00    -0.394 OA
HETATM   42  H17 UNL     1      -5.148   4.967  15.130  1.00  0.00     0.210 HD
ENDBRANCH   3  41
BRANCH  27  43
HETATM   43  O5  UNL     1      -5.470   8.363  16.033  1.00  0.00    -0.391 OA
HETATM   44  H47 UNL     1      -5.464   7.453  15.672  1.00  0.00     0.210 HD
ENDBRANCH  27  43
TORSDOF 9
ENDMDL
MODEL 8
REMARK minimizedAffinity -10.1802139
REMARK CNNscore 0.363590598
REMARK CNNaffinity 6.81078482
REMARK  9 active torsions:
REMARK  status: ('A' for Active; 'I' for Inactive)
REMARK    1  A    between atoms: C2_2  and  C33_38 
REMARK    2  A    between atoms: C3_3  and  C4_4 
REMARK    3  A    between atoms: C4_4  and  O1_5 
REMARK    4  A    between atoms: C4_4  and  C5_6 
REMARK    5  A    between atoms: C5_6  and  C6_7 
REMARK    6  A    between atoms: C6_7  and  C8_9 
REMARK    7  A    between atoms: C10_11  and  O2_12 
REMARK    8  A    between atoms: C32_36  and  O5_37 
REMARK    9  A    between atoms: C33_38  and  O7_40 
ROOT
HETATM    1  C8  UNL     1      -2.372   7.794  13.748  1.00  0.00     0.002 C 
HETATM    2  C9  UNL     1      -1.988   7.390  15.192  1.00  0.00     0.038 C 
HETATM    3  C10 UNL     1      -0.444   7.472  15.263  1.00  0.00     0.132 C 
HETATM    4  C11 UNL     1      -0.008   8.229  13.966  1.00  0.00     0.017 C 
HETATM    5  C12 UNL     1      -0.132   9.770  14.196  1.00  0.00     0.023 C 
HETATM    6  C13 UNL     1       1.405   8.011  13.404  1.00  0.00    -0.029 C 
HETATM    7  C14 UNL     1       1.621   8.023  12.061  1.00  0.00     0.003 C 
HETATM    8  C15 UNL     1       0.454   8.417  11.142  1.00  0.00     0.157 C 
HETATM    9  O3  UNL     1       0.636   8.725   9.965  1.00  0.00    -0.293 OA
HETATM   10  C16 UNL     1      -0.974   8.398  11.667  1.00  0.00     0.094 C 
HETATM   11  C17 UNL     1      -1.051   7.581  12.947  1.00  0.00    -0.016 C 
HETATM   12  C18 UNL     1      -0.708   6.034  12.724  1.00  0.00     0.011 C 
HETATM   13  C19 UNL     1      -0.602   5.474  11.287  1.00  0.00     0.001 C 
HETATM   14  C20 UNL     1       0.563   4.494  11.075  1.00  0.00     0.000 C 
HETATM   15  C21 UNL     1       1.972   5.013  11.400  1.00  0.00     0.001 C 
HETATM   16  C22 UNL     1       2.474   6.217  10.566  1.00  0.00     0.015 C 
HETATM   17  C23 UNL     1       2.924   7.504  11.386  1.00  0.00    -0.004 C 
HETATM   18  C24 UNL     1       3.508   8.562  10.389  1.00  0.00     0.022 C 
HETATM   19  C25 UNL     1       4.597   9.449  10.966  1.00  0.00     0.080 C 
HETATM   20  C26 UNL     1       5.798   8.627  11.362  1.00  0.00     0.135 C 
HETATM   21  O4  UNL     1       6.934   9.094  11.258  1.00  0.00    -0.297 OA
HETATM   22  C27 UNL     1       5.547   7.214  11.892  1.00  0.00     0.018 C 
HETATM   23  C28 UNL     1       6.580   6.927  13.007  1.00  0.00     0.023 C 
HETATM   24  C29 UNL     1       5.852   6.222  10.752  1.00  0.00     0.023 C 
HETATM   25  C30 UNL     1       4.065   7.084  12.427  1.00  0.00     0.017 C 
HETATM   26  C31 UNL     1       3.894   7.818  13.771  1.00  0.00     0.043 C 
HETATM   27  C32 UNL     1       2.505   7.678  14.378  1.00  0.00     0.149 C 
ENDROOT
BRANCH   1  28
HETATM   28  C6  UNL     1      -3.757   7.319  13.217  1.00  0.00    -0.011 C 
HETATM   29  C7  UNL     1      -4.738   8.506  13.282  1.00  0.00     0.010 C 
BRANCH  28  30
HETATM   30  C5  UNL     1      -4.373   6.078  13.891  1.00  0.00     0.040 C 
BRANCH  30  31
HETATM   31  C4  UNL     1      -5.752   6.269  14.555  1.00  0.00     0.142 C 
BRANCH  31  32
HETATM   32  C3  UNL     1      -6.730   5.202  14.171  1.00  0.00     0.018 C 
HETATM   33  C2  UNL     1      -6.551   4.179  13.309  1.00  0.00     0.010 C 
HETATM   34  C1  UNL     1      -5.320   3.908  12.499  1.00  0.00     0.055 C 
BRANCH  33  35
HETATM   35  C33 UNL     1      -7.700   3.250  13.148  1.00  0.00     0.171 C 
HETATM   36  O6  UNL     1      -7.647   2.058  12.898  1.00  0.00    -0.646 OA
BRANCH  35  37
HETATM   37  O7  UNL     1      -8.883   3.870  13.291  1.00  0.00    -0.773 OA
HETATM   38  H48 UNL     1      -9.533   3.149  13.161  1.00  0.00     0.167 HD
ENDBRANCH  35  37
ENDBRANCH  33  35
ENDBRANCH  31  32
BRANCH  31  39
HETATM   39  O1  UNL     1      -5.584   6.156  15.967  1.00  0.00    -0.392 OA
HETATM   40  H6  UNL     1      -5.021   6.893  16.254  1.00  0.00     0.210 HD
ENDBRANCH  31  39
ENDBRANCH  30  31
ENDBRANCH  28  30
ENDBRANCH   1  28
BRANCH   3  41
HETATM   41  O2  UNL     1      -0.003   8.119  16.448  1.00  0.00    -0.394 OA
HETATM   42  H17 UNL     1      -0.463   7.705  17.201  1.00  0.00     0.210 HD
ENDBRANCH   3  41
BRANCH  27  43
HETATM   43  O5  UNL     1       2.503   8.563  15.492  1.00  0.00    -0.391 OA
HETATM   44  H47 UNL     1       1.655   8.464  15.971  1.00  0.00     0.210 HD
ENDBRANCH  27  43
TORSDOF 9
ENDMDL
MODEL 9
REMARK minimizedAffinity -7.66373873
REMARK CNNscore 0.293546319
REMARK CNNaffinity 6.06878281
REMARK  9 active torsions:
REMARK  status: ('A' for Active; 'I' for Inactive)
REMARK    1  A    between atoms: C2_2  and  C33_38 
REMARK    2  A    between atoms: C3_3  and  C4_4 
REMARK    3  A    between atoms: C4_4  and  O1_5 
REMARK    4  A    between atoms: C4_4  and  C5_6 
REMARK    5  A    between atoms: C5_6  and  C6_7 
REMARK    6  A    between atoms: C6_7  and  C8_9 
REMARK    7  A    between atoms: C10_11  and  O2_12 
REMARK    8  A    between atoms: C32_36  and  O5_37 
REMARK    9  A    between atoms: C33_38  and  O7_40 
ROOT
HETATM    1  C8  UNL     1      -4.434   7.602  15.212  1.00  0.00     0.002 C 
HETATM    2  C9  UNL     1      -4.096   7.364  13.721  1.00  0.00     0.038 C 
HETATM    3  C10 UNL     1      -2.696   7.984  13.495  1.00  0.00     0.132 C 
HETATM    4  C11 UNL     1      -2.132   8.270  14.925  1.00  0.00     0.017 C 
HETATM    5  C12 UNL     1      -1.496   6.965  15.504  1.00  0.00     0.023 C 
HETATM    6  C13 UNL     1      -1.068   9.362  15.113  1.00  0.00    -0.029 C 
HETATM    7  C14 UNL     1      -1.050  10.116  16.245  1.00  0.00     0.003 C 
HETATM    8  C15 UNL     1      -2.010   9.739  17.385  1.00  0.00     0.157 C 
HETATM    9  O3  UNL     1      -1.861  10.178  18.523  1.00  0.00    -0.293 OA
HETATM   10  C16 UNL     1      -3.201   8.833  17.113  1.00  0.00     0.094 C 
HETATM   11  C17 UNL     1      -3.480   8.767  15.620  1.00  0.00    -0.016 C 
HETATM   12  C18 UNL     1      -3.926  10.174  15.003  1.00  0.00     0.011 C 
HETATM   13  C19 UNL     1      -4.281  11.345  15.948  1.00  0.00     0.001 C 
HETATM   14  C20 UNL     1      -3.742  12.711  15.493  1.00  0.00     0.000 C 
HETATM   15  C21 UNL     1      -2.224  12.820  15.282  1.00  0.00     0.001 C 
HETATM   16  C22 UNL     1      -1.335  12.578  16.526  1.00  0.00     0.015 C 
HETATM   17  C23 UNL     1      -0.237  11.435  16.396  1.00  0.00    -0.004 C 
HETATM   18  C24 UNL     1       0.635  11.419  17.697  1.00  0.00     0.022 C 
HETATM   19  C25 UNL     1       2.077  10.986  17.495  1.00  0.00     0.080 C 
HETATM   20  C26 UNL     1       2.799  11.951  16.590  1.00  0.00     0.135 C 
HETATM   21  O4  UNL     1       3.997  12.185  16.758  1.00  0.00    -0.297 OA
HETATM   22  C27 UNL     1       1.994  12.614  15.470  1.00  0.00     0.018 C 
HETATM   23  C28 UNL     1       2.912  12.752  14.233  1.00  0.00     0.023 C 
HETATM   24  C29 UNL     1       1.652  14.048  15.920  1.00  0.00     0.023 C 
HETATM   25  C30 UNL     1       0.705  11.759  15.143  1.00  0.00     0.017 C 
HETATM   26  C31 UNL     1       1.071  10.475  14.372  1.00  0.00     0.043 C 
HETATM   27  C32 UNL     1      -0.132   9.635  13.966  1.00  0.00     0.149 C 
ENDROOT
BRANCH   1  28
HETATM   28  C6  UNL     1      -5.938   7.573  15.618  1.00  0.00    -0.011 C 
HETATM   29  C7  UNL     1      -6.280   6.157  16.122  1.00  0.00     0.010 C 
BRANCH  28  30
HETATM   30  C5  UNL     1      -6.956   8.021  14.552  1.00  0.00     0.040 C 
BRANCH  30  31
HETATM   31  C4  UNL     1      -8.248   7.186  14.440  1.00  0.00     0.142 C 
BRANCH  31  32
HETATM   32  C3  UNL     1      -7.981   5.755  14.089  1.00  0.00     0.018 C 
HETATM   33  C2  UNL     1      -8.201   5.130  12.913  1.00  0.00     0.010 C 
HETATM   34  C1  UNL     1      -8.813   5.738  11.688  1.00  0.00     0.055 C 
BRANCH  33  35
HETATM   35  C33 UNL     1      -7.805   3.699  12.848  1.00  0.00     0.171 C 
HETATM   36  O6  UNL     1      -8.550   2.734  12.842  1.00  0.00    -0.646 OA
BRANCH  35  37
HETATM   37  O7  UNL     1      -6.473   3.538  12.813  1.00  0.00    -0.773 OA
HETATM   38  H48 UNL     1      -6.364   2.565  12.773  1.00  0.00     0.167 HD
ENDBRANCH  35  37
ENDBRANCH  33  35
ENDBRANCH  31  32
BRANCH  31  39
HETATM   39  O1  UNL     1      -8.873   7.164  15.722  1.00  0.00    -0.392 OA
HETATM   40  H6  UNL     1      -9.136   8.075  15.935  1.00  0.00     0.210 HD
ENDBRANCH  31  39
ENDBRANCH  30  31
ENDBRANCH  28  30
ENDBRANCH   1  28
BRANCH   3  41
HETATM   41  O2  UNL     1      -1.854   7.127  12.737  1.00  0.00    -0.394 OA
HETATM   42  H17 UNL     1      -2.351   6.847  11.946  1.00  0.00     0.210 HD
ENDBRANCH   3  41
BRANCH  27  43
HETATM   43  O5  UNL     1       0.422   8.433  13.445  1.00  0.00    -0.391 OA
HETATM   44  H47 UNL     1      -0.304   7.876  13.097  1.00  0.00     0.210 HD
ENDBRANCH  27  43
TORSDOF 9
ENDMDL
