MODEL 1
REMARK minimizedAffinity -7.40762281
REMARK CNNscore 0.497063994
REMARK CNNaffinity 6.71509171
REMARK  15 active torsions:
REMARK  status: ('A' for Active; 'I' for Inactive)
REMARK    1  A    between atoms: C2_2  and  C3_3 
REMARK    2  A    between atoms: C2_2  and  C35_44 
REMARK    3  A    between atoms: C3_3  and  C4_4 
REMARK    4  A    between atoms: C4_4  and  C5_5 
REMARK    5  A    between atoms: C5_5  and  C7_7 
REMARK    6  A    between atoms: C9_9  and  O1_10 
REMARK    7  A    between atoms: C10_11  and  C11_12 
REMARK    8  A    between atoms: C11_12  and  O3_14 
REMARK    9  A    between atoms: C22_25  and  O4_26 
REMARK   10  A    between atoms: O4_26  and  C23_27 
REMARK   11  A    between atoms: C24_29  and  C25_30 
REMARK   12  A    between atoms: C25_30  and  O6_31 
REMARK   13  A    between atoms: C26_32  and  O7_33 
REMARK   14  A    between atoms: C28_35  and  O8_36 
REMARK   15  A    between atoms: C29_37  and  O9_38 
ROOT
HETATM    1  C7  UNL     1      -2.337  51.099 -22.630  1.00  0.00     0.001 C 
HETATM    2  C8  UNL     1      -3.491  52.095 -22.305  1.00  0.00     0.039 C 
HETATM    3  C9  UNL     1      -4.540  51.314 -21.468  1.00  0.00     0.142 C 
HETATM    4  C10 UNL     1      -3.815  49.992 -21.087  1.00  0.00     0.102 C 
HETATM    5  C12 UNL     1      -4.599  48.757 -20.625  1.00  0.00    -0.054 C 
HETATM    6  C13 UNL     1      -4.123  47.508 -20.873  1.00  0.00    -0.067 C 
HETATM    7  C14 UNL     1      -2.847  47.277 -21.695  1.00  0.00     0.036 C 
HETATM    8  C15 UNL     1      -2.061  48.522 -22.159  1.00  0.00     0.015 C 
HETATM    9  C16 UNL     1      -2.998  49.706 -22.413  1.00  0.00    -0.016 C 
HETATM   10  C17 UNL     1      -3.893  49.316 -23.628  1.00  0.00     0.017 C 
HETATM   11  C18 UNL     1      -4.876  46.238 -20.385  1.00  0.00    -0.013 C 
HETATM   12  C19 UNL     1      -5.665  45.754 -21.633  1.00  0.00     0.021 C 
HETATM   13  C20 UNL     1      -3.879  45.141 -19.888  1.00  0.00     0.017 C 
HETATM   14  C21 UNL     1      -4.361  44.260 -18.723  1.00  0.00     0.037 C 
HETATM   15  C22 UNL     1      -5.866  44.003 -18.727  1.00  0.00     0.153 C 
HETATM   16  C30 UNL     1      -6.604  45.330 -18.669  1.00  0.00    -0.055 C 
HETATM   17  C31 UNL     1      -7.802  45.396 -18.058  1.00  0.00     0.017 C 
HETATM   18  C32 UNL     1      -5.842  46.562 -19.191  1.00  0.00     0.029 C 
HETATM   19  C33 UNL     1      -6.706  47.782 -19.524  1.00  0.00     0.014 C 
HETATM   20  C34 UNL     1      -5.839  49.009 -19.805  1.00  0.00     0.036 C 
ENDROOT
BRANCH  15  21
HETATM   21  O4  UNL     1      -6.143  43.282 -19.926  1.00  0.00    -0.349 OA
BRANCH  21  22
HETATM   22  C23 UNL     1      -5.963  41.866 -19.851  1.00  0.00     0.292 C 
HETATM   23  O5  UNL     1      -6.596  41.331 -18.696  1.00  0.00    -0.348 OA
HETATM   24  C24 UNL     1      -6.482  39.901 -18.577  1.00  0.00     0.179 C 
HETATM   25  C26 UNL     1      -6.092  39.148 -19.871  1.00  0.00     0.183 C 
HETATM   26  C28 UNL     1      -6.870  39.778 -21.039  1.00  0.00     0.183 C 
HETATM   27  C29 UNL     1      -6.623  41.292 -21.126  1.00  0.00     0.204 C 
BRANCH  24  28
HETATM   28  C25 UNL     1      -5.499  39.599 -17.439  1.00  0.00     0.198 C 
BRANCH  28  29
HETATM   29  O6  UNL     1      -6.220  39.303 -16.239  1.00  0.00    -0.398 OA
HETATM   30  H36 UNL     1      -7.029  39.852 -16.269  1.00  0.00     0.209 HD
ENDBRANCH  28  29
ENDBRANCH  24  28
BRANCH  25  31
HETATM   31  O7  UNL     1      -6.385  37.759 -19.643  1.00  0.00    -0.385 OA
HETATM   32  C27 UNL     1      -7.763  37.463 -19.473  1.00  0.00     0.202 C 
ENDBRANCH  25  31
BRANCH  26  33
HETATM   33  O8  UNL     1      -6.480  39.205 -22.298  1.00  0.00    -0.390 OA
HETATM   34  H42 UNL     1      -7.121  39.549 -22.952  1.00  0.00     0.210 HD
ENDBRANCH  26  33
BRANCH  27  35
HETATM   35  O9  UNL     1      -7.893  41.928 -21.394  1.00  0.00    -0.388 OA
HETATM   36  H44 UNL     1      -7.820  42.818 -20.987  1.00  0.00     0.210 HD
ENDBRANCH  27  35
ENDBRANCH  21  22
ENDBRANCH  15  21
BRANCH   4  37
HETATM   37  C11 UNL     1      -2.897  50.267 -19.846  1.00  0.00     0.156 C 
HETATM   38  O2  UNL     1      -1.900  49.645 -19.501  1.00  0.00    -0.649 OA
BRANCH  37  39
HETATM   39  O3  UNL     1      -3.279  51.298 -19.063  1.00  0.00    -0.775 OA
HETATM   40  H16 UNL     1      -2.610  51.292 -18.344  1.00  0.00     0.167 HD
ENDBRANCH  37  39
ENDBRANCH   4  37
BRANCH   3  41
HETATM   41  O1  UNL     1      -5.689  51.125 -22.299  1.00  0.00    -0.394 OA
HETATM   42  H15 UNL     1      -6.480  51.153 -21.735  1.00  0.00     0.210 HD
ENDBRANCH   3  41
BRANCH   1  43
HETATM   43  C5  UNL     1      -1.521  51.478 -23.899  1.00  0.00    -0.013 C 
HETATM   44  C6  UNL     1      -2.252  52.542 -24.729  1.00  0.00     0.010 C 
BRANCH  43  45
HETATM   45  C4  UNL     1      -0.040  51.872 -23.695  1.00  0.00     0.009 C 
BRANCH  45  46
HETATM   46  C3  UNL     1       0.550  52.750 -24.817  1.00  0.00     0.034 C 
BRANCH  46  47
HETATM   47  C2  UNL     1       1.085  52.064 -26.071  1.00  0.00    -0.086 C 
HETATM   48  C1  UNL     1       2.217  51.336 -26.064  1.00  0.00     0.014 C 
BRANCH  47  49
HETATM   49  C35 UNL     1       0.239  52.288 -27.328  1.00  0.00     0.005 C 
HETATM   50  C36 UNL     1       0.856  51.785 -28.641  1.00  0.00     0.014 C 
HETATM   51  C37 UNL     1      -0.122  53.772 -27.476  1.00  0.00     0.014 C 
ENDBRANCH  47  49
ENDBRANCH  46  47
ENDBRANCH  45  46
ENDBRANCH  43  45
ENDBRANCH   1  43
TORSDOF 15
ENDMDL
MODEL 2
REMARK minimizedAffinity -7.71423721
REMARK CNNscore 0.380230546
REMARK CNNaffinity 6.65096998
REMARK  15 active torsions:
REMARK  status: ('A' for Active; 'I' for Inactive)
REMARK    1  A    between atoms: C2_2  and  C3_3 
REMARK    2  A    between atoms: C2_2  and  C35_44 
REMARK    3  A    between atoms: C3_3  and  C4_4 
REMARK    4  A    between atoms: C4_4  and  C5_5 
REMARK    5  A    between atoms: C5_5  and  C7_7 
REMARK    6  A    between atoms: C9_9  and  O1_10 
REMARK    7  A    between atoms: C10_11  and  C11_12 
REMARK    8  A    between atoms: C11_12  and  O3_14 
REMARK    9  A    between atoms: C22_25  and  O4_26 
REMARK   10  A    between atoms: O4_26  and  C23_27 
REMARK   11  A    between atoms: C24_29  and  C25_30 
REMARK   12  A    between atoms: C25_30  and  O6_31 
REMARK   13  A    between atoms: C26_32  and  O7_33 
REMARK   14  A    between atoms: C28_35  and  O8_36 
REMARK   15  A    between atoms: C29_37  and  O9_38 
ROOT
HETATM    1  C7  UNL     1     -16.380  46.078 -19.009  1.00  0.00     0.001 C 
HETATM    2  C8  UNL     1     -16.261  44.572 -18.620  1.00  0.00     0.039 C 
HETATM    3  C9  UNL     1     -14.759  44.297 -18.335  1.00  0.00     0.142 C 
HETATM    4  C10 UNL     1     -14.117  45.713 -18.278  1.00  0.00     0.102 C 
HETATM    5  C12 UNL     1     -12.604  45.909 -18.435  1.00  0.00    -0.054 C 
HETATM    6  C13 UNL     1     -12.111  47.052 -18.983  1.00  0.00    -0.067 C 
HETATM    7  C14 UNL     1     -13.035  48.142 -19.546  1.00  0.00     0.036 C 
HETATM    8  C15 UNL     1     -14.557  47.941 -19.387  1.00  0.00     0.015 C 
HETATM    9  C16 UNL     1     -14.926  46.455 -19.419  1.00  0.00    -0.016 C 
HETATM   10  C17 UNL     1     -14.598  45.943 -20.854  1.00  0.00     0.017 C 
HETATM   11  C18 UNL     1     -10.582  47.296 -19.122  1.00  0.00    -0.013 C 
HETATM   12  C19 UNL     1     -10.264  46.923 -20.596  1.00  0.00     0.021 C 
HETATM   13  C20 UNL     1     -10.214  48.786 -18.825  1.00  0.00     0.017 C 
HETATM   14  C21 UNL     1      -8.851  49.030 -18.154  1.00  0.00     0.037 C 
HETATM   15  C22 UNL     1      -7.775  48.026 -18.562  1.00  0.00     0.153 C 
HETATM   16  C30 UNL     1      -8.241  46.621 -18.217  1.00  0.00    -0.055 C 
HETATM   17  C31 UNL     1      -7.331  45.685 -17.886  1.00  0.00     0.017 C 
HETATM   18  C32 UNL     1      -9.762  46.407 -18.121  1.00  0.00     0.029 C 
HETATM   19  C33 UNL     1     -10.232  44.950 -18.197  1.00  0.00     0.014 C 
HETATM   20  C34 UNL     1     -11.717  44.834 -17.859  1.00  0.00     0.036 C 
ENDROOT
BRANCH  15  21
HETATM   21  O4  UNL     1      -7.578  48.202 -19.963  1.00  0.00    -0.349 OA
BRANCH  21  22
HETATM   22  C23 UNL     1      -6.294  48.696 -20.349  1.00  0.00     0.292 C 
HETATM   23  O5  UNL     1      -6.345  50.089 -20.630  1.00  0.00    -0.348 OA
HETATM   24  C24 UNL     1      -5.074  50.659 -20.994  1.00  0.00     0.179 C 
HETATM   25  C26 UNL     1      -3.830  49.818 -20.621  1.00  0.00     0.183 C 
HETATM   26  C28 UNL     1      -4.055  49.237 -19.215  1.00  0.00     0.183 C 
HETATM   27  C29 UNL     1      -5.364  48.438 -19.141  1.00  0.00     0.204 C 
BRANCH  24  28
HETATM   28  C25 UNL     1      -5.109  50.967 -22.496  1.00  0.00     0.198 C 
BRANCH  28  29
HETATM   29  O6  UNL     1      -6.464  51.100 -22.935  1.00  0.00    -0.398 OA
HETATM   30  H36 UNL     1      -6.986  50.478 -22.389  1.00  0.00     0.209 HD
ENDBRANCH  28  29
ENDBRANCH  24  28
BRANCH  25  31
HETATM   31  O7  UNL     1      -2.695  50.694 -20.727  1.00  0.00    -0.385 OA
HETATM   32  C27 UNL     1      -1.622  50.185 -21.505  1.00  0.00     0.202 C 
ENDBRANCH  25  31
BRANCH  26  33
HETATM   33  O8  UNL     1      -2.987  48.351 -18.837  1.00  0.00    -0.390 OA
HETATM   34  H42 UNL     1      -3.134  48.155 -17.891  1.00  0.00     0.210 HD
ENDBRANCH  26  33
BRANCH  27  35
HETATM   35  O9  UNL     1      -6.014  48.776 -17.895  1.00  0.00    -0.388 OA
HETATM   36  H44 UNL     1      -6.972  48.667 -18.072  1.00  0.00     0.210 HD
ENDBRANCH  27  35
ENDBRANCH  21  22
ENDBRANCH  15  21
BRANCH   4  37
HETATM   37  C11 UNL     1     -14.369  46.317 -16.853  1.00  0.00     0.156 C 
HETATM   38  O2  UNL     1     -14.362  45.726 -15.780  1.00  0.00    -0.649 OA
BRANCH  37  39
HETATM   39  O3  UNL     1     -14.648  47.636 -16.826  1.00  0.00    -0.775 OA
HETATM   40  H16 UNL     1     -14.797  47.813 -15.871  1.00  0.00     0.167 HD
ENDBRANCH  37  39
ENDBRANCH   4  37
BRANCH   3  41
HETATM   41  O1  UNL     1     -14.268  43.482 -19.403  1.00  0.00    -0.394 OA
HETATM   42  H15 UNL     1     -13.594  42.882 -19.043  1.00  0.00     0.210 HD
ENDBRANCH   3  41
BRANCH   1  43
HETATM   43  C5  UNL     1     -17.632  46.402 -19.875  1.00  0.00    -0.013 C 
HETATM   44  C6  UNL     1     -18.260  47.739 -19.460  1.00  0.00     0.010 C 
BRANCH  43  45
HETATM   45  C4  UNL     1     -17.466  46.333 -21.410  1.00  0.00     0.009 C 
BRANCH  45  46
HETATM   46  C3  UNL     1     -18.789  46.212 -22.193  1.00  0.00     0.034 C 
BRANCH  46  47
HETATM   47  C2  UNL     1     -18.729  46.180 -23.718  1.00  0.00    -0.086 C 
HETATM   48  C1  UNL     1     -18.326  47.240 -24.444  1.00  0.00     0.014 C 
BRANCH  47  49
HETATM   49  C35 UNL     1     -19.181  44.857 -24.345  1.00  0.00     0.005 C 
HETATM   50  C36 UNL     1     -19.553  44.922 -25.833  1.00  0.00     0.014 C 
HETATM   51  C37 UNL     1     -20.355  44.262 -23.557  1.00  0.00     0.014 C 
ENDBRANCH  47  49
ENDBRANCH  46  47
ENDBRANCH  45  46
ENDBRANCH  43  45
ENDBRANCH   1  43
TORSDOF 15
ENDMDL
MODEL 3
REMARK minimizedAffinity -8.6461401
REMARK CNNscore 0.360009432
REMARK CNNaffinity 6.77927017
REMARK  15 active torsions:
REMARK  status: ('A' for Active; 'I' for Inactive)
REMARK    1  A    between atoms: C2_2  and  C3_3 
REMARK    2  A    between atoms: C2_2  and  C35_44 
REMARK    3  A    between atoms: C3_3  and  C4_4 
REMARK    4  A    between atoms: C4_4  and  C5_5 
REMARK    5  A    between atoms: C5_5  and  C7_7 
REMARK    6  A    between atoms: C9_9  and  O1_10 
REMARK    7  A    between atoms: C10_11  and  C11_12 
REMARK    8  A    between atoms: C11_12  and  O3_14 
REMARK    9  A    between atoms: C22_25  and  O4_26 
REMARK   10  A    between atoms: O4_26  and  C23_27 
REMARK   11  A    between atoms: C24_29  and  C25_30 
REMARK   12  A    between atoms: C25_30  and  O6_31 
REMARK   13  A    between atoms: C26_32  and  O7_33 
REMARK   14  A    between atoms: C28_35  and  O8_36 
REMARK   15  A    between atoms: C29_37  and  O9_38 
ROOT
HETATM    1  C7  UNL     1      -3.153  50.803 -24.795  1.00  0.00     0.001 C 
HETATM    2  C8  UNL     1      -4.404  51.734 -24.811  1.00  0.00     0.039 C 
HETATM    3  C9  UNL     1      -5.260  51.360 -23.571  1.00  0.00     0.142 C 
HETATM    4  C10 UNL     1      -4.329  50.444 -22.727  1.00  0.00     0.102 C 
HETATM    5  C12 UNL     1      -4.893  49.517 -21.642  1.00  0.00    -0.054 C 
HETATM    6  C13 UNL     1      -4.270  48.345 -21.347  1.00  0.00    -0.067 C 
HETATM    7  C14 UNL     1      -3.047  47.858 -22.138  1.00  0.00     0.036 C 
HETATM    8  C15 UNL     1      -2.483  48.793 -23.229  1.00  0.00     0.015 C 
HETATM    9  C16 UNL     1      -3.593  49.631 -23.869  1.00  0.00    -0.016 C 
HETATM   10  C17 UNL     1      -4.523  48.637 -24.629  1.00  0.00     0.017 C 
HETATM   11  C18 UNL     1      -4.795  47.402 -20.228  1.00  0.00    -0.013 C 
HETATM   12  C19 UNL     1      -5.611  46.319 -20.988  1.00  0.00     0.021 C 
HETATM   13  C20 UNL     1      -3.617  46.760 -19.425  1.00  0.00     0.017 C 
HETATM   14  C21 UNL     1      -3.874  46.503 -17.930  1.00  0.00     0.037 C 
HETATM   15  C22 UNL     1      -5.324  46.150 -17.605  1.00  0.00     0.153 C 
HETATM   16  C30 UNL     1      -6.232  47.279 -18.066  1.00  0.00    -0.055 C 
HETATM   17  C31 UNL     1      -7.372  47.527 -17.394  1.00  0.00     0.017 C 
HETATM   18  C32 UNL     1      -5.695  48.173 -19.199  1.00  0.00     0.029 C 
HETATM   19  C33 UNL     1      -6.745  49.011 -19.934  1.00  0.00     0.014 C 
HETATM   20  C34 UNL     1      -6.083  50.024 -20.868  1.00  0.00     0.036 C 
ENDROOT
BRANCH  15  21
HETATM   21  O4  UNL     1      -5.596  44.926 -18.284  1.00  0.00    -0.349 OA
BRANCH  21  22
HETATM   22  C23 UNL     1      -4.954  43.767 -17.749  1.00  0.00     0.292 C 
HETATM   23  O5  UNL     1      -5.886  42.931 -17.077  1.00  0.00    -0.348 OA
HETATM   24  C24 UNL     1      -5.309  41.725 -16.542  1.00  0.00     0.179 C 
HETATM   25  C26 UNL     1      -3.932  41.325 -17.120  1.00  0.00     0.183 C 
HETATM   26  C28 UNL     1      -3.965  41.571 -18.639  1.00  0.00     0.183 C 
HETATM   27  C29 UNL     1      -4.356  43.020 -18.964  1.00  0.00     0.204 C 
BRANCH  24  28
HETATM   28  C25 UNL     1      -5.253  41.866 -15.015  1.00  0.00     0.198 C 
BRANCH  28  29
HETATM   29  O6  UNL     1      -6.577  41.997 -14.489  1.00  0.00    -0.398 OA
HETATM   30  H36 UNL     1      -7.089  42.482 -15.167  1.00  0.00     0.209 HD
ENDBRANCH  28  29
ENDBRANCH  24  28
BRANCH  25  31
HETATM   31  O7  UNL     1      -3.710  39.955 -16.746  1.00  0.00    -0.385 OA
HETATM   32  C27 UNL     1      -4.556  39.017 -17.395  1.00  0.00     0.202 C 
ENDBRANCH  25  31
BRANCH  26  33
HETATM   33  O8  UNL     1      -2.682  41.326 -19.238  1.00  0.00    -0.390 OA
HETATM   34  H42 UNL     1      -2.835  41.358 -20.203  1.00  0.00     0.210 HD
ENDBRANCH  26  33
BRANCH  27  35
HETATM   35  O9  UNL     1      -5.286  42.985 -20.069  1.00  0.00    -0.388 OA
HETATM   36  H44 UNL     1      -5.853  43.777 -19.948  1.00  0.00     0.210 HD
ENDBRANCH  27  35
ENDBRANCH  21  22
ENDBRANCH  15  21
BRANCH   4  37
HETATM   37  C11 UNL     1      -3.358  51.352 -21.895  1.00  0.00     0.156 C 
HETATM   38  O2  UNL     1      -2.454  52.062 -22.317  1.00  0.00    -0.649 OA
BRANCH  37  39
HETATM   39  O3  UNL     1      -3.537  51.315 -20.558  1.00  0.00    -0.775 OA
HETATM   40  H16 UNL     1      -2.835  51.914 -20.222  1.00  0.00     0.167 HD
ENDBRANCH  37  39
ENDBRANCH   4  37
BRANCH   3  41
HETATM   41  O1  UNL     1      -6.437  50.704 -24.051  1.00  0.00    -0.394 OA
HETATM   42  H15 UNL     1      -7.175  50.931 -23.460  1.00  0.00     0.210 HD
ENDBRANCH   3  41
BRANCH   1  43
HETATM   43  C5  UNL     1      -2.506  50.599 -26.196  1.00  0.00    -0.013 C 
HETATM   44  C6  UNL     1      -2.856  51.757 -27.140  1.00  0.00     0.010 C 
BRANCH  43  45
HETATM   45  C4  UNL     1      -0.989  50.303 -26.237  1.00  0.00     0.009 C 
BRANCH  45  46
HETATM   46  C3  UNL     1      -0.145  51.147 -25.260  1.00  0.00     0.034 C 
BRANCH  46  47
HETATM   47  C2  UNL     1       0.440  52.465 -25.758  1.00  0.00    -0.086 C 
HETATM   48  C1  UNL     1       0.040  53.657 -25.275  1.00  0.00     0.014 C 
BRANCH  47  49
HETATM   49  C35 UNL     1       1.497  52.317 -26.856  1.00  0.00     0.005 C 
HETATM   50  C36 UNL     1       0.958  51.987 -28.255  1.00  0.00     0.014 C 
HETATM   51  C37 UNL     1       2.543  51.268 -26.458  1.00  0.00     0.014 C 
ENDBRANCH  47  49
ENDBRANCH  46  47
ENDBRANCH  45  46
ENDBRANCH  43  45
ENDBRANCH   1  43
TORSDOF 15
ENDMDL
MODEL 4
REMARK minimizedAffinity -7.74126911
REMARK CNNscore 0.354347587
REMARK CNNaffinity 6.47431183
REMARK  15 active torsions:
REMARK  status: ('A' for Active; 'I' for Inactive)
REMARK    1  A    between atoms: C2_2  and  C3_3 
REMARK    2  A    between atoms: C2_2  and  C35_44 
REMARK    3  A    between atoms: C3_3  and  C4_4 
REMARK    4  A    between atoms: C4_4  and  C5_5 
REMARK    5  A    between atoms: C5_5  and  C7_7 
REMARK    6  A    between atoms: C9_9  and  O1_10 
REMARK    7  A    between atoms: C10_11  and  C11_12 
REMARK    8  A    between atoms: C11_12  and  O3_14 
REMARK    9  A    between atoms: C22_25  and  O4_26 
REMARK   10  A    between atoms: O4_26  and  C23_27 
REMARK   11  A    between atoms: C24_29  and  C25_30 
REMARK   12  A    between atoms: C25_30  and  O6_31 
REMARK   13  A    between atoms: C26_32  and  O7_33 
REMARK   14  A    between atoms: C28_35  and  O8_36 
REMARK   15  A    between atoms: C29_37  and  O9_38 
ROOT
HETATM    1  C7  UNL     1      -0.364  53.183  -9.342  1.00  0.00     0.001 C 
HETATM    2  C8  UNL     1      -1.409  52.442  -8.452  1.00  0.00     0.039 C 
HETATM    3  C9  UNL     1      -2.014  51.304  -9.318  1.00  0.00     0.142 C 
HETATM    4  C10 UNL     1      -1.087  51.241 -10.566  1.00  0.00     0.102 C 
HETATM    5  C12 UNL     1      -1.541  50.560 -11.863  1.00  0.00    -0.054 C 
HETATM    6  C13 UNL     1      -1.077  50.992 -13.066  1.00  0.00    -0.067 C 
HETATM    7  C14 UNL     1      -0.166  52.222 -13.187  1.00  0.00     0.036 C 
HETATM    8  C15 UNL     1       0.288  52.906 -11.879  1.00  0.00     0.015 C 
HETATM    9  C16 UNL     1      -0.778  52.778 -10.787  1.00  0.00    -0.016 C 
HETATM   10  C17 UNL     1      -2.011  53.601 -11.268  1.00  0.00     0.017 C 
HETATM   11  C18 UNL     1      -1.490  50.298 -14.395  1.00  0.00    -0.013 C 
HETATM   12  C19 UNL     1      -2.628  51.192 -14.960  1.00  0.00     0.021 C 
HETATM   13  C20 UNL     1      -0.288  50.219 -15.393  1.00  0.00     0.017 C 
HETATM   14  C21 UNL     1      -0.240  48.981 -16.304  1.00  0.00     0.037 C 
HETATM   15  C22 UNL     1      -1.617  48.451 -16.697  1.00  0.00     0.153 C 
HETATM   16  C30 UNL     1      -2.399  48.101 -15.442  1.00  0.00    -0.055 C 
HETATM   17  C31 UNL     1      -3.298  47.099 -15.481  1.00  0.00     0.017 C 
HETATM   18  C32 UNL     1      -1.987  48.830 -14.150  1.00  0.00     0.029 C 
HETATM   19  C33 UNL     1      -3.018  48.801 -13.016  1.00  0.00     0.014 C 
HETATM   20  C34 UNL     1      -2.421  49.343 -11.718  1.00  0.00     0.036 C 
ENDROOT
BRANCH  15  21
HETATM   21  O4  UNL     1      -2.241  49.489 -17.450  1.00  0.00    -0.349 OA
BRANCH  21  22
HETATM   22  C23 UNL     1      -1.760  49.659 -18.785  1.00  0.00     0.292 C 
HETATM   23  O5  UNL     1      -2.693  49.157 -19.732  1.00  0.00    -0.348 OA
HETATM   24  C24 UNL     1      -2.285  49.327 -21.102  1.00  0.00     0.179 C 
HETATM   25  C26 UNL     1      -1.163  50.364 -21.344  1.00  0.00     0.183 C 
HETATM   26  C28 UNL     1      -1.445  51.586 -20.453  1.00  0.00     0.183 C 
HETATM   27  C29 UNL     1      -1.584  51.183 -18.977  1.00  0.00     0.204 C 
BRANCH  24  28
HETATM   28  C25 UNL     1      -1.899  47.949 -21.654  1.00  0.00     0.198 C 
BRANCH  28  29
HETATM   29  O6  UNL     1      -0.694  47.494 -21.030  1.00  0.00    -0.398 OA
HETATM   30  H36 UNL     1      -0.162  48.296 -20.858  1.00  0.00     0.209 HD
ENDBRANCH  28  29
ENDBRANCH  24  28
BRANCH  25  31
HETATM   31  O7  UNL     1      -1.160  50.645 -22.754  1.00  0.00    -0.385 OA
HETATM   32  C27 UNL     1      -2.317  51.319 -23.227  1.00  0.00     0.202 C 
ENDBRANCH  25  31
BRANCH  26  33
HETATM   33  O8  UNL     1      -0.385  52.553 -20.538  1.00  0.00    -0.390 OA
HETATM   34  H42 UNL     1      -0.716  53.344 -20.069  1.00  0.00     0.210 HD
ENDBRANCH  26  33
BRANCH  27  35
HETATM   35  O9  UNL     1      -2.701  51.915 -18.427  1.00  0.00    -0.388 OA
HETATM   36  H44 UNL     1      -3.055  51.339 -17.716  1.00  0.00     0.210 HD
ENDBRANCH  27  35
ENDBRANCH  21  22
ENDBRANCH  15  21
BRANCH   4  37
HETATM   37  C11 UNL     1       0.188  50.404 -10.197  1.00  0.00     0.156 C 
HETATM   38  O2  UNL     1       0.254  49.434  -9.452  1.00  0.00    -0.649 OA
BRANCH  37  39
HETATM   39  O3  UNL     1       1.340  50.832 -10.754  1.00  0.00    -0.775 OA
HETATM   40  H16 UNL     1       2.008  50.211 -10.389  1.00  0.00     0.167 HD
ENDBRANCH  37  39
ENDBRANCH   4  37
BRANCH   3  41
HETATM   41  O1  UNL     1      -3.363  51.672  -9.619  1.00  0.00    -0.394 OA
HETATM   42  H15 UNL     1      -3.898  50.862  -9.658  1.00  0.00     0.210 HD
ENDBRANCH   3  41
BRANCH   1  43
HETATM   43  C5  UNL     1      -0.096  54.651  -8.901  1.00  0.00    -0.013 C 
HETATM   44  C6  UNL     1      -0.268  54.813  -7.385  1.00  0.00     0.010 C 
BRANCH  43  45
HETATM   45  C4  UNL     1       1.228  55.297  -9.369  1.00  0.00     0.009 C 
BRANCH  45  46
HETATM   46  C3  UNL     1       2.034  55.989  -8.251  1.00  0.00     0.034 C 
BRANCH  46  47
HETATM   47  C2  UNL     1       3.358  56.655  -8.617  1.00  0.00    -0.086 C 
HETATM   48  C1  UNL     1       3.854  57.696  -7.922  1.00  0.00     0.014 C 
BRANCH  47  49
HETATM   49  C35 UNL     1       4.056  56.054  -9.841  1.00  0.00     0.005 C 
HETATM   50  C36 UNL     1       3.411  56.377 -11.196  1.00  0.00     0.014 C 
HETATM   51  C37 UNL     1       4.184  54.533  -9.693  1.00  0.00     0.014 C 
ENDBRANCH  47  49
ENDBRANCH  46  47
ENDBRANCH  45  46
ENDBRANCH  43  45
ENDBRANCH   1  43
TORSDOF 15
ENDMDL
MODEL 5
REMARK minimizedAffinity -7.70589161
REMARK CNNscore 0.295538664
REMARK CNNaffinity 6.91388893
REMARK  15 active torsions:
REMARK  status: ('A' for Active; 'I' for Inactive)
REMARK    1  A    between atoms: C2_2  and  C3_3 
REMARK    2  A    between atoms: C2_2  and  C35_44 
REMARK    3  A    between atoms: C3_3  and  C4_4 
REMARK    4  A    between atoms: C4_4  and  C5_5 
REMARK    5  A    between atoms: C5_5  and  C7_7 
REMARK    6  A    between atoms: C9_9  and  O1_10 
REMARK    7  A    between atoms: C10_11  and  C11_12 
REMARK    8  A    between atoms: C11_12  and  O3_14 
REMARK    9  A    between atoms: C22_25  and  O4_26 
REMARK   10  A    between atoms: O4_26  and  C23_27 
REMARK   11  A    between atoms: C24_29  and  C25_30 
REMARK   12  A    between atoms: C25_30  and  O6_31 
REMARK   13  A    between atoms: C26_32  and  O7_33 
REMARK   14  A    between atoms: C28_35  and  O8_36 
REMARK   15  A    between atoms: C29_37  and  O9_38 
ROOT
HETATM    1  C7  UNL     1       1.112  51.219 -12.004  1.00  0.00     0.001 C 
HETATM    2  C8  UNL     1       0.485  49.980 -11.294  1.00  0.00     0.039 C 
HETATM    3  C9  UNL     1      -0.193  49.123 -12.398  1.00  0.00     0.142 C 
HETATM    4  C10 UNL     1       0.324  49.739 -13.730  1.00  0.00     0.102 C 
HETATM    5  C12 UNL     1      -0.399  49.486 -15.059  1.00  0.00    -0.054 C 
HETATM    6  C13 UNL     1      -0.373  50.422 -16.045  1.00  0.00    -0.067 C 
HETATM    7  C14 UNL     1       0.291  51.792 -15.843  1.00  0.00     0.036 C 
HETATM    8  C15 UNL     1       1.016  52.043 -14.504  1.00  0.00     0.015 C 
HETATM    9  C16 UNL     1       0.347  51.278 -13.358  1.00  0.00    -0.016 C 
HETATM   10  C17 UNL     1      -1.071  51.899 -13.173  1.00  0.00     0.017 C 
HETATM   11  C18 UNL     1      -1.064  50.179 -17.416  1.00  0.00    -0.013 C 
HETATM   12  C19 UNL     1      -2.427  50.916 -17.298  1.00  0.00     0.021 C 
HETATM   13  C20 UNL     1      -0.212  50.756 -18.594  1.00  0.00     0.017 C 
HETATM   14  C21 UNL     1      -0.272  49.981 -19.921  1.00  0.00     0.037 C 
HETATM   15  C22 UNL     1      -1.621  49.317 -20.186  1.00  0.00     0.153 C 
HETATM   16  C30 UNL     1      -1.943  48.359 -19.050  1.00  0.00    -0.055 C 
HETATM   17  C31 UNL     1      -2.673  47.256 -19.302  1.00  0.00     0.017 C 
HETATM   18  C32 UNL     1      -1.268  48.648 -17.697  1.00  0.00     0.029 C 
HETATM   19  C33 UNL     1      -1.904  47.966 -16.482  1.00  0.00     0.014 C 
HETATM   20  C34 UNL     1      -1.027  48.127 -15.241  1.00  0.00     0.036 C 
ENDROOT
BRANCH  15  21
HETATM   21  O4  UNL     1      -2.571  50.375 -20.287  1.00  0.00    -0.349 OA
BRANCH  21  22
HETATM   22  C23 UNL     1      -2.774  50.900 -21.601  1.00  0.00     0.292 C 
HETATM   23  O5  UNL     1      -2.315  49.990 -22.591  1.00  0.00    -0.348 OA
HETATM   24  C24 UNL     1      -2.520  50.444 -23.943  1.00  0.00     0.179 C 
HETATM   25  C26 UNL     1      -3.547  51.587 -24.118  1.00  0.00     0.183 C 
HETATM   26  C28 UNL     1      -4.746  51.293 -23.198  1.00  0.00     0.183 C 
HETATM   27  C29 UNL     1      -4.301  51.103 -21.741  1.00  0.00     0.204 C 
BRANCH  24  28
HETATM   28  C25 UNL     1      -1.154  50.828 -24.524  1.00  0.00     0.198 C 
BRANCH  28  29
HETATM   29  O6  UNL     1      -0.288  51.276 -23.477  1.00  0.00    -0.398 OA
HETATM   30  H36 UNL     1      -0.863  51.723 -22.825  1.00  0.00     0.209 HD
ENDBRANCH  28  29
ENDBRANCH  24  28
BRANCH  25  31
HETATM   31  O7  UNL     1      -3.872  51.637 -25.517  1.00  0.00    -0.385 OA
HETATM   32  C27 UNL     1      -2.966  52.391 -26.310  1.00  0.00     0.202 C 
ENDBRANCH  25  31
BRANCH  26  33
HETATM   33  O8  UNL     1      -5.699  52.368 -23.221  1.00  0.00    -0.390 OA
HETATM   34  H42 UNL     1      -6.481  52.033 -22.738  1.00  0.00     0.210 HD
ENDBRANCH  26  33
BRANCH  27  35
HETATM   35  O9  UNL     1      -5.032  49.979 -21.203  1.00  0.00    -0.388 OA
HETATM   36  H44 UNL     1      -4.440  49.595 -20.521  1.00  0.00     0.210 HD
ENDBRANCH  27  35
ENDBRANCH  21  22
ENDBRANCH  15  21
BRANCH   4  37
HETATM   37  C11 UNL     1       1.750  49.157 -14.027  1.00  0.00     0.156 C 
HETATM   38  O2  UNL     1       2.076  47.978 -14.094  1.00  0.00    -0.649 OA
BRANCH  37  39
HETATM   39  O3  UNL     1       2.723  50.074 -14.203  1.00  0.00    -0.775 OA
HETATM   40  H16 UNL     1       3.524  49.525 -14.347  1.00  0.00     0.167 HD
ENDBRANCH  37  39
ENDBRANCH   4  37
BRANCH   3  41
HETATM   41  O1  UNL     1      -1.607  49.241 -12.217  1.00  0.00    -0.394 OA
HETATM   42  H15 UNL     1      -2.017  48.397 -12.469  1.00  0.00     0.210 HD
ENDBRANCH   3  41
BRANCH   1  43
HETATM   43  C5  UNL     1       1.303  52.446 -11.066  1.00  0.00    -0.013 C 
HETATM   44  C6  UNL     1       1.145  52.047  -9.593  1.00  0.00     0.010 C 
BRANCH  43  45
HETATM   45  C4  UNL     1       2.579  53.295 -11.265  1.00  0.00     0.009 C 
BRANCH  45  46
HETATM   46  C3  UNL     1       2.485  54.733 -10.715  1.00  0.00     0.034 C 
BRANCH  46  47
HETATM   47  C2  UNL     1       3.669  55.289  -9.929  1.00  0.00    -0.086 C 
HETATM   48  C1  UNL     1       4.913  54.788 -10.054  1.00  0.00     0.014 C 
BRANCH  47  49
HETATM   49  C35 UNL     1       3.320  56.441  -8.982  1.00  0.00     0.005 C 
HETATM   50  C36 UNL     1       4.405  56.813  -7.962  1.00  0.00     0.014 C 
HETATM   51  C37 UNL     1       2.009  56.150  -8.242  1.00  0.00     0.014 C 
ENDBRANCH  47  49
ENDBRANCH  46  47
ENDBRANCH  45  46
ENDBRANCH  43  45
ENDBRANCH   1  43
TORSDOF 15
ENDMDL
MODEL 6
REMARK minimizedAffinity -8.20150375
REMARK CNNscore 0.273337692
REMARK CNNaffinity 6.00693655
REMARK  15 active torsions:
REMARK  status: ('A' for Active; 'I' for Inactive)
REMARK    1  A    between atoms: C2_2  and  C3_3 
REMARK    2  A    between atoms: C2_2  and  C35_44 
REMARK    3  A    between atoms: C3_3  and  C4_4 
REMARK    4  A    between atoms: C4_4  and  C5_5 
REMARK    5  A    between atoms: C5_5  and  C7_7 
REMARK    6  A    between atoms: C9_9  and  O1_10 
REMARK    7  A    between atoms: C10_11  and  C11_12 
REMARK    8  A    between atoms: C11_12  and  O3_14 
REMARK    9  A    between atoms: C22_25  and  O4_26 
REMARK   10  A    between atoms: O4_26  and  C23_27 
REMARK   11  A    between atoms: C24_29  and  C25_30 
REMARK   12  A    between atoms: C25_30  and  O6_31 
REMARK   13  A    between atoms: C26_32  and  O7_33 
REMARK   14  A    between atoms: C28_35  and  O8_36 
REMARK   15  A    between atoms: C29_37  and  O9_38 
ROOT
HETATM    1  C7  UNL     1      -6.967  47.188 -27.926  1.00  0.00     0.001 C 
HETATM    2  C8  UNL     1      -8.136  48.153 -27.559  1.00  0.00     0.039 C 
HETATM    3  C9  UNL     1      -9.204  48.014 -28.677  1.00  0.00     0.142 C 
HETATM    4  C10 UNL     1      -8.752  46.761 -29.482  1.00  0.00     0.102 C 
HETATM    5  C12 UNL     1      -9.264  46.499 -30.904  1.00  0.00    -0.054 C 
HETATM    6  C13 UNL     1      -8.488  45.837 -31.803  1.00  0.00    -0.067 C 
HETATM    7  C14 UNL     1      -7.051  45.410 -31.472  1.00  0.00     0.036 C 
HETATM    8  C15 UNL     1      -6.539  45.677 -30.040  1.00  0.00     0.015 C 
HETATM    9  C16 UNL     1      -7.179  46.935 -29.447  1.00  0.00    -0.016 C 
HETATM   10  C17 UNL     1      -6.663  48.139 -30.292  1.00  0.00     0.017 C 
HETATM   11  C18 UNL     1      -8.994  45.523 -33.240  1.00  0.00    -0.013 C 
HETATM   12  C19 UNL     1      -8.368  46.640 -34.121  1.00  0.00     0.021 C 
HETATM   13  C20 UNL     1      -8.528  44.107 -33.710  1.00  0.00     0.017 C 
HETATM   14  C21 UNL     1      -9.495  43.343 -34.631  1.00  0.00     0.037 C 
HETATM   15  C22 UNL     1     -10.307  44.246 -35.557  1.00  0.00     0.153 C 
HETATM   16  C30 UNL     1     -11.107  45.234 -34.723  1.00  0.00    -0.055 C 
HETATM   17  C31 UNL     1     -12.295  45.674 -35.179  1.00  0.00     0.017 C 
HETATM   18  C32 UNL     1     -10.561  45.547 -33.319  1.00  0.00     0.029 C 
HETATM   19  C33 UNL     1     -11.106  46.822 -32.666  1.00  0.00     0.014 C 
HETATM   20  C34 UNL     1     -10.684  46.911 -31.200  1.00  0.00     0.036 C 
ENDROOT
BRANCH  15  21
HETATM   21  O4  UNL     1      -9.363  44.895 -36.405  1.00  0.00    -0.349 OA
BRANCH  21  22
HETATM   22  C23 UNL     1      -9.896  45.906 -37.264  1.00  0.00     0.292 C 
HETATM   23  O5  UNL     1      -8.923  46.903 -37.544  1.00  0.00    -0.348 OA
HETATM   24  C24 UNL     1      -9.385  47.937 -38.434  1.00  0.00     0.179 C 
HETATM   25  C26 UNL     1     -10.651  47.598 -39.257  1.00  0.00     0.183 C 
HETATM   26  C28 UNL     1     -10.526  46.144 -39.742  1.00  0.00     0.183 C 
HETATM   27  C29 UNL     1     -10.294  45.179 -38.570  1.00  0.00     0.204 C 
BRANCH  24  28
HETATM   28  C25 UNL     1      -9.582  49.216 -37.610  1.00  0.00     0.198 C 
BRANCH  28  29
HETATM   29  O6  UNL     1      -8.837  50.289 -38.192  1.00  0.00    -0.398 OA
HETATM   30  H36 UNL     1      -8.035  49.883 -38.576  1.00  0.00     0.209 HD
ENDBRANCH  28  29
ENDBRANCH  24  28
BRANCH  25  31
HETATM   31  O7  UNL     1     -10.728  48.572 -40.311  1.00  0.00    -0.385 OA
HETATM   32  C27 UNL     1      -9.708  48.466 -41.293  1.00  0.00     0.202 C 
ENDBRANCH  25  31
BRANCH  26  33
HETATM   33  O8  UNL     1     -11.715  45.715 -40.425  1.00  0.00    -0.390 OA
HETATM   34  H42 UNL     1     -11.491  44.850 -40.823  1.00  0.00     0.210 HD
ENDBRANCH  26  33
BRANCH  27  35
HETATM   35  O9  UNL     1      -9.281  44.232 -38.975  1.00  0.00    -0.388 OA
HETATM   36  H44 UNL     1      -8.830  43.973 -38.143  1.00  0.00     0.210 HD
ENDBRANCH  27  35
ENDBRANCH  21  22
ENDBRANCH  15  21
BRANCH   4  37
HETATM   37  C11 UNL     1      -9.246  45.479 -28.725  1.00  0.00     0.156 C 
HETATM   38  O2  UNL     1      -8.902  44.319 -28.917  1.00  0.00    -0.649 OA
BRANCH  37  39
HETATM   39  O3  UNL     1     -10.178  45.694 -27.773  1.00  0.00    -0.775 OA
HETATM   40  H16 UNL     1     -10.372  44.790 -27.443  1.00  0.00     0.167 HD
ENDBRANCH  37  39
ENDBRANCH   4  37
BRANCH   3  41
HETATM   41  O1  UNL     1      -9.184  49.226 -29.437  1.00  0.00    -0.394 OA
HETATM   42  H15 UNL     1     -10.089  49.410 -29.739  1.00  0.00     0.210 HD
ENDBRANCH   3  41
BRANCH   1  43
HETATM   43  C5  UNL     1      -5.601  47.595 -27.301  1.00  0.00    -0.013 C 
HETATM   44  C6  UNL     1      -4.783  48.457 -28.271  1.00  0.00     0.010 C 
BRANCH  43  45
HETATM   45  C4  UNL     1      -5.632  48.238 -25.895  1.00  0.00     0.009 C 
BRANCH  45  46
HETATM   46  C3  UNL     1      -4.245  48.440 -25.252  1.00  0.00     0.034 C 
BRANCH  46  47
HETATM   47  C2  UNL     1      -4.133  48.371 -23.732  1.00  0.00    -0.086 C 
HETATM   48  C1  UNL     1      -5.210  48.222 -22.938  1.00  0.00     0.014 C 
BRANCH  47  49
HETATM   49  C35 UNL     1      -2.705  48.505 -23.192  1.00  0.00     0.005 C 
HETATM   50  C36 UNL     1      -2.383  47.656 -21.954  1.00  0.00     0.014 C 
HETATM   51  C37 UNL     1      -2.377  49.974 -22.897  1.00  0.00     0.014 C 
ENDBRANCH  47  49
ENDBRANCH  46  47
ENDBRANCH  45  46
ENDBRANCH  43  45
ENDBRANCH   1  43
TORSDOF 15
ENDMDL
MODEL 7
REMARK minimizedAffinity -7.80523634
REMARK CNNscore 0.236504138
REMARK CNNaffinity 6.36779594
REMARK  15 active torsions:
REMARK  status: ('A' for Active; 'I' for Inactive)
REMARK    1  A    between atoms: C2_2  and  C3_3 
REMARK    2  A    between atoms: C2_2  and  C35_44 
REMARK    3  A    between atoms: C3_3  and  C4_4 
REMARK    4  A    between atoms: C4_4  and  C5_5 
REMARK    5  A    between atoms: C5_5  and  C7_7 
REMARK    6  A    between atoms: C9_9  and  O1_10 
REMARK    7  A    between atoms: C10_11  and  C11_12 
REMARK    8  A    between atoms: C11_12  and  O3_14 
REMARK    9  A    between atoms: C22_25  and  O4_26 
REMARK   10  A    between atoms: O4_26  and  C23_27 
REMARK   11  A    between atoms: C24_29  and  C25_30 
REMARK   12  A    between atoms: C25_30  and  O6_31 
REMARK   13  A    between atoms: C26_32  and  O7_33 
REMARK   14  A    between atoms: C28_35  and  O8_36 
REMARK   15  A    between atoms: C29_37  and  O9_38 
ROOT
HETATM    1  C7  UNL     1      -2.784  50.843 -23.671  1.00  0.00     0.001 C 
HETATM    2  C8  UNL     1      -3.921  51.863 -23.986  1.00  0.00     0.039 C 
HETATM    3  C9  UNL     1      -5.214  51.316 -23.325  1.00  0.00     0.142 C 
HETATM    4  C10 UNL     1      -4.715  50.165 -22.405  1.00  0.00     0.102 C 
HETATM    5  C12 UNL     1      -5.673  49.086 -21.886  1.00  0.00    -0.054 C 
HETATM    6  C13 UNL     1      -5.222  47.828 -21.636  1.00  0.00    -0.067 C 
HETATM    7  C14 UNL     1      -3.777  47.411 -21.945  1.00  0.00     0.036 C 
HETATM    8  C15 UNL     1      -2.815  48.500 -22.468  1.00  0.00     0.015 C 
HETATM    9  C16 UNL     1      -3.563  49.548 -23.298  1.00  0.00    -0.016 C 
HETATM   10  C17 UNL     1      -4.082  48.820 -24.574  1.00  0.00     0.017 C 
HETATM   11  C18 UNL     1      -6.160  46.722 -21.075  1.00  0.00    -0.013 C 
HETATM   12  C19 UNL     1      -6.575  45.898 -22.325  1.00  0.00     0.021 C 
HETATM   13  C20 UNL     1      -5.421  45.826 -20.028  1.00  0.00     0.017 C 
HETATM   14  C21 UNL     1      -6.277  45.286 -18.870  1.00  0.00     0.037 C 
HETATM   15  C22 UNL     1      -7.728  45.003 -19.255  1.00  0.00     0.153 C 
HETATM   16  C30 UNL     1      -8.368  46.278 -19.778  1.00  0.00    -0.055 C 
HETATM   17  C31 UNL     1      -9.686  46.480 -19.594  1.00  0.00     0.017 C 
HETATM   18  C32 UNL     1      -7.413  47.338 -20.358  1.00  0.00     0.029 C 
HETATM   19  C33 UNL     1      -8.066  48.400 -21.248  1.00  0.00     0.014 C 
HETATM   20  C34 UNL     1      -7.082  49.523 -21.573  1.00  0.00     0.036 C 
ENDROOT
BRANCH  15  21
HETATM   21  O4  UNL     1      -7.682  43.976 -20.243  1.00  0.00    -0.349 OA
BRANCH  21  22
HETATM   22  C23 UNL     1      -7.434  42.657 -19.752  1.00  0.00     0.292 C 
HETATM   23  O5  UNL     1      -8.552  41.809 -19.977  1.00  0.00    -0.348 OA
HETATM   24  C24 UNL     1      -8.356  40.453 -19.536  1.00  0.00     0.179 C 
HETATM   25  C26 UNL     1      -6.887  40.031 -19.297  1.00  0.00     0.183 C 
HETATM   26  C28 UNL     1      -6.034  40.616 -20.436  1.00  0.00     0.183 C 
HETATM   27  C29 UNL     1      -6.212  42.137 -20.545  1.00  0.00     0.204 C 
BRANCH  24  28
HETATM   28  C25 UNL     1      -9.209  40.238 -18.279  1.00  0.00     0.198 C 
BRANCH  28  29
HETATM   29  O6  UNL     1      -8.363  40.027 -17.146  1.00  0.00    -0.398 OA
HETATM   30  H36 UNL     1      -7.574  39.556 -17.482  1.00  0.00     0.209 HD
ENDBRANCH  28  29
ENDBRANCH  24  28
BRANCH  25  31
HETATM   31  O7  UNL     1      -6.878  38.595 -19.226  1.00  0.00    -0.385 OA
HETATM   32  C27 UNL     1      -7.219  37.938 -20.438  1.00  0.00     0.202 C 
ENDBRANCH  25  31
BRANCH  26  33
HETATM   33  O8  UNL     1      -4.635  40.359 -20.227  1.00  0.00    -0.390 OA
HETATM   34  H42 UNL     1      -4.194  40.627 -21.058  1.00  0.00     0.210 HD
ENDBRANCH  26  33
BRANCH  27  35
HETATM   35  O9  UNL     1      -6.316  42.466 -21.948  1.00  0.00    -0.388 OA
HETATM   36  H44 UNL     1      -6.874  43.273 -21.977  1.00  0.00     0.210 HD
ENDBRANCH  27  35
ENDBRANCH  21  22
ENDBRANCH  15  21
BRANCH   4  37
HETATM   37  C11 UNL     1      -4.188  50.791 -21.067  1.00  0.00     0.156 C 
HETATM   38  O2  UNL     1      -4.416  51.911 -20.625  1.00  0.00    -0.649 OA
BRANCH  37  39
HETATM   39  O3  UNL     1      -3.369  50.000 -20.343  1.00  0.00    -0.775 OA
HETATM   40  H16 UNL     1      -3.131  50.567 -19.577  1.00  0.00     0.167 HD
ENDBRANCH  37  39
ENDBRANCH   4  37
BRANCH   3  41
HETATM   41  O1  UNL     1      -6.078  50.880 -24.378  1.00  0.00    -0.394 OA
HETATM   42  H15 UNL     1      -6.996  51.043 -24.107  1.00  0.00     0.210 HD
ENDBRANCH   3  41
BRANCH   1  43
HETATM   43  C5  UNL     1      -1.610  50.880 -24.691  1.00  0.00    -0.013 C 
HETATM   44  C6  UNL     1      -2.026  51.584 -25.989  1.00  0.00     0.010 C 
BRANCH  43  45
HETATM   45  C4  UNL     1      -0.254  51.427 -24.187  1.00  0.00     0.009 C 
BRANCH  45  46
HETATM   46  C3  UNL     1      -0.366  52.511 -23.096  1.00  0.00     0.034 C 
BRANCH  46  47
HETATM   47  C2  UNL     1      -0.013  52.134 -21.660  1.00  0.00    -0.086 C 
HETATM   48  C1  UNL     1      -0.065  50.864 -21.217  1.00  0.00     0.014 C 
BRANCH  47  49
HETATM   49  C35 UNL     1       0.382  53.317 -20.770  1.00  0.00     0.005 C 
HETATM   50  C36 UNL     1       1.586  54.138 -21.256  1.00  0.00     0.014 C 
HETATM   51  C37 UNL     1       0.639  52.847 -19.333  1.00  0.00     0.014 C 
ENDBRANCH  47  49
ENDBRANCH  46  47
ENDBRANCH  45  46
ENDBRANCH  43  45
ENDBRANCH   1  43
TORSDOF 15
ENDMDL
MODEL 8
REMARK minimizedAffinity -8.63090992
REMARK CNNscore 0.230085582
REMARK CNNaffinity 6.72593164
REMARK  15 active torsions:
REMARK  status: ('A' for Active; 'I' for Inactive)
REMARK    1  A    between atoms: C2_2  and  C3_3 
REMARK    2  A    between atoms: C2_2  and  C35_44 
REMARK    3  A    between atoms: C3_3  and  C4_4 
REMARK    4  A    between atoms: C4_4  and  C5_5 
REMARK    5  A    between atoms: C5_5  and  C7_7 
REMARK    6  A    between atoms: C9_9  and  O1_10 
REMARK    7  A    between atoms: C10_11  and  C11_12 
REMARK    8  A    between atoms: C11_12  and  O3_14 
REMARK    9  A    between atoms: C22_25  and  O4_26 
REMARK   10  A    between atoms: O4_26  and  C23_27 
REMARK   11  A    between atoms: C24_29  and  C25_30 
REMARK   12  A    between atoms: C25_30  and  O6_31 
REMARK   13  A    between atoms: C26_32  and  O7_33 
REMARK   14  A    between atoms: C28_35  and  O8_36 
REMARK   15  A    between atoms: C29_37  and  O9_38 
ROOT
HETATM    1  C7  UNL     1       0.942  50.629 -12.488  1.00  0.00     0.001 C 
HETATM    2  C8  UNL     1       0.123  49.452 -11.875  1.00  0.00     0.039 C 
HETATM    3  C9  UNL     1      -0.636  48.772 -13.047  1.00  0.00     0.142 C 
HETATM    4  C10 UNL     1       0.003  49.390 -14.324  1.00  0.00     0.102 C 
HETATM    5  C12 UNL     1      -0.708  49.327 -15.682  1.00  0.00    -0.054 C 
HETATM    6  C13 UNL     1      -0.519  50.309 -16.603  1.00  0.00    -0.067 C 
HETATM    7  C14 UNL     1       0.327  51.553 -16.297  1.00  0.00     0.036 C 
HETATM    8  C15 UNL     1       1.040  51.614 -14.929  1.00  0.00     0.015 C 
HETATM    9  C16 UNL     1       0.234  50.883 -13.851  1.00  0.00    -0.016 C 
HETATM   10  C17 UNL     1      -1.086  51.688 -13.655  1.00  0.00     0.017 C 
HETATM   11  C18 UNL     1      -1.196  50.254 -18.002  1.00  0.00    -0.013 C 
HETATM   12  C19 UNL     1      -2.442  51.172 -17.863  1.00  0.00     0.021 C 
HETATM   13  C20 UNL     1      -0.235  50.775 -19.120  1.00  0.00     0.017 C 
HETATM   14  C21 UNL     1      -0.365  50.101 -20.497  1.00  0.00     0.037 C 
HETATM   15  C22 UNL     1      -1.786  49.657 -20.834  1.00  0.00     0.153 C 
HETATM   16  C30 UNL     1      -2.275  48.687 -19.771  1.00  0.00    -0.055 C 
HETATM   17  C31 UNL     1      -3.147  47.718 -20.110  1.00  0.00     0.017 C 
HETATM   18  C32 UNL     1      -1.608  48.790 -18.388  1.00  0.00     0.029 C 
HETATM   19  C33 UNL     1      -2.371  48.131 -17.234  1.00  0.00     0.014 C 
HETATM   20  C34 UNL     1      -1.518  48.087 -15.967  1.00  0.00     0.036 C 
ENDROOT
BRANCH  15  21
HETATM   21  O4  UNL     1      -2.572  50.845 -20.884  1.00  0.00    -0.349 OA
BRANCH  21  22
HETATM   22  C23 UNL     1      -2.629  51.495 -22.156  1.00  0.00     0.292 C 
HETATM   23  O5  UNL     1      -1.670  50.948 -23.052  1.00  0.00    -0.348 OA
HETATM   24  C24 UNL     1      -1.696  51.537 -24.366  1.00  0.00     0.179 C 
HETATM   25  C26 UNL     1      -2.980  52.322 -24.724  1.00  0.00     0.183 C 
HETATM   26  C28 UNL     1      -4.186  51.526 -24.197  1.00  0.00     0.183 C 
HETATM   27  C29 UNL     1      -4.056  51.240 -22.694  1.00  0.00     0.204 C 
BRANCH  24  28
HETATM   28  C25 UNL     1      -0.446  52.413 -24.516  1.00  0.00     0.198 C 
BRANCH  28  29
HETATM   29  O6  UNL     1       0.508  52.076 -23.504  1.00  0.00    -0.398 OA
HETATM   30  H36 UNL     1      -0.013  51.819 -22.718  1.00  0.00     0.209 HD
ENDBRANCH  28  29
ENDBRANCH  24  28
BRANCH  25  31
HETATM   31  O7  UNL     1      -2.966  52.505 -26.150  1.00  0.00    -0.385 OA
HETATM   32  C27 UNL     1      -3.044  51.304 -26.903  1.00  0.00     0.202 C 
ENDBRANCH  25  31
BRANCH  26  33
HETATM   33  O8  UNL     1      -5.415  52.245 -24.395  1.00  0.00    -0.390 OA
HETATM   34  H42 UNL     1      -6.126  51.611 -24.175  1.00  0.00     0.210 HD
ENDBRANCH  26  33
BRANCH  27  35
HETATM   35  O9  UNL     1      -4.466  49.873 -22.471  1.00  0.00    -0.388 OA
HETATM   36  H44 UNL     1      -3.955  49.581 -21.686  1.00  0.00     0.210 HD
ENDBRANCH  27  35
ENDBRANCH  21  22
ENDBRANCH  15  21
BRANCH   4  37
HETATM   37  C11 UNL     1       1.339  48.627 -14.630  1.00  0.00     0.156 C 
HETATM   38  O2  UNL     1       2.470  48.925 -14.264  1.00  0.00    -0.649 OA
BRANCH  37  39
HETATM   39  O3  UNL     1       1.214  47.533 -15.408  1.00  0.00    -0.775 OA
HETATM   40  H16 UNL     1       2.140  47.220 -15.504  1.00  0.00     0.167 HD
ENDBRANCH  37  39
ENDBRANCH   4  37
BRANCH   3  41
HETATM   41  O1  UNL     1      -2.024  49.081 -12.889  1.00  0.00    -0.394 OA
HETATM   42  H15 UNL     1      -2.542  48.323 -13.204  1.00  0.00     0.210 HD
ENDBRANCH   3  41
BRANCH   1  43
HETATM   43  C5  UNL     1       1.276  51.755 -11.467  1.00  0.00    -0.013 C 
HETATM   44  C6  UNL     1       2.738  52.203 -11.596  1.00  0.00     0.010 C 
BRANCH  43  45
HETATM   45  C4  UNL     1       0.334  52.981 -11.433  1.00  0.00     0.009 C 
BRANCH  45  46
HETATM   46  C3  UNL     1      -0.494  53.117 -10.139  1.00  0.00     0.034 C 
BRANCH  46  47
HETATM   47  C2  UNL     1      -1.690  54.065 -10.140  1.00  0.00    -0.086 C 
HETATM   48  C1  UNL     1      -1.546  55.402 -10.189  1.00  0.00     0.014 C 
BRANCH  47  49
HETATM   49  C35 UNL     1      -3.053  53.369 -10.061  1.00  0.00     0.005 C 
HETATM   50  C36 UNL     1      -3.013  51.869  -9.735  1.00  0.00     0.014 C 
HETATM   51  C37 UNL     1      -3.841  53.584 -11.359  1.00  0.00     0.014 C 
ENDBRANCH  47  49
ENDBRANCH  46  47
ENDBRANCH  45  46
ENDBRANCH  43  45
ENDBRANCH   1  43
TORSDOF 15
ENDMDL
MODEL 9
REMARK minimizedAffinity -8.75965118
REMARK CNNscore 0.219553575
REMARK CNNaffinity 6.29506683
REMARK  15 active torsions:
REMARK  status: ('A' for Active; 'I' for Inactive)
REMARK    1  A    between atoms: C2_2  and  C3_3 
REMARK    2  A    between atoms: C2_2  and  C35_44 
REMARK    3  A    between atoms: C3_3  and  C4_4 
REMARK    4  A    between atoms: C4_4  and  C5_5 
REMARK    5  A    between atoms: C5_5  and  C7_7 
REMARK    6  A    between atoms: C9_9  and  O1_10 
REMARK    7  A    between atoms: C10_11  and  C11_12 
REMARK    8  A    between atoms: C11_12  and  O3_14 
REMARK    9  A    between atoms: C22_25  and  O4_26 
REMARK   10  A    between atoms: O4_26  and  C23_27 
REMARK   11  A    between atoms: C24_29  and  C25_30 
REMARK   12  A    between atoms: C25_30  and  O6_31 
REMARK   13  A    between atoms: C26_32  and  O7_33 
REMARK   14  A    between atoms: C28_35  and  O8_36 
REMARK   15  A    between atoms: C29_37  and  O9_38 
ROOT
HETATM    1  C7  UNL     1     -10.579  46.966 -26.927  1.00  0.00     0.001 C 
HETATM    2  C8  UNL     1     -10.119  47.262 -28.387  1.00  0.00     0.039 C 
HETATM    3  C9  UNL     1      -8.613  47.630 -28.320  1.00  0.00     0.142 C 
HETATM    4  C10 UNL     1      -8.190  47.241 -26.874  1.00  0.00     0.102 C 
HETATM    5  C12 UNL     1      -6.914  47.807 -26.237  1.00  0.00    -0.054 C 
HETATM    6  C13 UNL     1      -6.840  47.993 -24.892  1.00  0.00    -0.067 C 
HETATM    7  C14 UNL     1      -8.045  47.738 -23.974  1.00  0.00     0.036 C 
HETATM    8  C15 UNL     1      -9.327  47.170 -24.618  1.00  0.00     0.015 C 
HETATM    9  C16 UNL     1      -9.484  47.656 -26.062  1.00  0.00    -0.016 C 
HETATM   10  C17 UNL     1      -9.713  49.196 -25.994  1.00  0.00     0.017 C 
HETATM   11  C18 UNL     1      -5.548  48.529 -24.213  1.00  0.00    -0.013 C 
HETATM   12  C19 UNL     1      -5.821  50.045 -24.008  1.00  0.00     0.021 C 
HETATM   13  C20 UNL     1      -5.284  47.814 -22.848  1.00  0.00     0.017 C 
HETATM   14  C21 UNL     1      -3.810  47.600 -22.465  1.00  0.00     0.037 C 
HETATM   15  C22 UNL     1      -2.878  48.703 -22.962  1.00  0.00     0.153 C 
HETATM   16  C30 UNL     1      -2.978  48.803 -24.475  1.00  0.00    -0.055 C 
HETATM   17  C31 UNL     1      -1.901  49.191 -25.185  1.00  0.00     0.017 C 
HETATM   18  C32 UNL     1      -4.284  48.294 -25.112  1.00  0.00     0.029 C 
HETATM   19  C33 UNL     1      -4.553  48.774 -26.542  1.00  0.00     0.014 C 
HETATM   20  C34 UNL     1      -5.739  48.032 -27.156  1.00  0.00     0.036 C 
ENDROOT
BRANCH  15  21
HETATM   21  O4  UNL     1      -3.300  49.901 -22.313  1.00  0.00    -0.349 OA
BRANCH  21  22
HETATM   22  C23 UNL     1      -2.382  50.443 -21.361  1.00  0.00     0.292 C 
HETATM   23  O5  UNL     1      -1.700  51.570 -21.895  1.00  0.00    -0.348 OA
HETATM   24  C24 UNL     1      -0.781  52.188 -20.974  1.00  0.00     0.179 C 
HETATM   25  C26 UNL     1      -0.982  51.828 -19.483  1.00  0.00     0.183 C 
HETATM   26  C28 UNL     1      -2.494  51.820 -19.196  1.00  0.00     0.183 C 
HETATM   27  C29 UNL     1      -3.240  50.874 -20.149  1.00  0.00     0.204 C 
BRANCH  24  28
HETATM   28  C25 UNL     1       0.644  51.863 -21.439  1.00  0.00     0.198 C 
BRANCH  28  29
HETATM   29  O6  UNL     1       1.464  53.032 -21.351  1.00  0.00    -0.398 OA
HETATM   30  H36 UNL     1       0.875  53.788 -21.545  1.00  0.00     0.209 HD
ENDBRANCH  28  29
ENDBRANCH  24  28
BRANCH  25  31
HETATM   31  O7  UNL     1      -0.239  52.795 -18.722  1.00  0.00    -0.385 OA
HETATM   32  C27 UNL     1       0.777  52.247 -17.896  1.00  0.00     0.202 C 
ENDBRANCH  25  31
BRANCH  26  33
HETATM   33  O8  UNL     1      -2.770  51.386 -17.854  1.00  0.00    -0.390 OA
HETATM   34  H42 UNL     1      -3.723  51.556 -17.716  1.00  0.00     0.210 HD
ENDBRANCH  26  33
BRANCH  27  35
HETATM   35  O9  UNL     1      -4.449  51.543 -20.571  1.00  0.00    -0.388 OA
HETATM   36  H44 UNL     1      -4.636  51.185 -21.465  1.00  0.00     0.210 HD
ENDBRANCH  27  35
ENDBRANCH  21  22
ENDBRANCH  15  21
BRANCH   4  37
HETATM   37  C11 UNL     1      -7.907  45.699 -26.835  1.00  0.00     0.156 C 
HETATM   38  O2  UNL     1      -7.987  44.949 -25.871  1.00  0.00    -0.649 OA
BRANCH  37  39
HETATM   39  O3  UNL     1      -7.505  45.157 -28.004  1.00  0.00    -0.775 OA
HETATM   40  H16 UNL     1      -7.357  44.214 -27.773  1.00  0.00     0.167 HD
ENDBRANCH  37  39
ENDBRANCH   4  37
BRANCH   3  41
HETATM   41  O1  UNL     1      -8.504  49.029 -28.597  1.00  0.00    -0.394 OA
HETATM   42  H15 UNL     1      -7.672  49.182 -29.074  1.00  0.00     0.210 HD
ENDBRANCH   3  41
BRANCH   1  43
HETATM   43  C5  UNL     1     -12.107  47.160 -26.701  1.00  0.00    -0.013 C 
HETATM   44  C6  UNL     1     -12.712  48.077 -27.772  1.00  0.00     0.010 C 
BRANCH  43  45
HETATM   45  C4  UNL     1     -12.963  45.884 -26.530  1.00  0.00     0.009 C 
BRANCH  45  46
HETATM   46  C3  UNL     1     -13.863  45.879 -25.278  1.00  0.00     0.034 C 
BRANCH  46  47
HETATM   47  C2  UNL     1     -15.368  46.050 -25.465  1.00  0.00    -0.086 C 
HETATM   48  C1  UNL     1     -16.060  45.358 -26.390  1.00  0.00     0.014 C 
BRANCH  47  49
HETATM   49  C35 UNL     1     -16.012  47.080 -24.532  1.00  0.00     0.005 C 
HETATM   50  C36 UNL     1     -15.475  47.098 -23.094  1.00  0.00     0.014 C 
HETATM   51  C37 UNL     1     -17.535  46.899 -24.500  1.00  0.00     0.014 C 
ENDBRANCH  47  49
ENDBRANCH  46  47
ENDBRANCH  45  46
ENDBRANCH  43  45
ENDBRANCH   1  43
TORSDOF 15
ENDMDL
