MODEL 1
REMARK minimizedAffinity -8.72003937
REMARK  14 active torsions:
REMARK  status: ('A' for Active; 'I' for Inactive)
REMARK    1  A    between atoms: O1_2  and  C2_3 
REMARK    2  A    between atoms: C2_3  and  C3_4 
REMARK    3  A    between atoms: C2_3  and  C24_30 
REMARK    4  A    between atoms: C3_4  and  C5_6 
REMARK    5  A    between atoms: C6_8  and  C8_10 
REMARK    6  A    between atoms: C8_10  and  C9_11 
REMARK    7  A    between atoms: C9_11  and  O3_13 
REMARK    8  A    between atoms: C9_11  and  C11_14 
REMARK    9  A    between atoms: C12_15  and  C13_16 
REMARK   10  A    between atoms: C14_17  and  C16_19 
REMARK   11  A    between atoms: C17_21  and  C18_22 
REMARK   12  A    between atoms: C18_22  and  C19_23 
REMARK   13  A    between atoms: C19_23  and  O6_25 
REMARK   14  A    between atoms: C24_30  and  O7_32 
ROOT
HETATM    1  C9  UNL     1      -3.742   3.137  11.875  1.00  0.00     0.075 C 
HETATM    2  C10 UNL     1      -3.487   1.637  11.699  1.00  0.00     0.050 C 
ENDROOT
BRANCH   1   3
HETATM    3  C8  UNL     1      -5.080   3.595  11.253  1.00  0.00     0.082 C 
BRANCH   3   4
HETATM    4  C6  UNL     1      -6.247   3.681  12.219  1.00  0.00     0.087 A 
HETATM    5  C5  UNL     1      -6.812   5.056  12.580  1.00  0.00     0.163 A 
HETATM    6  O2  UNL     1      -5.894   4.366  13.436  1.00  0.00    -0.369 OA
HETATM    7  C7  UNL     1      -7.021   2.420  12.473  1.00  0.00     0.049 C 
BRANCH   5   8
HETATM    8  C3  UNL     1      -8.189   5.277  13.163  1.00  0.00     0.045 C 
HETATM    9  C4  UNL     1      -9.119   5.763  12.041  1.00  0.00     0.015 C 
BRANCH   8  10
HETATM   10  C2  UNL     1      -8.128   6.293  14.342  1.00  0.00     0.155 C 
BRANCH  10  11
HETATM   11  O1  UNL     1      -9.464   6.720  14.673  1.00  0.00    -0.388 OA
HETATM   12  C1  UNL     1      -9.632   8.129  14.612  1.00  0.00     0.202 C 
ENDBRANCH  10  11
BRANCH  10  13
HETATM   13  C24 UNL     1      -7.459   5.681  15.607  1.00  0.00     0.143 C 
HETATM   14  C25 UNL     1      -7.269   6.706  16.720  1.00  0.00     0.042 C 
BRANCH  13  15
HETATM   15  O7  UNL     1      -8.239   4.601  16.126  1.00  0.00    -0.393 OA
HETATM   16  H42 UNL     1      -7.760   4.230  16.885  1.00  0.00     0.210 HD
ENDBRANCH  13  15
ENDBRANCH  10  13
ENDBRANCH   8  10
ENDBRANCH   5   8
ENDBRANCH   3   4
ENDBRANCH   1   3
BRANCH   1  17
HETATM   17  O3  UNL     1      -3.757   3.415  13.277  1.00  0.00    -0.386 OA
HETATM   18  H18 UNL     1      -2.891   3.145  13.629  1.00  0.00     0.211 HD
ENDBRANCH   1  17
BRANCH   1  19
HETATM   19  C11 UNL     1      -2.610   3.912  11.224  1.00  0.00     0.010 C 
HETATM   20  C12 UNL     1      -1.802   4.803  11.825  1.00  0.00    -0.001 C 
BRANCH  20  21
HETATM   21  C13 UNL     1      -0.741   5.487  11.118  1.00  0.00     0.005 C 
HETATM   22  C14 UNL     1      -0.259   6.724  11.360  1.00  0.00    -0.055 C 
HETATM   23  C15 UNL     1      -0.751   7.655  12.437  1.00  0.00     0.046 C 
BRANCH  22  24
HETATM   24  C16 UNL     1       0.890   7.288  10.531  1.00  0.00     0.154 C 
HETATM   25  O4  UNL     1       1.902   6.271  10.455  1.00  0.00    -0.375 OA
HETATM   26  C17 UNL     1       3.109   6.729   9.831  1.00  0.00     0.132 C 
HETATM   27  C20 UNL     1       2.812   7.113   8.379  1.00  0.00     0.033 C 
HETATM   28  C21 UNL     1       1.713   8.170   8.318  1.00  0.00     0.009 C 
HETATM   29  C22 UNL     1       0.473   7.721   9.106  1.00  0.00     0.015 C 
HETATM   30  C23 UNL     1      -0.579   8.830   9.104  1.00  0.00     0.012 C 
BRANCH  26  31
HETATM   31  C18 UNL     1       4.123   5.593   9.927  1.00  0.00     0.141 C 
BRANCH  31  32
HETATM   32  C19 UNL     1       3.633   4.340   9.271  1.00  0.00     0.141 C 
HETATM   33  O5  UNL     1       3.780   4.037   8.099  1.00  0.00    -0.650 OA
BRANCH  32  34
HETATM   34  O6  UNL     1       2.958   3.528  10.105  1.00  0.00    -0.776 OA
HETATM   35  H29 UNL     1       2.678   2.783   9.534  1.00  0.00     0.167 HD
ENDBRANCH  32  34
ENDBRANCH  31  32
ENDBRANCH  26  31
ENDBRANCH  22  24
ENDBRANCH  20  21
ENDBRANCH   1  19
TORSDOF 14
ENDMDL
MODEL 2
REMARK minimizedAffinity -8.2577219
REMARK  14 active torsions:
REMARK  status: ('A' for Active; 'I' for Inactive)
REMARK    1  A    between atoms: O1_2  and  C2_3 
REMARK    2  A    between atoms: C2_3  and  C3_4 
REMARK    3  A    between atoms: C2_3  and  C24_30 
REMARK    4  A    between atoms: C3_4  and  C5_6 
REMARK    5  A    between atoms: C6_8  and  C8_10 
REMARK    6  A    between atoms: C8_10  and  C9_11 
REMARK    7  A    between atoms: C9_11  and  O3_13 
REMARK    8  A    between atoms: C9_11  and  C11_14 
REMARK    9  A    between atoms: C12_15  and  C13_16 
REMARK   10  A    between atoms: C14_17  and  C16_19 
REMARK   11  A    between atoms: C17_21  and  C18_22 
REMARK   12  A    between atoms: C18_22  and  C19_23 
REMARK   13  A    between atoms: C19_23  and  O6_25 
REMARK   14  A    between atoms: C24_30  and  O7_32 
ROOT
HETATM    1  C9  UNL     1       0.037   7.141  14.812  1.00  0.00     0.075 C 
HETATM    2  C10 UNL     1      -0.152   8.657  14.711  1.00  0.00     0.050 C 
ENDROOT
BRANCH   1   3
HETATM    3  C8  UNL     1       1.230   6.628  13.975  1.00  0.00     0.082 C 
BRANCH   3   4
HETATM    4  C6  UNL     1       0.875   6.106  12.595  1.00  0.00     0.087 A 
HETATM    5  C5  UNL     1       1.444   6.814  11.365  1.00  0.00     0.163 A 
HETATM    6  O2  UNL     1       0.114   7.062  11.832  1.00  0.00    -0.369 OA
HETATM    7  C7  UNL     1       0.305   4.719  12.513  1.00  0.00     0.049 C 
BRANCH   5   8
HETATM    8  C3  UNL     1       1.534   6.184   9.993  1.00  0.00     0.045 C 
HETATM    9  C4  UNL     1       2.965   5.663   9.791  1.00  0.00     0.015 C 
BRANCH   8  10
HETATM   10  C2  UNL     1       1.133   7.209   8.891  1.00  0.00     0.155 C 
BRANCH  10  11
HETATM   11  O1  UNL     1       0.799   8.467   9.509  1.00  0.00    -0.388 OA
HETATM   12  C1  UNL     1      -0.481   8.954   9.131  1.00  0.00     0.202 C 
ENDBRANCH  10  11
BRANCH  10  13
HETATM   13  C24 UNL     1       2.276   7.433   7.858  1.00  0.00     0.143 C 
HETATM   14  C25 UNL     1       1.861   7.056   6.440  1.00  0.00     0.042 C 
BRANCH  13  15
HETATM   15  O7  UNL     1       2.696   8.800   7.850  1.00  0.00    -0.393 OA
HETATM   16  H42 UNL     1       3.432   8.878   7.222  1.00  0.00     0.210 HD
ENDBRANCH  13  15
ENDBRANCH  10  13
ENDBRANCH   8  10
ENDBRANCH   5   8
ENDBRANCH   3   4
ENDBRANCH   1   3
BRANCH   1  17
HETATM   17  O3  UNL     1       0.256   6.818  16.187  1.00  0.00    -0.386 OA
HETATM   18  H18 UNL     1      -0.526   7.125  16.679  1.00  0.00     0.211 HD
ENDBRANCH   1  17
BRANCH   1  19
HETATM   19  C11 UNL     1      -1.228   6.450  14.332  1.00  0.00     0.010 C 
HETATM   20  C12 UNL     1      -2.426   6.462  14.944  1.00  0.00    -0.001 C 
BRANCH  20  21
HETATM   21  C13 UNL     1      -3.580   5.779  14.401  1.00  0.00     0.005 C 
HETATM   22  C14 UNL     1      -4.559   6.305  13.634  1.00  0.00    -0.055 C 
HETATM   23  C15 UNL     1      -4.641   7.742  13.191  1.00  0.00     0.046 C 
BRANCH  22  24
HETATM   24  C16 UNL     1      -5.698   5.432  13.119  1.00  0.00     0.154 C 
HETATM   25  O4  UNL     1      -5.116   4.208  12.639  1.00  0.00    -0.375 OA
HETATM   26  C17 UNL     1      -6.066   3.358  11.983  1.00  0.00     0.132 C 
HETATM   27  C20 UNL     1      -7.139   2.929  12.987  1.00  0.00     0.033 C 
HETATM   28  C21 UNL     1      -7.812   4.149  13.606  1.00  0.00     0.009 C 
HETATM   29  C22 UNL     1      -6.771   5.118  14.187  1.00  0.00     0.015 C 
HETATM   30  C23 UNL     1      -7.463   6.372  14.723  1.00  0.00     0.012 C 
BRANCH  26  31
HETATM   31  C18 UNL     1      -5.292   2.166  11.427  1.00  0.00     0.141 C 
BRANCH  31  32
HETATM   32  C19 UNL     1      -3.855   2.494  11.169  1.00  0.00     0.141 C 
HETATM   33  O5  UNL     1      -2.895   2.036  11.766  1.00  0.00    -0.650 OA
BRANCH  32  34
HETATM   34  O6  UNL     1      -3.680   3.402  10.191  1.00  0.00    -0.776 OA
HETATM   35  H29 UNL     1      -2.710   3.536  10.164  1.00  0.00     0.167 HD
ENDBRANCH  32  34
ENDBRANCH  31  32
ENDBRANCH  26  31
ENDBRANCH  22  24
ENDBRANCH  20  21
ENDBRANCH   1  19
TORSDOF 14
ENDMDL
MODEL 3
REMARK minimizedAffinity -8.20681858
REMARK  14 active torsions:
REMARK  status: ('A' for Active; 'I' for Inactive)
REMARK    1  A    between atoms: O1_2  and  C2_3 
REMARK    2  A    between atoms: C2_3  and  C3_4 
REMARK    3  A    between atoms: C2_3  and  C24_30 
REMARK    4  A    between atoms: C3_4  and  C5_6 
REMARK    5  A    between atoms: C6_8  and  C8_10 
REMARK    6  A    between atoms: C8_10  and  C9_11 
REMARK    7  A    between atoms: C9_11  and  O3_13 
REMARK    8  A    between atoms: C9_11  and  C11_14 
REMARK    9  A    between atoms: C12_15  and  C13_16 
REMARK   10  A    between atoms: C14_17  and  C16_19 
REMARK   11  A    between atoms: C17_21  and  C18_22 
REMARK   12  A    between atoms: C18_22  and  C19_23 
REMARK   13  A    between atoms: C19_23  and  O6_25 
REMARK   14  A    between atoms: C24_30  and  O7_32 
ROOT
HETATM    1  C9  UNL     1      -4.689   2.695  11.314  1.00  0.00     0.075 C 
HETATM    2  C10 UNL     1      -5.529   1.434  11.092  1.00  0.00     0.050 C 
ENDROOT
BRANCH   1   3
HETATM    3  C8  UNL     1      -3.494   2.459  12.265  1.00  0.00     0.082 C 
BRANCH   3   4
HETATM    4  C6  UNL     1      -2.157   2.973  11.765  1.00  0.00     0.087 A 
HETATM    5  C5  UNL     1      -1.617   4.294  12.314  1.00  0.00     0.163 A 
HETATM    6  O2  UNL     1      -2.287   4.218  11.052  1.00  0.00    -0.369 OA
HETATM    7  C7  UNL     1      -1.269   1.994  11.054  1.00  0.00     0.049 C 
BRANCH   5   8
HETATM    8  C3  UNL     1      -0.164   4.707  12.245  1.00  0.00     0.045 C 
HETATM    9  C4  UNL     1       0.154   5.573  13.473  1.00  0.00     0.015 C 
BRANCH   8  10
HETATM   10  C2  UNL     1       0.127   5.464  10.915  1.00  0.00     0.155 C 
BRANCH  10  11
HETATM   11  O1  UNL     1      -0.348   6.820  11.024  1.00  0.00    -0.388 OA
HETATM   12  C1  UNL     1       0.220   7.691  10.055  1.00  0.00     0.202 C 
ENDBRANCH  10  11
BRANCH  10  13
HETATM   13  C24 UNL     1       1.645   5.479  10.573  1.00  0.00     0.143 C 
HETATM   14  C25 UNL     1       2.456   6.320  11.554  1.00  0.00     0.042 C 
BRANCH  13  15
HETATM   15  O7  UNL     1       2.182   4.153  10.574  1.00  0.00    -0.393 OA
HETATM   16  H42 UNL     1       3.116   4.214  10.317  1.00  0.00     0.210 HD
ENDBRANCH  13  15
ENDBRANCH  10  13
ENDBRANCH   8  10
ENDBRANCH   5   8
ENDBRANCH   3   4
ENDBRANCH   1   3
BRANCH   1  17
HETATM   17  O3  UNL     1      -4.197   3.122  10.042  1.00  0.00    -0.386 OA
HETATM   18  H18 UNL     1      -4.974   3.291   9.479  1.00  0.00     0.211 HD
ENDBRANCH   1  17
BRANCH   1  19
HETATM   19  C11 UNL     1      -5.572   3.783  11.899  1.00  0.00     0.010 C 
HETATM   20  C12 UNL     1      -5.346   4.472  13.031  1.00  0.00    -0.001 C 
BRANCH  20  21
HETATM   21  C13 UNL     1      -6.246   5.501  13.504  1.00  0.00     0.005 C 
HETATM   22  C14 UNL     1      -7.588   5.422  13.630  1.00  0.00    -0.055 C 
HETATM   23  C15 UNL     1      -8.426   4.218  13.289  1.00  0.00     0.046 C 
BRANCH  22  24
HETATM   24  C16 UNL     1      -8.390   6.600  14.174  1.00  0.00     0.154 C 
HETATM   25  O4  UNL     1      -9.644   6.624  13.474  1.00  0.00    -0.375 OA
HETATM   26  C17 UNL     1     -10.434   7.781  13.781  1.00  0.00     0.132 C 
HETATM   27  C20 UNL     1     -10.801   7.762  15.267  1.00  0.00     0.033 C 
HETATM   28  C21 UNL     1      -9.543   7.696  16.128  1.00  0.00     0.009 C 
HETATM   29  C22 UNL     1      -8.641   6.530  15.698  1.00  0.00     0.015 C 
HETATM   30  C23 UNL     1      -7.349   6.537  16.515  1.00  0.00     0.012 C 
BRANCH  26  31
HETATM   31  C18 UNL     1     -11.669   7.731  12.886  1.00  0.00     0.141 C 
BRANCH  31  32
HETATM   32  C19 UNL     1     -12.187   9.097  12.559  1.00  0.00     0.141 C 
HETATM   33  O5  UNL     1     -12.969   9.749  13.230  1.00  0.00    -0.650 OA
BRANCH  32  34
HETATM   34  O6  UNL     1     -11.724   9.580  11.392  1.00  0.00    -0.776 OA
HETATM   35  H29 UNL     1     -12.170  10.447  11.301  1.00  0.00     0.167 HD
ENDBRANCH  32  34
ENDBRANCH  31  32
ENDBRANCH  26  31
ENDBRANCH  22  24
ENDBRANCH  20  21
ENDBRANCH   1  19
TORSDOF 14
ENDMDL
MODEL 4
REMARK minimizedAffinity -8.19082928
REMARK  14 active torsions:
REMARK  status: ('A' for Active; 'I' for Inactive)
REMARK    1  A    between atoms: O1_2  and  C2_3 
REMARK    2  A    between atoms: C2_3  and  C3_4 
REMARK    3  A    between atoms: C2_3  and  C24_30 
REMARK    4  A    between atoms: C3_4  and  C5_6 
REMARK    5  A    between atoms: C6_8  and  C8_10 
REMARK    6  A    between atoms: C8_10  and  C9_11 
REMARK    7  A    between atoms: C9_11  and  O3_13 
REMARK    8  A    between atoms: C9_11  and  C11_14 
REMARK    9  A    between atoms: C12_15  and  C13_16 
REMARK   10  A    between atoms: C14_17  and  C16_19 
REMARK   11  A    between atoms: C17_21  and  C18_22 
REMARK   12  A    between atoms: C18_22  and  C19_23 
REMARK   13  A    between atoms: C19_23  and  O6_25 
REMARK   14  A    between atoms: C24_30  and  O7_32 
ROOT
HETATM    1  C9  UNL     1      -0.189   6.149  11.868  1.00  0.00     0.075 C 
HETATM    2  C10 UNL     1       0.735   5.990  13.079  1.00  0.00     0.050 C 
ENDROOT
BRANCH   1   3
HETATM    3  C8  UNL     1      -0.156   7.575  11.273  1.00  0.00     0.082 C 
BRANCH   3   4
HETATM    4  C6  UNL     1       0.867   7.793  10.174  1.00  0.00     0.087 A 
HETATM    5  C5  UNL     1       2.249   7.151  10.308  1.00  0.00     0.163 A 
HETATM    6  O2  UNL     1       2.017   8.524  10.640  1.00  0.00    -0.369 OA
HETATM    7  C7  UNL     1       0.359   8.301   8.855  1.00  0.00     0.049 C 
BRANCH   5   8
HETATM    8  C3  UNL     1       3.190   6.922   9.147  1.00  0.00     0.045 C 
HETATM    9  C4  UNL     1       2.355   6.596   7.900  1.00  0.00     0.015 C 
BRANCH   8  10
HETATM   10  C2  UNL     1       4.201   5.784   9.478  1.00  0.00     0.155 C 
BRANCH  10  11
HETATM   11  O1  UNL     1       4.540   5.838  10.877  1.00  0.00    -0.388 OA
HETATM   12  C1  UNL     1       5.835   6.371  11.119  1.00  0.00     0.202 C 
ENDBRANCH  10  11
BRANCH  10  13
HETATM   13  C24 UNL     1       3.625   4.377   9.144  1.00  0.00     0.143 C 
HETATM   14  C25 UNL     1       4.719   3.350   8.870  1.00  0.00     0.042 C 
BRANCH  13  15
HETATM   15  O7  UNL     1       2.817   3.889  10.218  1.00  0.00    -0.393 OA
HETATM   16  H42 UNL     1       2.452   3.032   9.945  1.00  0.00     0.210 HD
ENDBRANCH  13  15
ENDBRANCH  10  13
ENDBRANCH   8  10
ENDBRANCH   5   8
ENDBRANCH   3   4
ENDBRANCH   1   3
BRANCH   1  17
HETATM   17  O3  UNL     1       0.231   5.216  10.872  1.00  0.00    -0.386 OA
HETATM   18  H18 UNL     1       0.167   4.329  11.269  1.00  0.00     0.211 HD
ENDBRANCH   1  17
BRANCH   1  19
HETATM   19  C11 UNL     1      -1.613   5.828  12.286  1.00  0.00     0.010 C 
HETATM   20  C12 UNL     1      -2.043   4.683  12.845  1.00  0.00    -0.001 C 
BRANCH  20  21
HETATM   21  C13 UNL     1      -3.425   4.475  13.218  1.00  0.00     0.005 C 
HETATM   22  C14 UNL     1      -4.425   4.014  12.437  1.00  0.00    -0.055 C 
HETATM   23  C15 UNL     1      -4.290   3.624  10.989  1.00  0.00     0.046 C 
BRANCH  22  24
HETATM   24  C16 UNL     1      -5.830   3.827  13.000  1.00  0.00     0.154 C 
HETATM   25  O4  UNL     1      -6.379   5.136  13.223  1.00  0.00    -0.375 OA
HETATM   26  C17 UNL     1      -7.644   5.104  13.899  1.00  0.00     0.132 C 
HETATM   27  C20 UNL     1      -8.667   4.380  13.021  1.00  0.00     0.033 C 
HETATM   28  C21 UNL     1      -8.180   2.976  12.676  1.00  0.00     0.009 C 
HETATM   29  C22 UNL     1      -6.767   3.016  12.076  1.00  0.00     0.015 C 
HETATM   30  C23 UNL     1      -6.266   1.594  11.820  1.00  0.00     0.012 C 
BRANCH  26  31
HETATM   31  C18 UNL     1      -8.044   6.551  14.170  1.00  0.00     0.141 C 
BRANCH  31  32
HETATM   32  C19 UNL     1      -8.711   6.715  15.500  1.00  0.00     0.141 C 
HETATM   33  O5  UNL     1      -8.156   6.960  16.558  1.00  0.00    -0.650 OA
BRANCH  32  34
HETATM   34  O6  UNL     1     -10.045   6.539  15.456  1.00  0.00    -0.776 OA
HETATM   35  H29 UNL     1     -10.328   6.641  16.388  1.00  0.00     0.167 HD
ENDBRANCH  32  34
ENDBRANCH  31  32
ENDBRANCH  26  31
ENDBRANCH  22  24
ENDBRANCH  20  21
ENDBRANCH   1  19
TORSDOF 14
ENDMDL
MODEL 5
REMARK minimizedAffinity -8.18342018
REMARK  14 active torsions:
REMARK  status: ('A' for Active; 'I' for Inactive)
REMARK    1  A    between atoms: O1_2  and  C2_3 
REMARK    2  A    between atoms: C2_3  and  C3_4 
REMARK    3  A    between atoms: C2_3  and  C24_30 
REMARK    4  A    between atoms: C3_4  and  C5_6 
REMARK    5  A    between atoms: C6_8  and  C8_10 
REMARK    6  A    between atoms: C8_10  and  C9_11 
REMARK    7  A    between atoms: C9_11  and  O3_13 
REMARK    8  A    between atoms: C9_11  and  C11_14 
REMARK    9  A    between atoms: C12_15  and  C13_16 
REMARK   10  A    between atoms: C14_17  and  C16_19 
REMARK   11  A    between atoms: C17_21  and  C18_22 
REMARK   12  A    between atoms: C18_22  and  C19_23 
REMARK   13  A    between atoms: C19_23  and  O6_25 
REMARK   14  A    between atoms: C24_30  and  O7_32 
ROOT
HETATM    1  C9  UNL     1      -0.959   8.731  12.471  1.00  0.00     0.075 C 
HETATM    2  C10 UNL     1      -0.747   8.809  10.957  1.00  0.00     0.050 C 
ENDROOT
BRANCH   1   3
HETATM    3  C8  UNL     1       0.216   8.047  13.207  1.00  0.00     0.082 C 
BRANCH   3   4
HETATM    4  C6  UNL     1       1.533   8.040  12.455  1.00  0.00     0.087 A 
HETATM    5  C5  UNL     1       1.789   6.946  11.416  1.00  0.00     0.163 A 
HETATM    6  O2  UNL     1       2.317   6.867  12.744  1.00  0.00    -0.369 OA
HETATM    7  C7  UNL     1       2.350   9.299  12.488  1.00  0.00     0.049 C 
BRANCH   5   8
HETATM    8  C3  UNL     1       2.825   7.047  10.320  1.00  0.00     0.045 C 
HETATM    9  C4  UNL     1       2.122   6.857   8.968  1.00  0.00     0.015 C 
BRANCH   8  10
HETATM   10  C2  UNL     1       3.955   5.996  10.535  1.00  0.00     0.155 C 
BRANCH  10  11
HETATM   11  O1  UNL     1       4.218   5.318   9.291  1.00  0.00    -0.388 OA
HETATM   12  C1  UNL     1       3.888   3.936   9.326  1.00  0.00     0.202 C 
ENDBRANCH  10  11
BRANCH  10  13
HETATM   13  C24 UNL     1       5.270   6.649  11.050  1.00  0.00     0.143 C 
HETATM   14  C25 UNL     1       6.444   5.675  11.048  1.00  0.00     0.042 C 
BRANCH  13  15
HETATM   15  O7  UNL     1       5.627   7.778  10.249  1.00  0.00    -0.393 OA
HETATM   16  H42 UNL     1       6.427   8.171  10.634  1.00  0.00     0.210 HD
ENDBRANCH  13  15
ENDBRANCH  10  13
ENDBRANCH   8  10
ENDBRANCH   5   8
ENDBRANCH   3   4
ENDBRANCH   1   3
BRANCH   1  17
HETATM   17  O3  UNL     1      -1.104  10.066  12.961  1.00  0.00    -0.386 OA
HETATM   18  H18 UNL     1      -1.870  10.455  12.501  1.00  0.00     0.211 HD
ENDBRANCH   1  17
BRANCH   1  19
HETATM   19  C11 UNL     1      -2.232   7.953  12.755  1.00  0.00     0.010 C 
HETATM   20  C12 UNL     1      -2.350   6.617  12.837  1.00  0.00    -0.001 C 
BRANCH  20  21
HETATM   21  C13 UNL     1      -3.610   5.966  13.123  1.00  0.00     0.005 C 
HETATM   22  C14 UNL     1      -3.974   4.706  12.802  1.00  0.00    -0.055 C 
HETATM   23  C15 UNL     1      -3.116   3.714  12.062  1.00  0.00     0.046 C 
BRANCH  22  24
HETATM   24  C16 UNL     1      -5.341   4.165  13.205  1.00  0.00     0.154 C 
HETATM   25  O4  UNL     1      -6.110   5.272  13.703  1.00  0.00    -0.375 OA
HETATM   26  C17 UNL     1      -7.369   4.872  14.262  1.00  0.00     0.132 C 
HETATM   27  C20 UNL     1      -8.231   4.241  13.166  1.00  0.00     0.033 C 
HETATM   28  C21 UNL     1      -7.503   3.064  12.522  1.00  0.00     0.009 C 
HETATM   29  C22 UNL     1      -6.102   3.476  12.048  1.00  0.00     0.015 C 
HETATM   30  C23 UNL     1      -5.360   2.262  11.487  1.00  0.00     0.012 C 
BRANCH  26  31
HETATM   31  C18 UNL     1      -8.015   6.121  14.851  1.00  0.00     0.141 C 
BRANCH  31  32
HETATM   32  C19 UNL     1      -7.435   6.486  16.182  1.00  0.00     0.141 C 
HETATM   33  O5  UNL     1      -7.935   7.237  17.002  1.00  0.00    -0.650 OA
BRANCH  32  34
HETATM   34  O6  UNL     1      -6.240   5.916  16.420  1.00  0.00    -0.776 OA
HETATM   35  H29 UNL     1      -5.978   6.270  17.295  1.00  0.00     0.167 HD
ENDBRANCH  32  34
ENDBRANCH  31  32
ENDBRANCH  26  31
ENDBRANCH  22  24
ENDBRANCH  20  21
ENDBRANCH   1  19
TORSDOF 14
ENDMDL
MODEL 6
REMARK minimizedAffinity -8.13263035
REMARK  14 active torsions:
REMARK  status: ('A' for Active; 'I' for Inactive)
REMARK    1  A    between atoms: O1_2  and  C2_3 
REMARK    2  A    between atoms: C2_3  and  C3_4 
REMARK    3  A    between atoms: C2_3  and  C24_30 
REMARK    4  A    between atoms: C3_4  and  C5_6 
REMARK    5  A    between atoms: C6_8  and  C8_10 
REMARK    6  A    between atoms: C8_10  and  C9_11 
REMARK    7  A    between atoms: C9_11  and  O3_13 
REMARK    8  A    between atoms: C9_11  and  C11_14 
REMARK    9  A    between atoms: C12_15  and  C13_16 
REMARK   10  A    between atoms: C14_17  and  C16_19 
REMARK   11  A    between atoms: C17_21  and  C18_22 
REMARK   12  A    between atoms: C18_22  and  C19_23 
REMARK   13  A    between atoms: C19_23  and  O6_25 
REMARK   14  A    between atoms: C24_30  and  O7_32 
ROOT
HETATM    1  C9  UNL     1      -3.916   9.034  14.407  1.00  0.00     0.075 C 
HETATM    2  C10 UNL     1      -3.445   8.305  15.668  1.00  0.00     0.050 C 
ENDROOT
BRANCH   1   3
HETATM    3  C8  UNL     1      -5.116   8.339  13.726  1.00  0.00     0.082 C 
BRANCH   3   4
HETATM    4  C6  UNL     1      -5.290   6.871  14.065  1.00  0.00     0.087 A 
HETATM    5  C5  UNL     1      -5.066   5.824  12.972  1.00  0.00     0.163 A 
HETATM    6  O2  UNL     1      -6.377   6.270  13.335  1.00  0.00    -0.369 OA
HETATM    7  C7  UNL     1      -5.300   6.499  15.520  1.00  0.00     0.049 C 
BRANCH   5   8
HETATM    8  C3  UNL     1      -4.788   4.364  13.244  1.00  0.00     0.045 C 
HETATM    9  C4  UNL     1      -3.366   4.042  12.760  1.00  0.00     0.015 C 
BRANCH   8  10
HETATM   10  C2  UNL     1      -5.851   3.463  12.548  1.00  0.00     0.155 C 
BRANCH  10  11
HETATM   11  O1  UNL     1      -6.896   4.293  12.004  1.00  0.00    -0.388 OA
HETATM   12  C1  UNL     1      -8.196   3.903  12.424  1.00  0.00     0.202 C 
ENDBRANCH  10  11
BRANCH  10  13
HETATM   13  C24 UNL     1      -5.233   2.605  11.406  1.00  0.00     0.143 C 
HETATM   14  C25 UNL     1      -5.864   1.220  11.312  1.00  0.00     0.042 C 
BRANCH  13  15
HETATM   15  O7  UNL     1      -5.388   3.251  10.140  1.00  0.00    -0.393 OA
HETATM   16  H42 UNL     1      -4.953   2.698   9.472  1.00  0.00     0.210 HD
ENDBRANCH  13  15
ENDBRANCH  10  13
ENDBRANCH   8  10
ENDBRANCH   5   8
ENDBRANCH   3   4
ENDBRANCH   1   3
BRANCH   1  17
HETATM   17  O3  UNL     1      -4.295  10.359  14.784  1.00  0.00    -0.386 OA
HETATM   18  H18 UNL     1      -3.510  10.778  15.180  1.00  0.00     0.211 HD
ENDBRANCH   1  17
BRANCH   1  19
HETATM   19  C11 UNL     1      -2.767   9.106  13.417  1.00  0.00     0.010 C 
HETATM   20  C12 UNL     1      -2.143   8.065  12.840  1.00  0.00    -0.001 C 
BRANCH  20  21
HETATM   21  C13 UNL     1      -1.059   8.236  11.897  1.00  0.00     0.005 C 
HETATM   22  C14 UNL     1      -0.077   7.356  11.608  1.00  0.00    -0.055 C 
HETATM   23  C15 UNL     1       0.085   5.995  12.231  1.00  0.00     0.046 C 
BRANCH  22  24
HETATM   24  C16 UNL     1       0.981   7.687  10.561  1.00  0.00     0.154 C 
HETATM   25  O4  UNL     1       1.983   6.660  10.625  1.00  0.00    -0.375 OA
HETATM   26  C17 UNL     1       3.120   6.935   9.795  1.00  0.00     0.132 C 
HETATM   27  C20 UNL     1       2.678   6.976   8.330  1.00  0.00     0.033 C 
HETATM   28  C21 UNL     1       1.575   8.012   8.133  1.00  0.00     0.009 C 
HETATM   29  C22 UNL     1       0.422   7.785   9.122  1.00  0.00     0.015 C 
HETATM   30  C23 UNL     1      -0.628   8.884   8.964  1.00  0.00     0.012 C 
BRANCH  26  31
HETATM   31  C18 UNL     1       4.142   5.832  10.054  1.00  0.00     0.141 C 
BRANCH  31  32
HETATM   32  C19 UNL     1       3.690   4.506   9.525  1.00  0.00     0.141 C 
HETATM   33  O5  UNL     1       4.118   3.945   8.530  1.00  0.00    -0.650 OA
BRANCH  32  34
HETATM   34  O6  UNL     1       2.703   3.948  10.250  1.00  0.00    -0.776 OA
HETATM   35  H29 UNL     1       2.496   3.120   9.770  1.00  0.00     0.167 HD
ENDBRANCH  32  34
ENDBRANCH  31  32
ENDBRANCH  26  31
ENDBRANCH  22  24
ENDBRANCH  20  21
ENDBRANCH   1  19
TORSDOF 14
ENDMDL
MODEL 7
REMARK minimizedAffinity -8.08024883
REMARK  14 active torsions:
REMARK  status: ('A' for Active; 'I' for Inactive)
REMARK    1  A    between atoms: O1_2  and  C2_3 
REMARK    2  A    between atoms: C2_3  and  C3_4 
REMARK    3  A    between atoms: C2_3  and  C24_30 
REMARK    4  A    between atoms: C3_4  and  C5_6 
REMARK    5  A    between atoms: C6_8  and  C8_10 
REMARK    6  A    between atoms: C8_10  and  C9_11 
REMARK    7  A    between atoms: C9_11  and  O3_13 
REMARK    8  A    between atoms: C9_11  and  C11_14 
REMARK    9  A    between atoms: C12_15  and  C13_16 
REMARK   10  A    between atoms: C14_17  and  C16_19 
REMARK   11  A    between atoms: C17_21  and  C18_22 
REMARK   12  A    between atoms: C18_22  and  C19_23 
REMARK   13  A    between atoms: C19_23  and  O6_25 
REMARK   14  A    between atoms: C24_30  and  O7_32 
ROOT
HETATM    1  C9  UNL     1      -0.498   7.574  15.468  1.00  0.00     0.075 C 
HETATM    2  C10 UNL     1      -1.003   8.853  16.142  1.00  0.00     0.050 C 
ENDROOT
BRANCH   1   3
HETATM    3  C8  UNL     1       0.476   7.855  14.302  1.00  0.00     0.082 C 
BRANCH   3   4
HETATM    4  C6  UNL     1       0.362   6.911  13.121  1.00  0.00     0.087 A 
HETATM    5  C5  UNL     1       0.707   7.426  11.722  1.00  0.00     0.163 A 
HETATM    6  O2  UNL     1      -0.645   7.335  12.182  1.00  0.00    -0.369 OA
HETATM    7  C7  UNL     1       0.285   5.442  13.422  1.00  0.00     0.049 C 
BRANCH   5   8
HETATM    8  C3  UNL     1       1.047   6.531  10.552  1.00  0.00     0.045 C 
HETATM    9  C4  UNL     1       1.659   5.232  11.096  1.00  0.00     0.015 C 
BRANCH   8  10
HETATM   10  C2  UNL     1       2.015   7.257   9.571  1.00  0.00     0.155 C 
BRANCH  10  11
HETATM   11  O1  UNL     1       3.048   6.342   9.156  1.00  0.00    -0.388 OA
HETATM   12  C1  UNL     1       2.785   5.733   7.900  1.00  0.00     0.202 C 
ENDBRANCH  10  11
BRANCH  10  13
HETATM   13  C24 UNL     1       1.274   7.797   8.313  1.00  0.00     0.143 C 
HETATM   14  C25 UNL     1      -0.071   8.430   8.656  1.00  0.00     0.042 C 
BRANCH  13  15
HETATM   15  O7  UNL     1       2.066   8.776   7.635  1.00  0.00    -0.393 OA
HETATM   16  H42 UNL     1       1.580   9.050   6.841  1.00  0.00     0.210 HD
ENDBRANCH  13  15
ENDBRANCH  10  13
ENDBRANCH   8  10
ENDBRANCH   5   8
ENDBRANCH   3   4
ENDBRANCH   1   3
BRANCH   1  17
HETATM   17  O3  UNL     1       0.170   6.792  16.459  1.00  0.00    -0.386 OA
HETATM   18  H18 UNL     1      -0.479   6.607  17.161  1.00  0.00     0.211 HD
ENDBRANCH   1  17
BRANCH   1  19
HETATM   19  C11 UNL     1      -1.686   6.793  14.933  1.00  0.00     0.010 C 
HETATM   20  C12 UNL     1      -2.953   6.860  15.379  1.00  0.00    -0.001 C 
BRANCH  20  21
HETATM   21  C13 UNL     1      -4.022   6.079  14.795  1.00  0.00     0.005 C 
HETATM   22  C14 UNL     1      -4.990   6.511  13.959  1.00  0.00    -0.055 C 
HETATM   23  C15 UNL     1      -5.149   7.925  13.466  1.00  0.00     0.046 C 
BRANCH  22  24
HETATM   24  C16 UNL     1      -6.033   5.543  13.411  1.00  0.00     0.154 C 
HETATM   25  O4  UNL     1      -5.364   4.673  12.483  1.00  0.00    -0.375 OA
HETATM   26  C17 UNL     1      -6.265   3.811  11.775  1.00  0.00     0.132 C 
HETATM   27  C20 UNL     1      -6.960   2.880  12.772  1.00  0.00     0.033 C 
HETATM   28  C21 UNL     1      -7.683   3.689  13.845  1.00  0.00     0.009 C 
HETATM   29  C22 UNL     1      -6.736   4.703  14.502  1.00  0.00     0.015 C 
HETATM   30  C23 UNL     1      -7.503   5.559  15.511  1.00  0.00     0.012 C 
BRANCH  26  31
HETATM   31  C18 UNL     1      -5.437   3.039  10.753  1.00  0.00     0.141 C 
BRANCH  31  32
HETATM   32  C19 UNL     1      -5.284   1.596  11.120  1.00  0.00     0.141 C 
HETATM   33  O5  UNL     1      -6.167   0.755  11.115  1.00  0.00    -0.650 OA
BRANCH  32  34
HETATM   34  O6  UNL     1      -4.035   1.271  11.503  1.00  0.00    -0.776 OA
HETATM   35  H29 UNL     1      -4.100   0.322  11.741  1.00  0.00     0.167 HD
ENDBRANCH  32  34
ENDBRANCH  31  32
ENDBRANCH  26  31
ENDBRANCH  22  24
ENDBRANCH  20  21
ENDBRANCH   1  19
TORSDOF 14
ENDMDL
MODEL 8
REMARK minimizedAffinity -8.03973675
REMARK  14 active torsions:
REMARK  status: ('A' for Active; 'I' for Inactive)
REMARK    1  A    between atoms: O1_2  and  C2_3 
REMARK    2  A    between atoms: C2_3  and  C3_4 
REMARK    3  A    between atoms: C2_3  and  C24_30 
REMARK    4  A    between atoms: C3_4  and  C5_6 
REMARK    5  A    between atoms: C6_8  and  C8_10 
REMARK    6  A    between atoms: C8_10  and  C9_11 
REMARK    7  A    between atoms: C9_11  and  O3_13 
REMARK    8  A    between atoms: C9_11  and  C11_14 
REMARK    9  A    between atoms: C12_15  and  C13_16 
REMARK   10  A    between atoms: C14_17  and  C16_19 
REMARK   11  A    between atoms: C17_21  and  C18_22 
REMARK   12  A    between atoms: C18_22  and  C19_23 
REMARK   13  A    between atoms: C19_23  and  O6_25 
REMARK   14  A    between atoms: C24_30  and  O7_32 
ROOT
HETATM    1  C9  UNL     1       0.303   6.667  12.007  1.00  0.00     0.075 C 
HETATM    2  C10 UNL     1       1.295   5.506  11.904  1.00  0.00     0.050 C 
ENDROOT
BRANCH   1   3
HETATM    3  C8  UNL     1       0.752   7.752  13.012  1.00  0.00     0.082 C 
BRANCH   3   4
HETATM    4  C6  UNL     1       2.177   8.242  12.840  1.00  0.00     0.087 A 
HETATM    5  C5  UNL     1       3.214   7.305  12.217  1.00  0.00     0.163 A 
HETATM    6  O2  UNL     1       3.111   7.484  13.634  1.00  0.00    -0.369 OA
HETATM    7  C7  UNL     1       2.411   9.722  12.936  1.00  0.00     0.049 C 
BRANCH   5   8
HETATM    8  C3  UNL     1       4.515   7.772  11.606  1.00  0.00     0.045 C 
HETATM    9  C4  UNL     1       4.488   9.305  11.516  1.00  0.00     0.015 C 
BRANCH   8  10
HETATM   10  C2  UNL     1       4.730   7.117  10.209  1.00  0.00     0.155 C 
BRANCH  10  11
HETATM   11  O1  UNL     1       5.417   5.861  10.371  1.00  0.00    -0.388 OA
HETATM   12  C1  UNL     1       6.580   5.959  11.180  1.00  0.00     0.202 C 
ENDBRANCH  10  11
BRANCH  10  13
HETATM   13  C24 UNL     1       3.385   6.873   9.465  1.00  0.00     0.143 C 
HETATM   14  C25 UNL     1       3.028   8.014   8.517  1.00  0.00     0.042 C 
BRANCH  13  15
HETATM   15  O7  UNL     1       3.434   5.663   8.705  1.00  0.00    -0.393 OA
HETATM   16  H42 UNL     1       2.563   5.537   8.295  1.00  0.00     0.210 HD
ENDBRANCH  13  15
ENDBRANCH  10  13
ENDBRANCH   8  10
ENDBRANCH   5   8
ENDBRANCH   3   4
ENDBRANCH   1   3
BRANCH   1  17
HETATM   17  O3  UNL     1       0.179   7.252  10.710  1.00  0.00    -0.386 OA
HETATM   18  H18 UNL     1      -0.136   6.551  10.111  1.00  0.00     0.211 HD
ENDBRANCH   1  17
BRANCH   1  19
HETATM   19  C11 UNL     1      -1.048   6.127  12.443  1.00  0.00     0.010 C 
HETATM   20  C12 UNL     1      -1.487   4.864  12.305  1.00  0.00    -0.001 C 
BRANCH  20  21
HETATM   21  C13 UNL     1      -2.793   4.443  12.763  1.00  0.00     0.005 C 
HETATM   22  C14 UNL     1      -3.813   3.975  12.013  1.00  0.00    -0.055 C 
HETATM   23  C15 UNL     1      -3.788   3.803  10.517  1.00  0.00     0.046 C 
BRANCH  22  24
HETATM   24  C16 UNL     1      -5.124   3.546  12.663  1.00  0.00     0.154 C 
HETATM   25  O4  UNL     1      -5.850   4.742  12.992  1.00  0.00    -0.375 OA
HETATM   26  C17 UNL     1      -7.038   4.484  13.753  1.00  0.00     0.132 C 
HETATM   27  C20 UNL     1      -8.003   3.643  12.913  1.00  0.00     0.033 C 
HETATM   28  C21 UNL     1      -7.333   2.349  12.462  1.00  0.00     0.009 C 
HETATM   29  C22 UNL     1      -5.994   2.635  11.766  1.00  0.00     0.015 C 
HETATM   30  C23 UNL     1      -5.301   1.322  11.402  1.00  0.00     0.012 C 
BRANCH  26  31
HETATM   31  C18 UNL     1      -7.634   5.838  14.127  1.00  0.00     0.141 C 
BRANCH  31  32
HETATM   32  C19 UNL     1      -8.130   5.868  15.539  1.00  0.00     0.141 C 
HETATM   33  O5  UNL     1      -8.528   6.852  16.140  1.00  0.00    -0.650 OA
BRANCH  32  34
HETATM   34  O6  UNL     1      -8.083   4.670  16.149  1.00  0.00    -0.776 OA
HETATM   35  H29 UNL     1      -8.400   4.854  17.057  1.00  0.00     0.167 HD
ENDBRANCH  32  34
ENDBRANCH  31  32
ENDBRANCH  26  31
ENDBRANCH  22  24
ENDBRANCH  20  21
ENDBRANCH   1  19
TORSDOF 14
ENDMDL
MODEL 9
REMARK minimizedAffinity -8.01246738
REMARK  14 active torsions:
REMARK  status: ('A' for Active; 'I' for Inactive)
REMARK    1  A    between atoms: O1_2  and  C2_3 
REMARK    2  A    between atoms: C2_3  and  C3_4 
REMARK    3  A    between atoms: C2_3  and  C24_30 
REMARK    4  A    between atoms: C3_4  and  C5_6 
REMARK    5  A    between atoms: C6_8  and  C8_10 
REMARK    6  A    between atoms: C8_10  and  C9_11 
REMARK    7  A    between atoms: C9_11  and  O3_13 
REMARK    8  A    between atoms: C9_11  and  C11_14 
REMARK    9  A    between atoms: C12_15  and  C13_16 
REMARK   10  A    between atoms: C14_17  and  C16_19 
REMARK   11  A    between atoms: C17_21  and  C18_22 
REMARK   12  A    between atoms: C18_22  and  C19_23 
REMARK   13  A    between atoms: C19_23  and  O6_25 
REMARK   14  A    between atoms: C24_30  and  O7_32 
ROOT
HETATM    1  C9  UNL     1       0.344   7.418  15.360  1.00  0.00     0.075 C 
HETATM    2  C10 UNL     1      -0.469   8.699  15.569  1.00  0.00     0.050 C 
ENDROOT
BRANCH   1   3
HETATM    3  C8  UNL     1       1.551   7.622  14.417  1.00  0.00     0.082 C 
BRANCH   3   4
HETATM    4  C6  UNL     1       1.305   7.258  12.965  1.00  0.00     0.087 A 
HETATM    5  C5  UNL     1       1.683   8.262  11.874  1.00  0.00     0.163 A 
HETATM    6  O2  UNL     1       0.338   8.126  12.344  1.00  0.00    -0.369 OA
HETATM    7  C7  UNL     1       1.063   5.810  12.652  1.00  0.00     0.049 C 
BRANCH   5   8
HETATM    8  C3  UNL     1       1.895   7.893  10.423  1.00  0.00     0.045 C 
HETATM    9  C4  UNL     1       0.539   7.950   9.704  1.00  0.00     0.015 C 
BRANCH   8  10
HETATM   10  C2  UNL     1       2.551   6.485  10.306  1.00  0.00     0.155 C 
BRANCH  10  11
HETATM   11  O1  UNL     1       2.021   5.806   9.151  1.00  0.00    -0.388 OA
HETATM   12  C1  UNL     1       2.549   6.293   7.925  1.00  0.00     0.202 C 
ENDBRANCH  10  11
BRANCH  10  13
HETATM   13  C24 UNL     1       4.100   6.570  10.184  1.00  0.00     0.143 C 
HETATM   14  C25 UNL     1       4.733   7.348  11.334  1.00  0.00     0.042 C 
BRANCH  13  15
HETATM   15  O7  UNL     1       4.683   5.264  10.157  1.00  0.00    -0.393 OA
HETATM   16  H42 UNL     1       5.641   5.372  10.040  1.00  0.00     0.210 HD
ENDBRANCH  13  15
ENDBRANCH  10  13
ENDBRANCH   8  10
ENDBRANCH   5   8
ENDBRANCH   3   4
ENDBRANCH   1   3
BRANCH   1  17
HETATM   17  O3  UNL     1       0.816   6.987  16.638  1.00  0.00    -0.386 OA
HETATM   18  H18 UNL     1       0.031   6.838  17.195  1.00  0.00     0.211 HD
ENDBRANCH   1  17
BRANCH   1  19
HETATM   19  C11 UNL     1      -0.559   6.347  14.773  1.00  0.00     0.010 C 
HETATM   20  C12 UNL     1      -1.888   6.241  14.944  1.00  0.00    -0.001 C 
BRANCH  20  21
HETATM   21  C13 UNL     1      -2.666   5.186  14.333  1.00  0.00     0.005 C 
HETATM   22  C14 UNL     1      -3.783   5.317  13.587  1.00  0.00    -0.055 C 
HETATM   23  C15 UNL     1      -4.454   6.622  13.245  1.00  0.00     0.046 C 
BRANCH  22  24
HETATM   24  C16 UNL     1      -4.470   4.093  12.991  1.00  0.00     0.154 C 
HETATM   25  O4  UNL     1      -5.887   4.313  13.077  1.00  0.00    -0.375 OA
HETATM   26  C17 UNL     1      -6.656   3.165  12.691  1.00  0.00     0.132 C 
HETATM   27  C20 UNL     1      -6.384   2.849  11.218  1.00  0.00     0.033 C 
HETATM   28  C21 UNL     1      -4.893   2.631  10.983  1.00  0.00     0.009 C 
HETATM   29  C22 UNL     1      -4.072   3.810  11.524  1.00  0.00     0.015 C 
HETATM   30  C23 UNL     1      -2.578   3.530  11.356  1.00  0.00     0.012 C 
BRANCH  26  31
HETATM   31  C18 UNL     1      -8.122   3.501  12.944  1.00  0.00     0.141 C 
BRANCH  31  32
HETATM   32  C19 UNL     1      -8.367   4.978  12.984  1.00  0.00     0.141 C 
HETATM   33  O5  UNL     1      -8.587   5.696  12.023  1.00  0.00    -0.650 OA
BRANCH  32  34
HETATM   34  O6  UNL     1      -8.300   5.498  14.223  1.00  0.00    -0.776 OA
HETATM   35  H29 UNL     1      -8.444   6.457  14.084  1.00  0.00     0.167 HD
ENDBRANCH  32  34
ENDBRANCH  31  32
ENDBRANCH  26  31
ENDBRANCH  22  24
ENDBRANCH  20  21
ENDBRANCH   1  19
TORSDOF 14
ENDMDL
