MODEL 1
REMARK minimizedAffinity -7.68125963
REMARK CNNscore 0.695564985
REMARK CNNaffinity 6.99817038
REMARK  9 active torsions:
REMARK  status: ('A' for Active; 'I' for Inactive)
REMARK    1  A    between atoms: C2_2  and  C3_3 
REMARK    2  A    between atoms: C3_3  and  C5_5 
REMARK    3  A    between atoms: C3_3  and  C6_7 
REMARK    4  A    between atoms: C5_5  and  O1_6 
REMARK    5  A    between atoms: C7_8  and  O2_9 
REMARK    6  A    between atoms: C18_22  and  O5_23 
REMARK    7  A    between atoms: O5_23  and  C19_24 
REMARK    8  A    between atoms: C19_24  and  C20_26 
REMARK    9  A    between atoms: C29_36  and  O8_37 
ROOT
HETATM    1  C6  UNL     1      -4.249   3.620  11.869  1.00  0.00     0.023 A 
HETATM    2  C7  UNL     1      -5.408   2.816  11.745  1.00  0.00     0.076 A 
HETATM    3  C8  UNL     1      -6.659   3.224  12.211  1.00  0.00     0.053 A 
HETATM    4  C9  UNL     1      -6.797   4.458  12.844  1.00  0.00     0.034 A 
HETATM    5  C10 UNL     1      -8.123   4.861  13.341  1.00  0.00     0.192 C 
HETATM    6  O3  UNL     1      -9.045   4.054  13.326  1.00  0.00    -0.287 OA
HETATM    7  C11 UNL     1      -8.299   6.231  13.888  1.00  0.00     0.035 C 
HETATM    8  C12 UNL     1      -7.217   6.978  14.157  1.00  0.00     0.131 C 
HETATM    9  O4  UNL     1      -7.268   8.178  14.842  1.00  0.00    -0.336 OA
HETATM   10  C13 UNL     1      -8.477   8.493  15.564  1.00  0.00     0.065 C 
HETATM   11  C14 UNL     1      -8.471   7.747  16.907  1.00  0.00     0.046 C 
HETATM   12  C15 UNL     1      -8.377  10.000  15.852  1.00  0.00     0.046 C 
HETATM   13  C16 UNL     1      -9.693   8.179  14.666  1.00  0.00     0.031 C 
HETATM   14  C17 UNL     1     -11.064   8.549  15.246  1.00  0.00     0.041 C 
HETATM   15  C18 UNL     1     -12.171   8.354  14.200  1.00  0.00     0.136 C 
HETATM   16  C23 UNL     1     -12.148   6.932  13.607  1.00  0.00     0.012 C 
HETATM   17  C24 UNL     1     -13.169   6.795  12.472  1.00  0.00     0.012 C 
HETATM   18  C25 UNL     1     -10.744   6.541  13.112  1.00  0.00     0.017 C 
HETATM   19  C26 UNL     1      -9.699   6.691  14.239  1.00  0.00     0.033 C 
HETATM   20  C27 UNL     1      -5.848   6.539  13.757  1.00  0.00     0.219 C 
HETATM   21  O7  UNL     1      -4.853   7.216  14.008  1.00  0.00    -0.284 OA
HETATM   22  C28 UNL     1      -5.686   5.265  13.032  1.00  0.00     0.065 A 
HETATM   23  C29 UNL     1      -4.419   4.844  12.558  1.00  0.00     0.091 A 
ENDROOT
BRANCH   1  24
HETATM   24  C3  UNL     1      -2.884   3.107  11.301  1.00  0.00     0.027 C 
HETATM   25  C4  UNL     1      -2.638   1.579  11.409  1.00  0.00     0.027 C 
BRANCH  24  26
HETATM   26  C2  UNL     1      -1.725   3.681  12.143  1.00  0.00    -0.021 C 
HETATM   27  C1  UNL     1      -0.414   3.653  11.863  1.00  0.00     0.008 C 
ENDBRANCH  24  26
BRANCH  24  28
HETATM   28  C5  UNL     1      -2.855   3.496   9.782  1.00  0.00     0.182 C 
BRANCH  28  29
HETATM   29  O1  UNL     1      -4.137   3.520   9.146  1.00  0.00    -0.399 OA
HETATM   30  H9  UNL     1      -4.639   4.260   9.530  1.00  0.00     0.209 HD
ENDBRANCH  28  29
ENDBRANCH  24  28
ENDBRANCH   1  24
BRANCH   2  31
HETATM   31  O2  UNL     1      -5.317   1.576  11.175  1.00  0.00    -0.360 OA
HETATM   32  H10 UNL     1      -6.196   1.167  11.099  1.00  0.00     0.217 HD
ENDBRANCH   2  31
BRANCH  23  33
HETATM   33  O8  UNL     1      -3.317   5.625  12.797  1.00  0.00    -0.359 OA
HETATM   34  H36 UNL     1      -3.576   6.430  13.302  1.00  0.00     0.217 HD
ENDBRANCH  23  33
BRANCH  15  35
HETATM   35  O5  UNL     1     -13.451   8.550  14.832  1.00  0.00    -0.315 OA
BRANCH  35  36
HETATM   36  C19 UNL     1     -14.082   9.727  14.571  1.00  0.00     0.262 C 
HETATM   37  O6  UNL     1     -14.478  10.082  13.468  1.00  0.00    -0.265 OA
BRANCH  36  38
HETATM   38  C20 UNL     1     -14.192  10.583  15.818  1.00  0.00     0.077 C 
HETATM   39  C21 UNL     1     -13.093  11.639  15.818  1.00  0.00     0.020 C 
HETATM   40  C22 UNL     1     -14.167   9.741  17.090  1.00  0.00     0.020 C 
ENDBRANCH  36  38
ENDBRANCH  35  36
ENDBRANCH  15  35
TORSDOF 9
ENDMDL
MODEL 2
REMARK minimizedAffinity -6.73681736
REMARK CNNscore 0.60594815
REMARK CNNaffinity 6.33386755
REMARK  9 active torsions:
REMARK  status: ('A' for Active; 'I' for Inactive)
REMARK    1  A    between atoms: C2_2  and  C3_3 
REMARK    2  A    between atoms: C3_3  and  C5_5 
REMARK    3  A    between atoms: C3_3  and  C6_7 
REMARK    4  A    between atoms: C5_5  and  O1_6 
REMARK    5  A    between atoms: C7_8  and  O2_9 
REMARK    6  A    between atoms: C18_22  and  O5_23 
REMARK    7  A    between atoms: O5_23  and  C19_24 
REMARK    8  A    between atoms: C19_24  and  C20_26 
REMARK    9  A    between atoms: C29_36  and  O8_37 
ROOT
HETATM    1  C6  UNL     1       2.071   7.467  10.933  1.00  0.00     0.023 A 
HETATM    2  C7  UNL     1       0.832   6.840  11.210  1.00  0.00     0.076 A 
HETATM    3  C8  UNL     1       0.028   7.208  12.289  1.00  0.00     0.053 A 
HETATM    4  C9  UNL     1       0.446   8.216  13.156  1.00  0.00     0.034 A 
HETATM    5  C10 UNL     1      -0.412   8.577  14.298  1.00  0.00     0.192 C 
HETATM    6  O3  UNL     1      -1.397   7.894  14.553  1.00  0.00    -0.287 OA
HETATM    7  C11 UNL     1      -0.036   9.743  15.138  1.00  0.00     0.035 C 
HETATM    8  C12 UNL     1       1.187  10.282  15.010  1.00  0.00     0.131 C 
HETATM    9  O4  UNL     1       1.695  11.235  15.872  1.00  0.00    -0.336 OA
HETATM   10  C13 UNL     1       1.019  11.437  17.131  1.00  0.00     0.065 C 
HETATM   11  C14 UNL     1       1.452  10.341  18.117  1.00  0.00     0.046 C 
HETATM   12  C15 UNL     1       1.553  12.784  17.648  1.00  0.00     0.046 C 
HETATM   13  C16 UNL     1      -0.502  11.504  16.878  1.00  0.00     0.031 C 
HETATM   14  C17 UNL     1      -1.370  11.813  18.104  1.00  0.00     0.041 C 
HETATM   15  C18 UNL     1      -2.835  12.026  17.697  1.00  0.00     0.136 C 
HETATM   16  C23 UNL     1      -3.376  10.837  16.880  1.00  0.00     0.012 C 
HETATM   17  C24 UNL     1      -4.792  11.123  16.369  1.00  0.00     0.012 C 
HETATM   18  C25 UNL     1      -2.447  10.480  15.706  1.00  0.00     0.017 C 
HETATM   19  C26 UNL     1      -1.009  10.206  16.202  1.00  0.00     0.033 C 
HETATM   20  C27 UNL     1       2.116   9.855  13.923  1.00  0.00     0.219 C 
HETATM   21  O7  UNL     1       3.240  10.340  13.807  1.00  0.00    -0.284 OA
HETATM   22  C28 UNL     1       1.671   8.833  12.959  1.00  0.00     0.065 A 
HETATM   23  C29 UNL     1       2.483   8.453  11.862  1.00  0.00     0.091 A 
ENDROOT
BRANCH   1  24
HETATM   24  C3  UNL     1       2.909   7.019   9.690  1.00  0.00     0.027 C 
HETATM   25  C4  UNL     1       3.913   8.065   9.138  1.00  0.00     0.027 C 
BRANCH  24  26
HETATM   26  C2  UNL     1       1.971   6.803   8.484  1.00  0.00    -0.021 C 
HETATM   27  C1  UNL     1       1.571   7.711   7.581  1.00  0.00     0.008 C 
ENDBRANCH  24  26
BRANCH  24  28
HETATM   28  C5  UNL     1       3.724   5.753  10.131  1.00  0.00     0.182 C 
BRANCH  28  29
HETATM   29  O1  UNL     1       3.065   4.505   9.891  1.00  0.00    -0.399 OA
HETATM   30  H9  UNL     1       3.015   4.382   8.927  1.00  0.00     0.209 HD
ENDBRANCH  28  29
ENDBRANCH  24  28
ENDBRANCH   1  24
BRANCH   2  31
HETATM   31  O2  UNL     1       0.400   5.812  10.418  1.00  0.00    -0.360 OA
HETATM   32  H10 UNL     1      -0.489   5.522  10.685  1.00  0.00     0.217 HD
ENDBRANCH   2  31
BRANCH  23  33
HETATM   33  O8  UNL     1       3.717   9.031  11.705  1.00  0.00    -0.359 OA
HETATM   34  H36 UNL     1       3.882   9.678  12.430  1.00  0.00     0.217 HD
ENDBRANCH  23  33
BRANCH  15  35
HETATM   35  O5  UNL     1      -3.637  12.146  18.888  1.00  0.00    -0.315 OA
BRANCH  35  36
HETATM   36  C19 UNL     1      -4.086  13.395  19.193  1.00  0.00     0.262 C 
HETATM   37  O6  UNL     1      -3.532  14.438  18.869  1.00  0.00    -0.265 OA
BRANCH  36  38
HETATM   38  C20 UNL     1      -5.343  13.339  20.040  1.00  0.00     0.077 C 
HETATM   39  C21 UNL     1      -6.545  13.768  19.207  1.00  0.00     0.020 C 
HETATM   40  C22 UNL     1      -5.209  14.172  21.311  1.00  0.00     0.020 C 
ENDBRANCH  36  38
ENDBRANCH  35  36
ENDBRANCH  15  35
TORSDOF 9
ENDMDL
MODEL 3
REMARK minimizedAffinity -6.29319096
REMARK CNNscore 0.526097536
REMARK CNNaffinity 5.79621649
REMARK  9 active torsions:
REMARK  status: ('A' for Active; 'I' for Inactive)
REMARK    1  A    between atoms: C2_2  and  C3_3 
REMARK    2  A    between atoms: C3_3  and  C5_5 
REMARK    3  A    between atoms: C3_3  and  C6_7 
REMARK    4  A    between atoms: C5_5  and  O1_6 
REMARK    5  A    between atoms: C7_8  and  O2_9 
REMARK    6  A    between atoms: C18_22  and  O5_23 
REMARK    7  A    between atoms: O5_23  and  C19_24 
REMARK    8  A    between atoms: C19_24  and  C20_26 
REMARK    9  A    between atoms: C29_36  and  O8_37 
ROOT
HETATM    1  C6  UNL     1       2.766  11.514  21.093  1.00  0.00     0.023 A 
HETATM    2  C7  UNL     1       2.224  12.781  21.421  1.00  0.00     0.076 A 
HETATM    3  C8  UNL     1       1.132  13.329  20.746  1.00  0.00     0.053 A 
HETATM    4  C9  UNL     1       0.544  12.631  19.692  1.00  0.00     0.034 A 
HETATM    5  C10 UNL     1      -0.597  13.236  18.985  1.00  0.00     0.192 C 
HETATM    6  O3  UNL     1      -0.917  14.393  19.231  1.00  0.00    -0.287 OA
HETATM    7  C11 UNL     1      -1.311  12.435  17.958  1.00  0.00     0.035 C 
HETATM    8  C12 UNL     1      -0.762  11.294  17.511  1.00  0.00     0.131 C 
HETATM    9  O4  UNL     1      -1.247  10.586  16.427  1.00  0.00    -0.336 OA
HETATM   10  C13 UNL     1      -2.186  11.247  15.554  1.00  0.00     0.065 C 
HETATM   11  C14 UNL     1      -1.418  12.161  14.587  1.00  0.00     0.046 C 
HETATM   12  C15 UNL     1      -2.822  10.110  14.734  1.00  0.00     0.046 C 
HETATM   13  C16 UNL     1      -3.245  11.971  16.412  1.00  0.00     0.031 C 
HETATM   14  C17 UNL     1      -4.383  12.649  15.637  1.00  0.00     0.041 C 
HETATM   15  C18 UNL     1      -5.458  13.180  16.597  1.00  0.00     0.136 C 
HETATM   16  C23 UNL     1      -4.852  14.099  17.675  1.00  0.00     0.012 C 
HETATM   17  C24 UNL     1      -5.912  14.512  18.701  1.00  0.00     0.012 C 
HETATM   18  C25 UNL     1      -3.654  13.440  18.381  1.00  0.00     0.017 C 
HETATM   19  C26 UNL     1      -2.582  13.001  17.359  1.00  0.00     0.033 C 
HETATM   20  C27 UNL     1       0.460  10.718  18.144  1.00  0.00     0.219 C 
HETATM   21  O7  UNL     1       0.972   9.678  17.733  1.00  0.00    -0.284 OA
HETATM   22  C28 UNL     1       1.062  11.407  19.300  1.00  0.00     0.065 A 
HETATM   23  C29 UNL     1       2.173  10.858  19.987  1.00  0.00     0.091 A 
ENDROOT
BRANCH   1  24
HETATM   24  C3  UNL     1       3.977  10.952  21.908  1.00  0.00     0.027 C 
HETATM   25  C4  UNL     1       4.545  11.888  23.007  1.00  0.00     0.027 C 
BRANCH  24  26
HETATM   26  C2  UNL     1       5.193  10.776  20.974  1.00  0.00    -0.021 C 
HETATM   27  C1  UNL     1       5.806  11.715  20.238  1.00  0.00     0.008 C 
ENDBRANCH  24  26
BRANCH  24  28
HETATM   28  C5  UNL     1       3.479   9.637  22.603  1.00  0.00     0.182 C 
BRANCH  28  29
HETATM   29  O1  UNL     1       3.451   9.690  24.033  1.00  0.00    -0.399 OA
HETATM   30  H9  UNL     1       2.758  10.323  24.288  1.00  0.00     0.209 HD
ENDBRANCH  28  29
ENDBRANCH  24  28
ENDBRANCH   1  24
BRANCH   2  31
HETATM   31  O2  UNL     1       2.794  13.526  22.415  1.00  0.00    -0.360 OA
HETATM   32  H10 UNL     1       2.283  14.338  22.573  1.00  0.00     0.217 HD
ENDBRANCH   2  31
BRANCH  23  33
HETATM   33  O8  UNL     1       2.712   9.673  19.557  1.00  0.00    -0.359 OA
HETATM   34  H36 UNL     1       2.218   9.342  18.772  1.00  0.00     0.217 HD
ENDBRANCH  23  33
BRANCH  15  35
HETATM   35  O5  UNL     1      -6.415  13.950  15.845  1.00  0.00    -0.315 OA
BRANCH  35  36
HETATM   36  C19 UNL     1      -5.920  14.987  15.116  1.00  0.00     0.262 C 
HETATM   37  O6  UNL     1      -4.869  14.965  14.489  1.00  0.00    -0.265 OA
BRANCH  36  38
HETATM   38  C20 UNL     1      -6.812  16.209  15.216  1.00  0.00     0.077 C 
HETATM   39  C21 UNL     1      -8.257  15.819  14.928  1.00  0.00     0.020 C 
HETATM   40  C22 UNL     1      -6.338  17.336  14.303  1.00  0.00     0.020 C 
ENDBRANCH  36  38
ENDBRANCH  35  36
ENDBRANCH  15  35
TORSDOF 9
ENDMDL
MODEL 4
REMARK minimizedAffinity -7.54835176
REMARK CNNscore 0.447446495
REMARK CNNaffinity 6.68573332
REMARK  9 active torsions:
REMARK  status: ('A' for Active; 'I' for Inactive)
REMARK    1  A    between atoms: C2_2  and  C3_3 
REMARK    2  A    between atoms: C3_3  and  C5_5 
REMARK    3  A    between atoms: C3_3  and  C6_7 
REMARK    4  A    between atoms: C5_5  and  O1_6 
REMARK    5  A    between atoms: C7_8  and  O2_9 
REMARK    6  A    between atoms: C18_22  and  O5_23 
REMARK    7  A    between atoms: O5_23  and  C19_24 
REMARK    8  A    between atoms: C19_24  and  C20_26 
REMARK    9  A    between atoms: C29_36  and  O8_37 
ROOT
HETATM    1  C6  UNL     1      -4.207   5.972  13.485  1.00  0.00     0.023 A 
HETATM    2  C7  UNL     1      -5.097   4.917  13.169  1.00  0.00     0.076 A 
HETATM    3  C8  UNL     1      -6.474   5.006  13.382  1.00  0.00     0.053 A 
HETATM    4  C9  UNL     1      -7.018   6.160  13.945  1.00  0.00     0.034 A 
HETATM    5  C10 UNL     1      -8.470   6.225  14.176  1.00  0.00     0.192 C 
HETATM    6  O3  UNL     1      -9.154   5.221  14.011  1.00  0.00    -0.287 OA
HETATM    7  C11 UNL     1      -9.066   7.502  14.643  1.00  0.00     0.035 C 
HETATM    8  C12 UNL     1      -8.263   8.481  15.089  1.00  0.00     0.131 C 
HETATM    9  O4  UNL     1      -8.725   9.621  15.720  1.00  0.00    -0.336 OA
HETATM   10  C13 UNL     1     -10.088   9.625  16.195  1.00  0.00     0.065 C 
HETATM   11  C14 UNL     1     -10.156   8.878  17.536  1.00  0.00     0.046 C 
HETATM   12  C15 UNL     1     -10.405  11.107  16.457  1.00  0.00     0.046 C 
HETATM   13  C16 UNL     1     -11.004   9.047  15.096  1.00  0.00     0.031 C 
HETATM   14  C17 UNL     1     -12.507   9.068  15.400  1.00  0.00     0.041 C 
HETATM   15  C18 UNL     1     -13.320   8.634  14.172  1.00  0.00     0.136 C 
HETATM   16  C23 UNL     1     -12.849   7.270  13.632  1.00  0.00     0.012 C 
HETATM   17  C24 UNL     1     -13.577   6.915  12.331  1.00  0.00     0.012 C 
HETATM   18  C25 UNL     1     -11.325   7.235  13.418  1.00  0.00     0.017 C 
HETATM   19  C26 UNL     1     -10.575   7.608  14.716  1.00  0.00     0.033 C 
HETATM   20  C27 UNL     1      -6.779   8.389  14.963  1.00  0.00     0.219 C 
HETATM   21  O7  UNL     1      -6.039   9.280  15.377  1.00  0.00    -0.284 OA
HETATM   22  C28 UNL     1      -6.186   7.205  14.315  1.00  0.00     0.065 A 
HETATM   23  C29 UNL     1      -4.790   7.107  14.097  1.00  0.00     0.091 A 
ENDROOT
BRANCH   1  24
HETATM   24  C3  UNL     1      -2.678   5.811  13.195  1.00  0.00     0.027 C 
HETATM   25  C4  UNL     1      -1.942   7.089  12.715  1.00  0.00     0.027 C 
BRANCH  24  26
HETATM   26  C2  UNL     1      -2.475   4.854  12.002  1.00  0.00    -0.021 C 
HETATM   27  C1  UNL     1      -1.372   4.695  11.255  1.00  0.00     0.008 C 
ENDBRANCH  24  26
BRANCH  24  28
HETATM   28  C5  UNL     1      -2.013   5.346  14.538  1.00  0.00     0.182 C 
BRANCH  28  29
HETATM   29  O1  UNL     1      -0.601   5.566  14.613  1.00  0.00    -0.399 OA
HETATM   30  H9  UNL     1      -0.456   6.528  14.644  1.00  0.00     0.209 HD
ENDBRANCH  28  29
ENDBRANCH  24  28
ENDBRANCH   1  24
BRANCH   2  31
HETATM   31  O2  UNL     1      -4.609   3.746  12.659  1.00  0.00    -0.360 OA
HETATM   32  H10 UNL     1      -5.335   3.140  12.432  1.00  0.00     0.217 HD
ENDBRANCH   2  31
BRANCH  23  33
HETATM   33  O8  UNL     1      -3.970   8.124  14.516  1.00  0.00    -0.359 OA
HETATM   34  H36 UNL     1      -4.503   8.834  14.942  1.00  0.00     0.217 HD
ENDBRANCH  23  33
BRANCH  15  35
HETATM   35  O5  UNL     1     -14.705   8.507  14.550  1.00  0.00    -0.315 OA
BRANCH  35  36
HETATM   36  C19 UNL     1     -15.372   7.430  14.051  1.00  0.00     0.262 C 
HETATM   37  O6  UNL     1     -15.690   7.283  12.878  1.00  0.00    -0.265 OA
BRANCH  36  38
HETATM   38  C20 UNL     1     -15.727   6.445  15.147  1.00  0.00     0.077 C 
HETATM   39  C21 UNL     1     -15.161   6.926  16.478  1.00  0.00     0.020 C 
HETATM   40  C22 UNL     1     -15.261   5.031  14.813  1.00  0.00     0.020 C 
ENDBRANCH  36  38
ENDBRANCH  35  36
ENDBRANCH  15  35
TORSDOF 9
ENDMDL
MODEL 5
REMARK minimizedAffinity -6.58953953
REMARK CNNscore 0.438263983
REMARK CNNaffinity 5.25245094
REMARK  9 active torsions:
REMARK  status: ('A' for Active; 'I' for Inactive)
REMARK    1  A    between atoms: C2_2  and  C3_3 
REMARK    2  A    between atoms: C3_3  and  C5_5 
REMARK    3  A    between atoms: C3_3  and  C6_7 
REMARK    4  A    between atoms: C5_5  and  O1_6 
REMARK    5  A    between atoms: C7_8  and  O2_9 
REMARK    6  A    between atoms: C18_22  and  O5_23 
REMARK    7  A    between atoms: O5_23  and  C19_24 
REMARK    8  A    between atoms: C19_24  and  C20_26 
REMARK    9  A    between atoms: C29_36  and  O8_37 
ROOT
HETATM    1  C6  UNL     1     -16.607  -0.020  13.840  1.00  0.00     0.023 A 
HETATM    2  C7  UNL     1     -16.016  -0.159  12.561  1.00  0.00     0.076 A 
HETATM    3  C8  UNL     1     -15.221  -1.253  12.215  1.00  0.00     0.053 A 
HETATM    4  C9  UNL     1     -14.969  -2.254  13.153  1.00  0.00     0.034 A 
HETATM    5  C10 UNL     1     -14.116  -3.391  12.770  1.00  0.00     0.192 C 
HETATM    6  O3  UNL     1     -13.524  -3.369  11.697  1.00  0.00    -0.287 OA
HETATM    7  C11 UNL     1     -13.962  -4.524  13.719  1.00  0.00     0.035 C 
HETATM    8  C12 UNL     1     -14.381  -4.384  14.987  1.00  0.00     0.131 C 
HETATM    9  O4  UNL     1     -14.108  -5.300  15.986  1.00  0.00    -0.336 OA
HETATM   10  C13 UNL     1     -13.082  -6.284  15.740  1.00  0.00     0.065 C 
HETATM   11  C14 UNL     1     -11.705  -5.646  15.976  1.00  0.00     0.046 C 
HETATM   12  C15 UNL     1     -13.304  -7.357  16.820  1.00  0.00     0.046 C 
HETATM   13  C16 UNL     1     -13.280  -6.871  14.326  1.00  0.00     0.031 C 
HETATM   14  C17 UNL     1     -12.327  -8.008  13.936  1.00  0.00     0.041 C 
HETATM   15  C18 UNL     1     -12.731  -8.623  12.588  1.00  0.00     0.136 C 
HETATM   16  C23 UNL     1     -12.848  -7.551  11.488  1.00  0.00     0.012 C 
HETATM   17  C24 UNL     1     -13.381  -8.159  10.186  1.00  0.00     0.012 C 
HETATM   18  C25 UNL     1     -13.734  -6.373  11.929  1.00  0.00     0.017 C 
HETATM   19  C26 UNL     1     -13.222  -5.759  13.250  1.00  0.00     0.033 C 
HETATM   20  C27 UNL     1     -15.157  -3.187  15.424  1.00  0.00     0.219 C 
HETATM   21  O7  UNL     1     -15.535  -3.051  16.586  1.00  0.00    -0.284 OA
HETATM   22  C28 UNL     1     -15.487  -2.146  14.434  1.00  0.00     0.065 A 
HETATM   23  C29 UNL     1     -16.290  -1.031  14.779  1.00  0.00     0.091 A 
ENDROOT
BRANCH   1  24
HETATM   24  C3  UNL     1     -17.506   1.223  14.150  1.00  0.00     0.027 C 
HETATM   25  C4  UNL     1     -18.058   1.983  12.915  1.00  0.00     0.027 C 
BRANCH  24  26
HETATM   26  C2  UNL     1     -16.664   2.310  14.849  1.00  0.00    -0.021 C 
HETATM   27  C1  UNL     1     -15.346   2.295  15.098  1.00  0.00     0.008 C 
ENDBRANCH  24  26
BRANCH  24  28
HETATM   28  C5  UNL     1     -18.729   0.697  14.979  1.00  0.00     0.182 C 
BRANCH  28  29
HETATM   29  O1  UNL     1     -18.783   1.169  16.329  1.00  0.00    -0.399 OA
HETATM   30  H9  UNL     1     -18.962   2.125  16.297  1.00  0.00     0.209 HD
ENDBRANCH  28  29
ENDBRANCH  24  28
ENDBRANCH   1  24
BRANCH   2  31
HETATM   31  O2  UNL     1     -16.192   0.819  11.621  1.00  0.00    -0.360 OA
HETATM   32  H10 UNL     1     -15.785   0.562  10.777  1.00  0.00     0.217 HD
ENDBRANCH   2  31
BRANCH  23  33
HETATM   33  O8  UNL     1     -16.753  -0.906  16.064  1.00  0.00    -0.359 OA
HETATM   34  H36 UNL     1     -16.440  -1.663  16.611  1.00  0.00     0.217 HD
ENDBRANCH  23  33
BRANCH  15  35
HETATM   35  O5  UNL     1     -11.720  -9.566  12.183  1.00  0.00    -0.315 OA
BRANCH  35  36
HETATM   36  C19 UNL     1     -10.427  -9.158  12.305  1.00  0.00     0.262 C 
HETATM   37  O6  UNL     1     -10.007  -8.411  13.179  1.00  0.00    -0.265 OA
BRANCH  36  38
HETATM   38  C20 UNL     1      -9.567  -9.705  11.183  1.00  0.00     0.077 C 
HETATM   39  C21 UNL     1      -8.097  -9.641  11.581  1.00  0.00     0.020 C 
HETATM   40  C22 UNL     1      -9.827  -8.983   9.864  1.00  0.00     0.020 C 
ENDBRANCH  36  38
ENDBRANCH  35  36
ENDBRANCH  15  35
TORSDOF 9
ENDMDL
MODEL 6
REMARK minimizedAffinity -10.2067337
REMARK CNNscore 0.433440238
REMARK CNNaffinity 6.76241875
REMARK  9 active torsions:
REMARK  status: ('A' for Active; 'I' for Inactive)
REMARK    1  A    between atoms: C2_2  and  C3_3 
REMARK    2  A    between atoms: C3_3  and  C5_5 
REMARK    3  A    between atoms: C3_3  and  C6_7 
REMARK    4  A    between atoms: C5_5  and  O1_6 
REMARK    5  A    between atoms: C7_8  and  O2_9 
REMARK    6  A    between atoms: C18_22  and  O5_23 
REMARK    7  A    between atoms: O5_23  and  C19_24 
REMARK    8  A    between atoms: C19_24  and  C20_26 
REMARK    9  A    between atoms: C29_36  and  O8_37 
ROOT
HETATM    1  C6  UNL     1       2.120   6.003  10.730  1.00  0.00     0.023 A 
HETATM    2  C7  UNL     1       1.610   4.695  10.912  1.00  0.00     0.076 A 
HETATM    3  C8  UNL     1       0.407   4.442  11.573  1.00  0.00     0.053 A 
HETATM    4  C9  UNL     1      -0.332   5.500  12.102  1.00  0.00     0.034 A 
HETATM    5  C10 UNL     1      -1.589   5.209  12.810  1.00  0.00     0.192 C 
HETATM    6  O3  UNL     1      -1.892   4.046  13.052  1.00  0.00    -0.287 OA
HETATM    7  C11 UNL     1      -2.444   6.341  13.249  1.00  0.00     0.035 C 
HETATM    8  C12 UNL     1      -1.949   7.589  13.229  1.00  0.00     0.131 C 
HETATM    9  O4  UNL     1      -2.591   8.674  13.795  1.00  0.00    -0.336 OA
HETATM   10  C13 UNL     1      -3.679   8.416  14.707  1.00  0.00     0.065 C 
HETATM   11  C14 UNL     1      -3.106   8.060  16.088  1.00  0.00     0.046 C 
HETATM   12  C15 UNL     1      -4.415   9.762  14.827  1.00  0.00     0.046 C 
HETATM   13  C16 UNL     1      -4.597   7.335  14.099  1.00  0.00     0.031 C 
HETATM   14  C17 UNL     1      -5.865   7.008  14.899  1.00  0.00     0.041 C 
HETATM   15  C18 UNL     1      -6.777   6.055  14.114  1.00  0.00     0.136 C 
HETATM   16  C23 UNL     1      -6.023   4.788  13.665  1.00  0.00     0.012 C 
HETATM   17  C24 UNL     1      -6.907   3.913  12.770  1.00  0.00     0.012 C 
HETATM   18  C25 UNL     1      -4.707   5.132  12.943  1.00  0.00     0.017 C 
HETATM   19  C26 UNL     1      -3.811   6.030  13.824  1.00  0.00     0.033 C 
HETATM   20  C27 UNL     1      -0.625   7.891  12.611  1.00  0.00     0.219 C 
HETATM   21  O7  UNL     1      -0.164   9.031  12.598  1.00  0.00    -0.284 OA
HETATM   22  C28 UNL     1       0.144   6.797  11.992  1.00  0.00     0.065 A 
HETATM   23  C29 UNL     1       1.367   7.046  11.321  1.00  0.00     0.091 A 
ENDROOT
BRANCH   1  24
HETATM   24  C3  UNL     1       3.463   6.212   9.956  1.00  0.00     0.027 C 
HETATM   25  C4  UNL     1       4.640   6.788  10.787  1.00  0.00     0.027 C 
BRANCH  24  26
HETATM   26  C2  UNL     1       3.274   7.293   8.872  1.00  0.00    -0.021 C 
HETATM   27  C1  UNL     1       2.336   7.341   7.914  1.00  0.00     0.008 C 
ENDBRANCH  24  26
BRANCH  24  28
HETATM   28  C5  UNL     1       3.896   4.803   9.418  1.00  0.00     0.182 C 
BRANCH  28  29
HETATM   29  O1  UNL     1       3.577   4.564   8.044  1.00  0.00    -0.399 OA
HETATM   30  H9  UNL     1       4.130   5.159   7.508  1.00  0.00     0.209 HD
ENDBRANCH  28  29
ENDBRANCH  24  28
ENDBRANCH   1  24
BRANCH   2  31
HETATM   31  O2  UNL     1       2.319   3.619  10.454  1.00  0.00    -0.360 OA
HETATM   32  H10 UNL     1       1.822   2.795  10.591  1.00  0.00     0.217 HD
ENDBRANCH   2  31
BRANCH  23  33
HETATM   33  O8  UNL     1       1.856   8.326  11.264  1.00  0.00    -0.359 OA
HETATM   34  H36 UNL     1       1.246   8.942  11.732  1.00  0.00     0.217 HD
ENDBRANCH  23  33
BRANCH  15  35
HETATM   35  O5  UNL     1      -7.865   5.644  14.964  1.00  0.00    -0.315 OA
BRANCH  35  36
HETATM   36  C19 UNL     1      -8.548   6.637  15.596  1.00  0.00     0.262 C 
HETATM   37  O6  UNL     1      -8.239   7.124  16.676  1.00  0.00    -0.265 OA
BRANCH  36  38
HETATM   38  C20 UNL     1      -9.786   7.038  14.818  1.00  0.00     0.077 C 
HETATM   39  C21 UNL     1      -9.738   6.430  13.421  1.00  0.00     0.020 C 
HETATM   40  C22 UNL     1      -9.960   8.553  14.768  1.00  0.00     0.020 C 
ENDBRANCH  36  38
ENDBRANCH  35  36
ENDBRANCH  15  35
TORSDOF 9
ENDMDL
MODEL 7
REMARK minimizedAffinity -10.2229471
REMARK CNNscore 0.414387196
REMARK CNNaffinity 6.67804956
REMARK  9 active torsions:
REMARK  status: ('A' for Active; 'I' for Inactive)
REMARK    1  A    between atoms: C2_2  and  C3_3 
REMARK    2  A    between atoms: C3_3  and  C5_5 
REMARK    3  A    between atoms: C3_3  and  C6_7 
REMARK    4  A    between atoms: C5_5  and  O1_6 
REMARK    5  A    between atoms: C7_8  and  O2_9 
REMARK    6  A    between atoms: C18_22  and  O5_23 
REMARK    7  A    between atoms: O5_23  and  C19_24 
REMARK    8  A    between atoms: C19_24  and  C20_26 
REMARK    9  A    between atoms: C29_36  and  O8_37 
ROOT
HETATM    1  C6  UNL     1       3.002   7.262  11.115  1.00  0.00     0.023 A 
HETATM    2  C7  UNL     1       2.771   5.879  10.917  1.00  0.00     0.076 A 
HETATM    3  C8  UNL     1       1.584   5.253  11.299  1.00  0.00     0.053 A 
HETATM    4  C9  UNL     1       0.576   5.991  11.919  1.00  0.00     0.034 A 
HETATM    5  C10 UNL     1      -0.662   5.306  12.328  1.00  0.00     0.192 C 
HETATM    6  O3  UNL     1      -0.730   4.085  12.254  1.00  0.00    -0.287 OA
HETATM    7  C11 UNL     1      -1.788   6.116  12.858  1.00  0.00     0.035 C 
HETATM    8  C12 UNL     1      -1.578   7.398  13.196  1.00  0.00     0.131 C 
HETATM    9  O4  UNL     1      -2.502   8.171  13.873  1.00  0.00    -0.336 OA
HETATM   10  C13 UNL     1      -3.606   7.498  14.513  1.00  0.00     0.065 C 
HETATM   11  C14 UNL     1      -3.134   6.920  15.856  1.00  0.00     0.046 C 
HETATM   12  C15 UNL     1      -4.626   8.613  14.804  1.00  0.00     0.046 C 
HETATM   13  C16 UNL     1      -4.190   6.454  13.539  1.00  0.00     0.031 C 
HETATM   14  C17 UNL     1      -5.440   5.710  14.026  1.00  0.00     0.041 C 
HETATM   15  C18 UNL     1      -6.025   4.832  12.910  1.00  0.00     0.136 C 
HETATM   16  C23 UNL     1      -4.966   3.879  12.324  1.00  0.00     0.012 C 
HETATM   17  C24 UNL     1      -5.528   3.107  11.125  1.00  0.00     0.012 C 
HETATM   18  C25 UNL     1      -3.682   4.627  11.923  1.00  0.00     0.017 C 
HETATM   19  C26 UNL     1      -3.111   5.425  13.116  1.00  0.00     0.033 C 
HETATM   20  C27 UNL     1      -0.288   8.083  12.887  1.00  0.00     0.219 C 
HETATM   21  O7  UNL     1      -0.088   9.255  13.202  1.00  0.00    -0.284 OA
HETATM   22  C28 UNL     1       0.768   7.339  12.178  1.00  0.00     0.065 A 
HETATM   23  C29 UNL     1       1.976   7.967  11.789  1.00  0.00     0.091 A 
ENDROOT
BRANCH   1  24
HETATM   24  C3  UNL     1       4.349   7.900  10.640  1.00  0.00     0.027 C 
HETATM   25  C4  UNL     1       4.809   9.164  11.414  1.00  0.00     0.027 C 
BRANCH  24  26
HETATM   26  C2  UNL     1       4.186   8.443   9.204  1.00  0.00    -0.021 C 
HETATM   27  C1  UNL     1       3.127   8.312   8.391  1.00  0.00     0.008 C 
ENDBRANCH  24  26
BRANCH  24  28
HETATM   28  C5  UNL     1       5.453   6.800  10.811  1.00  0.00     0.182 C 
BRANCH  28  29
HETATM   29  O1  UNL     1       5.651   6.356  12.157  1.00  0.00    -0.399 OA
HETATM   30  H9  UNL     1       4.849   5.875  12.427  1.00  0.00     0.209 HD
ENDBRANCH  28  29
ENDBRANCH  24  28
ENDBRANCH   1  24
BRANCH   2  31
HETATM   31  O2  UNL     1       3.746   5.101  10.358  1.00  0.00    -0.360 OA
HETATM   32  H10 UNL     1       3.428   4.192  10.225  1.00  0.00     0.217 HD
ENDBRANCH   2  31
BRANCH  23  33
HETATM   33  O8  UNL     1       2.178   9.288  12.098  1.00  0.00    -0.359 OA
HETATM   34  H36 UNL     1       1.398   9.645  12.583  1.00  0.00     0.217 HD
ENDBRANCH  23  33
BRANCH  15  35
HETATM   35  O5  UNL     1      -7.089   4.029  13.457  1.00  0.00    -0.315 OA
BRANCH  35  36
HETATM   36  C19 UNL     1      -8.319   4.192  12.898  1.00  0.00     0.262 C 
HETATM   37  O6  UNL     1      -9.110   3.287  12.668  1.00  0.00    -0.265 OA
BRANCH  36  38
HETATM   38  C20 UNL     1      -8.577   5.643  12.541  1.00  0.00     0.077 C 
HETATM   39  C21 UNL     1      -9.479   6.281  13.591  1.00  0.00     0.020 C 
HETATM   40  C22 UNL     1      -9.153   5.789  11.136  1.00  0.00     0.020 C 
ENDBRANCH  36  38
ENDBRANCH  35  36
ENDBRANCH  15  35
TORSDOF 9
ENDMDL
MODEL 8
REMARK minimizedAffinity -6.78847837
REMARK CNNscore 0.357923478
REMARK CNNaffinity 6.11260939
REMARK  9 active torsions:
REMARK  status: ('A' for Active; 'I' for Inactive)
REMARK    1  A    between atoms: C2_2  and  C3_3 
REMARK    2  A    between atoms: C3_3  and  C5_5 
REMARK    3  A    between atoms: C3_3  and  C6_7 
REMARK    4  A    between atoms: C5_5  and  O1_6 
REMARK    5  A    between atoms: C7_8  and  O2_9 
REMARK    6  A    between atoms: C18_22  and  O5_23 
REMARK    7  A    between atoms: O5_23  and  C19_24 
REMARK    8  A    between atoms: C19_24  and  C20_26 
REMARK    9  A    between atoms: C29_36  and  O8_37 
ROOT
HETATM    1  C6  UNL     1      -8.861  -8.917   0.087  1.00  0.00     0.023 A 
HETATM    2  C7  UNL     1      -9.861  -8.751   1.075  1.00  0.00     0.076 A 
HETATM    3  C8  UNL     1      -9.629  -9.001   2.429  1.00  0.00     0.053 A 
HETATM    4  C9  UNL     1      -8.378  -9.453   2.848  1.00  0.00     0.034 A 
HETATM    5  C10 UNL     1      -8.161  -9.726   4.279  1.00  0.00     0.192 C 
HETATM    6  O3  UNL     1      -9.112  -9.696   5.051  1.00  0.00    -0.287 OA
HETATM    7  C11 UNL     1      -6.794 -10.070   4.744  1.00  0.00     0.035 C 
HETATM    8  C12 UNL     1      -5.847 -10.377   3.843  1.00  0.00     0.131 C 
HETATM    9  O4  UNL     1      -4.610 -10.894   4.180  1.00  0.00    -0.336 OA
HETATM   10  C13 UNL     1      -4.436 -11.414   5.514  1.00  0.00     0.065 C 
HETATM   11  C14 UNL     1      -5.027 -12.830   5.585  1.00  0.00     0.046 C 
HETATM   12  C15 UNL     1      -2.912 -11.521   5.695  1.00  0.00     0.046 C 
HETATM   13  C16 UNL     1      -5.045 -10.418   6.524  1.00  0.00     0.031 C 
HETATM   14  C17 UNL     1      -4.859 -10.770   8.005  1.00  0.00     0.041 C 
HETATM   15  C18 UNL     1      -5.348  -9.626   8.905  1.00  0.00     0.136 C 
HETATM   16  C23 UNL     1      -6.798  -9.224   8.575  1.00  0.00     0.012 C 
HETATM   17  C24 UNL     1      -7.225  -7.996   9.387  1.00  0.00     0.012 C 
HETATM   18  C25 UNL     1      -6.990  -8.962   7.070  1.00  0.00     0.017 C 
HETATM   19  C26 UNL     1      -6.548 -10.183   6.235  1.00  0.00     0.033 C 
HETATM   20  C27 UNL     1      -6.083 -10.209   2.379  1.00  0.00     0.219 C 
HETATM   21  O7  UNL     1      -5.222 -10.496   1.549  1.00  0.00    -0.284 OA
HETATM   22  C28 UNL     1      -7.377  -9.676   1.917  1.00  0.00     0.065 A 
HETATM   23  C29 UNL     1      -7.620  -9.421   0.545  1.00  0.00     0.091 A 
ENDROOT
BRANCH   1  24
HETATM   24  C3  UNL     1      -9.186  -8.594  -1.409  1.00  0.00     0.027 C 
HETATM   25  C4  UNL     1     -10.692  -8.557  -1.781  1.00  0.00     0.027 C 
BRANCH  24  26
HETATM   26  C2  UNL     1      -8.658  -9.729  -2.311  1.00  0.00    -0.021 C 
HETATM   27  C1  UNL     1      -8.132  -9.624  -3.540  1.00  0.00     0.008 C 
ENDBRANCH  24  26
BRANCH  24  28
HETATM   28  C5  UNL     1      -8.581  -7.177  -1.704  1.00  0.00     0.182 C 
BRANCH  28  29
HETATM   29  O1  UNL     1      -9.544  -6.175  -2.048  1.00  0.00    -0.399 OA
HETATM   30  H9  UNL     1     -10.079  -6.000  -1.255  1.00  0.00     0.209 HD
ENDBRANCH  28  29
ENDBRANCH  24  28
ENDBRANCH   1  24
BRANCH   2  31
HETATM   31  O2  UNL     1     -11.118  -8.356   0.710  1.00  0.00    -0.360 OA
HETATM   32  H10 UNL     1     -11.678  -8.223   1.494  1.00  0.00     0.217 HD
ENDBRANCH   2  31
BRANCH  23  33
HETATM   33  O8  UNL     1      -6.641  -9.696  -0.376  1.00  0.00    -0.359 OA
HETATM   34  H36 UNL     1      -5.845 -10.060   0.077  1.00  0.00     0.217 HD
ENDBRANCH  23  33
BRANCH  15  35
HETATM   35  O5  UNL     1      -5.312 -10.064  10.278  1.00  0.00    -0.315 OA
BRANCH  35  36
HETATM   36  C19 UNL     1      -6.344 -10.849  10.690  1.00  0.00     0.262 C 
HETATM   37  O6  UNL     1      -7.087 -11.479   9.949  1.00  0.00    -0.265 OA
BRANCH  36  38
HETATM   38  C20 UNL     1      -6.499 -10.811  12.198  1.00  0.00     0.077 C 
HETATM   39  C21 UNL     1      -6.610 -12.230  12.743  1.00  0.00     0.020 C 
HETATM   40  C22 UNL     1      -7.682  -9.947  12.626  1.00  0.00     0.020 C 
ENDBRANCH  36  38
ENDBRANCH  35  36
ENDBRANCH  15  35
TORSDOF 9
ENDMDL
MODEL 9
REMARK minimizedAffinity -7.68751192
REMARK CNNscore 0.354510576
REMARK CNNaffinity 6.09820986
REMARK  9 active torsions:
REMARK  status: ('A' for Active; 'I' for Inactive)
REMARK    1  A    between atoms: C2_2  and  C3_3 
REMARK    2  A    between atoms: C3_3  and  C5_5 
REMARK    3  A    between atoms: C3_3  and  C6_7 
REMARK    4  A    between atoms: C5_5  and  O1_6 
REMARK    5  A    between atoms: C7_8  and  O2_9 
REMARK    6  A    between atoms: C18_22  and  O5_23 
REMARK    7  A    between atoms: O5_23  and  C19_24 
REMARK    8  A    between atoms: C19_24  and  C20_26 
REMARK    9  A    between atoms: C29_36  and  O8_37 
ROOT
HETATM    1  C6  UNL     1      -4.065   4.406  12.244  1.00  0.00     0.023 A 
HETATM    2  C7  UNL     1      -5.117   4.760  13.123  1.00  0.00     0.076 A 
HETATM    3  C8  UNL     1      -5.042   5.858  13.982  1.00  0.00     0.053 A 
HETATM    4  C9  UNL     1      -3.890   6.642  14.009  1.00  0.00     0.034 A 
HETATM    5  C10 UNL     1      -3.826   7.785  14.935  1.00  0.00     0.192 C 
HETATM    6  O3  UNL     1      -4.715   7.942  15.764  1.00  0.00    -0.287 OA
HETATM    7  C11 UNL     1      -2.660   8.702  14.864  1.00  0.00     0.035 C 
HETATM    8  C12 UNL     1      -1.578   8.341  14.155  1.00  0.00     0.131 C 
HETATM    9  O4  UNL     1      -0.380   9.029  14.187  1.00  0.00    -0.336 OA
HETATM   10  C13 UNL     1      -0.178   9.987  15.247  1.00  0.00     0.065 C 
HETATM   11  C14 UNL     1       0.237   9.243  16.526  1.00  0.00     0.046 C 
HETATM   12  C15 UNL     1       1.015  10.839  14.780  1.00  0.00     0.046 C 
HETATM   13  C16 UNL     1      -1.450  10.847  15.393  1.00  0.00     0.031 C 
HETATM   14  C17 UNL     1      -1.372  11.987  16.417  1.00  0.00     0.041 C 
HETATM   15  C18 UNL     1      -2.624  12.873  16.347  1.00  0.00     0.136 C 
HETATM   16  C23 UNL     1      -3.914  12.044  16.490  1.00  0.00     0.012 C 
HETATM   17  C24 UNL     1      -5.154  12.921  16.285  1.00  0.00     0.012 C 
HETATM   18  C25 UNL     1      -3.938  10.850  15.519  1.00  0.00     0.017 C 
HETATM   19  C26 UNL     1      -2.685   9.965  15.700  1.00  0.00     0.033 C 
HETATM   20  C27 UNL     1      -1.584   7.123  13.292  1.00  0.00     0.219 C 
HETATM   21  O7  UNL     1      -0.593   6.784  12.648  1.00  0.00    -0.284 OA
HETATM   22  C28 UNL     1      -2.812   6.314  13.202  1.00  0.00     0.065 A 
HETATM   23  C29 UNL     1      -2.895   5.197  12.334  1.00  0.00     0.091 A 
ENDROOT
BRANCH   1  24
HETATM   24  C3  UNL     1      -4.230   3.176  11.291  1.00  0.00     0.027 C 
HETATM   25  C4  UNL     1      -4.085   3.470   9.775  1.00  0.00     0.027 C 
BRANCH  24  26
HETATM   26  C2  UNL     1      -5.675   2.642  11.380  1.00  0.00    -0.021 C 
HETATM   27  C1  UNL     1      -6.101   1.387  11.174  1.00  0.00     0.008 C 
ENDBRANCH  24  26
BRANCH  24  28
HETATM   28  C5  UNL     1      -3.117   2.146  11.692  1.00  0.00     0.182 C 
BRANCH  28  29
HETATM   29  O1  UNL     1      -2.095   1.957  10.709  1.00  0.00    -0.399 OA
HETATM   30  H9  UNL     1      -1.586   2.785  10.654  1.00  0.00     0.209 HD
ENDBRANCH  28  29
ENDBRANCH  24  28
ENDBRANCH   1  24
BRANCH   2  31
HETATM   31  O2  UNL     1      -6.250   3.995  13.170  1.00  0.00    -0.360 OA
HETATM   32  H10 UNL     1      -6.907   4.390  13.767  1.00  0.00     0.217 HD
ENDBRANCH   2  31
BRANCH  23  33
HETATM   33  O8  UNL     1      -1.804   4.848  11.579  1.00  0.00    -0.359 OA
HETATM   34  H36 UNL     1      -1.058   5.467  11.756  1.00  0.00     0.217 HD
ENDBRANCH  23  33
BRANCH  15  35
HETATM   35  O5  UNL     1      -2.585  13.822  17.431  1.00  0.00    -0.315 OA
BRANCH  35  36
HETATM   36  C19 UNL     1      -2.505  15.136  17.083  1.00  0.00     0.262 C 
HETATM   37  O6  UNL     1      -2.635  16.076  17.856  1.00  0.00    -0.265 OA
BRANCH  36  38
HETATM   38  C20 UNL     1      -2.284  15.300  15.592  1.00  0.00     0.077 C 
HETATM   39  C21 UNL     1      -0.905  15.897  15.336  1.00  0.00     0.020 C 
HETATM   40  C22 UNL     1      -3.388  16.129  14.941  1.00  0.00     0.020 C 
ENDBRANCH  36  38
ENDBRANCH  35  36
ENDBRANCH  15  35
TORSDOF 9
ENDMDL
