MODEL 1
REMARK minimizedAffinity -6.59647179
REMARK CNNscore 0.443464577
REMARK CNNaffinity 6.67848587
REMARK  14 active torsions:
REMARK  status: ('A' for Active; 'I' for Inactive)
REMARK    1  A    between atoms: C2_2  and  C4_4 
REMARK    2  A    between atoms: C5_6  and  C6_7 
REMARK    3  A    between atoms: C7_8  and  C8_9 
REMARK    4  A    between atoms: C9_10  and  C10_11 
REMARK    5  A    between atoms: C10_11  and  C11_12 
REMARK    6  A    between atoms: C11_12  and  C12_13 
REMARK    7  A    between atoms: C12_13  and  C13_14 
REMARK    8  A    between atoms: C18_21  and  C19_22 
REMARK    9  A    between atoms: C19_22  and  O4_23 
REMARK   10  A    between atoms: C20_24  and  O5_25 
REMARK   11  A    between atoms: C21_26  and  O6_27 
REMARK   12  A    between atoms: C30_38  and  O9_39 
REMARK   13  A    between atoms: O9_39  and  C31_40 
REMARK   14  A    between atoms: C31_40  and  C32_41 
ROOT
HETATM    1  C4  UNL     1       2.696  54.638  -9.449  1.00  0.00     0.142 C 
HETATM    2  O1  UNL     1       2.530  55.265  -8.157  1.00  0.00    -0.308 OA
HETATM    3  C5  UNL     1       1.150  55.570  -8.091  1.00  0.00     0.306 C 
HETATM    4  O2  UNL     1       0.723  55.886  -9.402  1.00  0.00    -0.320 OA
HETATM    5  C15 UNL     1       1.305  54.801 -10.131  1.00  0.00     0.179 C 
HETATM    6  C16 UNL     1       0.342  53.614  -9.904  1.00  0.00     0.086 C 
HETATM    7  C17 UNL     1      -1.026  53.962 -10.456  1.00  0.00     0.172 A 
HETATM    8  O3  UNL     1      -2.095  54.159  -9.536  1.00  0.00    -0.363 OA
HETATM    9  C18 UNL     1      -2.265  53.055 -10.447  1.00  0.00     0.138 A 
HETATM   10  C20 UNL     1      -2.351  51.694  -9.768  1.00  0.00     0.200 C 
HETATM   11  C21 UNL     1      -1.170  51.266  -8.880  1.00  0.00     0.161 C 
HETATM   12  C22 UNL     1      -1.530  50.140  -7.913  1.00  0.00     0.192 C 
HETATM   13  O7  UNL     1      -1.996  49.057  -8.243  1.00  0.00    -0.289 OA
HETATM   14  C23 UNL     1      -1.103  50.436  -6.535  1.00  0.00    -0.016 C 
HETATM   15  C24 UNL     1      -1.246  49.481  -5.418  1.00  0.00     0.052 C 
HETATM   16  C25 UNL     1      -0.614  51.679  -6.563  1.00  0.00    -0.005 C 
HETATM   17  C26 UNL     1      -0.712  52.369  -7.901  1.00  0.00     0.090 C 
HETATM   18  C27 UNL     1       0.487  53.238  -8.394  1.00  0.00     0.092 C 
HETATM   19  O8  UNL     1       0.425  54.443  -7.582  1.00  0.00    -0.316 OA
HETATM   20  C28 UNL     1       1.905  52.534  -8.207  1.00  0.00     0.050 C 
HETATM   21  C29 UNL     1       2.456  52.544  -6.767  1.00  0.00     0.016 C 
HETATM   22  C30 UNL     1       2.993  53.143  -9.163  1.00  0.00     0.170 C 
ENDROOT
BRANCH   3  23
HETATM   23  C6  UNL     1       0.965  56.701  -7.130  1.00  0.00     0.074 C 
HETATM   24  C7  UNL     1       1.809  57.654  -6.699  1.00  0.00     0.004 C 
BRANCH  24  25
HETATM   25  C8  UNL     1       3.211  57.790  -7.020  1.00  0.00    -0.004 C 
HETATM   26  C9  UNL     1       4.187  57.447  -6.165  1.00  0.00    -0.027 C 
BRANCH  26  27
HETATM   27  C10 UNL     1       5.650  57.540  -6.490  1.00  0.00     0.027 C 
BRANCH  27  28
HETATM   28  C11 UNL     1       6.491  56.643  -5.576  1.00  0.00     0.004 C 
BRANCH  28  29
HETATM   29  C12 UNL     1       7.684  56.056  -6.334  1.00  0.00    -0.000 C 
BRANCH  29  30
HETATM   30  C13 UNL     1       8.903  55.794  -5.446  1.00  0.00    -0.005 C 
HETATM   31  C14 UNL     1       9.757  57.029  -5.206  1.00  0.00     0.005 C 
ENDBRANCH  29  30
ENDBRANCH  28  29
ENDBRANCH  27  28
ENDBRANCH  26  27
ENDBRANCH  24  25
ENDBRANCH   3  23
BRANCH   1  32
HETATM   32  C2  UNL     1       3.878  55.348 -10.130  1.00  0.00    -0.054 C 
HETATM   33  C1  UNL     1       5.172  55.200  -9.790  1.00  0.00     0.017 C 
HETATM   34  C3  UNL     1       3.529  56.293 -11.258  1.00  0.00     0.046 C 
ENDBRANCH   1  32
BRANCH  22  35
HETATM   35  O9  UNL     1       3.022  52.423 -10.412  1.00  0.00    -0.377 OA
BRANCH  35  36
HETATM   36  C31 UNL     1       3.229  51.015 -10.263  1.00  0.00     0.207 C 
BRANCH  36  37
HETATM   37  C32 UNL     1       4.666  50.701  -9.931  1.00  0.00    -0.035 A 
HETATM   38  C33 UNL     1       5.559  51.725  -9.587  1.00  0.00     0.009 A 
HETATM   39  C34 UNL     1       6.891  51.431  -9.285  1.00  0.00     0.001 A 
HETATM   40  C35 UNL     1       7.340  50.113  -9.318  1.00  0.00     0.000 A 
HETATM   41  C36 UNL     1       6.460  49.086  -9.653  1.00  0.00     0.001 A 
HETATM   42  C37 UNL     1       5.128  49.377  -9.956  1.00  0.00     0.009 A 
ENDBRANCH  36  37
ENDBRANCH  35  36
ENDBRANCH  22  35
BRANCH  11  43
HETATM   43  O6  UNL     1      -0.123  50.711  -9.700  1.00  0.00    -0.378 OA
HETATM   44  H29 UNL     1      -0.404  49.792  -9.898  1.00  0.00     0.211 HD
ENDBRANCH  11  43
BRANCH   9  45
HETATM   45  C19 UNL     1      -3.309  53.331 -11.511  1.00  0.00     0.207 C 
BRANCH  45  46
HETATM   46  O4  UNL     1      -4.598  52.884 -11.105  1.00  0.00    -0.398 OA
HETATM   47  H26 UNL     1      -4.557  51.908 -11.094  1.00  0.00     0.209 HD
ENDBRANCH  45  46
ENDBRANCH   9  45
BRANCH  10  48
HETATM   48  O5  UNL     1      -2.530  50.719 -10.816  1.00  0.00    -0.389 OA
HETATM   49  H28 UNL     1      -1.685  50.682 -11.301  1.00  0.00     0.210 HD
ENDBRANCH  10  48
TORSDOF 14
ENDMDL
MODEL 2
REMARK minimizedAffinity -8.59430218
REMARK CNNscore 0.408290565
REMARK CNNaffinity 6.83173752
REMARK  14 active torsions:
REMARK  status: ('A' for Active; 'I' for Inactive)
REMARK    1  A    between atoms: C2_2  and  C4_4 
REMARK    2  A    between atoms: C5_6  and  C6_7 
REMARK    3  A    between atoms: C7_8  and  C8_9 
REMARK    4  A    between atoms: C9_10  and  C10_11 
REMARK    5  A    between atoms: C10_11  and  C11_12 
REMARK    6  A    between atoms: C11_12  and  C12_13 
REMARK    7  A    between atoms: C12_13  and  C13_14 
REMARK    8  A    between atoms: C18_21  and  C19_22 
REMARK    9  A    between atoms: C19_22  and  O4_23 
REMARK   10  A    between atoms: C20_24  and  O5_25 
REMARK   11  A    between atoms: C21_26  and  O6_27 
REMARK   12  A    between atoms: C30_38  and  O9_39 
REMARK   13  A    between atoms: O9_39  and  C31_40 
REMARK   14  A    between atoms: C31_40  and  C32_41 
ROOT
HETATM    1  C4  UNL     1      -8.401  47.437 -28.418  1.00  0.00     0.142 C 
HETATM    2  O1  UNL     1      -7.291  48.304 -28.742  1.00  0.00    -0.308 OA
HETATM    3  C5  UNL     1      -6.325  47.440 -29.311  1.00  0.00     0.306 C 
HETATM    4  O2  UNL     1      -6.442  46.189 -28.662  1.00  0.00    -0.320 OA
HETATM    5  C15 UNL     1      -7.861  46.004 -28.709  1.00  0.00     0.179 C 
HETATM    6  C16 UNL     1      -8.143  45.497 -30.141  1.00  0.00     0.086 C 
HETATM    7  C17 UNL     1      -7.422  44.182 -30.361  1.00  0.00     0.172 A 
HETATM    8  O3  UNL     1      -6.326  44.158 -31.270  1.00  0.00    -0.363 OA
HETATM    9  C18 UNL     1      -7.451  43.335 -31.641  1.00  0.00     0.138 A 
HETATM   10  C20 UNL     1      -8.117  43.745 -32.949  1.00  0.00     0.200 C 
HETATM   11  C21 UNL     1      -8.655  45.182 -33.054  1.00  0.00     0.161 C 
HETATM   12  C22 UNL     1      -8.882  45.628 -34.497  1.00  0.00     0.192 C 
HETATM   13  O7  UNL     1      -9.585  45.042 -35.308  1.00  0.00    -0.289 OA
HETATM   14  C23 UNL     1      -8.283  46.947 -34.768  1.00  0.00    -0.016 C 
HETATM   15  C24 UNL     1      -8.430  47.655 -36.056  1.00  0.00     0.052 C 
HETATM   16  C25 UNL     1      -7.629  47.288 -33.655  1.00  0.00    -0.005 C 
HETATM   17  C26 UNL     1      -7.651  46.247 -32.563  1.00  0.00     0.090 C 
HETATM   18  C27 UNL     1      -7.840  46.705 -31.084  1.00  0.00     0.092 C 
HETATM   19  O8  UNL     1      -6.564  47.302 -30.718  1.00  0.00    -0.316 OA
HETATM   20  C28 UNL     1      -9.008  47.772 -30.890  1.00  0.00     0.050 C 
HETATM   21  C29 UNL     1      -8.659  49.211 -31.320  1.00  0.00     0.016 C 
HETATM   22  C30 UNL     1      -9.535  47.806 -29.410  1.00  0.00     0.170 C 
ENDROOT
BRANCH   3  23
HETATM   23  C6  UNL     1      -4.976  48.062 -29.138  1.00  0.00     0.074 C 
HETATM   24  C7  UNL     1      -4.291  48.416 -28.037  1.00  0.00     0.004 C 
BRANCH  24  25
HETATM   25  C8  UNL     1      -4.742  48.346 -26.666  1.00  0.00    -0.004 C 
HETATM   26  C9  UNL     1      -3.904  48.430 -25.622  1.00  0.00    -0.027 C 
BRANCH  26  27
HETATM   27  C10 UNL     1      -4.353  48.401 -24.189  1.00  0.00     0.027 C 
BRANCH  27  28
HETATM   28  C11 UNL     1      -3.217  48.779 -23.233  1.00  0.00     0.004 C 
BRANCH  28  29
HETATM   29  C12 UNL     1      -2.903  50.274 -23.321  1.00  0.00    -0.000 C 
BRANCH  29  30
HETATM   30  C13 UNL     1      -1.408  50.578 -23.450  1.00  0.00    -0.005 C 
HETATM   31  C14 UNL     1      -0.817  51.256 -22.224  1.00  0.00     0.005 C 
ENDBRANCH  29  30
ENDBRANCH  28  29
ENDBRANCH  27  28
ENDBRANCH  26  27
ENDBRANCH  24  25
ENDBRANCH   3  23
BRANCH   1  32
HETATM   32  C2  UNL     1      -8.780  47.740 -26.959  1.00  0.00    -0.054 C 
HETATM   33  C1  UNL     1      -9.556  48.765 -26.556  1.00  0.00     0.017 C 
HETATM   34  C3  UNL     1      -8.211  46.807 -25.913  1.00  0.00     0.046 C 
ENDBRANCH   1  32
BRANCH  22  35
HETATM   35  O9  UNL     1     -10.623  46.877 -29.245  1.00  0.00    -0.377 OA
BRANCH  35  36
HETATM   36  C31 UNL     1     -11.912  47.442 -29.506  1.00  0.00     0.207 C 
BRANCH  36  37
HETATM   37  C32 UNL     1     -12.939  46.954 -28.515  1.00  0.00    -0.035 A 
HETATM   38  C33 UNL     1     -13.918  46.028 -28.901  1.00  0.00     0.009 A 
HETATM   39  C34 UNL     1     -14.871  45.582 -27.982  1.00  0.00     0.001 A 
HETATM   40  C35 UNL     1     -14.852  46.053 -26.671  1.00  0.00     0.000 A 
HETATM   41  C36 UNL     1     -13.880  46.970 -26.276  1.00  0.00     0.001 A 
HETATM   42  C37 UNL     1     -12.926  47.417 -27.192  1.00  0.00     0.009 A 
ENDBRANCH  36  37
ENDBRANCH  35  36
ENDBRANCH  22  35
BRANCH  11  43
HETATM   43  O6  UNL     1      -9.961  45.256 -32.449  1.00  0.00    -0.378 OA
HETATM   44  H29 UNL     1     -10.581  44.896 -33.117  1.00  0.00     0.211 HD
ENDBRANCH  11  43
BRANCH   9  45
HETATM   45  C19 UNL     1      -7.172  41.855 -31.476  1.00  0.00     0.207 C 
BRANCH  45  46
HETATM   46  O4  UNL     1      -5.963  41.476 -32.124  1.00  0.00    -0.398 OA
HETATM   47  H26 UNL     1      -6.132  41.556 -33.084  1.00  0.00     0.209 HD
ENDBRANCH  45  46
ENDBRANCH   9  45
BRANCH  10  48
HETATM   48  O5  UNL     1      -9.200  42.818 -33.169  1.00  0.00    -0.389 OA
HETATM   49  H28 UNL     1      -9.873  43.021 -32.493  1.00  0.00     0.210 HD
ENDBRANCH  10  48
TORSDOF 14
ENDMDL
MODEL 3
REMARK minimizedAffinity -7.18961191
REMARK CNNscore 0.342152148
REMARK CNNaffinity 6.88402224
REMARK  14 active torsions:
REMARK  status: ('A' for Active; 'I' for Inactive)
REMARK    1  A    between atoms: C2_2  and  C4_4 
REMARK    2  A    between atoms: C5_6  and  C6_7 
REMARK    3  A    between atoms: C7_8  and  C8_9 
REMARK    4  A    between atoms: C9_10  and  C10_11 
REMARK    5  A    between atoms: C10_11  and  C11_12 
REMARK    6  A    between atoms: C11_12  and  C12_13 
REMARK    7  A    between atoms: C12_13  and  C13_14 
REMARK    8  A    between atoms: C18_21  and  C19_22 
REMARK    9  A    between atoms: C19_22  and  O4_23 
REMARK   10  A    between atoms: C20_24  and  O5_25 
REMARK   11  A    between atoms: C21_26  and  O6_27 
REMARK   12  A    between atoms: C30_38  and  O9_39 
REMARK   13  A    between atoms: O9_39  and  C31_40 
REMARK   14  A    between atoms: C31_40  and  C32_41 
ROOT
HETATM    1  C4  UNL     1       2.039  54.262  -9.539  1.00  0.00     0.142 C 
HETATM    2  O1  UNL     1       1.844  54.734  -8.186  1.00  0.00    -0.308 OA
HETATM    3  C5  UNL     1       0.467  55.054  -8.122  1.00  0.00     0.306 C 
HETATM    4  O2  UNL     1       0.083  55.531  -9.396  1.00  0.00    -0.320 OA
HETATM    5  C15 UNL     1       0.670  54.530 -10.235  1.00  0.00     0.179 C 
HETATM    6  C16 UNL     1      -0.316  53.342 -10.176  1.00  0.00     0.086 C 
HETATM    7  C17 UNL     1      -1.662  53.778 -10.721  1.00  0.00     0.172 A 
HETATM    8  O3  UNL     1      -2.754  53.883  -9.813  1.00  0.00    -0.363 OA
HETATM    9  C18 UNL     1      -2.913  52.899 -10.854  1.00  0.00     0.138 A 
HETATM   10  C20 UNL     1      -3.040  51.468 -10.345  1.00  0.00     0.200 C 
HETATM   11  C21 UNL     1      -1.891  50.916  -9.482  1.00  0.00     0.161 C 
HETATM   12  C22 UNL     1      -2.295  49.690  -8.668  1.00  0.00     0.192 C 
HETATM   13  O7  UNL     1      -2.767  48.663  -9.136  1.00  0.00    -0.289 OA
HETATM   14  C23 UNL     1      -1.904  49.812  -7.253  1.00  0.00    -0.016 C 
HETATM   15  C24 UNL     1      -2.094  48.733  -6.262  1.00  0.00     0.052 C 
HETATM   16  C25 UNL     1      -1.397  51.040  -7.119  1.00  0.00    -0.005 C 
HETATM   17  C26 UNL     1      -1.445  51.886  -8.367  1.00  0.00     0.090 C 
HETATM   18  C27 UNL     1      -0.221  52.786  -8.720  1.00  0.00     0.092 C 
HETATM   19  O8  UNL     1      -0.289  53.888  -7.771  1.00  0.00    -0.316 OA
HETATM   20  C28 UNL     1       1.181  52.040  -8.579  1.00  0.00     0.050 C 
HETATM   21  C29 UNL     1       1.690  51.868  -7.134  1.00  0.00     0.016 C 
HETATM   22  C30 UNL     1       2.306  52.738  -9.426  1.00  0.00     0.170 C 
ENDROOT
BRANCH   3  23
HETATM   23  C6  UNL     1       0.270  56.065  -7.037  1.00  0.00     0.074 C 
HETATM   24  C7  UNL     1       1.008  57.123  -6.659  1.00  0.00     0.004 C 
BRANCH  24  25
HETATM   25  C8  UNL     1       2.290  57.530  -7.188  1.00  0.00    -0.004 C 
HETATM   26  C9  UNL     1       3.454  57.156  -6.636  1.00  0.00    -0.027 C 
BRANCH  26  27
HETATM   27  C10 UNL     1       4.798  57.531  -7.190  1.00  0.00     0.027 C 
BRANCH  27  28
HETATM   28  C11 UNL     1       5.856  56.468  -6.878  1.00  0.00     0.004 C 
BRANCH  28  29
HETATM   29  C12 UNL     1       6.890  57.002  -5.884  1.00  0.00    -0.000 C 
BRANCH  29  30
HETATM   30  C13 UNL     1       6.535  58.376  -5.311  1.00  0.00    -0.005 C 
HETATM   31  C14 UNL     1       7.749  59.220  -4.958  1.00  0.00     0.005 C 
ENDBRANCH  29  30
ENDBRANCH  28  29
ENDBRANCH  27  28
ENDBRANCH  26  27
ENDBRANCH  24  25
ENDBRANCH   3  23
BRANCH   1  32
HETATM   32  C2  UNL     1       3.250  55.027 -10.098  1.00  0.00    -0.054 C 
HETATM   33  C1  UNL     1       3.183  56.151 -10.838  1.00  0.00     0.017 C 
HETATM   34  C3  UNL     1       4.610  54.442  -9.789  1.00  0.00     0.046 C 
ENDBRANCH   1  32
BRANCH  22  35
HETATM   35  O9  UNL     1       2.360  52.172 -10.750  1.00  0.00    -0.377 OA
BRANCH  35  36
HETATM   36  C31 UNL     1       1.296  52.600 -11.606  1.00  0.00     0.207 C 
BRANCH  36  37
HETATM   37  C32 UNL     1       1.546  52.199 -13.039  1.00  0.00    -0.035 A 
HETATM   38  C33 UNL     1       2.822  51.796 -13.454  1.00  0.00     0.009 A 
HETATM   39  C34 UNL     1       3.051  51.431 -14.783  1.00  0.00     0.001 A 
HETATM   40  C35 UNL     1       2.008  51.460 -15.705  1.00  0.00     0.000 A 
HETATM   41  C36 UNL     1       0.734  51.854 -15.302  1.00  0.00     0.001 A 
HETATM   42  C37 UNL     1       0.502  52.220 -13.974  1.00  0.00     0.009 A 
ENDBRANCH  36  37
ENDBRANCH  35  36
ENDBRANCH  22  35
BRANCH  11  43
HETATM   43  O6  UNL     1      -0.829  50.444 -10.334  1.00  0.00    -0.378 OA
HETATM   44  H29 UNL     1      -1.117  49.560 -10.648  1.00  0.00     0.211 HD
ENDBRANCH  11  43
BRANCH   9  45
HETATM   45  C19 UNL     1      -3.922  53.318 -11.904  1.00  0.00     0.207 C 
BRANCH  45  46
HETATM   46  O4  UNL     1      -3.542  52.871 -13.202  1.00  0.00    -0.398 OA
HETATM   47  H26 UNL     1      -2.750  53.390 -13.446  1.00  0.00     0.209 HD
ENDBRANCH  45  46
ENDBRANCH   9  45
BRANCH  10  48
HETATM   48  O5  UNL     1      -3.202  50.628 -11.506  1.00  0.00    -0.389 OA
HETATM   49  H28 UNL     1      -2.344  50.635 -11.969  1.00  0.00     0.210 HD
ENDBRANCH  10  48
TORSDOF 14
ENDMDL
MODEL 4
REMARK minimizedAffinity -7.73343849
REMARK CNNscore 0.339200467
REMARK CNNaffinity 7.00580406
REMARK  14 active torsions:
REMARK  status: ('A' for Active; 'I' for Inactive)
REMARK    1  A    between atoms: C2_2  and  C4_4 
REMARK    2  A    between atoms: C5_6  and  C6_7 
REMARK    3  A    between atoms: C7_8  and  C8_9 
REMARK    4  A    between atoms: C9_10  and  C10_11 
REMARK    5  A    between atoms: C10_11  and  C11_12 
REMARK    6  A    between atoms: C11_12  and  C12_13 
REMARK    7  A    between atoms: C12_13  and  C13_14 
REMARK    8  A    between atoms: C18_21  and  C19_22 
REMARK    9  A    between atoms: C19_22  and  O4_23 
REMARK   10  A    between atoms: C20_24  and  O5_25 
REMARK   11  A    between atoms: C21_26  and  O6_27 
REMARK   12  A    between atoms: C30_38  and  O9_39 
REMARK   13  A    between atoms: O9_39  and  C31_40 
REMARK   14  A    between atoms: C31_40  and  C32_41 
ROOT
HETATM    1  C4  UNL     1      -1.229  52.695 -11.196  1.00  0.00     0.142 C 
HETATM    2  O1  UNL     1      -2.306  51.936 -11.792  1.00  0.00    -0.308 OA
HETATM    3  C5  UNL     1      -1.793  51.528 -13.047  1.00  0.00     0.306 C 
HETATM    4  O2  UNL     1      -0.938  52.555 -13.509  1.00  0.00    -0.320 OA
HETATM    5  C15 UNL     1      -0.164  52.797 -12.329  1.00  0.00     0.179 C 
HETATM    6  C16 UNL     1       0.891  51.669 -12.313  1.00  0.00     0.086 C 
HETATM    7  C17 UNL     1       1.756  51.772 -13.554  1.00  0.00     0.172 A 
HETATM    8  O3  UNL     1       1.637  50.756 -14.545  1.00  0.00    -0.363 OA
HETATM    9  C18 UNL     1       2.932  50.853 -13.918  1.00  0.00     0.138 A 
HETATM   10  C20 UNL     1       3.345  49.607 -13.144  1.00  0.00     0.200 C 
HETATM   11  C21 UNL     1       2.417  49.133 -12.012  1.00  0.00     0.161 C 
HETATM   12  C22 UNL     1       2.660  47.679 -11.613  1.00  0.00     0.192 C 
HETATM   13  O7  UNL     1       3.738  47.223 -11.256  1.00  0.00    -0.289 OA
HETATM   14  C23 UNL     1       1.408  46.907 -11.548  1.00  0.00    -0.016 C 
HETATM   15  C24 UNL     1       1.345  45.500 -11.101  1.00  0.00     0.052 C 
HETATM   16  C25 UNL     1       0.447  47.731 -11.972  1.00  0.00    -0.005 C 
HETATM   17  C26 UNL     1       0.928  49.089 -12.421  1.00  0.00     0.090 C 
HETATM   18  C27 UNL     1       0.097  50.352 -12.038  1.00  0.00     0.092 C 
HETATM   19  O8  UNL     1      -1.073  50.298 -12.903  1.00  0.00    -0.316 OA
HETATM   20  C28 UNL     1      -0.362  50.376 -10.512  1.00  0.00     0.050 C 
HETATM   21  C29 UNL     1      -1.552  49.457 -10.172  1.00  0.00     0.016 C 
HETATM   22  C30 UNL     1      -0.698  51.831 -10.022  1.00  0.00     0.170 C 
ENDROOT
BRANCH   3  23
HETATM   23  C6  UNL     1      -2.946  51.274 -13.965  1.00  0.00     0.074 C 
HETATM   24  C7  UNL     1      -2.996  50.880 -15.249  1.00  0.00     0.004 C 
BRANCH  24  25
HETATM   25  C8  UNL     1      -1.879  50.660 -16.140  1.00  0.00    -0.004 C 
HETATM   26  C9  UNL     1      -1.875  51.078 -17.414  1.00  0.00    -0.027 C 
BRANCH  26  27
HETATM   27  C10 UNL     1      -0.712  50.897 -18.346  1.00  0.00     0.027 C 
BRANCH  27  28
HETATM   28  C11 UNL     1       0.341  51.994 -18.157  1.00  0.00     0.004 C 
BRANCH  28  29
HETATM   29  C12 UNL     1       0.152  53.116 -19.181  1.00  0.00    -0.000 C 
BRANCH  29  30
HETATM   30  C13 UNL     1       1.253  53.166 -20.243  1.00  0.00    -0.005 C 
HETATM   31  C14 UNL     1       0.722  53.153 -21.669  1.00  0.00     0.005 C 
ENDBRANCH  29  30
ENDBRANCH  28  29
ENDBRANCH  27  28
ENDBRANCH  26  27
ENDBRANCH  24  25
ENDBRANCH   3  23
BRANCH   1  32
HETATM   32  C2  UNL     1      -1.844  54.019 -10.715  1.00  0.00    -0.054 C 
HETATM   33  C1  UNL     1      -1.156  55.152 -10.475  1.00  0.00     0.017 C 
HETATM   34  C3  UNL     1      -3.339  54.018 -10.486  1.00  0.00     0.046 C 
ENDBRANCH   1  32
BRANCH  22  35
HETATM   35  O9  UNL     1       0.478  52.458  -9.473  1.00  0.00    -0.377 OA
BRANCH  35  36
HETATM   36  C31 UNL     1       1.340  53.034 -10.460  1.00  0.00     0.207 C 
BRANCH  36  37
HETATM   37  C32 UNL     1       2.060  54.246  -9.922  1.00  0.00    -0.035 A 
HETATM   38  C33 UNL     1       2.714  55.131 -10.791  1.00  0.00     0.009 A 
HETATM   39  C34 UNL     1       3.383  56.249 -10.289  1.00  0.00     0.001 A 
HETATM   40  C35 UNL     1       3.403  56.496  -8.919  1.00  0.00     0.000 A 
HETATM   41  C36 UNL     1       2.752  55.626  -8.046  1.00  0.00     0.001 A 
HETATM   42  C37 UNL     1       2.081  54.507  -8.545  1.00  0.00     0.009 A 
ENDBRANCH  36  37
ENDBRANCH  35  36
ENDBRANCH  22  35
BRANCH  11  43
HETATM   43  O6  UNL     1       2.693  49.883 -10.813  1.00  0.00    -0.378 OA
HETATM   44  H29 UNL     1       3.496  49.474 -10.426  1.00  0.00     0.211 HD
ENDBRANCH  11  43
BRANCH   9  45
HETATM   45  C19 UNL     1       3.984  51.439 -14.838  1.00  0.00     0.207 C 
BRANCH  45  46
HETATM   46  O4  UNL     1       3.668  52.777 -15.208  1.00  0.00    -0.398 OA
HETATM   47  H26 UNL     1       2.884  52.721 -15.788  1.00  0.00     0.209 HD
ENDBRANCH  45  46
ENDBRANCH   9  45
BRANCH  10  48
HETATM   48  O5  UNL     1       4.654  49.873 -12.600  1.00  0.00    -0.389 OA
HETATM   49  H28 UNL     1       4.529  50.546 -11.906  1.00  0.00     0.210 HD
ENDBRANCH  10  48
TORSDOF 14
ENDMDL
MODEL 5
REMARK minimizedAffinity -7.34487343
REMARK CNNscore 0.248032257
REMARK CNNaffinity 7.11315918
REMARK  14 active torsions:
REMARK  status: ('A' for Active; 'I' for Inactive)
REMARK    1  A    between atoms: C2_2  and  C4_4 
REMARK    2  A    between atoms: C5_6  and  C6_7 
REMARK    3  A    between atoms: C7_8  and  C8_9 
REMARK    4  A    between atoms: C9_10  and  C10_11 
REMARK    5  A    between atoms: C10_11  and  C11_12 
REMARK    6  A    between atoms: C11_12  and  C12_13 
REMARK    7  A    between atoms: C12_13  and  C13_14 
REMARK    8  A    between atoms: C18_21  and  C19_22 
REMARK    9  A    between atoms: C19_22  and  O4_23 
REMARK   10  A    between atoms: C20_24  and  O5_25 
REMARK   11  A    between atoms: C21_26  and  O6_27 
REMARK   12  A    between atoms: C30_38  and  O9_39 
REMARK   13  A    between atoms: O9_39  and  C31_40 
REMARK   14  A    between atoms: C31_40  and  C32_41 
ROOT
HETATM    1  C4  UNL     1       1.438  51.070 -14.579  1.00  0.00     0.142 C 
HETATM    2  O1  UNL     1       0.424  50.891 -15.593  1.00  0.00    -0.308 OA
HETATM    3  C5  UNL     1       0.049  49.531 -15.477  1.00  0.00     0.306 C 
HETATM    4  O2  UNL     1       1.202  48.805 -15.097  1.00  0.00    -0.320 OA
HETATM    5  C15 UNL     1       1.689  49.632 -14.035  1.00  0.00     0.179 C 
HETATM    6  C16 UNL     1       0.821  49.254 -12.813  1.00  0.00     0.086 C 
HETATM    7  C17 UNL     1       1.021  47.786 -12.489  1.00  0.00     0.172 A 
HETATM    8  O3  UNL     1      -0.064  46.892 -12.714  1.00  0.00    -0.363 OA
HETATM    9  C18 UNL     1       0.356  47.014 -11.340  1.00  0.00     0.138 A 
HETATM   10  C20 UNL     1      -0.712  47.573 -10.408  1.00  0.00     0.200 C 
HETATM   11  C21 UNL     1      -1.295  48.957 -10.744  1.00  0.00     0.161 C 
HETATM   12  C22 UNL     1      -2.629  49.225 -10.051  1.00  0.00     0.192 C 
HETATM   13  O7  UNL     1      -2.814  49.165  -8.843  1.00  0.00    -0.289 OA
HETATM   14  C23 UNL     1      -3.649  49.725 -10.988  1.00  0.00    -0.016 C 
HETATM   15  C24 UNL     1      -5.000  50.148 -10.567  1.00  0.00     0.052 C 
HETATM   16  C25 UNL     1      -3.085  49.684 -12.198  1.00  0.00    -0.005 C 
HETATM   17  C26 UNL     1      -1.691  49.109 -12.229  1.00  0.00     0.090 C 
HETATM   18  C27 UNL     1      -0.614  49.780 -13.137  1.00  0.00     0.092 C 
HETATM   19  O8  UNL     1      -0.982  49.392 -14.491  1.00  0.00    -0.316 OA
HETATM   20  C28 UNL     1      -0.582  51.369 -13.022  1.00  0.00     0.050 C 
HETATM   21  C29 UNL     1      -1.712  52.103 -13.772  1.00  0.00     0.016 C 
HETATM   22  C30 UNL     1       0.796  51.965 -13.486  1.00  0.00     0.170 C 
ENDROOT
BRANCH   3  23
HETATM   23  C6  UNL     1      -0.514  49.085 -16.789  1.00  0.00     0.074 C 
HETATM   24  C7  UNL     1      -0.849  49.770 -17.895  1.00  0.00     0.004 C 
BRANCH  24  25
HETATM   25  C8  UNL     1      -0.817  51.202 -18.080  1.00  0.00    -0.004 C 
HETATM   26  C9  UNL     1      -0.008  51.801 -18.967  1.00  0.00    -0.027 C 
BRANCH  26  27
HETATM   27  C10 UNL     1       0.014  53.283 -19.206  1.00  0.00     0.027 C 
BRANCH  27  28
HETATM   28  C11 UNL     1       1.040  53.668 -20.277  1.00  0.00     0.004 C 
BRANCH  28  29
HETATM   29  C12 UNL     1       1.233  52.531 -21.284  1.00  0.00    -0.000 C 
BRANCH  29  30
HETATM   30  C13 UNL     1       0.443  52.722 -22.581  1.00  0.00    -0.005 C 
HETATM   31  C14 UNL     1      -0.794  51.841 -22.674  1.00  0.00     0.005 C 
ENDBRANCH  29  30
ENDBRANCH  28  29
ENDBRANCH  27  28
ENDBRANCH  26  27
ENDBRANCH  24  25
ENDBRANCH   3  23
BRANCH   1  32
HETATM   32  C2  UNL     1       2.628  51.756 -15.270  1.00  0.00    -0.054 C 
HETATM   33  C1  UNL     1       2.533  52.654 -16.269  1.00  0.00     0.017 C 
HETATM   34  C3  UNL     1       4.004  51.362 -14.778  1.00  0.00     0.046 C 
ENDBRANCH   1  32
BRANCH  22  35
HETATM   35  O9  UNL     1       1.701  52.062 -12.369  1.00  0.00    -0.377 OA
BRANCH  35  36
HETATM   36  C31 UNL     1       1.244  52.931 -11.328  1.00  0.00     0.207 C 
BRANCH  36  37
HETATM   37  C32 UNL     1       2.337  53.863 -10.867  1.00  0.00    -0.035 A 
HETATM   38  C33 UNL     1       3.596  53.363 -10.510  1.00  0.00     0.009 A 
HETATM   39  C34 UNL     1       4.605  54.228 -10.079  1.00  0.00     0.001 A 
HETATM   40  C35 UNL     1       4.366  55.598 -10.006  1.00  0.00     0.000 A 
HETATM   41  C36 UNL     1       3.119  56.107 -10.365  1.00  0.00     0.001 A 
HETATM   42  C37 UNL     1       2.109  55.244 -10.796  1.00  0.00     0.009 A 
ENDBRANCH  36  37
ENDBRANCH  35  36
ENDBRANCH  22  35
BRANCH  11  43
HETATM   43  O6  UNL     1      -0.420  49.986 -10.242  1.00  0.00    -0.378 OA
HETATM   44  H29 UNL     1      -0.616  50.054  -9.283  1.00  0.00     0.211 HD
ENDBRANCH  11  43
BRANCH   9  45
HETATM   45  C19 UNL     1       1.090  45.785 -10.843  1.00  0.00     0.207 C 
BRANCH  45  46
HETATM   46  O4  UNL     1       0.539  44.591 -11.389  1.00  0.00    -0.398 OA
HETATM   47  H26 UNL     1      -0.346  44.490 -10.986  1.00  0.00     0.209 HD
ENDBRANCH  45  46
ENDBRANCH   9  45
BRANCH  10  48
HETATM   48  O5  UNL     1      -0.131  47.614  -9.089  1.00  0.00    -0.389 OA
HETATM   49  H28 UNL     1       0.547  48.315  -9.112  1.00  0.00     0.210 HD
ENDBRANCH  10  48
TORSDOF 14
ENDMDL
MODEL 6
REMARK minimizedAffinity -6.94274092
REMARK CNNscore 0.232159898
REMARK CNNaffinity 6.5352006
REMARK  14 active torsions:
REMARK  status: ('A' for Active; 'I' for Inactive)
REMARK    1  A    between atoms: C2_2  and  C4_4 
REMARK    2  A    between atoms: C5_6  and  C6_7 
REMARK    3  A    between atoms: C7_8  and  C8_9 
REMARK    4  A    between atoms: C9_10  and  C10_11 
REMARK    5  A    between atoms: C10_11  and  C11_12 
REMARK    6  A    between atoms: C11_12  and  C12_13 
REMARK    7  A    between atoms: C12_13  and  C13_14 
REMARK    8  A    between atoms: C18_21  and  C19_22 
REMARK    9  A    between atoms: C19_22  and  O4_23 
REMARK   10  A    between atoms: C20_24  and  O5_25 
REMARK   11  A    between atoms: C21_26  and  O6_27 
REMARK   12  A    between atoms: C30_38  and  O9_39 
REMARK   13  A    between atoms: O9_39  and  C31_40 
REMARK   14  A    between atoms: C31_40  and  C32_41 
ROOT
HETATM    1  C4  UNL     1       1.356  53.417  -9.128  1.00  0.00     0.142 C 
HETATM    2  O1  UNL     1       1.807  54.221 -10.241  1.00  0.00    -0.308 OA
HETATM    3  C5  UNL     1       3.059  53.662 -10.592  1.00  0.00     0.306 C 
HETATM    4  O2  UNL     1       3.665  53.200  -9.401  1.00  0.00    -0.320 OA
HETATM    5  C15 UNL     1       2.570  52.492  -8.811  1.00  0.00     0.179 C 
HETATM    6  C16 UNL     1       2.541  51.132  -9.545  1.00  0.00     0.086 C 
HETATM    7  C17 UNL     1       3.847  50.402  -9.303  1.00  0.00     0.172 A 
HETATM    8  O3  UNL     1       4.740  50.236 -10.399  1.00  0.00    -0.363 OA
HETATM    9  C18 UNL     1       4.221  49.013  -9.839  1.00  0.00     0.138 A 
HETATM   10  C20 UNL     1       3.382  48.190 -10.808  1.00  0.00     0.200 C 
HETATM   11  C21 UNL     1       2.149  48.867 -11.433  1.00  0.00     0.161 C 
HETATM   12  C22 UNL     1       1.652  48.155 -12.689  1.00  0.00     0.192 C 
HETATM   13  O7  UNL     1       1.340  46.974 -12.747  1.00  0.00    -0.289 OA
HETATM   14  C23 UNL     1       1.432  49.092 -13.804  1.00  0.00    -0.016 C 
HETATM   15  C24 UNL     1       0.868  48.684 -15.107  1.00  0.00     0.052 C 
HETATM   16  C25 UNL     1       1.849  50.284 -13.369  1.00  0.00    -0.005 C 
HETATM   17  C26 UNL     1       2.441  50.280 -11.981  1.00  0.00     0.090 C 
HETATM   18  C27 UNL     1       2.102  51.453 -11.010  1.00  0.00     0.092 C 
HETATM   19  O8  UNL     1       2.869  52.582 -11.514  1.00  0.00    -0.316 OA
HETATM   20  C28 UNL     1       0.552  51.827 -10.977  1.00  0.00     0.050 C 
HETATM   21  C29 UNL     1       0.050  52.645 -12.183  1.00  0.00     0.016 C 
HETATM   22  C30 UNL     1       0.159  52.586  -9.659  1.00  0.00     0.170 C 
ENDROOT
BRANCH   3  23
HETATM   23  C6  UNL     1       3.865  54.715 -11.285  1.00  0.00     0.074 C 
HETATM   24  C7  UNL     1       4.090  56.006 -10.990  1.00  0.00     0.004 C 
BRANCH  24  25
HETATM   25  C8  UNL     1       3.516  56.767  -9.904  1.00  0.00    -0.004 C 
HETATM   26  C9  UNL     1       3.922  56.636  -8.632  1.00  0.00    -0.027 C 
BRANCH  26  27
HETATM   27  C10 UNL     1       3.370  57.444  -7.493  1.00  0.00     0.027 C 
BRANCH  27  28
HETATM   28  C11 UNL     1       4.275  57.374  -6.259  1.00  0.00     0.004 C 
BRANCH  28  29
HETATM   29  C12 UNL     1       5.749  57.503  -6.653  1.00  0.00    -0.000 C 
BRANCH  29  30
HETATM   30  C13 UNL     1       6.613  56.331  -6.180  1.00  0.00    -0.005 C 
HETATM   31  C14 UNL     1       7.209  55.517  -7.317  1.00  0.00     0.005 C 
ENDBRANCH  29  30
ENDBRANCH  28  29
ENDBRANCH  27  28
ENDBRANCH  26  27
ENDBRANCH  24  25
ENDBRANCH   3  23
BRANCH   1  32
HETATM   32  C2  UNL     1       0.940  54.399  -8.020  1.00  0.00    -0.054 C 
HETATM   33  C1  UNL     1       0.149  55.476  -8.195  1.00  0.00     0.017 C 
HETATM   34  C3  UNL     1       1.486  54.118  -6.638  1.00  0.00     0.046 C 
ENDBRANCH   1  32
BRANCH  22  35
HETATM   35  O9  UNL     1      -0.248  51.648  -8.643  1.00  0.00    -0.377 OA
BRANCH  35  36
HETATM   36  C31 UNL     1      -1.590  51.838  -8.183  1.00  0.00     0.207 C 
BRANCH  36  37
HETATM   37  C32 UNL     1      -2.510  52.230  -9.312  1.00  0.00    -0.035 A 
HETATM   38  C33 UNL     1      -3.142  51.250 -10.089  1.00  0.00     0.009 A 
HETATM   39  C34 UNL     1      -3.990  51.616 -11.137  1.00  0.00     0.001 A 
HETATM   40  C35 UNL     1      -4.217  52.963 -11.414  1.00  0.00     0.000 A 
HETATM   41  C36 UNL     1      -3.598  53.945 -10.644  1.00  0.00     0.001 A 
HETATM   42  C37 UNL     1      -2.750  53.582  -9.595  1.00  0.00     0.009 A 
ENDBRANCH  36  37
ENDBRANCH  35  36
ENDBRANCH  22  35
BRANCH  11  43
HETATM   43  O6  UNL     1       1.039  48.790 -10.517  1.00  0.00    -0.378 OA
HETATM   44  H29 UNL     1       0.681  47.882 -10.613  1.00  0.00     0.211 HD
ENDBRANCH  11  43
BRANCH   9  45
HETATM   45  C19 UNL     1       5.262  48.245  -9.049  1.00  0.00     0.207 C 
BRANCH  45  46
HETATM   46  O4  UNL     1       6.483  48.125  -9.772  1.00  0.00    -0.398 OA
HETATM   47  H26 UNL     1       6.298  47.526 -10.521  1.00  0.00     0.209 HD
ENDBRANCH  45  46
ENDBRANCH   9  45
BRANCH  10  48
HETATM   48  O5  UNL     1       2.960  47.011 -10.093  1.00  0.00    -0.389 OA
HETATM   49  H28 UNL     1       2.316  47.313  -9.426  1.00  0.00     0.210 HD
ENDBRANCH  10  48
TORSDOF 14
ENDMDL
MODEL 7
REMARK minimizedAffinity -7.53960991
REMARK CNNscore 0.206516802
REMARK CNNaffinity 6.58692741
REMARK  14 active torsions:
REMARK  status: ('A' for Active; 'I' for Inactive)
REMARK    1  A    between atoms: C2_2  and  C4_4 
REMARK    2  A    between atoms: C5_6  and  C6_7 
REMARK    3  A    between atoms: C7_8  and  C8_9 
REMARK    4  A    between atoms: C9_10  and  C10_11 
REMARK    5  A    between atoms: C10_11  and  C11_12 
REMARK    6  A    between atoms: C11_12  and  C12_13 
REMARK    7  A    between atoms: C12_13  and  C13_14 
REMARK    8  A    between atoms: C18_21  and  C19_22 
REMARK    9  A    between atoms: C19_22  and  O4_23 
REMARK   10  A    between atoms: C20_24  and  O5_25 
REMARK   11  A    between atoms: C21_26  and  O6_27 
REMARK   12  A    between atoms: C30_38  and  O9_39 
REMARK   13  A    between atoms: O9_39  and  C31_40 
REMARK   14  A    between atoms: C31_40  and  C32_41 
ROOT
HETATM    1  C4  UNL     1       2.274  50.388  -9.396  1.00  0.00     0.142 C 
HETATM    2  O1  UNL     1       3.644  50.839  -9.487  1.00  0.00    -0.308 OA
HETATM    3  C5  UNL     1       4.273  49.882 -10.320  1.00  0.00     0.306 C 
HETATM    4  O2  UNL     1       3.662  48.633 -10.065  1.00  0.00    -0.320 OA
HETATM    5  C15 UNL     1       2.281  49.006 -10.116  1.00  0.00     0.179 C 
HETATM    6  C16 UNL     1       1.948  49.073 -11.624  1.00  0.00     0.086 C 
HETATM    7  C17 UNL     1       2.160  47.707 -12.247  1.00  0.00     0.172 A 
HETATM    8  O3  UNL     1       3.240  47.543 -13.160  1.00  0.00    -0.363 OA
HETATM    9  C18 UNL     1       1.927  47.337 -13.719  1.00  0.00     0.138 A 
HETATM   10  C20 UNL     1       1.559  48.320 -14.824  1.00  0.00     0.200 C 
HETATM   11  C21 UNL     1       1.587  49.819 -14.480  1.00  0.00     0.161 C 
HETATM   12  C22 UNL     1       1.651  50.712 -15.717  1.00  0.00     0.192 C 
HETATM   13  O7  UNL     1       0.849  50.686 -16.641  1.00  0.00    -0.289 OA
HETATM   14  C23 UNL     1       2.704  51.735 -15.607  1.00  0.00    -0.016 C 
HETATM   15  C24 UNL     1       2.925  52.785 -16.622  1.00  0.00     0.052 C 
HETATM   16  C25 UNL     1       3.348  51.476 -14.466  1.00  0.00    -0.005 C 
HETATM   17  C26 UNL     1       2.866  50.250 -13.731  1.00  0.00     0.090 C 
HETATM   18  C27 UNL     1       2.740  50.300 -12.176  1.00  0.00     0.092 C 
HETATM   19  O8  UNL     1       4.113  50.253 -11.695  1.00  0.00    -0.316 OA
HETATM   20  C28 UNL     1       2.025  51.618 -11.636  1.00  0.00     0.050 C 
HETATM   21  C29 UNL     1       2.903  52.885 -11.633  1.00  0.00     0.016 C 
HETATM   22  C30 UNL     1       1.432  51.417 -10.195  1.00  0.00     0.170 C 
ENDROOT
BRANCH   3  23
HETATM   23  C6  UNL     1       5.738  49.887 -10.016  1.00  0.00     0.074 C 
HETATM   24  C7  UNL     1       6.591  50.890  -9.745  1.00  0.00     0.004 C 
BRANCH  24  25
HETATM   25  C8  UNL     1       6.306  52.306  -9.752  1.00  0.00    -0.004 C 
HETATM   26  C9  UNL     1       6.877  53.165  -8.896  1.00  0.00    -0.027 C 
BRANCH  26  27
HETATM   27  C10 UNL     1       6.628  54.646  -8.910  1.00  0.00     0.027 C 
BRANCH  27  28
HETATM   28  C11 UNL     1       5.431  55.010  -9.793  1.00  0.00     0.004 C 
BRANCH  28  29
HETATM   29  C12 UNL     1       4.308  55.636  -8.961  1.00  0.00    -0.000 C 
BRANCH  29  30
HETATM   30  C13 UNL     1       3.125  56.125  -9.800  1.00  0.00    -0.005 C 
HETATM   31  C14 UNL     1       3.513  56.548 -11.209  1.00  0.00     0.005 C 
ENDBRANCH  29  30
ENDBRANCH  28  29
ENDBRANCH  27  28
ENDBRANCH  26  27
ENDBRANCH  24  25
ENDBRANCH   3  23
BRANCH   1  32
HETATM   32  C2  UNL     1       1.917  50.376  -7.901  1.00  0.00    -0.054 C 
HETATM   33  C1  UNL     1       1.208  49.414  -7.279  1.00  0.00     0.017 C 
HETATM   34  C3  UNL     1       2.399  51.559  -7.090  1.00  0.00     0.046 C 
ENDBRANCH   1  32
BRANCH  22  35
HETATM   35  O9  UNL     1       0.071  50.948 -10.274  1.00  0.00    -0.377 OA
BRANCH  35  36
HETATM   36  C31 UNL     1      -0.623  51.383 -11.448  1.00  0.00     0.207 C 
BRANCH  36  37
HETATM   37  C32 UNL     1      -1.777  52.290 -11.102  1.00  0.00    -0.035 A 
HETATM   38  C33 UNL     1      -1.547  53.588 -10.624  1.00  0.00     0.009 A 
HETATM   39  C34 UNL     1      -2.618  54.423 -10.300  1.00  0.00     0.001 A 
HETATM   40  C35 UNL     1      -3.927  53.973 -10.455  1.00  0.00     0.000 A 
HETATM   41  C36 UNL     1      -4.168  52.687 -10.934  1.00  0.00     0.001 A 
HETATM   42  C37 UNL     1      -3.098  51.849 -11.259  1.00  0.00     0.009 A 
ENDBRANCH  36  37
ENDBRANCH  35  36
ENDBRANCH  22  35
BRANCH  11  43
HETATM   43  O6  UNL     1       0.353  50.192 -13.835  1.00  0.00    -0.378 OA
HETATM   44  H29 UNL     1      -0.302  50.294 -14.559  1.00  0.00     0.211 HD
ENDBRANCH  11  43
BRANCH   9  45
HETATM   45  C19 UNL     1       1.639  45.878 -14.008  1.00  0.00     0.207 C 
BRANCH  45  46
HETATM   46  O4  UNL     1       2.535  45.351 -14.980  1.00  0.00    -0.398 OA
HETATM   47  H26 UNL     1       2.307  45.786 -15.825  1.00  0.00     0.209 HD
ENDBRANCH  45  46
ENDBRANCH   9  45
BRANCH  10  48
HETATM   48  O5  UNL     1       0.235  47.963 -15.270  1.00  0.00    -0.389 OA
HETATM   49  H28 UNL     1      -0.370  48.196 -14.542  1.00  0.00     0.210 HD
ENDBRANCH  10  48
TORSDOF 14
ENDMDL
MODEL 8
REMARK minimizedAffinity -6.55256653
REMARK CNNscore 0.203432158
REMARK CNNaffinity 6.57416964
REMARK  14 active torsions:
REMARK  status: ('A' for Active; 'I' for Inactive)
REMARK    1  A    between atoms: C2_2  and  C4_4 
REMARK    2  A    between atoms: C5_6  and  C6_7 
REMARK    3  A    between atoms: C7_8  and  C8_9 
REMARK    4  A    between atoms: C9_10  and  C10_11 
REMARK    5  A    between atoms: C10_11  and  C11_12 
REMARK    6  A    between atoms: C11_12  and  C12_13 
REMARK    7  A    between atoms: C12_13  and  C13_14 
REMARK    8  A    between atoms: C18_21  and  C19_22 
REMARK    9  A    between atoms: C19_22  and  O4_23 
REMARK   10  A    between atoms: C20_24  and  O5_25 
REMARK   11  A    between atoms: C21_26  and  O6_27 
REMARK   12  A    between atoms: C30_38  and  O9_39 
REMARK   13  A    between atoms: O9_39  and  C31_40 
REMARK   14  A    between atoms: C31_40  and  C32_41 
ROOT
HETATM    1  C4  UNL     1       1.331  53.863  -8.404  1.00  0.00     0.142 C 
HETATM    2  O1  UNL     1       1.707  54.944  -9.287  1.00  0.00    -0.308 OA
HETATM    3  C5  UNL     1       3.031  54.631  -9.680  1.00  0.00     0.306 C 
HETATM    4  O2  UNL     1       3.656  53.989  -8.586  1.00  0.00    -0.320 OA
HETATM    5  C15 UNL     1       2.644  53.042  -8.229  1.00  0.00     0.179 C 
HETATM    6  C16 UNL     1       2.812  51.887  -9.242  1.00  0.00     0.086 C 
HETATM    7  C17 UNL     1       4.193  51.281  -9.092  1.00  0.00     0.172 A 
HETATM    8  O3  UNL     1       5.132  51.473 -10.145  1.00  0.00    -0.363 OA
HETATM    9  C18 UNL     1       4.758  50.102  -9.896  1.00  0.00     0.138 A 
HETATM   10  C20 UNL     1       4.059  49.424 -11.068  1.00  0.00     0.200 C 
HETATM   11  C21 UNL     1       2.769  50.072 -11.598  1.00  0.00     0.161 C 
HETATM   12  C22 UNL     1       2.404  49.606 -13.006  1.00  0.00     0.192 C 
HETATM   13  O7  UNL     1       2.248  48.439 -13.338  1.00  0.00    -0.289 OA
HETATM   14  C23 UNL     1       2.097  50.736 -13.900  1.00  0.00    -0.016 C 
HETATM   15  C24 UNL     1       1.629  50.566 -15.291  1.00  0.00     0.052 C 
HETATM   16  C25 UNL     1       2.345  51.840 -13.192  1.00  0.00    -0.005 C 
HETATM   17  C26 UNL     1       2.892  51.597 -11.808  1.00  0.00     0.090 C 
HETATM   18  C27 UNL     1       2.377  52.473 -10.624  1.00  0.00     0.092 C 
HETATM   19  O8  UNL     1       3.008  53.769 -10.825  1.00  0.00    -0.316 OA
HETATM   20  C28 UNL     1       0.792  52.643 -10.598  1.00  0.00     0.050 C 
HETATM   21  C29 UNL     1       0.225  53.645 -11.623  1.00  0.00     0.016 C 
HETATM   22  C30 UNL     1       0.267  53.036  -9.170  1.00  0.00     0.170 C 
ENDROOT
BRANCH   3  23
HETATM   23  C6  UNL     1       3.714  55.900 -10.080  1.00  0.00     0.074 C 
HETATM   24  C7  UNL     1       4.001  57.015  -9.387  1.00  0.00     0.004 C 
BRANCH  24  25
HETATM   25  C8  UNL     1       3.635  57.316  -8.023  1.00  0.00    -0.004 C 
HETATM   26  C9  UNL     1       4.452  57.085  -6.985  1.00  0.00    -0.027 C 
BRANCH  26  27
HETATM   27  C10 UNL     1       4.110  57.427  -5.563  1.00  0.00     0.027 C 
BRANCH  27  28
HETATM   28  C11 UNL     1       2.828  58.261  -5.473  1.00  0.00     0.004 C 
BRANCH  28  29
HETATM   29  C12 UNL     1       1.746  57.518  -4.684  1.00  0.00    -0.000 C 
BRANCH  29  30
HETATM   30  C13 UNL     1       1.223  58.302  -3.478  1.00  0.00    -0.005 C 
HETATM   31  C14 UNL     1       2.223  59.304  -2.924  1.00  0.00     0.005 C 
ENDBRANCH  29  30
ENDBRANCH  28  29
ENDBRANCH  27  28
ENDBRANCH  26  27
ENDBRANCH  24  25
ENDBRANCH   3  23
BRANCH   1  32
HETATM   32  C2  UNL     1       0.760  54.515  -7.134  1.00  0.00    -0.054 C 
HETATM   33  C1  UNL     1       0.932  54.055  -5.880  1.00  0.00     0.017 C 
HETATM   34  C3  UNL     1      -0.068  55.764  -7.340  1.00  0.00     0.046 C 
ENDBRANCH   1  32
BRANCH  22  35
HETATM   35  O9  UNL     1      -0.045  51.852  -8.409  1.00  0.00    -0.377 OA
BRANCH  35  36
HETATM   36  C31 UNL     1      -1.406  51.789  -7.969  1.00  0.00     0.207 C 
BRANCH  36  37
HETATM   37  C32 UNL     1      -2.364  52.094  -9.093  1.00  0.00    -0.035 A 
HETATM   38  C33 UNL     1      -2.884  51.062  -9.886  1.00  0.00     0.009 A 
HETATM   39  C34 UNL     1      -3.767  51.349 -10.929  1.00  0.00     0.001 A 
HETATM   40  C35 UNL     1      -4.143  52.665 -11.186  1.00  0.00     0.000 A 
HETATM   41  C36 UNL     1      -3.637  53.698 -10.399  1.00  0.00     0.001 A 
HETATM   42  C37 UNL     1      -2.753  53.415  -9.356  1.00  0.00     0.009 A 
ENDBRANCH  36  37
ENDBRANCH  35  36
ENDBRANCH  22  35
BRANCH  11  43
HETATM   43  O6  UNL     1       1.651  49.661 -10.786  1.00  0.00    -0.378 OA
HETATM   44  H29 UNL     1       1.416  48.761 -11.098  1.00  0.00     0.211 HD
ENDBRANCH  11  43
BRANCH   9  45
HETATM   45  C19 UNL     1       5.866  49.306  -9.236  1.00  0.00     0.207 C 
BRANCH  45  46
HETATM   46  O4  UNL     1       6.743  48.733 -10.199  1.00  0.00    -0.398 OA
HETATM   47  H26 UNL     1       6.227  48.041 -10.659  1.00  0.00     0.209 HD
ENDBRANCH  45  46
ENDBRANCH   9  45
BRANCH  10  48
HETATM   48  O5  UNL     1       3.773  48.073 -10.653  1.00  0.00    -0.389 OA
HETATM   49  H28 UNL     1       3.076  48.139  -9.974  1.00  0.00     0.210 HD
ENDBRANCH  10  48
TORSDOF 14
ENDMDL
MODEL 9
REMARK minimizedAffinity -6.86786461
REMARK CNNscore 0.198984236
REMARK CNNaffinity 6.49452829
REMARK  14 active torsions:
REMARK  status: ('A' for Active; 'I' for Inactive)
REMARK    1  A    between atoms: C2_2  and  C4_4 
REMARK    2  A    between atoms: C5_6  and  C6_7 
REMARK    3  A    between atoms: C7_8  and  C8_9 
REMARK    4  A    between atoms: C9_10  and  C10_11 
REMARK    5  A    between atoms: C10_11  and  C11_12 
REMARK    6  A    between atoms: C11_12  and  C12_13 
REMARK    7  A    between atoms: C12_13  and  C13_14 
REMARK    8  A    between atoms: C18_21  and  C19_22 
REMARK    9  A    between atoms: C19_22  and  O4_23 
REMARK   10  A    between atoms: C20_24  and  O5_25 
REMARK   11  A    between atoms: C21_26  and  O6_27 
REMARK   12  A    between atoms: C30_38  and  O9_39 
REMARK   13  A    between atoms: O9_39  and  C31_40 
REMARK   14  A    between atoms: C31_40  and  C32_41 
ROOT
HETATM    1  C4  UNL     1       0.381  54.030  -9.217  1.00  0.00     0.142 C 
HETATM    2  O1  UNL     1       0.077  53.184  -8.085  1.00  0.00    -0.308 OA
HETATM    3  C5  UNL     1      -0.326  51.957  -8.663  1.00  0.00     0.306 C 
HETATM    4  O2  UNL     1      -0.991  52.259  -9.874  1.00  0.00    -0.320 OA
HETATM    5  C15 UNL     1      -0.070  53.191 -10.450  1.00  0.00     0.179 C 
HETATM    6  C16 UNL     1       1.045  52.314 -11.063  1.00  0.00     0.086 C 
HETATM    7  C17 UNL     1       0.450  51.417 -12.131  1.00  0.00     0.172 A 
HETATM    8  O3  UNL     1       0.388  50.017 -11.878  1.00  0.00    -0.363 OA
HETATM    9  C18 UNL     1       1.215  50.405 -12.994  1.00  0.00     0.138 A 
HETATM   10  C20 UNL     1       2.688  50.049 -12.831  1.00  0.00     0.200 C 
HETATM   11  C21 UNL     1       3.426  50.615 -11.606  1.00  0.00     0.161 C 
HETATM   12  C22 UNL     1       4.717  49.865 -11.289  1.00  0.00     0.192 C 
HETATM   13  O7  UNL     1       5.639  49.696 -12.075  1.00  0.00    -0.289 OA
HETATM   14  C23 UNL     1       4.808  49.496  -9.866  1.00  0.00    -0.016 C 
HETATM   15  C24 UNL     1       5.991  48.843  -9.270  1.00  0.00     0.052 C 
HETATM   16  C25 UNL     1       3.645  49.862  -9.319  1.00  0.00    -0.005 C 
HETATM   17  C26 UNL     1       2.643  50.439 -10.287  1.00  0.00     0.090 C 
HETATM   18  C27 UNL     1       1.791  51.672  -9.850  1.00  0.00     0.092 C 
HETATM   19  O8  UNL     1       0.821  51.133  -8.909  1.00  0.00    -0.316 OA
HETATM   20  C28 UNL     1       2.644  52.820  -9.147  1.00  0.00     0.050 C 
HETATM   21  C29 UNL     1       3.038  52.539  -7.683  1.00  0.00     0.016 C 
HETATM   22  C30 UNL     1       1.921  54.213  -9.212  1.00  0.00     0.170 C 
ENDROOT
BRANCH   3  23
HETATM   23  C6  UNL     1      -1.199  51.240  -7.683  1.00  0.00     0.074 C 
HETATM   24  C7  UNL     1      -2.188  50.346  -7.855  1.00  0.00     0.004 C 
BRANCH  24  25
HETATM   25  C8  UNL     1      -2.739  49.882  -9.107  1.00  0.00    -0.004 C 
HETATM   26  C9  UNL     1      -3.895  50.344  -9.606  1.00  0.00    -0.027 C 
BRANCH  26  27
HETATM   27  C10 UNL     1      -4.468  49.908 -10.924  1.00  0.00     0.027 C 
BRANCH  27  28
HETATM   28  C11 UNL     1      -3.592  50.357 -12.098  1.00  0.00     0.004 C 
BRANCH  28  29
HETATM   29  C12 UNL     1      -3.043  51.766 -11.863  1.00  0.00    -0.000 C 
BRANCH  29  30
HETATM   30  C13 UNL     1      -4.117  52.855 -11.898  1.00  0.00    -0.005 C 
HETATM   31  C14 UNL     1      -4.046  53.818 -10.723  1.00  0.00     0.005 C 
ENDBRANCH  29  30
ENDBRANCH  28  29
ENDBRANCH  27  28
ENDBRANCH  26  27
ENDBRANCH  24  25
ENDBRANCH   3  23
BRANCH   1  32
HETATM   32  C2  UNL     1      -0.365  55.354  -8.983  1.00  0.00    -0.054 C 
HETATM   33  C1  UNL     1      -1.261  55.900  -9.828  1.00  0.00     0.017 C 
HETATM   34  C3  UNL     1      -0.037  56.089  -7.702  1.00  0.00     0.046 C 
ENDBRANCH   1  32
BRANCH  22  35
HETATM   35  O9  UNL     1       2.312  54.925 -10.403  1.00  0.00    -0.377 OA
BRANCH  35  36
HETATM   36  C31 UNL     1       3.018  56.143 -10.144  1.00  0.00     0.207 C 
BRANCH  36  37
HETATM   37  C32 UNL     1       4.322  55.883  -9.432  1.00  0.00    -0.035 A 
HETATM   38  C33 UNL     1       4.549  56.398  -8.149  1.00  0.00     0.009 A 
HETATM   39  C34 UNL     1       5.760  56.160  -7.495  1.00  0.00     0.001 A 
HETATM   40  C35 UNL     1       6.751  55.403  -8.114  1.00  0.00     0.000 A 
HETATM   41  C36 UNL     1       6.534  54.881  -9.387  1.00  0.00     0.001 A 
HETATM   42  C37 UNL     1       5.324  55.118 -10.044  1.00  0.00     0.009 A 
ENDBRANCH  36  37
ENDBRANCH  35  36
ENDBRANCH  22  35
BRANCH  11  43
HETATM   43  O6  UNL     1       3.855  51.964 -11.880  1.00  0.00    -0.378 OA
HETATM   44  H29 UNL     1       4.668  51.876 -12.421  1.00  0.00     0.211 HD
ENDBRANCH  11  43
BRANCH   9  45
HETATM   45  C19 UNL     1       0.594  50.054 -14.331  1.00  0.00     0.207 C 
BRANCH  45  46
HETATM   46  O4  UNL     1      -0.301  48.953 -14.218  1.00  0.00    -0.398 OA
HETATM   47  H26 UNL     1       0.253  48.170 -14.028  1.00  0.00     0.209 HD
ENDBRANCH  45  46
ENDBRANCH   9  45
BRANCH  10  48
HETATM   48  O5  UNL     1       3.356  50.492 -14.030  1.00  0.00    -0.389 OA
HETATM   49  H28 UNL     1       3.349  51.467 -14.001  1.00  0.00     0.210 HD
ENDBRANCH  10  48
TORSDOF 14
ENDMDL
