MODEL 1
REMARK minimizedAffinity -8.43705273
REMARK  10 active torsions:
REMARK  status: ('A' for Active; 'I' for Inactive)
REMARK    1  A    between atoms: C2_2  and  C3_4 
REMARK    2  A    between atoms: C10_12  and  O3_13 
REMARK    3  A    between atoms: C13_16  and  C14_17 
REMARK    4  A    between atoms: C14_17  and  C16_19 
REMARK    5  A    between atoms: C16_19  and  C17_20 
REMARK    6  A    between atoms: C17_20  and  C18_21 
REMARK    7  A    between atoms: C26_29  and  C27_30 
REMARK    8  A    between atoms: C27_30  and  C28_31 
REMARK    9  A    between atoms: C28_31  and  C29_32 
REMARK   10  A    between atoms: C29_32  and  O4_33 
ROOT
HETATM    1  C3  UNL     1      -6.106   6.524  14.672  1.00  0.00     0.151 A 
HETATM    2  O2  UNL     1      -7.060   7.425  14.044  1.00  0.00    -0.360 OA
HETATM    3  C4  UNL     1      -5.745   7.923  14.226  1.00  0.00     0.166 A 
HETATM    4  C5  UNL     1      -4.991   8.094  12.953  1.00  0.00     0.041 C 
HETATM    5  C6  UNL     1      -3.797   7.130  12.832  1.00  0.00     0.006 C 
HETATM    6  C7  UNL     1      -4.145   5.610  13.215  1.00  0.00    -0.030 C 
HETATM    7  C8  UNL     1      -3.939   4.680  11.985  1.00  0.00     0.016 C 
HETATM    8  C9  UNL     1      -3.159   5.069  14.298  1.00  0.00     0.042 C 
HETATM    9  C10 UNL     1      -1.644   5.379  14.139  1.00  0.00     0.128 C 
HETATM   10  C11 UNL     1      -1.295   6.676  13.352  1.00  0.00    -0.006 C 
HETATM   11  C12 UNL     1      -0.985   6.321  11.858  1.00  0.00     0.019 C 
HETATM   12  C13 UNL     1      -0.079   7.544  13.852  1.00  0.00     0.001 C 
HETATM   13  C22 UNL     1      -0.410   8.952  13.262  1.00  0.00     0.007 C 
HETATM   14  C23 UNL     1      -1.891   8.940  12.835  1.00  0.00     0.011 C 
HETATM   15  C24 UNL     1      -2.488   7.693  13.513  1.00  0.00    -0.029 C 
HETATM   16  C25 UNL     1      -2.758   8.129  14.990  1.00  0.00     0.016 C 
HETATM   17  C26 UNL     1      -5.652   5.382  13.754  1.00  0.00     0.039 C 
ENDROOT
BRANCH  12  18
HETATM   18  C14 UNL     1       1.392   7.112  13.539  1.00  0.00    -0.013 C 
HETATM   19  C15 UNL     1       2.407   8.136  14.063  1.00  0.00     0.010 C 
BRANCH  18  20
HETATM   20  C16 UNL     1       1.564   6.901  12.008  1.00  0.00     0.008 C 
BRANCH  20  21
HETATM   21  C17 UNL     1       2.270   8.020  11.226  1.00  0.00     0.028 C 
BRANCH  21  22
HETATM   22  C18 UNL     1       2.450   7.724   9.763  1.00  0.00    -0.025 C 
HETATM   23  C19 UNL     1       1.556   7.908   8.771  1.00  0.00    -0.091 C 
HETATM   24  C20 UNL     1       0.142   8.390   8.967  1.00  0.00     0.042 C 
HETATM   25  C21 UNL     1       1.920   7.610   7.339  1.00  0.00     0.042 C 
ENDBRANCH  21  22
ENDBRANCH  20  21
ENDBRANCH  18  20
ENDBRANCH  12  18
BRANCH   9  26
HETATM   26  O3  UNL     1      -1.103   5.440  15.463  1.00  0.00    -0.395 OA
HETATM   27  H14 UNL     1      -1.198   4.556  15.864  1.00  0.00     0.210 HD
ENDBRANCH   9  26
BRANCH  17  28
HETATM   28  C27 UNL     1      -6.717   5.080  12.651  1.00  0.00     0.011 C 
BRANCH  28  29
HETATM   29  C28 UNL     1      -7.876   4.199  13.143  1.00  0.00     0.027 C 
BRANCH  29  30
HETATM   30  C29 UNL     1      -7.434   2.758  13.385  1.00  0.00     0.164 C 
BRANCH  30  31
HETATM   31  O4  UNL     1      -8.170   1.865  12.557  1.00  0.00    -0.401 OA
HETATM   32  H48 UNL     1      -7.792   0.978  12.698  1.00  0.00     0.209 HD
ENDBRANCH  30  31
ENDBRANCH  29  30
ENDBRANCH  28  29
ENDBRANCH  17  28
BRANCH   1  33
HETATM   33  C2  UNL     1      -6.492   6.244  16.093  1.00  0.00     0.160 C 
HETATM   34  C1  UNL     1      -7.586   7.088  16.683  1.00  0.00     0.094 C 
HETATM   35  O1  UNL     1      -5.923   5.373  16.750  1.00  0.00    -0.295 OA
ENDBRANCH   1  33
TORSDOF 10
ENDMDL
MODEL 2
REMARK minimizedAffinity -8.06170177
REMARK  10 active torsions:
REMARK  status: ('A' for Active; 'I' for Inactive)
REMARK    1  A    between atoms: C2_2  and  C3_4 
REMARK    2  A    between atoms: C10_12  and  O3_13 
REMARK    3  A    between atoms: C13_16  and  C14_17 
REMARK    4  A    between atoms: C14_17  and  C16_19 
REMARK    5  A    between atoms: C16_19  and  C17_20 
REMARK    6  A    between atoms: C17_20  and  C18_21 
REMARK    7  A    between atoms: C26_29  and  C27_30 
REMARK    8  A    between atoms: C27_30  and  C28_31 
REMARK    9  A    between atoms: C28_31  and  C29_32 
REMARK   10  A    between atoms: C29_32  and  O4_33 
ROOT
HETATM    1  C3  UNL     1       2.532   6.273  10.533  1.00  0.00     0.151 A 
HETATM    2  O2  UNL     1       2.826   7.108   9.378  1.00  0.00    -0.360 OA
HETATM    3  C4  UNL     1       1.488   7.124   9.846  1.00  0.00     0.166 A 
HETATM    4  C5  UNL     1       1.092   8.415  10.475  1.00  0.00     0.041 C 
HETATM    5  C6  UNL     1       0.820   8.284  11.985  1.00  0.00     0.006 C 
HETATM    6  C7  UNL     1       1.943   7.458  12.781  1.00  0.00    -0.030 C 
HETATM    7  C8  UNL     1       2.635   8.365  13.839  1.00  0.00     0.016 C 
HETATM    8  C9  UNL     1       1.302   6.297  13.604  1.00  0.00     0.042 C 
HETATM    9  C10 UNL     1       0.004   6.590  14.408  1.00  0.00     0.128 C 
HETATM   10  C11 UNL     1      -0.893   7.736  13.856  1.00  0.00    -0.006 C 
HETATM   11  C12 UNL     1      -0.580   9.068  14.619  1.00  0.00     0.019 C 
HETATM   12  C13 UNL     1      -2.457   7.555  13.926  1.00  0.00     0.001 C 
HETATM   13  C22 UNL     1      -2.955   8.522  12.806  1.00  0.00     0.007 C 
HETATM   14  C23 UNL     1      -1.740   8.879  11.926  1.00  0.00     0.011 C 
HETATM   15  C24 UNL     1      -0.663   7.843  12.301  1.00  0.00    -0.029 C 
HETATM   16  C25 UNL     1      -1.053   6.553  11.509  1.00  0.00     0.016 C 
HETATM   17  C26 UNL     1       3.101   6.827  11.845  1.00  0.00     0.039 C 
ENDROOT
BRANCH  12  18
HETATM   18  C14 UNL     1      -3.226   7.774  15.271  1.00  0.00    -0.013 C 
HETATM   19  C15 UNL     1      -2.269   7.833  16.468  1.00  0.00     0.010 C 
BRANCH  18  20
HETATM   20  C16 UNL     1      -4.281   6.649  15.463  1.00  0.00     0.008 C 
BRANCH  20  21
HETATM   21  C17 UNL     1      -5.132   6.277  14.238  1.00  0.00     0.028 C 
BRANCH  21  22
HETATM   22  C18 UNL     1      -4.551   5.169  13.403  1.00  0.00    -0.025 C 
HETATM   23  C19 UNL     1      -5.205   4.132  12.843  1.00  0.00    -0.091 C 
HETATM   24  C20 UNL     1      -6.674   3.846  13.020  1.00  0.00     0.042 C 
HETATM   25  C21 UNL     1      -4.476   3.134  11.982  1.00  0.00     0.042 C 
ENDBRANCH  21  22
ENDBRANCH  20  21
ENDBRANCH  18  20
ENDBRANCH  12  18
BRANCH   9  26
HETATM   26  O3  UNL     1      -0.729   5.362  14.453  1.00  0.00    -0.395 OA
HETATM   27  H14 UNL     1      -0.195   4.715  14.951  1.00  0.00     0.210 HD
ENDBRANCH   9  26
BRANCH  17  28
HETATM   28  C27 UNL     1       4.330   7.756  11.586  1.00  0.00     0.011 C 
BRANCH  28  29
HETATM   29  C28 UNL     1       5.641   7.219  12.181  1.00  0.00     0.027 C 
BRANCH  29  30
HETATM   30  C29 UNL     1       6.334   6.236  11.240  1.00  0.00     0.164 C 
BRANCH  30  31
HETATM   31  O4  UNL     1       7.198   6.927  10.345  1.00  0.00    -0.401 OA
HETATM   32  H48 UNL     1       7.666   6.247   9.828  1.00  0.00     0.209 HD
ENDBRANCH  30  31
ENDBRANCH  29  30
ENDBRANCH  28  29
ENDBRANCH  17  28
BRANCH   1  33
HETATM   33  C2  UNL     1       2.687   4.820  10.196  1.00  0.00     0.160 C 
HETATM   34  C1  UNL     1       3.790   4.454   9.243  1.00  0.00     0.094 C 
HETATM   35  O1  UNL     1       1.930   3.972  10.666  1.00  0.00    -0.295 OA
ENDBRANCH   1  33
TORSDOF 10
ENDMDL
MODEL 3
REMARK minimizedAffinity -7.96300316
REMARK  10 active torsions:
REMARK  status: ('A' for Active; 'I' for Inactive)
REMARK    1  A    between atoms: C2_2  and  C3_4 
REMARK    2  A    between atoms: C10_12  and  O3_13 
REMARK    3  A    between atoms: C13_16  and  C14_17 
REMARK    4  A    between atoms: C14_17  and  C16_19 
REMARK    5  A    between atoms: C16_19  and  C17_20 
REMARK    6  A    between atoms: C17_20  and  C18_21 
REMARK    7  A    between atoms: C26_29  and  C27_30 
REMARK    8  A    between atoms: C27_30  and  C28_31 
REMARK    9  A    between atoms: C28_31  and  C29_32 
REMARK   10  A    between atoms: C29_32  and  O4_33 
ROOT
HETATM    1  C3  UNL     1       3.812   7.770  10.533  1.00  0.00     0.151 A 
HETATM    2  O2  UNL     1       4.516   6.640   9.947  1.00  0.00    -0.360 OA
HETATM    3  C4  UNL     1       3.696   6.362  11.070  1.00  0.00     0.166 A 
HETATM    4  C5  UNL     1       2.479   5.569  10.738  1.00  0.00     0.041 C 
HETATM    5  C6  UNL     1       1.176   6.365  10.935  1.00  0.00     0.006 C 
HETATM    6  C7  UNL     1       1.215   7.843  10.310  1.00  0.00    -0.030 C 
HETATM    7  C8  UNL     1       0.142   7.987   9.192  1.00  0.00     0.016 C 
HETATM    8  C9  UNL     1       0.825   8.910  11.381  1.00  0.00     0.042 C 
HETATM    9  C10 UNL     1      -0.387   8.618  12.310  1.00  0.00     0.128 C 
HETATM   10  C11 UNL     1      -0.699   7.114  12.564  1.00  0.00    -0.006 C 
HETATM   11  C12 UNL     1      -1.826   6.635  11.587  1.00  0.00     0.019 C 
HETATM   12  C13 UNL     1      -1.168   6.687  14.007  1.00  0.00     0.001 C 
HETATM   13  C22 UNL     1      -0.799   5.170  14.041  1.00  0.00     0.007 C 
HETATM   14  C23 UNL     1       0.169   4.900  12.871  1.00  0.00     0.011 C 
HETATM   15  C24 UNL     1       0.639   6.295  12.418  1.00  0.00    -0.029 C 
HETATM   16  C25 UNL     1       1.748   6.698  13.444  1.00  0.00     0.016 C 
HETATM   17  C26 UNL     1       2.641   8.268   9.678  1.00  0.00     0.039 C 
ENDROOT
BRANCH  12  18
HETATM   18  C14 UNL     1      -2.639   6.940  14.476  1.00  0.00    -0.013 C 
HETATM   19  C15 UNL     1      -2.692   7.461  15.918  1.00  0.00     0.010 C 
BRANCH  18  20
HETATM   20  C16 UNL     1      -3.469   5.633  14.332  1.00  0.00     0.008 C 
BRANCH  20  21
HETATM   21  C17 UNL     1      -4.712   5.695  13.430  1.00  0.00     0.028 C 
BRANCH  21  22
HETATM   22  C18 UNL     1      -5.378   4.364  13.216  1.00  0.00    -0.025 C 
HETATM   23  C19 UNL     1      -6.668   4.132  12.900  1.00  0.00    -0.091 C 
HETATM   24  C20 UNL     1      -7.726   5.196  12.773  1.00  0.00     0.042 C 
HETATM   25  C21 UNL     1      -7.164   2.729  12.663  1.00  0.00     0.042 C 
ENDBRANCH  21  22
ENDBRANCH  20  21
ENDBRANCH  18  20
ENDBRANCH  12  18
BRANCH   9  26
HETATM   26  O3  UNL     1      -0.118   9.286  13.546  1.00  0.00    -0.395 OA
HETATM   27  H14 UNL     1      -0.091  10.245  13.366  1.00  0.00     0.210 HD
ENDBRANCH   9  26
BRANCH  17  28
HETATM   28  C27 UNL     1       2.838   7.901   8.172  1.00  0.00     0.011 C 
BRANCH  28  29
HETATM   29  C28 UNL     1       1.943   6.745   7.701  1.00  0.00     0.027 C 
BRANCH  29  30
HETATM   30  C29 UNL     1       2.715   5.730   6.861  1.00  0.00     0.164 C 
BRANCH  30  31
HETATM   31  O4  UNL     1       3.348   4.769   7.697  1.00  0.00    -0.401 OA
HETATM   32  H48 UNL     1       3.756   4.110   7.106  1.00  0.00     0.209 HD
ENDBRANCH  30  31
ENDBRANCH  29  30
ENDBRANCH  28  29
ENDBRANCH  17  28
BRANCH   1  33
HETATM   33  C2  UNL     1       4.778   8.747  11.134  1.00  0.00     0.160 C 
HETATM   34  C1  UNL     1       4.958   8.700  12.625  1.00  0.00     0.094 C 
HETATM   35  O1  UNL     1       5.381   9.561  10.435  1.00  0.00    -0.295 OA
ENDBRANCH   1  33
TORSDOF 10
ENDMDL
MODEL 4
REMARK minimizedAffinity -7.96145487
REMARK  10 active torsions:
REMARK  status: ('A' for Active; 'I' for Inactive)
REMARK    1  A    between atoms: C2_2  and  C3_4 
REMARK    2  A    between atoms: C10_12  and  O3_13 
REMARK    3  A    between atoms: C13_16  and  C14_17 
REMARK    4  A    between atoms: C14_17  and  C16_19 
REMARK    5  A    between atoms: C16_19  and  C17_20 
REMARK    6  A    between atoms: C17_20  and  C18_21 
REMARK    7  A    between atoms: C26_29  and  C27_30 
REMARK    8  A    between atoms: C27_30  and  C28_31 
REMARK    9  A    between atoms: C28_31  and  C29_32 
REMARK   10  A    between atoms: C29_32  and  O4_33 
ROOT
HETATM    1  C3  UNL     1       3.753   9.276  13.581  1.00  0.00     0.151 A 
HETATM    2  O2  UNL     1       4.617   8.795  14.649  1.00  0.00    -0.360 OA
HETATM    3  C4  UNL     1       3.227   8.833  14.927  1.00  0.00     0.166 A 
HETATM    4  C5  UNL     1       2.606   7.484  15.042  1.00  0.00     0.041 C 
HETATM    5  C6  UNL     1       1.602   7.191  13.911  1.00  0.00     0.006 C 
HETATM    6  C7  UNL     1       2.143   7.566  12.447  1.00  0.00    -0.030 C 
HETATM    7  C8  UNL     1       2.230   6.292  11.558  1.00  0.00     0.016 C 
HETATM    8  C9  UNL     1       1.139   8.505  11.707  1.00  0.00     0.042 C 
HETATM    9  C10 UNL     1      -0.378   8.175  11.785  1.00  0.00     0.128 C 
HETATM   10  C11 UNL     1      -0.837   7.391  13.050  1.00  0.00    -0.006 C 
HETATM   11  C12 UNL     1      -0.914   5.860  12.725  1.00  0.00     0.019 C 
HETATM   12  C13 UNL     1      -2.226   7.767  13.693  1.00  0.00     0.001 C 
HETATM   13  C22 UNL     1      -2.059   7.265  15.163  1.00  0.00     0.007 C 
HETATM   14  C23 UNL     1      -0.556   7.019  15.402  1.00  0.00     0.011 C 
HETATM   15  C24 UNL     1       0.151   7.726  14.230  1.00  0.00    -0.029 C 
HETATM   16  C25 UNL     1       0.178   9.237  14.630  1.00  0.00     0.016 C 
HETATM   17  C26 UNL     1       3.596   8.276  12.429  1.00  0.00     0.039 C 
ENDROOT
BRANCH  12  18
HETATM   18  C14 UNL     1      -3.563   7.266  13.055  1.00  0.00    -0.013 C 
HETATM   19  C15 UNL     1      -4.625   8.372  13.023  1.00  0.00     0.010 C 
BRANCH  18  20
HETATM   20  C16 UNL     1      -4.085   6.025  13.832  1.00  0.00     0.008 C 
BRANCH  20  21
HETATM   21  C17 UNL     1      -4.404   4.769  13.005  1.00  0.00     0.028 C 
BRANCH  21  22
HETATM   22  C18 UNL     1      -5.826   4.299  13.131  1.00  0.00    -0.025 C 
HETATM   23  C19 UNL     1      -6.394   3.230  12.538  1.00  0.00    -0.091 C 
HETATM   24  C20 UNL     1      -5.703   2.328  11.549  1.00  0.00     0.042 C 
HETATM   25  C21 UNL     1      -7.828   2.863  12.819  1.00  0.00     0.042 C 
ENDBRANCH  21  22
ENDBRANCH  20  21
ENDBRANCH  18  20
ENDBRANCH  12  18
BRANCH   9  26
HETATM   26  O3  UNL     1      -1.069   9.424  11.697  1.00  0.00    -0.395 OA
HETATM   27  H14 UNL     1      -0.881   9.807  10.819  1.00  0.00     0.210 HD
ENDBRANCH   9  26
BRANCH  17  28
HETATM   28  C27 UNL     1       4.813   7.300  12.351  1.00  0.00     0.011 C 
BRANCH  28  29
HETATM   29  C28 UNL     1       5.556   7.353  11.006  1.00  0.00     0.027 C 
BRANCH  29  30
HETATM   30  C29 UNL     1       6.722   6.369  10.958  1.00  0.00     0.164 C 
BRANCH  30  31
HETATM   31  O4  UNL     1       6.276   5.087  10.536  1.00  0.00    -0.401 OA
HETATM   32  H48 UNL     1       7.070   4.529  10.451  1.00  0.00     0.209 HD
ENDBRANCH  30  31
ENDBRANCH  29  30
ENDBRANCH  28  29
ENDBRANCH  17  28
BRANCH   1  33
HETATM   33  C2  UNL     1       4.015  10.724  13.294  1.00  0.00     0.160 C 
HETATM   34  C1  UNL     1       3.119  11.726  13.966  1.00  0.00     0.094 C 
HETATM   35  O1  UNL     1       4.913  11.071  12.528  1.00  0.00    -0.295 OA
ENDBRANCH   1  33
TORSDOF 10
ENDMDL
MODEL 5
REMARK minimizedAffinity -7.8731637
REMARK  10 active torsions:
REMARK  status: ('A' for Active; 'I' for Inactive)
REMARK    1  A    between atoms: C2_2  and  C3_4 
REMARK    2  A    between atoms: C10_12  and  O3_13 
REMARK    3  A    between atoms: C13_16  and  C14_17 
REMARK    4  A    between atoms: C14_17  and  C16_19 
REMARK    5  A    between atoms: C16_19  and  C17_20 
REMARK    6  A    between atoms: C17_20  and  C18_21 
REMARK    7  A    between atoms: C26_29  and  C27_30 
REMARK    8  A    between atoms: C27_30  and  C28_31 
REMARK    9  A    between atoms: C28_31  and  C29_32 
REMARK   10  A    between atoms: C29_32  and  O4_33 
ROOT
HETATM    1  C3  UNL     1       0.536   6.270  10.981  1.00  0.00     0.151 A 
HETATM    2  O2  UNL     1       1.264   5.030  11.201  1.00  0.00    -0.360 OA
HETATM    3  C4  UNL     1       1.448   6.052  12.167  1.00  0.00     0.166 A 
HETATM    4  C5  UNL     1       0.837   5.739  13.489  1.00  0.00     0.041 C 
HETATM    5  C6  UNL     1      -0.341   6.668  13.837  1.00  0.00     0.006 C 
HETATM    6  C7  UNL     1      -1.388   6.870  12.636  1.00  0.00    -0.030 C 
HETATM    7  C8  UNL     1      -2.790   6.330  13.043  1.00  0.00     0.016 C 
HETATM    8  C9  UNL     1      -1.611   8.387  12.342  1.00  0.00     0.042 C 
HETATM    9  C10 UNL     1      -1.791   9.355  13.545  1.00  0.00     0.128 C 
HETATM   10  C11 UNL     1      -1.117   8.915  14.878  1.00  0.00    -0.006 C 
HETATM   11  C12 UNL     1      -2.169   8.200  15.792  1.00  0.00     0.019 C 
HETATM   12  C13 UNL     1      -0.449  10.025  15.774  1.00  0.00     0.001 C 
HETATM   13  C22 UNL     1       0.578   9.201  16.614  1.00  0.00     0.007 C 
HETATM   14  C23 UNL     1       0.743   7.829  15.931  1.00  0.00     0.011 C 
HETATM   15  C24 UNL     1       0.124   8.007  14.532  1.00  0.00    -0.029 C 
HETATM   16  C25 UNL     1       1.228   8.730  13.693  1.00  0.00     0.016 C 
HETATM   17  C26 UNL     1      -0.969   6.149  11.251  1.00  0.00     0.039 C 
ENDROOT
BRANCH  12  18
HETATM   18  C14 UNL     1      -1.323  10.958  16.675  1.00  0.00    -0.013 C 
HETATM   19  C15 UNL     1      -0.964  12.436  16.477  1.00  0.00     0.010 C 
BRANCH  18  20
HETATM   20  C16 UNL     1      -1.166  10.548  18.166  1.00  0.00     0.008 C 
BRANCH  20  21
HETATM   21  C17 UNL     1      -0.440  11.541  19.087  1.00  0.00     0.028 C 
BRANCH  21  22
HETATM   22  C18 UNL     1       0.405  10.888  20.146  1.00  0.00    -0.025 C 
HETATM   23  C19 UNL     1       1.737  10.682  20.123  1.00  0.00    -0.091 C 
HETATM   24  C20 UNL     1       2.638  11.014  18.963  1.00  0.00     0.042 C 
HETATM   25  C21 UNL     1       2.441  10.059  21.300  1.00  0.00     0.042 C 
ENDBRANCH  21  22
ENDBRANCH  20  21
ENDBRANCH  18  20
ENDBRANCH  12  18
BRANCH   9  26
HETATM   26  O3  UNL     1      -1.278  10.623  13.124  1.00  0.00    -0.395 OA
HETATM   27  H14 UNL     1      -1.834  10.938  12.386  1.00  0.00     0.210 HD
ENDBRANCH   9  26
BRANCH  17  28
HETATM   28  C27 UNL     1      -1.459   4.674  11.092  1.00  0.00     0.011 C 
BRANCH  28  29
HETATM   29  C28 UNL     1      -0.566   3.651  11.810  1.00  0.00     0.027 C 
BRANCH  29  30
HETATM   30  C29 UNL     1      -0.902   2.217  11.407  1.00  0.00     0.164 C 
BRANCH  30  31
HETATM   31  O4  UNL     1       0.241   1.573  10.857  1.00  0.00    -0.401 OA
HETATM   32  H48 UNL     1      -0.012   0.647  10.694  1.00  0.00     0.209 HD
ENDBRANCH  30  31
ENDBRANCH  29  30
ENDBRANCH  28  29
ENDBRANCH  17  28
BRANCH   1  33
HETATM   33  C2  UNL     1       1.029   6.967   9.748  1.00  0.00     0.160 C 
HETATM   34  C1  UNL     1       0.377   8.274   9.394  1.00  0.00     0.094 C 
HETATM   35  O1  UNL     1       1.915   6.477   9.049  1.00  0.00    -0.295 OA
ENDBRANCH   1  33
TORSDOF 10
ENDMDL
MODEL 6
REMARK minimizedAffinity -7.80182314
REMARK  10 active torsions:
REMARK  status: ('A' for Active; 'I' for Inactive)
REMARK    1  A    between atoms: C2_2  and  C3_4 
REMARK    2  A    between atoms: C10_12  and  O3_13 
REMARK    3  A    between atoms: C13_16  and  C14_17 
REMARK    4  A    between atoms: C14_17  and  C16_19 
REMARK    5  A    between atoms: C16_19  and  C17_20 
REMARK    6  A    between atoms: C17_20  and  C18_21 
REMARK    7  A    between atoms: C26_29  and  C27_30 
REMARK    8  A    between atoms: C27_30  and  C28_31 
REMARK    9  A    between atoms: C28_31  and  C29_32 
REMARK   10  A    between atoms: C29_32  and  O4_33 
ROOT
HETATM    1  C3  UNL     1       2.298   6.341  10.631  1.00  0.00     0.151 A 
HETATM    2  O2  UNL     1       2.131   5.069   9.944  1.00  0.00    -0.360 OA
HETATM    3  C4  UNL     1       1.494   5.196  11.204  1.00  0.00     0.166 A 
HETATM    4  C5  UNL     1       0.008   5.254  11.118  1.00  0.00     0.041 C 
HETATM    5  C6  UNL     1      -0.561   6.621  11.541  1.00  0.00     0.006 C 
HETATM    6  C7  UNL     1       0.205   7.874  10.894  1.00  0.00    -0.030 C 
HETATM    7  C8  UNL     1      -0.763   8.694   9.992  1.00  0.00     0.016 C 
HETATM    8  C9  UNL     1       0.669   8.874  11.999  1.00  0.00     0.042 C 
HETATM    9  C10 UNL     1      -0.324   9.226  13.142  1.00  0.00     0.128 C 
HETATM   10  C11 UNL     1      -1.387   8.138  13.477  1.00  0.00    -0.006 C 
HETATM   11  C12 UNL     1      -2.728   8.462  12.735  1.00  0.00     0.019 C 
HETATM   12  C13 UNL     1      -1.772   7.917  14.989  1.00  0.00     0.001 C 
HETATM   13  C22 UNL     1      -2.327   6.457  14.981  1.00  0.00     0.007 C 
HETATM   14  C23 UNL     1      -1.889   5.801  13.656  1.00  0.00     0.011 C 
HETATM   15  C24 UNL     1      -0.793   6.728  13.099  1.00  0.00    -0.029 C 
HETATM   16  C25 UNL     1       0.498   6.347  13.893  1.00  0.00     0.016 C 
HETATM   17  C26 UNL     1       1.494   7.485   9.999  1.00  0.00     0.039 C 
ENDROOT
BRANCH  12  18
HETATM   18  C14 UNL     1      -2.741   8.905  15.719  1.00  0.00    -0.013 C 
HETATM   19  C15 UNL     1      -2.178   9.353  17.074  1.00  0.00     0.010 C 
BRANCH  18  20
HETATM   20  C16 UNL     1      -4.135   8.240  15.894  1.00  0.00     0.008 C 
BRANCH  20  21
HETATM   21  C17 UNL     1      -5.346   9.010  15.344  1.00  0.00     0.028 C 
BRANCH  21  22
HETATM   22  C18 UNL     1      -6.325   8.152  14.592  1.00  0.00    -0.025 C 
HETATM   23  C19 UNL     1      -7.275   7.344  15.105  1.00  0.00    -0.091 C 
HETATM   24  C20 UNL     1      -7.483   7.090  16.576  1.00  0.00     0.042 C 
HETATM   25  C21 UNL     1      -8.218   6.591  14.204  1.00  0.00     0.042 C 
ENDBRANCH  21  22
ENDBRANCH  20  21
ENDBRANCH  18  20
ENDBRANCH  12  18
BRANCH   9  26
HETATM   26  O3  UNL     1       0.473   9.514  14.295  1.00  0.00    -0.395 OA
HETATM   27  H14 UNL     1       1.009  10.305  14.096  1.00  0.00     0.210 HD
ENDBRANCH   9  26
BRANCH  17  28
HETATM   28  C27 UNL     1       1.200   7.209   8.490  1.00  0.00     0.011 C 
BRANCH  28  29
HETATM   29  C28 UNL     1       2.455   7.253   7.604  1.00  0.00     0.027 C 
BRANCH  29  30
HETATM   30  C29 UNL     1       2.571   6.016   6.716  1.00  0.00     0.164 C 
BRANCH  30  31
HETATM   31  O4  UNL     1       3.217   4.959   7.414  1.00  0.00    -0.401 OA
HETATM   32  H48 UNL     1       3.191   4.181   6.829  1.00  0.00     0.209 HD
ENDBRANCH  30  31
ENDBRANCH  29  30
ENDBRANCH  28  29
ENDBRANCH  17  28
BRANCH   1  33
HETATM   33  C2  UNL     1       3.730   6.551  11.024  1.00  0.00     0.160 C 
HETATM   34  C1  UNL     1       3.987   7.383  12.249  1.00  0.00     0.094 C 
HETATM   35  O1  UNL     1       4.650   6.076  10.360  1.00  0.00    -0.295 OA
ENDBRANCH   1  33
TORSDOF 10
ENDMDL
MODEL 7
REMARK minimizedAffinity -7.73218536
REMARK  10 active torsions:
REMARK  status: ('A' for Active; 'I' for Inactive)
REMARK    1  A    between atoms: C2_2  and  C3_4 
REMARK    2  A    between atoms: C10_12  and  O3_13 
REMARK    3  A    between atoms: C13_16  and  C14_17 
REMARK    4  A    between atoms: C14_17  and  C16_19 
REMARK    5  A    between atoms: C16_19  and  C17_20 
REMARK    6  A    between atoms: C17_20  and  C18_21 
REMARK    7  A    between atoms: C26_29  and  C27_30 
REMARK    8  A    between atoms: C27_30  and  C28_31 
REMARK    9  A    between atoms: C28_31  and  C29_32 
REMARK   10  A    between atoms: C29_32  and  O4_33 
ROOT
HETATM    1  C3  UNL     1       3.164   7.229   9.738  1.00  0.00     0.151 A 
HETATM    2  O2  UNL     1       4.569   7.039  10.069  1.00  0.00    -0.360 OA
HETATM    3  C4  UNL     1       3.802   7.810  10.979  1.00  0.00     0.166 A 
HETATM    4  C5  UNL     1       3.569   7.132  12.285  1.00  0.00     0.041 C 
HETATM    5  C6  UNL     1       2.090   6.775  12.517  1.00  0.00     0.006 C 
HETATM    6  C7  UNL     1       1.383   6.078  11.255  1.00  0.00    -0.030 C 
HETATM    7  C8  UNL     1       0.915   4.639  11.622  1.00  0.00     0.016 C 
HETATM    8  C9  UNL     1       0.077   6.837  10.860  1.00  0.00     0.042 C 
HETATM    9  C10 UNL     1      -0.889   7.287  11.991  1.00  0.00     0.128 C 
HETATM   10  C11 UNL     1      -0.233   7.543  13.380  1.00  0.00    -0.006 C 
HETATM   11  C12 UNL     1      -0.389   6.272  14.282  1.00  0.00     0.019 C 
HETATM   12  C13 UNL     1      -0.766   8.751  14.241  1.00  0.00     0.001 C 
HETATM   13  C22 UNL     1       0.445   9.050  15.180  1.00  0.00     0.007 C 
HETATM   14  C23 UNL     1       1.678   8.338  14.590  1.00  0.00     0.011 C 
HETATM   15  C24 UNL     1       1.268   7.964  13.153  1.00  0.00    -0.029 C 
HETATM   16  C25 UNL     1       1.444   9.281  12.329  1.00  0.00     0.016 C 
HETATM   17  C26 UNL     1       2.315   5.968   9.939  1.00  0.00     0.039 C 
ENDROOT
BRANCH  12  18
HETATM   18  C14 UNL     1      -2.107   8.633  15.039  1.00  0.00    -0.013 C 
HETATM   19  C15 UNL     1      -1.885   8.034  16.433  1.00  0.00     0.010 C 
BRANCH  18  20
HETATM   20  C16 UNL     1      -3.127   7.783  14.230  1.00  0.00     0.008 C 
BRANCH  20  21
HETATM   21  C17 UNL     1      -3.781   6.600  14.962  1.00  0.00     0.028 C 
BRANCH  21  22
HETATM   22  C18 UNL     1      -4.820   5.878  14.150  1.00  0.00    -0.025 C 
HETATM   23  C19 UNL     1      -4.628   4.865  13.282  1.00  0.00    -0.091 C 
HETATM   24  C20 UNL     1      -3.283   4.304  12.900  1.00  0.00     0.042 C 
HETATM   25  C21 UNL     1      -5.795   4.212  12.588  1.00  0.00     0.042 C 
ENDBRANCH  21  22
ENDBRANCH  20  21
ENDBRANCH  18  20
ENDBRANCH  12  18
BRANCH   9  26
HETATM   26  O3  UNL     1      -1.537   8.472  11.521  1.00  0.00    -0.395 OA
HETATM   27  H14 UNL     1      -2.068   8.230  10.739  1.00  0.00     0.210 HD
ENDBRANCH   9  26
BRANCH  17  28
HETATM   28  C27 UNL     1       3.186   4.674   9.844  1.00  0.00     0.011 C 
BRANCH  28  29
HETATM   29  C28 UNL     1       3.540   4.279   8.402  1.00  0.00     0.027 C 
BRANCH  29  30
HETATM   30  C29 UNL     1       4.657   3.239   8.352  1.00  0.00     0.164 C 
BRANCH  30  31
HETATM   31  O4  UNL     1       5.286   3.243   7.077  1.00  0.00    -0.401 OA
HETATM   32  H48 UNL     1       6.033   2.620   7.133  1.00  0.00     0.209 HD
ENDBRANCH  30  31
ENDBRANCH  29  30
ENDBRANCH  28  29
ENDBRANCH  17  28
BRANCH   1  33
HETATM   33  C2  UNL     1       3.016   8.050   8.492  1.00  0.00     0.160 C 
HETATM   34  C1  UNL     1       1.995   7.591   7.489  1.00  0.00     0.094 C 
HETATM   35  O1  UNL     1       3.714   9.044   8.295  1.00  0.00    -0.295 OA
ENDBRANCH   1  33
TORSDOF 10
ENDMDL
MODEL 8
REMARK minimizedAffinity -7.61606836
REMARK  10 active torsions:
REMARK  status: ('A' for Active; 'I' for Inactive)
REMARK    1  A    between atoms: C2_2  and  C3_4 
REMARK    2  A    between atoms: C10_12  and  O3_13 
REMARK    3  A    between atoms: C13_16  and  C14_17 
REMARK    4  A    between atoms: C14_17  and  C16_19 
REMARK    5  A    between atoms: C16_19  and  C17_20 
REMARK    6  A    between atoms: C17_20  and  C18_21 
REMARK    7  A    between atoms: C26_29  and  C27_30 
REMARK    8  A    between atoms: C27_30  and  C28_31 
REMARK    9  A    between atoms: C28_31  and  C29_32 
REMARK   10  A    between atoms: C29_32  and  O4_33 
ROOT
HETATM    1  C3  UNL     1       3.379   7.752  12.334  1.00  0.00     0.151 A 
HETATM    2  O2  UNL     1       3.884   9.087  12.052  1.00  0.00    -0.360 OA
HETATM    3  C4  UNL     1       2.509   8.861  11.786  1.00  0.00     0.166 A 
HETATM    4  C5  UNL     1       1.596   9.579  12.718  1.00  0.00     0.041 C 
HETATM    5  C6  UNL     1       0.800   8.624  13.627  1.00  0.00     0.006 C 
HETATM    6  C7  UNL     1       1.691   7.473  14.303  1.00  0.00    -0.030 C 
HETATM    7  C8  UNL     1       1.672   7.612  15.853  1.00  0.00     0.016 C 
HETATM    8  C9  UNL     1       1.087   6.062  14.018  1.00  0.00     0.042 C 
HETATM    9  C10 UNL     1      -0.450   5.873  14.156  1.00  0.00     0.128 C 
HETATM   10  C11 UNL     1      -1.313   7.148  13.924  1.00  0.00    -0.006 C 
HETATM   11  C12 UNL     1      -1.659   7.811  15.301  1.00  0.00     0.019 C 
HETATM   12  C13 UNL     1      -2.685   6.987  13.165  1.00  0.00     0.001 C 
HETATM   13  C22 UNL     1      -2.930   8.426  12.612  1.00  0.00     0.007 C 
HETATM   14  C23 UNL     1      -1.597   9.195  12.709  1.00  0.00     0.011 C 
HETATM   15  C24 UNL     1      -0.532   8.109  12.951  1.00  0.00    -0.029 C 
HETATM   16  C25 UNL     1      -0.253   7.498  11.539  1.00  0.00     0.016 C 
HETATM   17  C26 UNL     1       3.238   7.458  13.833  1.00  0.00     0.039 C 
ENDROOT
BRANCH  12  18
HETATM   18  C14 UNL     1      -3.945   6.424  13.902  1.00  0.00    -0.013 C 
HETATM   19  C15 UNL     1      -3.749   6.405  15.424  1.00  0.00     0.010 C 
BRANCH  18  20
HETATM   20  C16 UNL     1      -4.272   5.000  13.372  1.00  0.00     0.008 C 
BRANCH  20  21
HETATM   21  C17 UNL     1      -5.703   4.758  12.866  1.00  0.00     0.028 C 
BRANCH  21  22
HETATM   22  C18 UNL     1      -6.002   3.321  12.541  1.00  0.00    -0.025 C 
HETATM   23  C19 UNL     1      -5.731   2.664  11.396  1.00  0.00    -0.091 C 
HETATM   24  C20 UNL     1      -5.127   3.292  10.167  1.00  0.00     0.042 C 
HETATM   25  C21 UNL     1      -6.049   1.198  11.253  1.00  0.00     0.042 C 
ENDBRANCH  21  22
ENDBRANCH  20  21
ENDBRANCH  18  20
ENDBRANCH  12  18
BRANCH   9  26
HETATM   26  O3  UNL     1      -0.816   4.848  13.228  1.00  0.00    -0.395 OA
HETATM   27  H14 UNL     1      -0.377   4.023  13.507  1.00  0.00     0.210 HD
ENDBRANCH   9  26
BRANCH  17  28
HETATM   28  C27 UNL     1       4.201   8.350  14.681  1.00  0.00     0.011 C 
BRANCH  28  29
HETATM   29  C28 UNL     1       5.437   7.596  15.198  1.00  0.00     0.027 C 
BRANCH  29  30
HETATM   30  C29 UNL     1       6.687   7.924  14.386  1.00  0.00     0.164 C 
BRANCH  30  31
HETATM   31  O4  UNL     1       7.818   7.244  14.915  1.00  0.00    -0.401 OA
HETATM   32  H48 UNL     1       8.562   7.429  14.314  1.00  0.00     0.209 HD
ENDBRANCH  30  31
ENDBRANCH  29  30
ENDBRANCH  28  29
ENDBRANCH  17  28
BRANCH   1  33
HETATM   33  C2  UNL     1       4.004   6.740  11.421  1.00  0.00     0.160 C 
HETATM   34  C1  UNL     1       3.074   5.886  10.607  1.00  0.00     0.094 C 
HETATM   35  O1  UNL     1       5.226   6.607  11.358  1.00  0.00    -0.295 OA
ENDBRANCH   1  33
TORSDOF 10
ENDMDL
MODEL 9
REMARK minimizedAffinity -7.49611902
REMARK  10 active torsions:
REMARK  status: ('A' for Active; 'I' for Inactive)
REMARK    1  A    between atoms: C2_2  and  C3_4 
REMARK    2  A    between atoms: C10_12  and  O3_13 
REMARK    3  A    between atoms: C13_16  and  C14_17 
REMARK    4  A    between atoms: C14_17  and  C16_19 
REMARK    5  A    between atoms: C16_19  and  C17_20 
REMARK    6  A    between atoms: C17_20  and  C18_21 
REMARK    7  A    between atoms: C26_29  and  C27_30 
REMARK    8  A    between atoms: C27_30  and  C28_31 
REMARK    9  A    between atoms: C28_31  and  C29_32 
REMARK   10  A    between atoms: C29_32  and  O4_33 
ROOT
HETATM    1  C3  UNL     1       1.764   6.591  11.232  1.00  0.00     0.151 A 
HETATM    2  O2  UNL     1       1.662   5.361  10.462  1.00  0.00    -0.360 OA
HETATM    3  C4  UNL     1       0.946   5.404  11.686  1.00  0.00     0.166 A 
HETATM    4  C5  UNL     1      -0.533   5.446  11.509  1.00  0.00     0.041 C 
HETATM    5  C6  UNL     1      -1.151   6.777  11.975  1.00  0.00     0.006 C 
HETATM    6  C7  UNL     1      -0.368   8.078  11.452  1.00  0.00    -0.030 C 
HETATM    7  C8  UNL     1      -1.292   8.937  10.540  1.00  0.00     0.016 C 
HETATM    8  C9  UNL     1       0.009   9.016  12.641  1.00  0.00     0.042 C 
HETATM    9  C10 UNL     1      -1.059   9.285  13.738  1.00  0.00     0.128 C 
HETATM   10  C11 UNL     1      -2.122   8.165  13.940  1.00  0.00    -0.006 C 
HETATM   11  C12 UNL     1      -3.419   8.515  13.135  1.00  0.00     0.019 C 
HETATM   12  C13 UNL     1      -2.597   7.849  15.409  1.00  0.00     0.001 C 
HETATM   13  C22 UNL     1      -3.125   6.385  15.281  1.00  0.00     0.007 C 
HETATM   14  C23 UNL     1      -2.594   5.815  13.950  1.00  0.00     0.011 C 
HETATM   15  C24 UNL     1      -1.482   6.789  13.519  1.00  0.00    -0.029 C 
HETATM   16  C25 UNL     1      -0.236   6.378  14.369  1.00  0.00     0.016 C 
HETATM   17  C26 UNL     1       0.981   7.760  10.619  1.00  0.00     0.039 C 
ENDROOT
BRANCH  12  18
HETATM   18  C14 UNL     1      -3.626   8.778  16.134  1.00  0.00    -0.013 C 
HETATM   19  C15 UNL     1      -4.899   8.971  15.300  1.00  0.00     0.010 C 
BRANCH  18  20
HETATM   20  C16 UNL     1      -2.964  10.148  16.453  1.00  0.00     0.008 C 
BRANCH  20  21
HETATM   21  C17 UNL     1      -3.047  10.638  17.907  1.00  0.00     0.028 C 
BRANCH  21  22
HETATM   22  C18 UNL     1      -1.768  10.475  18.681  1.00  0.00    -0.025 C 
HETATM   23  C19 UNL     1      -0.933  11.445  19.104  1.00  0.00    -0.091 C 
HETATM   24  C20 UNL     1      -1.098  12.912  18.802  1.00  0.00     0.042 C 
HETATM   25  C21 UNL     1       0.287  11.111  19.923  1.00  0.00     0.042 C 
ENDBRANCH  21  22
ENDBRANCH  20  21
ENDBRANCH  18  20
ENDBRANCH  12  18
BRANCH   9  26
HETATM   26  O3  UNL     1      -0.341   9.515  14.954  1.00  0.00    -0.395 OA
HETATM   27  H14 UNL     1       0.192  10.324  14.836  1.00  0.00     0.210 HD
ENDBRANCH   9  26
BRANCH  17  28
HETATM   28  C27 UNL     1       0.787   7.570   9.081  1.00  0.00     0.011 C 
BRANCH  28  29
HETATM   29  C28 UNL     1       2.065   7.824   8.266  1.00  0.00     0.027 C 
BRANCH  29  30
HETATM   30  C29 UNL     1       2.296   6.741   7.215  1.00  0.00     0.164 C 
BRANCH  30  31
HETATM   31  O4  UNL     1       2.792   5.554   7.823  1.00  0.00    -0.401 OA
HETATM   32  H48 UNL     1       2.845   4.882   7.120  1.00  0.00     0.209 HD
ENDBRANCH  30  31
ENDBRANCH  29  30
ENDBRANCH  28  29
ENDBRANCH  17  28
BRANCH   1  33
HETATM   33  C2  UNL     1       3.164   6.797  11.727  1.00  0.00     0.160 C 
HETATM   34  C1  UNL     1       3.334   7.612  12.978  1.00  0.00     0.094 C 
HETATM   35  O1  UNL     1       4.129   6.332  11.122  1.00  0.00    -0.295 OA
ENDBRANCH   1  33
TORSDOF 10
ENDMDL
