MODEL 1
REMARK minimizedAffinity -6.55787373
REMARK CNNscore 0.788827598
REMARK CNNaffinity 6.4245429
REMARK  8 active torsions:
REMARK  status: ('A' for Active; 'I' for Inactive)
REMARK    1  A    between atoms: C2_2  and  C3_3 
REMARK    2  A    between atoms: C2_2  and  C5_6 
REMARK    3  A    between atoms: C3_3  and  C4_4 
REMARK    4  A    between atoms: C5_6  and  C6_7 
REMARK    5  A    between atoms: C6_7  and  C7_9 
REMARK    6  A    between atoms: C7_9  and  C8_10 
REMARK    7  A    between atoms: C8_10  and  C10_12 
REMARK    8  A    between atoms: C12_14  and  O3_15 
ROOT
HETATM    1  C10 UNL     1     -15.630  -3.184  12.617  1.00  0.00     0.002 C 
HETATM    2  C11 UNL     1     -14.344  -2.887  13.411  1.00  0.00     0.038 C 
HETATM    3  C12 UNL     1     -14.680  -3.126  14.876  1.00  0.00     0.132 C 
HETATM    4  C13 UNL     1     -16.207  -2.826  15.011  1.00  0.00     0.021 C 
HETATM    5  C14 UNL     1     -16.774  -3.447  16.305  1.00  0.00     0.024 C 
HETATM    6  C15 UNL     1     -16.527  -1.311  14.979  1.00  0.00     0.010 C 
HETATM    7  C16 UNL     1     -17.357  -0.674  14.114  1.00  0.00     0.007 C 
HETATM    8  C17 UNL     1     -18.147  -1.534  13.166  1.00  0.00     0.157 C 
HETATM    9  O4  UNL     1     -18.851  -1.042  12.288  1.00  0.00    -0.293 OA
HETATM   10  C18 UNL     1     -18.115  -3.030  13.335  1.00  0.00     0.094 C 
HETATM   11  C19 UNL     1     -16.723  -3.560  13.698  1.00  0.00    -0.019 C 
HETATM   12  C20 UNL     1     -16.878  -5.088  13.881  1.00  0.00     0.017 C 
HETATM   13  C21 UNL     1     -17.547   0.868  14.002  1.00  0.00    -0.007 C 
HETATM   14  C22 UNL     1     -16.822   1.295  12.698  1.00  0.00     0.021 C 
HETATM   15  C23 UNL     1     -19.049   1.281  13.904  1.00  0.00     0.022 C 
HETATM   16  C24 UNL     1     -19.396   2.670  14.443  1.00  0.00     0.080 C 
HETATM   17  C25 UNL     1     -18.212   3.607  14.432  1.00  0.00     0.135 C 
HETATM   18  O5  UNL     1     -18.278   4.704  13.879  1.00  0.00    -0.297 OA
HETATM   19  C26 UNL     1     -16.974   3.155  15.216  1.00  0.00     0.018 C 
HETATM   20  C27 UNL     1     -15.703   3.779  14.611  1.00  0.00     0.023 C 
HETATM   21  C28 UNL     1     -17.128   3.720  16.645  1.00  0.00     0.023 C 
HETATM   22  C29 UNL     1     -16.959   1.592  15.266  1.00  0.00     0.021 C 
HETATM   23  C30 UNL     1     -15.606   0.994  15.638  1.00  0.00     0.090 C 
HETATM   24  C31 UNL     1     -15.878  -0.434  16.016  1.00  0.00     0.157 C 
HETATM   25  O6  UNL     1     -15.667  -0.822  17.162  1.00  0.00    -0.293 OA
ENDROOT
BRANCH   1  26
HETATM   26  C8  UNL     1     -15.351  -4.060  11.363  1.00  0.00    -0.007 C 
HETATM   27  C9  UNL     1     -14.009  -4.794  11.447  1.00  0.00     0.011 C 
BRANCH  26  28
HETATM   28  C7  UNL     1     -15.505  -3.357  10.001  1.00  0.00     0.083 C 
BRANCH  28  29
HETATM   29  C6  UNL     1     -14.183  -3.304   9.256  1.00  0.00     0.127 C 
HETATM   30  O2  UNL     1     -13.352  -2.436   9.527  1.00  0.00    -0.298 OA
BRANCH  29  31
HETATM   31  C5  UNL     1     -13.933  -4.385   8.212  1.00  0.00     0.082 C 
BRANCH  31  32
HETATM   32  C2  UNL     1     -14.979  -4.545   7.091  1.00  0.00    -0.005 C 
HETATM   33  C1  UNL     1     -15.678  -5.906   7.076  1.00  0.00     0.011 C 
BRANCH  32  34
HETATM   34  C3  UNL     1     -14.470  -4.134   5.702  1.00  0.00     0.074 C 
BRANCH  34  35
HETATM   35  C4  UNL     1     -13.112  -4.678   5.344  1.00  0.00     0.231 C 
HETATM   36  O1  UNL     1     -12.326  -4.058   4.635  1.00  0.00    -0.307 OA
ENDBRANCH  34  35
ENDBRANCH  32  34
ENDBRANCH  31  32
ENDBRANCH  29  31
ENDBRANCH  28  29
ENDBRANCH  26  28
ENDBRANCH   1  26
BRANCH   3  37
HETATM   37  O3  UNL     1     -13.834  -2.349  15.697  1.00  0.00    -0.394 OA
HETATM   38  H20 UNL     1     -12.924  -2.672  15.587  1.00  0.00     0.210 HD
ENDBRANCH   3  37
TORSDOF 8
ENDMDL
MODEL 2
REMARK minimizedAffinity -6.77531385
REMARK CNNscore 0.732848346
REMARK CNNaffinity 6.82534218
REMARK  8 active torsions:
REMARK  status: ('A' for Active; 'I' for Inactive)
REMARK    1  A    between atoms: C2_2  and  C3_3 
REMARK    2  A    between atoms: C2_2  and  C5_6 
REMARK    3  A    between atoms: C3_3  and  C4_4 
REMARK    4  A    between atoms: C5_6  and  C6_7 
REMARK    5  A    between atoms: C6_7  and  C7_9 
REMARK    6  A    between atoms: C7_9  and  C8_10 
REMARK    7  A    between atoms: C8_10  and  C10_12 
REMARK    8  A    between atoms: C12_14  and  O3_15 
ROOT
HETATM    1  C10 UNL     1     -15.346  -3.364  10.528  1.00  0.00     0.002 C 
HETATM    2  C11 UNL     1     -13.999  -3.074  11.216  1.00  0.00     0.038 C 
HETATM    3  C12 UNL     1     -14.071  -3.726  12.589  1.00  0.00     0.132 C 
HETATM    4  C13 UNL     1     -15.583  -3.720  12.979  1.00  0.00     0.021 C 
HETATM    5  C14 UNL     1     -15.861  -4.730  14.112  1.00  0.00     0.024 C 
HETATM    6  C15 UNL     1     -16.090  -2.317  13.398  1.00  0.00     0.010 C 
HETATM    7  C16 UNL     1     -17.117  -1.625  12.844  1.00  0.00     0.007 C 
HETATM    8  C17 UNL     1     -17.932  -2.334  11.796  1.00  0.00     0.157 C 
HETATM    9  O4  UNL     1     -18.820  -1.756  11.174  1.00  0.00    -0.293 OA
HETATM   10  C18 UNL     1     -17.688  -3.798  11.546  1.00  0.00     0.094 C 
HETATM   11  C19 UNL     1     -16.203  -4.172  11.585  1.00  0.00    -0.019 C 
HETATM   12  C20 UNL     1     -16.136  -5.700  11.361  1.00  0.00     0.017 C 
HETATM   13  C21 UNL     1     -17.512  -0.156  13.179  1.00  0.00    -0.007 C 
HETATM   14  C22 UNL     1     -17.057   0.697  11.966  1.00  0.00     0.021 C 
HETATM   15  C23 UNL     1     -19.051   0.020  13.374  1.00  0.00     0.022 C 
HETATM   16  C24 UNL     1     -19.480   1.154  14.308  1.00  0.00     0.080 C 
HETATM   17  C25 UNL     1     -18.437   2.242  14.415  1.00  0.00     0.135 C 
HETATM   18  O5  UNL     1     -18.724   3.417  14.193  1.00  0.00    -0.297 OA
HETATM   19  C26 UNL     1     -17.046   1.811  14.895  1.00  0.00     0.018 C 
HETATM   20  C27 UNL     1     -15.971   2.764  14.338  1.00  0.00     0.023 C 
HETATM   21  C28 UNL     1     -17.045   1.964  16.431  1.00  0.00     0.023 C 
HETATM   22  C29 UNL     1     -16.829   0.309  14.515  1.00  0.00     0.021 C 
HETATM   23  C30 UNL     1     -15.371  -0.137  14.549  1.00  0.00     0.090 C 
HETATM   24  C31 UNL     1     -15.401  -1.639  14.552  1.00  0.00     0.157 C 
HETATM   25  O6  UNL     1     -14.968  -2.265  15.516  1.00  0.00    -0.293 OA
ENDROOT
BRANCH   1  26
HETATM   26  C8  UNL     1     -15.159  -3.838   9.058  1.00  0.00    -0.007 C 
HETATM   27  C9  UNL     1     -15.726  -5.241   8.818  1.00  0.00     0.011 C 
BRANCH  26  28
HETATM   28  C7  UNL     1     -13.734  -3.719   8.487  1.00  0.00     0.083 C 
BRANCH  28  29
HETATM   29  C6  UNL     1     -13.515  -4.695   7.344  1.00  0.00     0.127 C 
HETATM   30  O2  UNL     1     -12.948  -5.769   7.544  1.00  0.00    -0.298 OA
BRANCH  29  31
HETATM   31  C5  UNL     1     -14.063  -4.295   5.980  1.00  0.00     0.082 C 
BRANCH  31  32
HETATM   32  C2  UNL     1     -13.212  -4.642   4.743  1.00  0.00    -0.005 C 
HETATM   33  C1  UNL     1     -12.501  -5.994   4.830  1.00  0.00     0.011 C 
BRANCH  32  34
HETATM   34  C3  UNL     1     -12.270  -3.514   4.300  1.00  0.00     0.074 C 
BRANCH  34  35
HETATM   35  C4  UNL     1     -11.636  -3.719   2.949  1.00  0.00     0.231 C 
HETATM   36  O1  UNL     1     -12.301  -3.943   1.942  1.00  0.00    -0.307 OA
ENDBRANCH  34  35
ENDBRANCH  32  34
ENDBRANCH  31  32
ENDBRANCH  29  31
ENDBRANCH  28  29
ENDBRANCH  26  28
ENDBRANCH   1  26
BRANCH   3  37
HETATM   37  O3  UNL     1     -13.210  -3.056  13.486  1.00  0.00    -0.394 OA
HETATM   38  H20 UNL     1     -12.296  -3.190  13.186  1.00  0.00     0.210 HD
ENDBRANCH   3  37
TORSDOF 8
ENDMDL
MODEL 3
REMARK minimizedAffinity -9.03112125
REMARK CNNscore 0.661094129
REMARK CNNaffinity 7.26309967
REMARK  8 active torsions:
REMARK  status: ('A' for Active; 'I' for Inactive)
REMARK    1  A    between atoms: C2_2  and  C3_3 
REMARK    2  A    between atoms: C2_2  and  C5_6 
REMARK    3  A    between atoms: C3_3  and  C4_4 
REMARK    4  A    between atoms: C5_6  and  C6_7 
REMARK    5  A    between atoms: C6_7  and  C7_9 
REMARK    6  A    between atoms: C7_9  and  C8_10 
REMARK    7  A    between atoms: C8_10  and  C10_12 
REMARK    8  A    between atoms: C12_14  and  O3_15 
ROOT
HETATM    1  C10 UNL     1      -0.949   6.331  12.726  1.00  0.00     0.002 C 
HETATM    2  C11 UNL     1      -0.476   6.019  14.159  1.00  0.00     0.038 C 
HETATM    3  C12 UNL     1      -0.355   7.358  14.872  1.00  0.00     0.132 C 
HETATM    4  C13 UNL     1      -0.025   8.400  13.756  1.00  0.00     0.021 C 
HETATM    5  C14 UNL     1      -0.314   9.835  14.244  1.00  0.00     0.024 C 
HETATM    6  C15 UNL     1       1.440   8.306  13.260  1.00  0.00     0.010 C 
HETATM    7  C16 UNL     1       1.855   8.096  11.985  1.00  0.00     0.007 C 
HETATM    8  C17 UNL     1       0.796   8.075  10.918  1.00  0.00     0.157 C 
HETATM    9  O4  UNL     1       1.066   7.800   9.751  1.00  0.00    -0.293 OA
HETATM   10  C18 UNL     1      -0.616   8.454  11.279  1.00  0.00     0.094 C 
HETATM   11  C19 UNL     1      -1.050   7.908  12.643  1.00  0.00    -0.019 C 
HETATM   12  C20 UNL     1      -2.489   8.426  12.877  1.00  0.00     0.017 C 
HETATM   13  C21 UNL     1       3.325   7.853  11.534  1.00  0.00    -0.007 C 
HETATM   14  C22 UNL     1       3.424   6.344  11.189  1.00  0.00     0.021 C 
HETATM   15  C23 UNL     1       3.709   8.687  10.271  1.00  0.00     0.022 C 
HETATM   16  C24 UNL     1       5.189   9.053  10.138  1.00  0.00     0.080 C 
HETATM   17  C25 UNL     1       6.091   8.099  10.884  1.00  0.00     0.135 C 
HETATM   18  O5  UNL     1       7.023   7.533  10.313  1.00  0.00    -0.297 OA
HETATM   19  C26 UNL     1       5.834   7.949  12.388  1.00  0.00     0.018 C 
HETATM   20  C27 UNL     1       6.289   6.559  12.870  1.00  0.00     0.023 C 
HETATM   21  C28 UNL     1       6.726   8.994  13.092  1.00  0.00     0.023 C 
HETATM   22  C29 UNL     1       4.329   8.264  12.671  1.00  0.00     0.021 C 
HETATM   23  C30 UNL     1       3.832   7.763  14.023  1.00  0.00     0.090 C 
HETATM   24  C31 UNL     1       2.537   8.482  14.277  1.00  0.00     0.157 C 
HETATM   25  O6  UNL     1       2.434   9.256  15.223  1.00  0.00    -0.293 OA
ENDROOT
BRANCH   1  26
HETATM   26  C8  UNL     1      -2.102   5.390  12.275  1.00  0.00    -0.007 C 
HETATM   27  C9  UNL     1      -2.783   4.689  13.455  1.00  0.00     0.011 C 
BRANCH  26  28
HETATM   28  C7  UNL     1      -1.752   4.379  11.168  1.00  0.00     0.083 C 
BRANCH  28  29
HETATM   29  C6  UNL     1      -2.687   3.182  11.199  1.00  0.00     0.127 C 
HETATM   30  O2  UNL     1      -2.255   2.063  11.478  1.00  0.00    -0.298 OA
BRANCH  29  31
HETATM   31  C5  UNL     1      -4.160   3.448  10.915  1.00  0.00     0.082 C 
BRANCH  31  32
HETATM   32  C2  UNL     1      -5.196   2.680  11.759  1.00  0.00    -0.005 C 
HETATM   33  C1  UNL     1      -5.696   1.386  11.112  1.00  0.00     0.011 C 
BRANCH  32  34
HETATM   34  C3  UNL     1      -6.346   3.554  12.280  1.00  0.00     0.074 C 
BRANCH  34  35
HETATM   35  C4  UNL     1      -7.500   2.788  12.870  1.00  0.00     0.231 C 
HETATM   36  O1  UNL     1      -8.646   3.228  12.869  1.00  0.00    -0.307 OA
ENDBRANCH  34  35
ENDBRANCH  32  34
ENDBRANCH  31  32
ENDBRANCH  29  31
ENDBRANCH  28  29
ENDBRANCH  26  28
ENDBRANCH   1  26
BRANCH   3  37
HETATM   37  O3  UNL     1       0.592   7.265  15.915  1.00  0.00    -0.394 OA
HETATM   38  H20 UNL     1       0.248   6.649  16.583  1.00  0.00     0.210 HD
ENDBRANCH   3  37
TORSDOF 8
ENDMDL
MODEL 4
REMARK minimizedAffinity -7.26673746
REMARK CNNscore 0.660853267
REMARK CNNaffinity 6.78334379
REMARK  8 active torsions:
REMARK  status: ('A' for Active; 'I' for Inactive)
REMARK    1  A    between atoms: C2_2  and  C3_3 
REMARK    2  A    between atoms: C2_2  and  C5_6 
REMARK    3  A    between atoms: C3_3  and  C4_4 
REMARK    4  A    between atoms: C5_6  and  C6_7 
REMARK    5  A    between atoms: C6_7  and  C7_9 
REMARK    6  A    between atoms: C7_9  and  C8_10 
REMARK    7  A    between atoms: C8_10  and  C10_12 
REMARK    8  A    between atoms: C12_14  and  O3_15 
ROOT
HETATM    1  C10 UNL     1       1.892  10.187  16.468  1.00  0.00     0.002 C 
HETATM    2  C11 UNL     1       2.548   8.793  16.497  1.00  0.00     0.038 C 
HETATM    3  C12 UNL     1       2.979   8.492  15.069  1.00  0.00     0.132 C 
HETATM    4  C13 UNL     1       1.979   9.271  14.156  1.00  0.00     0.021 C 
HETATM    5  C14 UNL     1       2.548   9.427  12.730  1.00  0.00     0.024 C 
HETATM    6  C15 UNL     1       0.582   8.604  14.087  1.00  0.00     0.010 C 
HETATM    7  C16 UNL     1      -0.607   9.174  14.406  1.00  0.00     0.007 C 
HETATM    8  C17 UNL     1      -0.593  10.639  14.744  1.00  0.00     0.157 C 
HETATM    9  O4  UNL     1      -1.605  11.217  15.135  1.00  0.00    -0.293 OA
HETATM   10  C18 UNL     1       0.675  11.425  14.545  1.00  0.00     0.094 C 
HETATM   11  C19 UNL     1       1.930  10.646  14.954  1.00  0.00    -0.019 C 
HETATM   12  C20 UNL     1       3.131  11.569  14.641  1.00  0.00     0.017 C 
HETATM   13  C21 UNL     1      -1.979   8.440  14.476  1.00  0.00    -0.007 C 
HETATM   14  C22 UNL     1      -2.313   8.298  15.985  1.00  0.00     0.021 C 
HETATM   15  C23 UNL     1      -3.123   9.242  13.779  1.00  0.00     0.022 C 
HETATM   16  C24 UNL     1      -4.271   8.407  13.207  1.00  0.00     0.080 C 
HETATM   17  C25 UNL     1      -4.411   7.069  13.894  1.00  0.00     0.135 C 
HETATM   18  O5  UNL     1      -5.484   6.717  14.380  1.00  0.00    -0.297 OA
HETATM   19  C26 UNL     1      -3.180   6.155  13.869  1.00  0.00     0.018 C 
HETATM   20  C27 UNL     1      -3.190   5.215  15.088  1.00  0.00     0.023 C 
HETATM   21  C28 UNL     1      -3.312   5.274  12.608  1.00  0.00     0.023 C 
HETATM   22  C29 UNL     1      -1.899   7.046  13.758  1.00  0.00     0.021 C 
HETATM   23  C30 UNL     1      -0.607   6.328  14.135  1.00  0.00     0.090 C 
HETATM   24  C31 UNL     1       0.508   7.181  13.600  1.00  0.00     0.157 C 
HETATM   25  O6  UNL     1       1.253   6.749  12.726  1.00  0.00    -0.293 OA
ENDROOT
BRANCH   1  26
HETATM   26  C8  UNL     1       2.390  11.090  17.633  1.00  0.00    -0.007 C 
HETATM   27  C9  UNL     1       3.897  11.360  17.563  1.00  0.00     0.011 C 
BRANCH  26  28
HETATM   28  C7  UNL     1       1.979  10.649  19.050  1.00  0.00     0.083 C 
BRANCH  28  29
HETATM   29  C6  UNL     1       2.722  11.442  20.111  1.00  0.00     0.127 C 
HETATM   30  O2  UNL     1       2.361  12.583  20.400  1.00  0.00    -0.298 OA
BRANCH  29  31
HETATM   31  C5  UNL     1       3.882  10.745  20.809  1.00  0.00     0.082 C 
BRANCH  31  32
HETATM   32  C2  UNL     1       3.848  10.676  22.348  1.00  0.00    -0.005 C 
HETATM   33  C1  UNL     1       5.134  11.156  23.025  1.00  0.00     0.011 C 
BRANCH  32  34
HETATM   34  C3  UNL     1       3.365   9.327  22.900  1.00  0.00     0.074 C 
BRANCH  34  35
HETATM   35  C4  UNL     1       2.180   8.741  22.178  1.00  0.00     0.231 C 
HETATM   36  O1  UNL     1       1.739   7.627  22.443  1.00  0.00    -0.307 OA
ENDBRANCH  34  35
ENDBRANCH  32  34
ENDBRANCH  31  32
ENDBRANCH  29  31
ENDBRANCH  28  29
ENDBRANCH  26  28
ENDBRANCH   1  26
BRANCH   3  37
HETATM   37  O3  UNL     1       3.026   7.096  14.864  1.00  0.00    -0.394 OA
HETATM   38  H20 UNL     1       3.729   6.731  15.426  1.00  0.00     0.210 HD
ENDBRANCH   3  37
TORSDOF 8
ENDMDL
MODEL 5
REMARK minimizedAffinity -9.0620966
REMARK CNNscore 0.522616744
REMARK CNNaffinity 6.86182928
REMARK  8 active torsions:
REMARK  status: ('A' for Active; 'I' for Inactive)
REMARK    1  A    between atoms: C2_2  and  C3_3 
REMARK    2  A    between atoms: C2_2  and  C5_6 
REMARK    3  A    between atoms: C3_3  and  C4_4 
REMARK    4  A    between atoms: C5_6  and  C6_7 
REMARK    5  A    between atoms: C6_7  and  C7_9 
REMARK    6  A    between atoms: C7_9  and  C8_10 
REMARK    7  A    between atoms: C8_10  and  C10_12 
REMARK    8  A    between atoms: C12_14  and  O3_15 
ROOT
HETATM    1  C10 UNL     1      -2.572   7.819  14.606  1.00  0.00     0.002 C 
HETATM    2  C11 UNL     1      -1.785   6.830  15.488  1.00  0.00     0.038 C 
HETATM    3  C12 UNL     1      -0.588   7.599  16.029  1.00  0.00     0.132 C 
HETATM    4  C13 UNL     1      -0.267   8.687  14.955  1.00  0.00     0.021 C 
HETATM    5  C14 UNL     1       0.610   9.806  15.555  1.00  0.00     0.024 C 
HETATM    6  C15 UNL     1       0.425   8.104  13.697  1.00  0.00     0.010 C 
HETATM    7  C16 UNL     1      -0.008   8.199  12.415  1.00  0.00     0.007 C 
HETATM    8  C17 UNL     1      -1.215   9.060  12.163  1.00  0.00     0.157 C 
HETATM    9  O4  UNL     1      -1.732   9.131  11.051  1.00  0.00    -0.293 OA
HETATM   10  C18 UNL     1      -1.765   9.897  13.287  1.00  0.00     0.094 C 
HETATM   11  C19 UNL     1      -1.749   9.169  14.636  1.00  0.00    -0.019 C 
HETATM   12  C20 UNL     1      -2.293  10.176  15.676  1.00  0.00     0.017 C 
HETATM   13  C21 UNL     1       0.620   7.477  11.186  1.00  0.00    -0.007 C 
HETATM   14  C22 UNL     1      -0.362   6.335  10.812  1.00  0.00     0.021 C 
HETATM   15  C23 UNL     1       0.787   8.424   9.956  1.00  0.00     0.022 C 
HETATM   16  C24 UNL     1       1.926   8.075   8.995  1.00  0.00     0.080 C 
HETATM   17  C25 UNL     1       2.306   6.615   9.053  1.00  0.00     0.135 C 
HETATM   18  O5  UNL     1       2.331   5.927   8.034  1.00  0.00    -0.297 OA
HETATM   19  C26 UNL     1       2.736   6.074  10.422  1.00  0.00     0.018 C 
HETATM   20  C27 UNL     1       2.441   4.565  10.515  1.00  0.00     0.023 C 
HETATM   21  C28 UNL     1       4.269   6.248  10.500  1.00  0.00     0.023 C 
HETATM   22  C29 UNL     1       2.051   6.931  11.536  1.00  0.00     0.021 C 
HETATM   23  C30 UNL     1       2.045   6.272  12.912  1.00  0.00     0.090 C 
HETATM   24  C31 UNL     1       1.724   7.368  13.889  1.00  0.00     0.157 C 
HETATM   25  O6  UNL     1       2.546   7.702  14.738  1.00  0.00    -0.293 OA
ENDROOT
BRANCH   1  26
HETATM   26  C8  UNL     1      -4.101   7.760  14.888  1.00  0.00    -0.007 C 
HETATM   27  C9  UNL     1      -4.601   8.979  15.669  1.00  0.00     0.011 C 
BRANCH  26  28
HETATM   28  C7  UNL     1      -4.620   6.455  15.521  1.00  0.00     0.083 C 
BRANCH  28  29
HETATM   29  C6  UNL     1      -6.093   6.244  15.218  1.00  0.00     0.127 C 
HETATM   30  O2  UNL     1      -6.840   5.764  16.071  1.00  0.00    -0.298 OA
BRANCH  29  31
HETATM   31  C5  UNL     1      -6.588   6.690  13.848  1.00  0.00     0.082 C 
BRANCH  31  32
HETATM   32  C2  UNL     1      -7.266   5.630  12.957  1.00  0.00    -0.005 C 
HETATM   33  C1  UNL     1      -8.791   5.594  13.076  1.00  0.00     0.011 C 
BRANCH  32  34
HETATM   34  C3  UNL     1      -6.638   4.232  13.066  1.00  0.00     0.074 C 
BRANCH  34  35
HETATM   35  C4  UNL     1      -7.572   3.162  13.565  1.00  0.00     0.231 C 
HETATM   36  O1  UNL     1      -8.011   2.282  12.830  1.00  0.00    -0.307 OA
ENDBRANCH  34  35
ENDBRANCH  32  34
ENDBRANCH  31  32
ENDBRANCH  29  31
ENDBRANCH  28  29
ENDBRANCH  26  28
ENDBRANCH   1  26
BRANCH   3  37
HETATM   37  O3  UNL     1       0.465   6.706  16.323  1.00  0.00    -0.394 OA
HETATM   38  H20 UNL     1       0.180   6.130  17.052  1.00  0.00     0.210 HD
ENDBRANCH   3  37
TORSDOF 8
ENDMDL
MODEL 6
REMARK minimizedAffinity -6.01864767
REMARK CNNscore 0.51859498
REMARK CNNaffinity 6.19069242
REMARK  8 active torsions:
REMARK  status: ('A' for Active; 'I' for Inactive)
REMARK    1  A    between atoms: C2_2  and  C3_3 
REMARK    2  A    between atoms: C2_2  and  C5_6 
REMARK    3  A    between atoms: C3_3  and  C4_4 
REMARK    4  A    between atoms: C5_6  and  C6_7 
REMARK    5  A    between atoms: C6_7  and  C7_9 
REMARK    6  A    between atoms: C7_9  and  C8_10 
REMARK    7  A    between atoms: C8_10  and  C10_12 
REMARK    8  A    between atoms: C12_14  and  O3_15 
ROOT
HETATM    1  C10 UNL     1       0.943  13.189  17.356  1.00  0.00     0.002 C 
HETATM    2  C11 UNL     1       0.054  13.992  16.387  1.00  0.00     0.038 C 
HETATM    3  C12 UNL     1      -1.381  13.779  16.847  1.00  0.00     0.132 C 
HETATM    4  C13 UNL     1      -1.401  12.371  17.524  1.00  0.00     0.021 C 
HETATM    5  C14 UNL     1      -2.647  12.212  18.420  1.00  0.00     0.024 C 
HETATM    6  C15 UNL     1      -1.346  11.210  16.500  1.00  0.00     0.010 C 
HETATM    7  C16 UNL     1      -0.422  10.218  16.445  1.00  0.00     0.007 C 
HETATM    8  C17 UNL     1       0.584  10.159  17.561  1.00  0.00     0.157 C 
HETATM    9  O4  UNL     1       1.512   9.354  17.546  1.00  0.00    -0.293 OA
HETATM   10  C18 UNL     1       0.415  11.069  18.748  1.00  0.00     0.094 C 
HETATM   11  C19 UNL     1      -0.051  12.477  18.360  1.00  0.00    -0.019 C 
HETATM   12  C20 UNL     1      -0.220  13.256  19.685  1.00  0.00     0.017 C 
HETATM   13  C21 UNL     1      -0.298   9.151  15.317  1.00  0.00    -0.007 C 
HETATM   14  C22 UNL     1       0.946   9.552  14.482  1.00  0.00     0.021 C 
HETATM   15  C23 UNL     1      -0.087   7.709  15.878  1.00  0.00     0.022 C 
HETATM   16  C24 UNL     1      -0.600   6.568  14.997  1.00  0.00     0.080 C 
HETATM   17  C25 UNL     1      -0.680   6.954  13.539  1.00  0.00     0.135 C 
HETATM   18  O5  UNL     1      -0.125   6.278  12.675  1.00  0.00    -0.297 OA
HETATM   19  C26 UNL     1      -1.555   8.167  13.200  1.00  0.00     0.018 C 
HETATM   20  C27 UNL     1      -1.049   8.845  11.913  1.00  0.00     0.023 C 
HETATM   21  C28 UNL     1      -2.969   7.620  12.905  1.00  0.00     0.023 C 
HETATM   22  C29 UNL     1      -1.604   9.112  14.445  1.00  0.00     0.021 C 
HETATM   23  C30 UNL     1      -2.076  10.528  14.134  1.00  0.00     0.090 C 
HETATM   24  C31 UNL     1      -2.431  11.143  15.459  1.00  0.00     0.157 C 
HETATM   25  O6  UNL     1      -3.589  11.475  15.697  1.00  0.00    -0.293 OA
ENDROOT
BRANCH   1  26
HETATM   26  C8  UNL     1       2.174  14.012  17.834  1.00  0.00    -0.007 C 
HETATM   27  C9  UNL     1       2.151  15.455  17.319  1.00  0.00     0.011 C 
BRANCH  26  28
HETATM   28  C7  UNL     1       3.552  13.367  17.590  1.00  0.00     0.083 C 
BRANCH  28  29
HETATM   29  C6  UNL     1       3.899  12.378  18.689  1.00  0.00     0.127 C 
HETATM   30  O2  UNL     1       4.082  11.191  18.421  1.00  0.00    -0.298 OA
BRANCH  29  31
HETATM   31  C5  UNL     1       4.047  12.936  20.099  1.00  0.00     0.082 C 
BRANCH  31  32
HETATM   32  C2  UNL     1       2.990  12.523  21.142  1.00  0.00    -0.005 C 
HETATM   33  C1  UNL     1       2.567  13.650  22.086  1.00  0.00     0.011 C 
BRANCH  32  34
HETATM   34  C3  UNL     1       3.330  11.227  21.893  1.00  0.00     0.074 C 
BRANCH  34  35
HETATM   35  C4  UNL     1       2.457  10.051  21.542  1.00  0.00     0.231 C 
HETATM   36  O1  UNL     1       2.772   9.238  20.678  1.00  0.00    -0.307 OA
ENDBRANCH  34  35
ENDBRANCH  32  34
ENDBRANCH  31  32
ENDBRANCH  29  31
ENDBRANCH  28  29
ENDBRANCH  26  28
ENDBRANCH   1  26
BRANCH   3  37
HETATM   37  O3  UNL     1      -2.265  13.941  15.758  1.00  0.00    -0.394 OA
HETATM   38  H20 UNL     1      -2.224  14.867  15.469  1.00  0.00     0.210 HD
ENDBRANCH   3  37
TORSDOF 8
ENDMDL
MODEL 7
REMARK minimizedAffinity -7.3007822
REMARK CNNscore 0.482132882
REMARK CNNaffinity 6.69641829
REMARK  8 active torsions:
REMARK  status: ('A' for Active; 'I' for Inactive)
REMARK    1  A    between atoms: C2_2  and  C3_3 
REMARK    2  A    between atoms: C2_2  and  C5_6 
REMARK    3  A    between atoms: C3_3  and  C4_4 
REMARK    4  A    between atoms: C5_6  and  C6_7 
REMARK    5  A    between atoms: C6_7  and  C7_9 
REMARK    6  A    between atoms: C7_9  and  C8_10 
REMARK    7  A    between atoms: C8_10  and  C10_12 
REMARK    8  A    between atoms: C12_14  and  O3_15 
ROOT
HETATM    1  C10 UNL     1     -11.065   8.541  15.019  1.00  0.00     0.002 C 
HETATM    2  C11 UNL     1     -10.955   8.421  13.487  1.00  0.00     0.038 C 
HETATM    3  C12 UNL     1     -11.598   9.674  12.912  1.00  0.00     0.132 C 
HETATM    4  C13 UNL     1     -12.677  10.109  13.954  1.00  0.00     0.021 C 
HETATM    5  C14 UNL     1     -13.088  11.581  13.736  1.00  0.00     0.024 C 
HETATM    6  C15 UNL     1     -13.937   9.209  13.927  1.00  0.00     0.010 C 
HETATM    7  C16 UNL     1     -14.459   8.509  14.966  1.00  0.00     0.007 C 
HETATM    8  C17 UNL     1     -13.829   8.719  16.316  1.00  0.00     0.157 C 
HETATM    9  O4  UNL     1     -14.173   8.061  17.294  1.00  0.00    -0.293 OA
HETATM   10  C18 UNL     1     -12.793   9.800  16.481  1.00  0.00     0.094 C 
HETATM   11  C19 UNL     1     -11.836   9.896  15.288  1.00  0.00    -0.019 C 
HETATM   12  C20 UNL     1     -10.882  11.074  15.595  1.00  0.00     0.017 C 
HETATM   13  C21 UNL     1     -15.635   7.492  14.881  1.00  0.00    -0.007 C 
HETATM   14  C22 UNL     1     -14.996   6.085  15.021  1.00  0.00     0.021 C 
HETATM   15  C23 UNL     1     -16.681   7.689  16.023  1.00  0.00     0.022 C 
HETATM   16  C24 UNL     1     -18.114   7.262  15.697  1.00  0.00     0.080 C 
HETATM   17  C25 UNL     1     -18.173   6.222  14.604  1.00  0.00     0.135 C 
HETATM   18  O5  UNL     1     -18.766   5.157  14.775  1.00  0.00    -0.297 OA
HETATM   19  C26 UNL     1     -17.537   6.603  13.262  1.00  0.00     0.018 C 
HETATM   20  C27 UNL     1     -17.062   5.339  12.520  1.00  0.00     0.023 C 
HETATM   21  C28 UNL     1     -18.657   7.241  12.411  1.00  0.00     0.023 C 
HETATM   22  C29 UNL     1     -16.409   7.654  13.524  1.00  0.00     0.021 C 
HETATM   23  C30 UNL     1     -15.427   7.814  12.368  1.00  0.00     0.090 C 
HETATM   24  C31 UNL     1     -14.692   9.098  12.629  1.00  0.00     0.157 C 
HETATM   25  O6  UNL     1     -14.800  10.042  11.852  1.00  0.00    -0.293 OA
ENDROOT
BRANCH   1  26
HETATM   26  C8  UNL     1      -9.729   8.178  15.728  1.00  0.00    -0.007 C 
HETATM   27  C9  UNL     1      -8.580   9.110  15.328  1.00  0.00     0.011 C 
BRANCH  26  28
HETATM   28  C7  UNL     1      -9.294   6.704  15.634  1.00  0.00     0.083 C 
BRANCH  28  29
HETATM   29  C6  UNL     1      -7.782   6.579  15.568  1.00  0.00     0.127 C 
HETATM   30  O2  UNL     1      -7.129   6.384  16.593  1.00  0.00    -0.298 OA
BRANCH  29  31
HETATM   31  C5  UNL     1      -7.142   6.663  14.188  1.00  0.00     0.082 C 
BRANCH  31  32
HETATM   32  C2  UNL     1      -7.407   5.502  13.209  1.00  0.00    -0.005 C 
HETATM   33  C1  UNL     1      -8.611   5.721  12.290  1.00  0.00     0.011 C 
BRANCH  32  34
HETATM   34  C3  UNL     1      -7.424   4.118  13.874  1.00  0.00     0.074 C 
BRANCH  34  35
HETATM   35  C4  UNL     1      -7.256   2.962  12.924  1.00  0.00     0.231 C 
HETATM   36  O1  UNL     1      -8.095   2.073  12.821  1.00  0.00    -0.307 OA
ENDBRANCH  34  35
ENDBRANCH  32  34
ENDBRANCH  31  32
ENDBRANCH  29  31
ENDBRANCH  28  29
ENDBRANCH  26  28
ENDBRANCH   1  26
BRANCH   3  37
HETATM   37  O3  UNL     1     -12.082   9.414  11.611  1.00  0.00    -0.394 OA
HETATM   38  H20 UNL     1     -11.322   9.230  11.036  1.00  0.00     0.210 HD
ENDBRANCH   3  37
TORSDOF 8
ENDMDL
MODEL 8
REMARK minimizedAffinity -6.06788111
REMARK CNNscore 0.430350482
REMARK CNNaffinity 6.03644371
REMARK  8 active torsions:
REMARK  status: ('A' for Active; 'I' for Inactive)
REMARK    1  A    between atoms: C2_2  and  C3_3 
REMARK    2  A    between atoms: C2_2  and  C5_6 
REMARK    3  A    between atoms: C3_3  and  C4_4 
REMARK    4  A    between atoms: C5_6  and  C6_7 
REMARK    5  A    between atoms: C6_7  and  C7_9 
REMARK    6  A    between atoms: C7_9  and  C8_10 
REMARK    7  A    between atoms: C8_10  and  C10_12 
REMARK    8  A    between atoms: C12_14  and  O3_15 
ROOT
HETATM    1  C10 UNL     1     -18.931   1.558  13.848  1.00  0.00     0.002 C 
HETATM    2  C11 UNL     1     -18.822   1.402  15.377  1.00  0.00     0.038 C 
HETATM    3  C12 UNL     1     -17.515   2.069  15.783  1.00  0.00     0.132 C 
HETATM    4  C13 UNL     1     -16.572   1.934  14.546  1.00  0.00     0.021 C 
HETATM    5  C14 UNL     1     -15.402   2.935  14.638  1.00  0.00     0.024 C 
HETATM    6  C15 UNL     1     -16.016   0.499  14.367  1.00  0.00     0.010 C 
HETATM    7  C16 UNL     1     -16.144  -0.293  13.272  1.00  0.00     0.007 C 
HETATM    8  C17 UNL     1     -16.782   0.322  12.057  1.00  0.00     0.157 C 
HETATM    9  O4  UNL     1     -17.024  -0.344  11.053  1.00  0.00    -0.293 OA
HETATM   10  C18 UNL     1     -17.079   1.798  12.053  1.00  0.00     0.094 C 
HETATM   11  C19 UNL     1     -17.610   2.304  13.398  1.00  0.00    -0.019 C 
HETATM   12  C20 UNL     1     -17.813   3.828  13.236  1.00  0.00     0.017 C 
HETATM   13  C21 UNL     1     -15.710  -1.785  13.171  1.00  0.00    -0.007 C 
HETATM   14  C22 UNL     1     -17.020  -2.615  13.196  1.00  0.00     0.021 C 
HETATM   15  C23 UNL     1     -14.939  -2.095  11.849  1.00  0.00     0.022 C 
HETATM   16  C24 UNL     1     -13.933  -3.247  11.918  1.00  0.00     0.080 C 
HETATM   17  C25 UNL     1     -14.258  -4.234  13.014  1.00  0.00     0.135 C 
HETATM   18  O5  UNL     1     -14.374  -5.434  12.769  1.00  0.00    -0.297 OA
HETATM   19  C26 UNL     1     -14.344  -3.672  14.437  1.00  0.00     0.018 C 
HETATM   20  C27 UNL     1     -15.290  -4.534  15.294  1.00  0.00     0.023 C 
HETATM   21  C28 UNL     1     -12.930  -3.798  15.045  1.00  0.00     0.023 C 
HETATM   22  C29 UNL     1     -14.750  -2.164  14.355  1.00  0.00     0.021 C 
HETATM   23  C30 UNL     1     -15.274  -1.588  15.667  1.00  0.00     0.090 C 
HETATM   24  C31 UNL     1     -15.230  -0.095  15.506  1.00  0.00     0.157 C 
HETATM   25  O6  UNL     1     -14.497   0.584  16.220  1.00  0.00    -0.293 OA
ENDROOT
BRANCH   1  26
HETATM   26  C8  UNL     1     -20.350   2.021  13.410  1.00  0.00    -0.007 C 
HETATM   27  C9  UNL     1     -21.291   2.235  14.600  1.00  0.00     0.011 C 
BRANCH  26  28
HETATM   28  C7  UNL     1     -21.031   1.171  12.322  1.00  0.00     0.083 C 
BRANCH  28  29
HETATM   29  C6  UNL     1     -20.607   1.613  10.932  1.00  0.00     0.127 C 
HETATM   30  O2  UNL     1     -19.939   0.864  10.219  1.00  0.00    -0.298 OA
BRANCH  29  31
HETATM   31  C5  UNL     1     -21.082   2.984  10.467  1.00  0.00     0.082 C 
BRANCH  31  32
HETATM   32  C2  UNL     1     -22.148   3.027   9.355  1.00  0.00    -0.005 C 
HETATM   33  C1  UNL     1     -23.261   1.990   9.513  1.00  0.00     0.011 C 
BRANCH  32  34
HETATM   34  C3  UNL     1     -21.565   3.047   7.934  1.00  0.00     0.074 C 
BRANCH  34  35
HETATM   35  C4  UNL     1     -21.654   1.735   7.201  1.00  0.00     0.231 C 
HETATM   36  O1  UNL     1     -20.959   1.486   6.220  1.00  0.00    -0.307 OA
ENDBRANCH  34  35
ENDBRANCH  32  34
ENDBRANCH  31  32
ENDBRANCH  29  31
ENDBRANCH  28  29
ENDBRANCH  26  28
ENDBRANCH   1  26
BRANCH   3  37
HETATM   37  O3  UNL     1     -17.033   1.495  16.979  1.00  0.00    -0.394 OA
HETATM   38  H20 UNL     1     -17.660   1.705  17.691  1.00  0.00     0.210 HD
ENDBRANCH   3  37
TORSDOF 8
ENDMDL
MODEL 9
REMARK minimizedAffinity -6.0628233
REMARK CNNscore 0.411656082
REMARK CNNaffinity 6.17897558
REMARK  8 active torsions:
REMARK  status: ('A' for Active; 'I' for Inactive)
REMARK    1  A    between atoms: C2_2  and  C3_3 
REMARK    2  A    between atoms: C2_2  and  C5_6 
REMARK    3  A    between atoms: C3_3  and  C4_4 
REMARK    4  A    between atoms: C5_6  and  C6_7 
REMARK    5  A    between atoms: C6_7  and  C7_9 
REMARK    6  A    between atoms: C7_9  and  C8_10 
REMARK    7  A    between atoms: C8_10  and  C10_12 
REMARK    8  A    between atoms: C12_14  and  O3_15 
ROOT
HETATM    1  C10 UNL     1       2.654  14.222  -2.726  1.00  0.00     0.002 C 
HETATM    2  C11 UNL     1       1.410  13.329  -2.898  1.00  0.00     0.038 C 
HETATM    3  C12 UNL     1       0.255  14.264  -3.230  1.00  0.00     0.132 C 
HETATM    4  C13 UNL     1       0.606  15.624  -2.548  1.00  0.00     0.021 C 
HETATM    5  C14 UNL     1      -0.224  16.773  -3.158  1.00  0.00     0.024 C 
HETATM    6  C15 UNL     1       0.404  15.597  -1.012  1.00  0.00     0.010 C 
HETATM    7  C16 UNL     1       1.338  15.867  -0.064  1.00  0.00     0.007 C 
HETATM    8  C17 UNL     1       2.673  16.364  -0.544  1.00  0.00     0.157 C 
HETATM    9  O4  UNL     1       3.608  16.545   0.233  1.00  0.00    -0.293 OA
HETATM   10  C18 UNL     1       2.850  16.701  -2.001  1.00  0.00     0.094 C 
HETATM   11  C19 UNL     1       2.148  15.707  -2.932  1.00  0.00    -0.019 C 
HETATM   12  C20 UNL     1       2.384  16.222  -4.371  1.00  0.00     0.017 C 
HETATM   13  C21 UNL     1       1.156  15.685   1.471  1.00  0.00    -0.007 C 
HETATM   14  C22 UNL     1       1.983  14.430   1.855  1.00  0.00     0.021 C 
HETATM   15  C23 UNL     1       1.684  16.907   2.286  1.00  0.00     0.022 C 
HETATM   16  C24 UNL     1       1.002  17.157   3.633  1.00  0.00     0.080 C 
HETATM   17  C25 UNL     1       0.378  15.907   4.206  1.00  0.00     0.135 C 
HETATM   18  O5  UNL     1       0.654  15.527   5.343  1.00  0.00    -0.297 OA
HETATM   19  C26 UNL     1      -0.669  15.204   3.335  1.00  0.00     0.018 C 
HETATM   20  C27 UNL     1      -0.714  13.700   3.665  1.00  0.00     0.023 C 
HETATM   21  C28 UNL     1      -2.038  15.801   3.725  1.00  0.00     0.023 C 
HETATM   22  C29 UNL     1      -0.364  15.521   1.834  1.00  0.00     0.021 C 
HETATM   23  C30 UNL     1      -1.046  14.578   0.847  1.00  0.00     0.090 C 
HETATM   24  C31 UNL     1      -0.967  15.257  -0.491  1.00  0.00     0.157 C 
HETATM   25  O6  UNL     1      -1.992  15.604  -1.071  1.00  0.00    -0.293 OA
ENDROOT
BRANCH   1  26
HETATM   26  C8  UNL     1       3.892  13.644  -3.470  1.00  0.00    -0.007 C 
HETATM   27  C9  UNL     1       4.443  14.607  -4.527  1.00  0.00     0.011 C 
BRANCH  26  28
HETATM   28  C7  UNL     1       3.728  12.229  -4.054  1.00  0.00     0.083 C 
BRANCH  28  29
HETATM   29  C6  UNL     1       5.077  11.587  -4.330  1.00  0.00     0.127 C 
HETATM   30  O2  UNL     1       5.915  11.493  -3.433  1.00  0.00    -0.298 OA
BRANCH  29  31
HETATM   31  C5  UNL     1       5.308  11.041  -5.733  1.00  0.00     0.082 C 
BRANCH  31  32
HETATM   32  C2  UNL     1       6.635  11.405  -6.427  1.00  0.00    -0.005 C 
HETATM   33  C1  UNL     1       6.622  12.765  -7.127  1.00  0.00     0.011 C 
BRANCH  32  34
HETATM   34  C3  UNL     1       7.194  10.291  -7.324  1.00  0.00     0.074 C 
BRANCH  34  35
HETATM   35  C4  UNL     1       8.619   9.902  -7.028  1.00  0.00     0.231 C 
HETATM   36  O1  UNL     1       9.573  10.561  -7.430  1.00  0.00    -0.307 OA
ENDBRANCH  34  35
ENDBRANCH  32  34
ENDBRANCH  31  32
ENDBRANCH  29  31
ENDBRANCH  28  29
ENDBRANCH  26  28
ENDBRANCH   1  26
BRANCH   3  37
HETATM   37  O3  UNL     1      -0.967  13.681  -2.828  1.00  0.00    -0.394 OA
HETATM   38  H20 UNL     1      -1.116  12.888  -3.369  1.00  0.00     0.210 HD
ENDBRANCH   3  37
TORSDOF 8
ENDMDL
