MODEL 1
REMARK minimizedAffinity -7.30047846
REMARK CNNscore 0.700527728
REMARK CNNaffinity 6.46964407
REMARK  15 active torsions:
REMARK  status: ('A' for Active; 'I' for Inactive)
REMARK    1  A    between atoms: C19_20  and  O2_21 
REMARK    2  A    between atoms: C19_20  and  C20_22 
REMARK    3  A    between atoms: C20_22  and  C21_24 
REMARK    4  A    between atoms: C21_24  and  O4_25 
REMARK    5  A    between atoms: O4_25  and  C22_26 
REMARK    6  A    between atoms: C22_26  and  C23_28 
REMARK    7  A    between atoms: C23_28  and  C24_29 
REMARK    8  A    between atoms: C24_29  and  C25_30 
REMARK       I    between atoms: C25_30  and  N1_32 
REMARK    9  A    between atoms: N1_32  and  C26_33 
REMARK   10  A    between atoms: C26_33  and  C27_34 
REMARK   11  A    between atoms: C27_34  and  C28_35 
REMARK   12  A    between atoms: C28_35  and  C29_36 
REMARK   13  A    between atoms: C29_36  and  C30_37 
REMARK   14  A    between atoms: C30_37  and  C31_38 
REMARK   15  A    between atoms: C31_38  and  O8_40 
ROOT
HETATM    1  C1  UNL     1       1.814   6.554   8.336  1.00  0.00     0.020 C 
HETATM    2  C2  UNL     1       1.793   7.075   9.801  1.00  0.00    -0.016 C 
HETATM    3  C3  UNL     1       2.545   8.438   9.824  1.00  0.00     0.022 C 
HETATM    4  C4  UNL     1       4.048   8.334   9.593  1.00  0.00     0.084 C 
HETATM    5  C5  UNL     1       4.661   7.376  10.578  1.00  0.00     0.149 C 
HETATM    6  O1  UNL     1       5.821   7.487  10.966  1.00  0.00    -0.293 OA
HETATM    7  C6  UNL     1       3.853   6.216  11.015  1.00  0.00     0.053 C 
HETATM    8  C7  UNL     1       2.571   6.048  10.635  1.00  0.00    -0.068 C 
HETATM    9  C8  UNL     1       1.890   4.763  11.037  1.00  0.00     0.035 C 
HETATM   10  C9  UNL     1       0.372   4.790  10.939  1.00  0.00     0.010 C 
HETATM   11  C10 UNL     1      -0.227   6.156  11.265  1.00  0.00    -0.004 C 
HETATM   12  C11 UNL     1       0.258   7.224  10.238  1.00  0.00     0.002 C 
HETATM   13  C12 UNL     1      -0.249   8.640  10.635  1.00  0.00     0.007 C 
HETATM   14  C13 UNL     1      -0.099   9.024  12.117  1.00  0.00     0.013 C 
HETATM   15  C14 UNL     1      -0.676   7.952  13.060  1.00  0.00    -0.002 C 
HETATM   16  C15 UNL     1      -2.218   7.880  12.902  1.00  0.00     0.019 C 
HETATM   17  C16 UNL     1       0.044   6.627  12.702  1.00  0.00     0.002 C 
HETATM   18  C17 UNL     1      -0.338   5.691  13.840  1.00  0.00     0.009 C 
HETATM   19  C18 UNL     1      -0.396   6.601  15.081  1.00  0.00     0.047 C 
HETATM   20  C19 UNL     1      -0.298   8.068  14.572  1.00  0.00     0.128 C 
ENDROOT
BRANCH  20  21
HETATM   21  O2  UNL     1       1.063   8.488  14.701  1.00  0.00    -0.381 OA
HETATM   22  H27 UNL     1       1.329   8.377  15.636  1.00  0.00     0.211 HD
ENDBRANCH  20  21
BRANCH  20  23
HETATM   23  C20 UNL     1      -1.179   9.033  15.398  1.00  0.00     0.185 C 
HETATM   24  O3  UNL     1      -2.074   8.628  16.145  1.00  0.00    -0.292 OA
BRANCH  23  25
HETATM   25  C21 UNL     1      -0.885  10.528  15.254  1.00  0.00     0.260 C 
BRANCH  25  26
HETATM   26  O4  UNL     1      -0.700  11.171  16.516  1.00  0.00    -0.314 OA
BRANCH  26  27
HETATM   27  C22 UNL     1       0.605  11.372  16.850  1.00  0.00     0.259 C 
HETATM   28  O5  UNL     1       1.358  12.162  16.297  1.00  0.00    -0.265 OA
BRANCH  27  29
HETATM   29  C23 UNL     1       1.011  10.449  17.963  1.00  0.00     0.120 C 
BRANCH  29  30
HETATM   30  C24 UNL     1       1.090  11.225  19.267  1.00  0.00     0.112 C 
BRANCH  30  31
HETATM   31  C25 UNL     1       2.028  10.559  20.249  1.00  0.00     0.217 C 
HETATM   32  O6  UNL     1       2.700   9.570  19.979  1.00  0.00    -0.274 OA
HETATM   33  N1  UNL     1       2.046  11.181  21.482  1.00  0.00    -0.361 N 
HETATM   34  H34 UNL     1       1.682  12.123  21.534  1.00  0.00     0.162 HD
BRANCH  33  35
HETATM   35  C26 UNL     1       2.974  10.749  22.508  1.00  0.00     0.122 C 
BRANCH  35  36
HETATM   36  C27 UNL     1       3.979  11.847  22.841  1.00  0.00     0.020 C 
BRANCH  36  37
HETATM   37  C28 UNL     1       5.433  11.441  22.581  1.00  0.00     0.002 C 
BRANCH  37  38
HETATM   38  C29 UNL     1       6.366  12.565  22.121  1.00  0.00     0.010 C 
BRANCH  38  39
HETATM   39  C30 UNL     1       7.317  13.050  23.214  1.00  0.00     0.110 C 
BRANCH  39  40
HETATM   40  C31 UNL     1       8.698  12.477  23.044  1.00  0.00     0.139 C 
HETATM   41  O7  UNL     1       9.709  13.060  22.697  1.00  0.00    -0.650 OA
BRANCH  40  42
HETATM   42  O8  UNL     1       8.732  11.162  23.336  1.00  0.00    -0.776 OA
HETATM   43  H45 UNL     1       9.671  10.914  23.193  1.00  0.00     0.167 HD
ENDBRANCH  40  42
ENDBRANCH  39  40
ENDBRANCH  38  39
ENDBRANCH  37  38
ENDBRANCH  36  37
ENDBRANCH  35  36
ENDBRANCH  33  35
ENDBRANCH  30  31
ENDBRANCH  29  30
ENDBRANCH  27  29
ENDBRANCH  26  27
ENDBRANCH  25  26
ENDBRANCH  23  25
ENDBRANCH  20  23
TORSDOF 15
ENDMDL
MODEL 2
REMARK minimizedAffinity -6.37243223
REMARK CNNscore 0.544282556
REMARK CNNaffinity 6.67785835
REMARK  15 active torsions:
REMARK  status: ('A' for Active; 'I' for Inactive)
REMARK    1  A    between atoms: C19_20  and  O2_21 
REMARK    2  A    between atoms: C19_20  and  C20_22 
REMARK    3  A    between atoms: C20_22  and  C21_24 
REMARK    4  A    between atoms: C21_24  and  O4_25 
REMARK    5  A    between atoms: O4_25  and  C22_26 
REMARK    6  A    between atoms: C22_26  and  C23_28 
REMARK    7  A    between atoms: C23_28  and  C24_29 
REMARK    8  A    between atoms: C24_29  and  C25_30 
REMARK       I    between atoms: C25_30  and  N1_32 
REMARK    9  A    between atoms: N1_32  and  C26_33 
REMARK   10  A    between atoms: C26_33  and  C27_34 
REMARK   11  A    between atoms: C27_34  and  C28_35 
REMARK   12  A    between atoms: C28_35  and  C29_36 
REMARK   13  A    between atoms: C29_36  and  C30_37 
REMARK   14  A    between atoms: C30_37  and  C31_38 
REMARK   15  A    between atoms: C31_38  and  O8_40 
ROOT
HETATM    1  C1  UNL     1       1.850   6.724   8.379  1.00  0.00     0.020 C 
HETATM    2  C2  UNL     1       1.838   7.138   9.878  1.00  0.00    -0.016 C 
HETATM    3  C3  UNL     1       2.602   8.488   9.998  1.00  0.00     0.022 C 
HETATM    4  C4  UNL     1       4.103   8.388   9.755  1.00  0.00     0.084 C 
HETATM    5  C5  UNL     1       4.711   7.356  10.665  1.00  0.00     0.149 C 
HETATM    6  O1  UNL     1       5.873   7.428  11.056  1.00  0.00    -0.293 OA
HETATM    7  C6  UNL     1       3.893   6.174  11.019  1.00  0.00     0.053 C 
HETATM    8  C7  UNL     1       2.610   6.045  10.632  1.00  0.00    -0.068 C 
HETATM    9  C8  UNL     1       1.918   4.740  10.941  1.00  0.00     0.035 C 
HETATM   10  C9  UNL     1       0.400   4.787  10.851  1.00  0.00     0.010 C 
HETATM   11  C10 UNL     1      -0.186   6.131  11.278  1.00  0.00    -0.004 C 
HETATM   12  C11 UNL     1       0.306   7.267  10.330  1.00  0.00     0.002 C 
HETATM   13  C12 UNL     1      -0.188   8.655  10.831  1.00  0.00     0.007 C 
HETATM   14  C13 UNL     1      -0.030   8.928  12.338  1.00  0.00     0.013 C 
HETATM   15  C14 UNL     1      -0.614   7.795  13.201  1.00  0.00    -0.002 C 
HETATM   16  C15 UNL     1      -2.157   7.747  13.044  1.00  0.00     0.019 C 
HETATM   17  C16 UNL     1       0.093   6.493  12.744  1.00  0.00     0.002 C 
HETATM   18  C17 UNL     1      -0.294   5.480  13.813  1.00  0.00     0.009 C 
HETATM   19  C18 UNL     1      -0.340   6.296  15.117  1.00  0.00     0.047 C 
HETATM   20  C19 UNL     1      -0.231   7.796  14.717  1.00  0.00     0.128 C 
ENDROOT
BRANCH  20  21
HETATM   21  O2  UNL     1       1.134   8.194  14.871  1.00  0.00    -0.381 OA
HETATM   22  H27 UNL     1       1.403   8.012  15.795  1.00  0.00     0.211 HD
ENDBRANCH  20  21
BRANCH  20  23
HETATM   23  C20 UNL     1      -1.100   8.706  15.614  1.00  0.00     0.185 C 
HETATM   24  O3  UNL     1      -2.075   8.274  16.236  1.00  0.00    -0.292 OA
BRANCH  23  25
HETATM   25  C21 UNL     1      -0.693  10.178  15.704  1.00  0.00     0.260 C 
BRANCH  25  26
HETATM   26  O4  UNL     1      -1.781  11.023  16.078  1.00  0.00    -0.314 OA
BRANCH  26  27
HETATM   27  C22 UNL     1      -2.317  11.729  15.043  1.00  0.00     0.259 C 
HETATM   28  O5  UNL     1      -1.778  11.900  13.957  1.00  0.00    -0.265 OA
BRANCH  27  29
HETATM   29  C23 UNL     1      -3.642  12.314  15.436  1.00  0.00     0.120 C 
BRANCH  29  30
HETATM   30  C24 UNL     1      -3.435  13.701  16.020  1.00  0.00     0.112 C 
BRANCH  30  31
HETATM   31  C25 UNL     1      -3.062  13.634  17.485  1.00  0.00     0.217 C 
HETATM   32  O6  UNL     1      -3.879  13.471  18.384  1.00  0.00    -0.274 OA
HETATM   33  N1  UNL     1      -1.706  13.777  17.702  1.00  0.00    -0.361 N 
HETATM   34  H34 UNL     1      -1.090  13.637  16.912  1.00  0.00     0.162 HD
BRANCH  33  35
HETATM   35  C26 UNL     1      -1.156  13.623  19.034  1.00  0.00     0.122 C 
BRANCH  35  36
HETATM   36  C27 UNL     1      -0.537  12.240  19.219  1.00  0.00     0.020 C 
BRANCH  36  37
HETATM   37  C28 UNL     1       0.994  12.258  19.248  1.00  0.00     0.002 C 
BRANCH  37  38
HETATM   38  C29 UNL     1       1.672  10.908  19.498  1.00  0.00     0.010 C 
BRANCH  38  39
HETATM   39  C30 UNL     1       1.527  10.412  20.936  1.00  0.00     0.110 C 
BRANCH  39  40
HETATM   40  C31 UNL     1       2.675   9.526  21.336  1.00  0.00     0.139 C 
HETATM   41  O7  UNL     1       3.865   9.730  21.174  1.00  0.00    -0.650 OA
BRANCH  40  42
HETATM   42  O8  UNL     1       2.250   8.401  21.944  1.00  0.00    -0.776 OA
HETATM   43  H45 UNL     1       3.079   7.920  22.155  1.00  0.00     0.167 HD
ENDBRANCH  40  42
ENDBRANCH  39  40
ENDBRANCH  38  39
ENDBRANCH  37  38
ENDBRANCH  36  37
ENDBRANCH  35  36
ENDBRANCH  33  35
ENDBRANCH  30  31
ENDBRANCH  29  30
ENDBRANCH  27  29
ENDBRANCH  26  27
ENDBRANCH  25  26
ENDBRANCH  23  25
ENDBRANCH  20  23
TORSDOF 15
ENDMDL
MODEL 3
REMARK minimizedAffinity -7.53444338
REMARK CNNscore 0.532271028
REMARK CNNaffinity 7.00715113
REMARK  15 active torsions:
REMARK  status: ('A' for Active; 'I' for Inactive)
REMARK    1  A    between atoms: C19_20  and  O2_21 
REMARK    2  A    between atoms: C19_20  and  C20_22 
REMARK    3  A    between atoms: C20_22  and  C21_24 
REMARK    4  A    between atoms: C21_24  and  O4_25 
REMARK    5  A    between atoms: O4_25  and  C22_26 
REMARK    6  A    between atoms: C22_26  and  C23_28 
REMARK    7  A    between atoms: C23_28  and  C24_29 
REMARK    8  A    between atoms: C24_29  and  C25_30 
REMARK       I    between atoms: C25_30  and  N1_32 
REMARK    9  A    between atoms: N1_32  and  C26_33 
REMARK   10  A    between atoms: C26_33  and  C27_34 
REMARK   11  A    between atoms: C27_34  and  C28_35 
REMARK   12  A    between atoms: C28_35  and  C29_36 
REMARK   13  A    between atoms: C29_36  and  C30_37 
REMARK   14  A    between atoms: C30_37  and  C31_38 
REMARK   15  A    between atoms: C31_38  and  O8_40 
ROOT
HETATM    1  C1  UNL     1       0.609  13.336  18.255  1.00  0.00     0.020 C 
HETATM    2  C2  UNL     1       0.326  11.847  17.909  1.00  0.00    -0.016 C 
HETATM    3  C3  UNL     1      -0.178  11.152  19.207  1.00  0.00     0.022 C 
HETATM    4  C4  UNL     1       0.885  10.983  20.286  1.00  0.00     0.084 C 
HETATM    5  C5  UNL     1       2.081  10.260  19.731  1.00  0.00     0.149 C 
HETATM    6  O1  UNL     1       2.805   9.555  20.429  1.00  0.00    -0.293 OA
HETATM    7  C6  UNL     1       2.434  10.488  18.312  1.00  0.00     0.053 C 
HETATM    8  C7  UNL     1       1.672  11.238  17.493  1.00  0.00    -0.068 C 
HETATM    9  C8  UNL     1       2.200  11.506  16.104  1.00  0.00     0.035 C 
HETATM   10  C9  UNL     1       1.158  12.001  15.112  1.00  0.00     0.010 C 
HETATM   11  C10 UNL     1      -0.227  11.403  15.346  1.00  0.00    -0.004 C 
HETATM   12  C11 UNL     1      -0.774  11.824  16.743  1.00  0.00     0.002 C 
HETATM   13  C12 UNL     1      -2.129  11.119  17.040  1.00  0.00     0.007 C 
HETATM   14  C13 UNL     1      -2.195   9.615  16.724  1.00  0.00     0.013 C 
HETATM   15  C14 UNL     1      -1.713   9.295  15.297  1.00  0.00    -0.002 C 
HETATM   16  C15 UNL     1      -2.702   9.884  14.257  1.00  0.00     0.019 C 
HETATM   17  C16 UNL     1      -0.280   9.876  15.184  1.00  0.00     0.002 C 
HETATM   18  C17 UNL     1       0.248   9.280  13.887  1.00  0.00     0.009 C 
HETATM   19  C18 UNL     1      -0.365   7.869  13.836  1.00  0.00     0.047 C 
HETATM   20  C19 UNL     1      -1.426   7.794  14.971  1.00  0.00     0.128 C 
ENDROOT
BRANCH  20  21
HETATM   21  O2  UNL     1      -0.817   7.161  16.100  1.00  0.00    -0.381 OA
HETATM   22  H27 UNL     1      -0.482   6.286  15.816  1.00  0.00     0.211 HD
ENDBRANCH  20  21
BRANCH  20  23
HETATM   23  C20 UNL     1      -2.662   6.962  14.563  1.00  0.00     0.185 C 
HETATM   24  O3  UNL     1      -2.900   6.675  13.386  1.00  0.00    -0.292 OA
BRANCH  23  25
HETATM   25  C21 UNL     1      -3.584   6.497  15.692  1.00  0.00     0.260 C 
BRANCH  25  26
HETATM   26  O4  UNL     1      -4.896   6.176  15.228  1.00  0.00    -0.314 OA
BRANCH  26  27
HETATM   27  C22 UNL     1      -5.833   7.122  15.517  1.00  0.00     0.259 C 
HETATM   28  O5  UNL     1      -5.644   8.331  15.484  1.00  0.00    -0.265 OA
BRANCH  27  29
HETATM   29  C23 UNL     1      -7.122   6.475  15.934  1.00  0.00     0.120 C 
BRANCH  29  30
HETATM   30  C24 UNL     1      -8.251   6.964  15.041  1.00  0.00     0.112 C 
BRANCH  30  31
HETATM   31  C25 UNL     1      -8.511   6.002  13.903  1.00  0.00     0.217 C 
HETATM   32  O6  UNL     1      -9.280   6.239  12.979  1.00  0.00    -0.274 OA
HETATM   33  N1  UNL     1      -7.792   4.828  14.016  1.00  0.00    -0.361 N 
HETATM   34  H34 UNL     1      -6.998   4.826  14.642  1.00  0.00     0.162 HD
BRANCH  33  35
HETATM   35  C26 UNL     1      -7.829   3.840  12.956  1.00  0.00     0.122 C 
BRANCH  35  36
HETATM   36  C27 UNL     1      -6.503   3.092  12.852  1.00  0.00     0.020 C 
BRANCH  36  37
HETATM   37  C28 UNL     1      -5.483   3.785  11.945  1.00  0.00     0.002 C 
BRANCH  37  38
HETATM   38  C29 UNL     1      -4.408   2.879  11.337  1.00  0.00     0.010 C 
BRANCH  38  39
HETATM   39  C30 UNL     1      -3.035   3.044  11.986  1.00  0.00     0.110 C 
BRANCH  39  40
HETATM   40  C31 UNL     1      -1.933   3.051  10.961  1.00  0.00     0.139 C 
HETATM   41  O7  UNL     1      -0.744   3.238  11.148  1.00  0.00    -0.650 OA
BRANCH  40  42
HETATM   42  O8  UNL     1      -2.402   2.807   9.722  1.00  0.00    -0.776 OA
HETATM   43  H45 UNL     1      -1.600   2.833   9.158  1.00  0.00     0.167 HD
ENDBRANCH  40  42
ENDBRANCH  39  40
ENDBRANCH  38  39
ENDBRANCH  37  38
ENDBRANCH  36  37
ENDBRANCH  35  36
ENDBRANCH  33  35
ENDBRANCH  30  31
ENDBRANCH  29  30
ENDBRANCH  27  29
ENDBRANCH  26  27
ENDBRANCH  25  26
ENDBRANCH  23  25
ENDBRANCH  20  23
TORSDOF 15
ENDMDL
MODEL 4
REMARK minimizedAffinity -6.96523285
REMARK CNNscore 0.495186269
REMARK CNNaffinity 7.14971685
REMARK  15 active torsions:
REMARK  status: ('A' for Active; 'I' for Inactive)
REMARK    1  A    between atoms: C19_20  and  O2_21 
REMARK    2  A    between atoms: C19_20  and  C20_22 
REMARK    3  A    between atoms: C20_22  and  C21_24 
REMARK    4  A    between atoms: C21_24  and  O4_25 
REMARK    5  A    between atoms: O4_25  and  C22_26 
REMARK    6  A    between atoms: C22_26  and  C23_28 
REMARK    7  A    between atoms: C23_28  and  C24_29 
REMARK    8  A    between atoms: C24_29  and  C25_30 
REMARK       I    between atoms: C25_30  and  N1_32 
REMARK    9  A    between atoms: N1_32  and  C26_33 
REMARK   10  A    between atoms: C26_33  and  C27_34 
REMARK   11  A    between atoms: C27_34  and  C28_35 
REMARK   12  A    between atoms: C28_35  and  C29_36 
REMARK   13  A    between atoms: C29_36  and  C30_37 
REMARK   14  A    between atoms: C30_37  and  C31_38 
REMARK   15  A    between atoms: C31_38  and  O8_40 
ROOT
HETATM    1  C1  UNL     1      -9.129   6.782  14.463  1.00  0.00     0.020 C 
HETATM    2  C2  UNL     1      -7.710   6.318  14.029  1.00  0.00    -0.016 C 
HETATM    3  C3  UNL     1      -7.768   5.989  12.509  1.00  0.00     0.022 C 
HETATM    4  C4  UNL     1      -8.578   4.745  12.164  1.00  0.00     0.084 C 
HETATM    5  C5  UNL     1      -8.072   3.561  12.941  1.00  0.00     0.149 C 
HETATM    6  O1  UNL     1      -8.153   2.412  12.514  1.00  0.00    -0.293 OA
HETATM    7  C6  UNL     1      -7.542   3.798  14.302  1.00  0.00     0.053 C 
HETATM    8  C7  UNL     1      -7.415   5.035  14.819  1.00  0.00    -0.068 C 
HETATM    9  C8  UNL     1      -6.986   5.145  16.262  1.00  0.00     0.035 C 
HETATM   10  C9  UNL     1      -6.480   6.520  16.672  1.00  0.00     0.010 C 
HETATM   11  C10 UNL     1      -5.739   7.247  15.553  1.00  0.00    -0.004 C 
HETATM   12  C11 UNL     1      -6.693   7.515  14.350  1.00  0.00     0.002 C 
HETATM   13  C12 UNL     1      -5.914   8.144  13.159  1.00  0.00     0.007 C 
HETATM   14  C13 UNL     1      -4.566   7.490  12.807  1.00  0.00     0.013 C 
HETATM   15  C14 UNL     1      -3.654   7.336  14.038  1.00  0.00    -0.002 C 
HETATM   16  C15 UNL     1      -3.209   8.732  14.548  1.00  0.00     0.019 C 
HETATM   17  C16 UNL     1      -4.465   6.528  15.082  1.00  0.00     0.002 C 
HETATM   18  C17 UNL     1      -3.429   6.155  16.133  1.00  0.00     0.009 C 
HETATM   19  C18 UNL     1      -2.139   5.913  15.330  1.00  0.00     0.047 C 
HETATM   20  C19 UNL     1      -2.409   6.404  13.879  1.00  0.00     0.128 C 
ENDROOT
BRANCH  20  21
HETATM   21  O2  UNL     1      -2.756   5.264  13.087  1.00  0.00    -0.381 OA
HETATM   22  H27 UNL     1      -2.028   4.613  13.153  1.00  0.00     0.211 HD
ENDBRANCH  20  21
BRANCH  20  23
HETATM   23  C20 UNL     1      -1.166   7.068  13.244  1.00  0.00     0.185 C 
HETATM   24  O3  UNL     1      -1.108   8.283  13.034  1.00  0.00    -0.292 OA
BRANCH  23  25
HETATM   25  C21 UNL     1       0.004   6.148  12.892  1.00  0.00     0.260 C 
BRANCH  25  26
HETATM   26  O4  UNL     1       0.287   6.138  11.492  1.00  0.00    -0.314 OA
BRANCH  26  27
HETATM   27  C22 UNL     1       1.467   5.538  11.169  1.00  0.00     0.259 C 
HETATM   28  O5  UNL     1       1.573   4.463  10.593  1.00  0.00    -0.265 OA
BRANCH  27  29
HETATM   29  C23 UNL     1       2.625   6.354  11.665  1.00  0.00     0.120 C 
BRANCH  29  30
HETATM   30  C24 UNL     1       2.363   7.827  11.397  1.00  0.00     0.112 C 
BRANCH  30  31
HETATM   31  C25 UNL     1       3.028   8.703  12.435  1.00  0.00     0.217 C 
HETATM   32  O6  UNL     1       2.782   9.897  12.571  1.00  0.00    -0.274 OA
HETATM   33  N1  UNL     1       3.943   8.020  13.211  1.00  0.00    -0.361 N 
HETATM   34  H34 UNL     1       3.888   7.010  13.215  1.00  0.00     0.162 HD
BRANCH  33  35
HETATM   35  C26 UNL     1       4.590   8.674  14.330  1.00  0.00     0.122 C 
BRANCH  35  36
HETATM   36  C27 UNL     1       5.608   7.752  14.996  1.00  0.00     0.020 C 
BRANCH  36  37
HETATM   37  C28 UNL     1       6.701   7.262  14.041  1.00  0.00     0.002 C 
BRANCH  37  38
HETATM   38  C29 UNL     1       8.031   8.018  14.109  1.00  0.00     0.010 C 
BRANCH  38  39
HETATM   39  C30 UNL     1       8.109   9.010  15.269  1.00  0.00     0.110 C 
BRANCH  39  40
HETATM   40  C31 UNL     1       9.159   8.612  16.270  1.00  0.00     0.139 C 
HETATM   41  O7  UNL     1       9.146   7.653  17.021  1.00  0.00    -0.650 OA
BRANCH  40  42
HETATM   42  O8  UNL     1      10.202   9.465  16.266  1.00  0.00    -0.776 OA
HETATM   43  H45 UNL     1      10.807   9.099  16.946  1.00  0.00     0.167 HD
ENDBRANCH  40  42
ENDBRANCH  39  40
ENDBRANCH  38  39
ENDBRANCH  37  38
ENDBRANCH  36  37
ENDBRANCH  35  36
ENDBRANCH  33  35
ENDBRANCH  30  31
ENDBRANCH  29  30
ENDBRANCH  27  29
ENDBRANCH  26  27
ENDBRANCH  25  26
ENDBRANCH  23  25
ENDBRANCH  20  23
TORSDOF 15
ENDMDL
MODEL 5
REMARK minimizedAffinity -8.08971119
REMARK CNNscore 0.480262756
REMARK CNNaffinity 7.30194092
REMARK  15 active torsions:
REMARK  status: ('A' for Active; 'I' for Inactive)
REMARK    1  A    between atoms: C19_20  and  O2_21 
REMARK    2  A    between atoms: C19_20  and  C20_22 
REMARK    3  A    between atoms: C20_22  and  C21_24 
REMARK    4  A    between atoms: C21_24  and  O4_25 
REMARK    5  A    between atoms: O4_25  and  C22_26 
REMARK    6  A    between atoms: C22_26  and  C23_28 
REMARK    7  A    between atoms: C23_28  and  C24_29 
REMARK    8  A    between atoms: C24_29  and  C25_30 
REMARK       I    between atoms: C25_30  and  N1_32 
REMARK    9  A    between atoms: N1_32  and  C26_33 
REMARK   10  A    between atoms: C26_33  and  C27_34 
REMARK   11  A    between atoms: C27_34  and  C28_35 
REMARK   12  A    between atoms: C28_35  and  C29_36 
REMARK   13  A    between atoms: C29_36  and  C30_37 
REMARK   14  A    between atoms: C30_37  and  C31_38 
REMARK   15  A    between atoms: C31_38  and  O8_40 
ROOT
HETATM    1  C1  UNL     1       1.880   7.673  11.329  1.00  0.00     0.020 C 
HETATM    2  C2  UNL     1       0.969   7.930  12.563  1.00  0.00    -0.016 C 
HETATM    3  C3  UNL     1       1.374   9.306  13.166  1.00  0.00     0.022 C 
HETATM    4  C4  UNL     1       2.745   9.325  13.831  1.00  0.00     0.084 C 
HETATM    5  C5  UNL     1       2.832   8.246  14.875  1.00  0.00     0.149 C 
HETATM    6  O1  UNL     1       3.546   8.349  15.869  1.00  0.00    -0.293 OA
HETATM    7  C6  UNL     1       2.095   6.985  14.635  1.00  0.00     0.053 C 
HETATM    8  C7  UNL     1       1.285   6.817  13.571  1.00  0.00    -0.068 C 
HETATM    9  C8  UNL     1       0.689   5.446  13.361  1.00  0.00     0.035 C 
HETATM   10  C9  UNL     1      -0.500   5.408  12.413  1.00  0.00     0.010 C 
HETATM   11  C10 UNL     1      -1.367   6.662  12.485  1.00  0.00    -0.004 C 
HETATM   12  C11 UNL     1      -0.551   7.917  12.051  1.00  0.00     0.002 C 
HETATM   13  C12 UNL     1      -1.390   9.214  12.240  1.00  0.00     0.007 C 
HETATM   14  C13 UNL     1      -2.152   9.342  13.571  1.00  0.00     0.013 C 
HETATM   15  C14 UNL     1      -2.996   8.092  13.883  1.00  0.00    -0.002 C 
HETATM   16  C15 UNL     1      -4.156   7.965  12.861  1.00  0.00     0.019 C 
HETATM   17  C16 UNL     1      -2.017   6.890  13.858  1.00  0.00     0.002 C 
HETATM   18  C17 UNL     1      -2.831   5.751  14.457  1.00  0.00     0.009 C 
HETATM   19  C18 UNL     1      -3.703   6.427  15.531  1.00  0.00     0.047 C 
HETATM   20  C19 UNL     1      -3.550   7.963  15.339  1.00  0.00     0.128 C 
ENDROOT
BRANCH  20  21
HETATM   21  O2  UNL     1      -2.571   8.427  16.272  1.00  0.00    -0.381 OA
HETATM   22  H27 UNL     1      -2.860   8.170  17.171  1.00  0.00     0.211 HD
ENDBRANCH  20  21
BRANCH  20  23
HETATM   23  C20 UNL     1      -4.869   8.721  15.610  1.00  0.00     0.185 C 
HETATM   24  O3  UNL     1      -4.902   9.769  16.262  1.00  0.00    -0.292 OA
BRANCH  23  25
HETATM   25  C21 UNL     1      -6.146   8.115  15.023  1.00  0.00     0.260 C 
BRANCH  25  26
HETATM   26  O4  UNL     1      -7.095   7.763  16.031  1.00  0.00    -0.314 OA
BRANCH  26  27
HETATM   27  C22 UNL     1      -7.528   6.473  15.959  1.00  0.00     0.259 C 
HETATM   28  O5  UNL     1      -6.929   5.505  16.409  1.00  0.00    -0.265 OA
BRANCH  27  29
HETATM   29  C23 UNL     1      -8.822   6.394  15.202  1.00  0.00     0.120 C 
BRANCH  29  30
HETATM   30  C24 UNL     1      -8.538   6.167  13.727  1.00  0.00     0.112 C 
BRANCH  30  31
HETATM   31  C25 UNL     1      -7.830   4.851  13.497  1.00  0.00     0.217 C 
HETATM   32  O6  UNL     1      -8.398   3.765  13.511  1.00  0.00    -0.274 OA
HETATM   33  N1  UNL     1      -6.475   5.001  13.271  1.00  0.00    -0.361 N 
HETATM   34  H34 UNL     1      -6.146   5.921  13.012  1.00  0.00     0.162 HD
BRANCH  33  35
HETATM   35  C26 UNL     1      -5.660   3.857  12.917  1.00  0.00     0.122 C 
BRANCH  35  36
HETATM   36  C27 UNL     1      -5.761   3.547  11.427  1.00  0.00     0.020 C 
BRANCH  36  37
HETATM   37  C28 UNL     1      -4.584   2.723  10.895  1.00  0.00     0.002 C 
BRANCH  37  38
HETATM   38  C29 UNL     1      -3.378   2.602  11.832  1.00  0.00     0.010 C 
BRANCH  38  39
HETATM   39  C30 UNL     1      -2.547   1.343  11.592  1.00  0.00     0.110 C 
BRANCH  39  40
HETATM   40  C31 UNL     1      -1.254   1.657  10.888  1.00  0.00     0.139 C 
HETATM   41  O7  UNL     1      -0.256   2.172  11.359  1.00  0.00    -0.650 OA
BRANCH  40  42
HETATM   42  O8  UNL     1      -1.288   1.287   9.593  1.00  0.00    -0.776 OA
HETATM   43  H45 UNL     1      -0.402   1.536   9.254  1.00  0.00     0.167 HD
ENDBRANCH  40  42
ENDBRANCH  39  40
ENDBRANCH  38  39
ENDBRANCH  37  38
ENDBRANCH  36  37
ENDBRANCH  35  36
ENDBRANCH  33  35
ENDBRANCH  30  31
ENDBRANCH  29  30
ENDBRANCH  27  29
ENDBRANCH  26  27
ENDBRANCH  25  26
ENDBRANCH  23  25
ENDBRANCH  20  23
TORSDOF 15
ENDMDL
MODEL 6
REMARK minimizedAffinity -7.35396576
REMARK CNNscore 0.453455806
REMARK CNNaffinity 6.4228034
REMARK  15 active torsions:
REMARK  status: ('A' for Active; 'I' for Inactive)
REMARK    1  A    between atoms: C19_20  and  O2_21 
REMARK    2  A    between atoms: C19_20  and  C20_22 
REMARK    3  A    between atoms: C20_22  and  C21_24 
REMARK    4  A    between atoms: C21_24  and  O4_25 
REMARK    5  A    between atoms: O4_25  and  C22_26 
REMARK    6  A    between atoms: C22_26  and  C23_28 
REMARK    7  A    between atoms: C23_28  and  C24_29 
REMARK    8  A    between atoms: C24_29  and  C25_30 
REMARK       I    between atoms: C25_30  and  N1_32 
REMARK    9  A    between atoms: N1_32  and  C26_33 
REMARK   10  A    between atoms: C26_33  and  C27_34 
REMARK   11  A    between atoms: C27_34  and  C28_35 
REMARK   12  A    between atoms: C28_35  and  C29_36 
REMARK   13  A    between atoms: C29_36  and  C30_37 
REMARK   14  A    between atoms: C30_37  and  C31_38 
REMARK   15  A    between atoms: C31_38  and  O8_40 
ROOT
HETATM    1  C1  UNL     1      -1.762   7.732  15.952  1.00  0.00     0.020 C 
HETATM    2  C2  UNL     1      -0.591   8.064  14.985  1.00  0.00    -0.016 C 
HETATM    3  C3  UNL     1       0.679   8.304  15.851  1.00  0.00     0.022 C 
HETATM    4  C4  UNL     1       0.643   9.580  16.683  1.00  0.00     0.084 C 
HETATM    5  C5  UNL     1       0.373  10.770  15.803  1.00  0.00     0.149 C 
HETATM    6  O1  UNL     1       0.790  11.893  16.071  1.00  0.00    -0.293 OA
HETATM    7  C6  UNL     1      -0.502  10.578  14.625  1.00  0.00     0.053 C 
HETATM    8  C7  UNL     1      -0.978   9.368  14.272  1.00  0.00    -0.068 C 
HETATM    9  C8  UNL     1      -1.964   9.315  13.130  1.00  0.00     0.035 C 
HETATM   10  C9  UNL     1      -2.158   7.934  12.522  1.00  0.00     0.010 C 
HETATM   11  C10 UNL     1      -0.887   7.089  12.528  1.00  0.00    -0.004 C 
HETATM   12  C11 UNL     1      -0.419   6.818  13.990  1.00  0.00     0.002 C 
HETATM   13  C12 UNL     1       0.942   6.064  14.003  1.00  0.00     0.007 C 
HETATM   14  C13 UNL     1       2.022   6.596  13.045  1.00  0.00     0.013 C 
HETATM   15  C14 UNL     1       1.499   6.758  11.606  1.00  0.00    -0.002 C 
HETATM   16  C15 UNL     1       1.186   5.366  10.995  1.00  0.00     0.019 C 
HETATM   17  C16 UNL     1       0.260   7.685  11.697  1.00  0.00     0.002 C 
HETATM   18  C17 UNL     1      -0.028   8.044  10.246  1.00  0.00     0.009 C 
HETATM   19  C18 UNL     1       1.363   8.142   9.593  1.00  0.00     0.047 C 
HETATM   20  C19 UNL     1       2.388   7.586  10.623  1.00  0.00     0.128 C 
ENDROOT
BRANCH  20  21
HETATM   21  O2  UNL     1       2.966   8.698  11.312  1.00  0.00    -0.381 OA
HETATM   22  H27 UNL     1       3.362   9.297  10.647  1.00  0.00     0.211 HD
ENDBRANCH  20  21
BRANCH  20  23
HETATM   23  C20 UNL     1       3.529   6.796   9.944  1.00  0.00     0.185 C 
HETATM   24  O3  UNL     1       3.445   6.391   8.781  1.00  0.00    -0.292 OA
BRANCH  23  25
HETATM   25  C21 UNL     1       4.784   6.541  10.781  1.00  0.00     0.260 C 
BRANCH  25  26
HETATM   26  O4  UNL     1       5.647   7.677  10.831  1.00  0.00    -0.314 OA
BRANCH  26  27
HETATM   27  C22 UNL     1       6.712   7.529  11.668  1.00  0.00     0.259 C 
HETATM   28  O5  UNL     1       7.613   6.715  11.520  1.00  0.00    -0.265 OA
BRANCH  27  29
HETATM   29  C23 UNL     1       6.601   8.473  12.831  1.00  0.00     0.120 C 
BRANCH  29  30
HETATM   30  C24 UNL     1       6.130   7.714  14.060  1.00  0.00     0.112 C 
BRANCH  30  31
HETATM   31  C25 UNL     1       6.885   8.145  15.298  1.00  0.00     0.217 C 
HETATM   32  O6  UNL     1       6.345   8.628  16.287  1.00  0.00    -0.274 OA
HETATM   33  N1  UNL     1       8.247   7.940  15.196  1.00  0.00    -0.361 N 
HETATM   34  H34 UNL     1       8.570   7.304  14.479  1.00  0.00     0.162 HD
BRANCH  33  35
HETATM   35  C26 UNL     1       9.113   8.188  16.331  1.00  0.00     0.122 C 
BRANCH  35  36
HETATM   36  C27 UNL     1       9.637   9.621  16.324  1.00  0.00     0.020 C 
BRANCH  36  37
HETATM   37  C28 UNL     1       9.627  10.280  17.706  1.00  0.00     0.002 C 
BRANCH  37  38
HETATM   38  C29 UNL     1      10.805  11.211  18.009  1.00  0.00     0.010 C 
BRANCH  38  39
HETATM   39  C30 UNL     1      11.580  10.821  19.266  1.00  0.00     0.110 C 
BRANCH  39  40
HETATM   40  C31 UNL     1      11.867  12.016  20.135  1.00  0.00     0.139 C 
HETATM   41  O7  UNL     1      11.148  12.979  20.337  1.00  0.00    -0.650 OA
BRANCH  40  42
HETATM   42  O8  UNL     1      13.075  11.928  20.725  1.00  0.00    -0.776 OA
HETATM   43  H45 UNL     1      13.138  12.750  21.256  1.00  0.00     0.167 HD
ENDBRANCH  40  42
ENDBRANCH  39  40
ENDBRANCH  38  39
ENDBRANCH  37  38
ENDBRANCH  36  37
ENDBRANCH  35  36
ENDBRANCH  33  35
ENDBRANCH  30  31
ENDBRANCH  29  30
ENDBRANCH  27  29
ENDBRANCH  26  27
ENDBRANCH  25  26
ENDBRANCH  23  25
ENDBRANCH  20  23
TORSDOF 15
ENDMDL
MODEL 7
REMARK minimizedAffinity -7.26357222
REMARK CNNscore 0.408872813
REMARK CNNaffinity 6.55245638
REMARK  15 active torsions:
REMARK  status: ('A' for Active; 'I' for Inactive)
REMARK    1  A    between atoms: C19_20  and  O2_21 
REMARK    2  A    between atoms: C19_20  and  C20_22 
REMARK    3  A    between atoms: C20_22  and  C21_24 
REMARK    4  A    between atoms: C21_24  and  O4_25 
REMARK    5  A    between atoms: O4_25  and  C22_26 
REMARK    6  A    between atoms: C22_26  and  C23_28 
REMARK    7  A    between atoms: C23_28  and  C24_29 
REMARK    8  A    between atoms: C24_29  and  C25_30 
REMARK       I    between atoms: C25_30  and  N1_32 
REMARK    9  A    between atoms: N1_32  and  C26_33 
REMARK   10  A    between atoms: C26_33  and  C27_34 
REMARK   11  A    between atoms: C27_34  and  C28_35 
REMARK   12  A    between atoms: C28_35  and  C29_36 
REMARK   13  A    between atoms: C29_36  and  C30_37 
REMARK   14  A    between atoms: C30_37  and  C31_38 
REMARK   15  A    between atoms: C31_38  and  O8_40 
ROOT
HETATM    1  C1  UNL     1       1.533   6.990  10.917  1.00  0.00     0.020 C 
HETATM    2  C2  UNL     1       0.754   7.494  12.166  1.00  0.00    -0.016 C 
HETATM    3  C3  UNL     1       1.284   8.917  12.507  1.00  0.00     0.022 C 
HETATM    4  C4  UNL     1       2.709   8.947  13.045  1.00  0.00     0.084 C 
HETATM    5  C5  UNL     1       2.836   8.037  14.236  1.00  0.00     0.149 C 
HETATM    6  O1  UNL     1       3.642   8.245  15.139  1.00  0.00    -0.293 OA
HETATM    7  C6  UNL     1       2.014   6.807  14.261  1.00  0.00     0.053 C 
HETATM    8  C7  UNL     1       1.103   6.531  13.309  1.00  0.00    -0.068 C 
HETATM    9  C8  UNL     1       0.418   5.187  13.370  1.00  0.00     0.035 C 
HETATM   10  C9  UNL     1      -0.853   5.082  12.541  1.00  0.00     0.010 C 
HETATM   11  C10 UNL     1      -1.643   6.387  12.484  1.00  0.00    -0.004 C 
HETATM   12  C11 UNL     1      -0.805   7.503  11.790  1.00  0.00     0.002 C 
HETATM   13  C12 UNL     1      -1.554   8.866  11.838  1.00  0.00     0.007 C 
HETATM   14  C13 UNL     1      -2.183   9.247  13.190  1.00  0.00     0.013 C 
HETATM   15  C14 UNL     1      -3.059   8.120  13.766  1.00  0.00    -0.002 C 
HETATM   16  C15 UNL     1      -4.313   7.914  12.876  1.00  0.00     0.019 C 
HETATM   17  C16 UNL     1      -2.151   6.866  13.852  1.00  0.00     0.002 C 
HETATM   18  C17 UNL     1      -2.965   5.889  14.689  1.00  0.00     0.009 C 
HETATM   19  C18 UNL     1      -3.698   6.778  15.710  1.00  0.00     0.047 C 
HETATM   20  C19 UNL     1      -3.483   8.253  15.265  1.00  0.00     0.128 C 
ENDROOT
BRANCH  20  21
HETATM   21  O2  UNL     1      -2.399   8.789  16.028  1.00  0.00    -0.381 OA
HETATM   22  H27 UNL     1      -2.618   8.693  16.978  1.00  0.00     0.211 HD
ENDBRANCH  20  21
BRANCH  20  23
HETATM   23  C20 UNL     1      -4.730   9.129  15.520  1.00  0.00     0.185 C 
HETATM   24  O3  UNL     1      -4.650  10.252  16.026  1.00  0.00    -0.292 OA
BRANCH  23  25
HETATM   25  C21 UNL     1      -6.081   8.542  15.107  1.00  0.00     0.260 C 
BRANCH  25  26
HETATM   26  O4  UNL     1      -6.406   7.356  15.833  1.00  0.00    -0.314 OA
BRANCH  26  27
HETATM   27  C22 UNL     1      -7.066   6.418  15.097  1.00  0.00     0.259 C 
HETATM   28  O5  UNL     1      -6.531   5.519  14.462  1.00  0.00    -0.265 OA
BRANCH  27  29
HETATM   29  C23 UNL     1      -8.546   6.670  15.131  1.00  0.00     0.120 C 
BRANCH  29  30
HETATM   30  C24 UNL     1      -8.851   7.788  16.114  1.00  0.00     0.112 C 
BRANCH  30  31
HETATM   31  C25 UNL     1     -10.108   8.535  15.727  1.00  0.00     0.217 C 
HETATM   32  O6  UNL     1     -10.840   9.094  16.537  1.00  0.00    -0.274 OA
HETATM   33  N1  UNL     1     -10.347   8.520  14.367  1.00  0.00    -0.361 N 
HETATM   34  H34 UNL     1      -9.573   8.280  13.761  1.00  0.00     0.162 HD
BRANCH  33  35
HETATM   35  C26 UNL     1     -11.443   9.283  13.806  1.00  0.00     0.122 C 
BRANCH  35  36
HETATM   36  C27 UNL     1     -12.294   8.424  12.874  1.00  0.00     0.020 C 
BRANCH  36  37
HETATM   37  C28 UNL     1     -12.889   7.191  13.559  1.00  0.00     0.002 C 
BRANCH  37  38
HETATM   38  C29 UNL     1     -14.403   7.223  13.792  1.00  0.00     0.010 C 
BRANCH  38  39
HETATM   39  C30 UNL     1     -15.120   8.298  12.977  1.00  0.00     0.110 C 
BRANCH  39  40
HETATM   40  C31 UNL     1     -15.791   7.718  11.761  1.00  0.00     0.139 C 
HETATM   41  O7  UNL     1     -16.067   6.551  11.549  1.00  0.00    -0.650 OA
BRANCH  40  42
HETATM   42  O8  UNL     1     -16.095   8.669  10.856  1.00  0.00    -0.776 OA
HETATM   43  H45 UNL     1     -16.524   8.171  10.128  1.00  0.00     0.167 HD
ENDBRANCH  40  42
ENDBRANCH  39  40
ENDBRANCH  38  39
ENDBRANCH  37  38
ENDBRANCH  36  37
ENDBRANCH  35  36
ENDBRANCH  33  35
ENDBRANCH  30  31
ENDBRANCH  29  30
ENDBRANCH  27  29
ENDBRANCH  26  27
ENDBRANCH  25  26
ENDBRANCH  23  25
ENDBRANCH  20  23
TORSDOF 15
ENDMDL
MODEL 8
REMARK minimizedAffinity -6.37168217
REMARK CNNscore 0.368357837
REMARK CNNaffinity 6.11751556
REMARK  15 active torsions:
REMARK  status: ('A' for Active; 'I' for Inactive)
REMARK    1  A    between atoms: C19_20  and  O2_21 
REMARK    2  A    between atoms: C19_20  and  C20_22 
REMARK    3  A    between atoms: C20_22  and  C21_24 
REMARK    4  A    between atoms: C21_24  and  O4_25 
REMARK    5  A    between atoms: O4_25  and  C22_26 
REMARK    6  A    between atoms: C22_26  and  C23_28 
REMARK    7  A    between atoms: C23_28  and  C24_29 
REMARK    8  A    between atoms: C24_29  and  C25_30 
REMARK       I    between atoms: C25_30  and  N1_32 
REMARK    9  A    between atoms: N1_32  and  C26_33 
REMARK   10  A    between atoms: C26_33  and  C27_34 
REMARK   11  A    between atoms: C27_34  and  C28_35 
REMARK   12  A    between atoms: C28_35  and  C29_36 
REMARK   13  A    between atoms: C29_36  and  C30_37 
REMARK   14  A    between atoms: C30_37  and  C31_38 
REMARK   15  A    between atoms: C31_38  and  O8_40 
ROOT
HETATM    1  C1  UNL     1      -1.505   5.797  12.282  1.00  0.00     0.020 C 
HETATM    2  C2  UNL     1      -1.620   6.690  13.550  1.00  0.00    -0.016 C 
HETATM    3  C3  UNL     1      -1.944   5.757  14.753  1.00  0.00     0.022 C 
HETATM    4  C4  UNL     1      -3.341   5.149  14.721  1.00  0.00     0.084 C 
HETATM    5  C5  UNL     1      -4.378   6.232  14.599  1.00  0.00     0.149 C 
HETATM    6  O1  UNL     1      -5.511   6.111  15.056  1.00  0.00    -0.293 OA
HETATM    7  C6  UNL     1      -4.031   7.441  13.819  1.00  0.00     0.053 C 
HETATM    8  C7  UNL     1      -2.802   7.637  13.304  1.00  0.00    -0.068 C 
HETATM    9  C8  UNL     1      -2.603   8.844  12.419  1.00  0.00     0.035 C 
HETATM   10  C9  UNL     1      -1.151   9.237  12.196  1.00  0.00     0.010 C 
HETATM   11  C10 UNL     1      -0.263   8.973  13.410  1.00  0.00    -0.004 C 
HETATM   12  C11 UNL     1      -0.219   7.449  13.734  1.00  0.00     0.002 C 
HETATM   13  C12 UNL     1       0.582   7.185  15.041  1.00  0.00     0.007 C 
HETATM   14  C13 UNL     1       0.265   8.110  16.230  1.00  0.00     0.013 C 
HETATM   15  C14 UNL     1       0.322   9.599  15.843  1.00  0.00    -0.002 C 
HETATM   16  C15 UNL     1       1.781  10.005  15.502  1.00  0.00     0.019 C 
HETATM   17  C16 UNL     1      -0.661   9.777  14.658  1.00  0.00     0.002 C 
HETATM   18  C17 UNL     1      -0.786  11.288  14.518  1.00  0.00     0.009 C 
HETATM   19  C18 UNL     1      -0.713  11.813  15.963  1.00  0.00     0.047 C 
HETATM   20  C19 UNL     1      -0.291  10.615  16.861  1.00  0.00     0.128 C 
ENDROOT
BRANCH  20  21
HETATM   21  O2  UNL     1      -1.476  10.062  17.442  1.00  0.00    -0.381 OA
HETATM   22  H27 UNL     1      -1.937  10.775  17.929  1.00  0.00     0.211 HD
ENDBRANCH  20  21
BRANCH  20  23
HETATM   23  C20 UNL     1       0.651  11.045  18.008  1.00  0.00     0.185 C 
HETATM   24  O3  UNL     1       1.740  11.585  17.795  1.00  0.00    -0.292 OA
BRANCH  23  25
HETATM   25  C21 UNL     1       0.167  10.778  19.435  1.00  0.00     0.260 C 
BRANCH  25  26
HETATM   26  O4  UNL     1       1.104  11.214  20.420  1.00  0.00    -0.314 OA
BRANCH  26  27
HETATM   27  C22 UNL     1       1.878  10.216  20.931  1.00  0.00     0.259 C 
HETATM   28  O5  UNL     1       1.451   9.216  21.493  1.00  0.00    -0.265 OA
BRANCH  27  29
HETATM   29  C23 UNL     1       3.334  10.536  20.755  1.00  0.00     0.120 C 
BRANCH  29  30
HETATM   30  C24 UNL     1       4.037  10.474  22.100  1.00  0.00     0.112 C 
BRANCH  30  31
HETATM   31  C25 UNL     1       4.762  11.765  22.405  1.00  0.00     0.217 C 
HETATM   32  O6  UNL     1       4.421  12.540  23.292  1.00  0.00    -0.274 OA
HETATM   33  N1  UNL     1       5.846  11.982  21.578  1.00  0.00    -0.361 N 
HETATM   34  H34 UNL     1       6.211  11.187  21.070  1.00  0.00     0.162 HD
BRANCH  33  35
HETATM   35  C26 UNL     1       6.726  13.112  21.802  1.00  0.00     0.122 C 
BRANCH  35  36
HETATM   36  C27 UNL     1       7.768  12.797  22.870  1.00  0.00     0.020 C 
BRANCH  36  37
HETATM   37  C28 UNL     1       8.690  13.978  23.189  1.00  0.00     0.002 C 
BRANCH  37  38
HETATM   38  C29 UNL     1       8.007  15.215  23.780  1.00  0.00     0.010 C 
BRANCH  38  39
HETATM   39  C30 UNL     1       8.873  16.472  23.723  1.00  0.00     0.110 C 
BRANCH  39  40
HETATM   40  C31 UNL     1       9.404  16.842  25.082  1.00  0.00     0.139 C 
HETATM   41  O7  UNL     1      10.057  17.826  25.383  1.00  0.00    -0.650 OA
BRANCH  40  42
HETATM   42  O8  UNL     1       9.068  15.931  26.015  1.00  0.00    -0.776 OA
HETATM   43  H45 UNL     1       9.463  16.284  26.841  1.00  0.00     0.167 HD
ENDBRANCH  40  42
ENDBRANCH  39  40
ENDBRANCH  38  39
ENDBRANCH  37  38
ENDBRANCH  36  37
ENDBRANCH  35  36
ENDBRANCH  33  35
ENDBRANCH  30  31
ENDBRANCH  29  30
ENDBRANCH  27  29
ENDBRANCH  26  27
ENDBRANCH  25  26
ENDBRANCH  23  25
ENDBRANCH  20  23
TORSDOF 15
ENDMDL
MODEL 9
REMARK minimizedAffinity -7.10271263
REMARK CNNscore 0.345992357
REMARK CNNaffinity 5.23502302
REMARK  15 active torsions:
REMARK  status: ('A' for Active; 'I' for Inactive)
REMARK    1  A    between atoms: C19_20  and  O2_21 
REMARK    2  A    between atoms: C19_20  and  C20_22 
REMARK    3  A    between atoms: C20_22  and  C21_24 
REMARK    4  A    between atoms: C21_24  and  O4_25 
REMARK    5  A    between atoms: O4_25  and  C22_26 
REMARK    6  A    between atoms: C22_26  and  C23_28 
REMARK    7  A    between atoms: C23_28  and  C24_29 
REMARK    8  A    between atoms: C24_29  and  C25_30 
REMARK       I    between atoms: C25_30  and  N1_32 
REMARK    9  A    between atoms: N1_32  and  C26_33 
REMARK   10  A    between atoms: C26_33  and  C27_34 
REMARK   11  A    between atoms: C27_34  and  C28_35 
REMARK   12  A    between atoms: C28_35  and  C29_36 
REMARK   13  A    between atoms: C29_36  and  C30_37 
REMARK   14  A    between atoms: C30_37  and  C31_38 
REMARK   15  A    between atoms: C31_38  and  O8_40 
ROOT
HETATM    1  C1  UNL     1       8.248  14.498  23.644  1.00  0.00     0.020 C 
HETATM    2  C2  UNL     1       7.587  13.668  22.507  1.00  0.00    -0.016 C 
HETATM    3  C3  UNL     1       8.379  12.335  22.377  1.00  0.00     0.022 C 
HETATM    4  C4  UNL     1       9.788  12.491  21.816  1.00  0.00     0.084 C 
HETATM    5  C5  UNL     1       9.747  13.211  20.496  1.00  0.00     0.149 C 
HETATM    6  O1  UNL     1      10.584  13.021  19.618  1.00  0.00    -0.293 OA
HETATM    7  C6  UNL     1       8.707  14.245  20.301  1.00  0.00     0.053 C 
HETATM    8  C7  UNL     1       7.754  14.490  21.221  1.00  0.00    -0.068 C 
HETATM    9  C8  UNL     1       6.827  15.655  20.969  1.00  0.00     0.035 C 
HETATM   10  C9  UNL     1       5.554  15.646  21.802  1.00  0.00     0.010 C 
HETATM   11  C10 UNL     1       5.025  14.241  22.078  1.00  0.00    -0.004 C 
HETATM   12  C11 UNL     1       6.056  13.424  22.916  1.00  0.00     0.002 C 
HETATM   13  C12 UNL     1       5.579  11.954  23.096  1.00  0.00     0.007 C 
HETATM   14  C13 UNL     1       5.043  11.255  21.833  1.00  0.00     0.013 C 
HETATM   15  C14 UNL     1       3.972  12.094  21.112  1.00  0.00    -0.002 C 
HETATM   16  C15 UNL     1       2.696  12.196  21.988  1.00  0.00     0.019 C 
HETATM   17  C16 UNL     1       4.626  13.467  20.812  1.00  0.00     0.002 C 
HETATM   18  C17 UNL     1       3.647  14.131  19.853  1.00  0.00     0.009 C 
HETATM   19  C18 UNL     1       3.102  12.972  18.999  1.00  0.00     0.047 C 
HETATM   20  C19 UNL     1       3.591  11.651  19.662  1.00  0.00     0.128 C 
ENDROOT
BRANCH  20  21
HETATM   21  O2  UNL     1       4.761  11.216  18.965  1.00  0.00    -0.381 OA
HETATM   22  H27 UNL     1       4.534  11.120  18.017  1.00  0.00     0.211 HD
ENDBRANCH  20  21
BRANCH  20  23
HETATM   23  C20 UNL     1       2.534  10.527  19.574  1.00  0.00     0.185 C 
HETATM   24  O3  UNL     1       2.629   9.485  20.230  1.00  0.00    -0.292 OA
BRANCH  23  25
HETATM   25  C21 UNL     1       1.349  10.766  18.636  1.00  0.00     0.260 C 
BRANCH  25  26
HETATM   26  O4  UNL     1       1.140   9.679  17.733  1.00  0.00    -0.314 OA
BRANCH  26  27
HETATM   27  C22 UNL     1       1.567   9.923  16.463  1.00  0.00     0.259 C 
HETATM   28  O5  UNL     1       2.514  10.640  16.166  1.00  0.00    -0.265 OA
BRANCH  27  29
HETATM   29  C23 UNL     1       0.682   9.229  15.468  1.00  0.00     0.120 C 
BRANCH  29  30
HETATM   30  C24 UNL     1       0.538   7.765  15.847  1.00  0.00     0.112 C 
BRANCH  30  31
HETATM   31  C25 UNL     1      -0.429   7.050  14.930  1.00  0.00     0.217 C 
HETATM   32  O6  UNL     1      -0.222   6.871  13.735  1.00  0.00    -0.274 OA
HETATM   33  N1  UNL     1      -1.571   6.624  15.579  1.00  0.00    -0.361 N 
HETATM   34  H34 UNL     1      -1.541   6.571  16.588  1.00  0.00     0.162 HD
BRANCH  33  35
HETATM   35  C26 UNL     1      -2.555   5.820  14.881  1.00  0.00     0.122 C 
BRANCH  35  36
HETATM   36  C27 UNL     1      -3.065   6.533  13.632  1.00  0.00     0.020 C 
BRANCH  36  37
HETATM   37  C28 UNL     1      -4.193   5.781  12.920  1.00  0.00     0.002 C 
BRANCH  37  38
HETATM   38  C29 UNL     1      -4.032   4.260  12.839  1.00  0.00     0.010 C 
BRANCH  38  39
HETATM   39  C30 UNL     1      -5.332   3.529  12.505  1.00  0.00     0.110 C 
BRANCH  39  40
HETATM   40  C31 UNL     1      -5.214   2.743  11.226  1.00  0.00     0.139 C 
HETATM   41  O7  UNL     1      -5.881   1.786  10.877  1.00  0.00    -0.650 OA
BRANCH  40  42
HETATM   42  O8  UNL     1      -4.239   3.226  10.431  1.00  0.00    -0.776 OA
HETATM   43  H45 UNL     1      -4.267   2.641   9.644  1.00  0.00     0.167 HD
ENDBRANCH  40  42
ENDBRANCH  39  40
ENDBRANCH  38  39
ENDBRANCH  37  38
ENDBRANCH  36  37
ENDBRANCH  35  36
ENDBRANCH  33  35
ENDBRANCH  30  31
ENDBRANCH  29  30
ENDBRANCH  27  29
ENDBRANCH  26  27
ENDBRANCH  25  26
ENDBRANCH  23  25
ENDBRANCH  20  23
TORSDOF 15
ENDMDL
