MODEL 1
REMARK minimizedAffinity -6.3460145
REMARK CNNscore 0.901699185
REMARK CNNaffinity 7.05615187
REMARK  14 active torsions:
REMARK  status: ('A' for Active; 'I' for Inactive)
REMARK    1  A    between atoms: C5_5  and  C6_6 
REMARK    2  A    between atoms: C6_6  and  C8_8 
REMARK    3  A    between atoms: C8_8  and  O1_9 
REMARK    4  A    between atoms: O1_9  and  C9_10 
REMARK    5  A    between atoms: C17_20  and  O4_21 
REMARK    6  A    between atoms: C19_23  and  O5_24 
REMARK    7  A    between atoms: O5_24  and  C20_25 
REMARK    8  A    between atoms: C20_25  and  C21_27 
REMARK    9  A    between atoms: C21_27  and  C22_28 
REMARK   10  A    between atoms: C21_27  and  O7_30 
REMARK   11  A    between atoms: O7_30  and  C24_31 
REMARK   12  A    between atoms: C24_31  and  C25_33 
REMARK   13  A    between atoms: C25_33  and  C26_34 
REMARK   14  A    between atoms: C28_36  and  O9_38 
ROOT
HETATM    1  C1  UNL     1      -0.004  56.875  -7.122  1.00  0.00     0.015 C 
HETATM    2  C2  UNL     1       1.037  56.352  -7.790  1.00  0.00    -0.082 C 
HETATM    3  C3  UNL     1       2.435  56.435  -7.255  1.00  0.00     0.034 C 
HETATM    4  C4  UNL     1       3.014  55.031  -7.190  1.00  0.00     0.010 C 
HETATM    5  C5  UNL     1       3.126  54.343  -8.570  1.00  0.00    -0.001 C 
HETATM    6  C11 UNL     1       2.179  54.928  -9.661  1.00  0.00     0.033 C 
HETATM    7  C12 UNL     1       1.478  53.909 -10.572  1.00  0.00     0.163 C 
HETATM    8  O3  UNL     1       0.490  53.389  -9.687  1.00  0.00    -0.376 OA
HETATM    9  C13 UNL     1      -0.202  54.524  -9.161  1.00  0.00     0.134 C 
HETATM   10  C14 UNL     1      -1.370  54.850 -10.128  1.00  0.00     0.068 C 
HETATM   11  C15 UNL     1      -2.190  53.650 -10.618  1.00  0.00    -0.058 C 
HETATM   12  C16 UNL     1      -3.519  53.646 -10.390  1.00  0.00     0.017 C 
HETATM   13  C17 UNL     1      -1.459  52.484 -11.320  1.00  0.00     0.149 C 
HETATM   14  C18 UNL     1      -0.482  52.860 -12.465  1.00  0.00     0.072 C 
HETATM   15  C19 UNL     1       0.924  52.174 -12.413  1.00  0.00     0.171 C 
HETATM   16  C28 UNL     1       2.045  52.747 -11.403  1.00  0.00     0.107 C 
HETATM   17  C29 UNL     1       2.633  51.605 -10.560  1.00  0.00     0.051 C 
HETATM   18  C30 UNL     1       0.887  55.637  -9.110  1.00  0.00     0.050 C 
ENDROOT
BRANCH  15  19
HETATM   19  O5  UNL     1       0.739  50.747 -12.211  1.00  0.00    -0.311 OA
BRANCH  19  20
HETATM   20  C20 UNL     1       0.331  50.019 -13.288  1.00  0.00     0.289 C 
HETATM   21  O6  UNL     1      -0.775  49.502 -13.405  1.00  0.00    -0.262 OA
BRANCH  20  22
HETATM   22  C21 UNL     1       1.445  49.942 -14.338  1.00  0.00     0.231 C 
BRANCH  22  23
HETATM   23  C22 UNL     1       1.185  50.919 -15.492  1.00  0.00     0.038 C 
HETATM   24  C23 UNL     1       2.355  51.856 -15.752  1.00  0.00     0.008 C 
ENDBRANCH  22  23
BRANCH  22  25
HETATM   25  O7  UNL     1       2.687  50.345 -13.724  1.00  0.00    -0.306 OA
BRANCH  25  26
HETATM   26  C24 UNL     1       3.606  49.344 -13.603  1.00  0.00     0.259 C 
HETATM   27  O8  UNL     1       4.799  49.519 -13.396  1.00  0.00    -0.265 OA
BRANCH  26  28
HETATM   28  C25 UNL     1       2.920  48.007 -13.765  1.00  0.00     0.111 C 
BRANCH  28  29
HETATM   29  C26 UNL     1       2.852  47.202 -12.468  1.00  0.00     0.005 C 
HETATM   30  C27 UNL     1       1.428  46.830 -12.075  1.00  0.00     0.005 C 
ENDBRANCH  28  29
ENDBRANCH  26  28
ENDBRANCH  25  26
ENDBRANCH  22  25
ENDBRANCH  20  22
ENDBRANCH  19  20
ENDBRANCH  15  19
BRANCH  16  31
HETATM   31  O9  UNL     1       3.095  53.307 -12.221  1.00  0.00    -0.385 OA
HETATM   32  H45 UNL     1       3.935  52.855 -12.022  1.00  0.00     0.210 HD
ENDBRANCH  16  31
BRANCH  13  33
HETATM   33  O4  UNL     1      -2.427  51.579 -11.874  1.00  0.00    -0.391 OA
HETATM   34  H25 UNL     1      -2.927  52.081 -12.540  1.00  0.00     0.210 HD
ENDBRANCH  13  33
BRANCH   5  35
HETATM   35  C6  UNL     1       4.602  54.299  -9.086  1.00  0.00     0.010 C 
HETATM   36  C7  UNL     1       4.917  55.335 -10.177  1.00  0.00     0.012 C 
BRANCH  35  37
HETATM   37  C8  UNL     1       5.620  54.437  -7.935  1.00  0.00     0.183 C 
BRANCH  37  38
HETATM   38  O1  UNL     1       5.963  55.830  -7.807  1.00  0.00    -0.321 OA
BRANCH  38  39
HETATM   39  C9  UNL     1       6.805  56.167  -6.793  1.00  0.00     0.254 C 
HETATM   40  C10 UNL     1       6.292  57.391  -6.099  1.00  0.00     0.126 C 
HETATM   41  O2  UNL     1       7.835  55.583  -6.490  1.00  0.00    -0.266 OA
ENDBRANCH  38  39
ENDBRANCH  37  38
ENDBRANCH  35  37
ENDBRANCH   5  35
TORSDOF 14
ENDMDL
MODEL 2
REMARK minimizedAffinity -6.56522322
REMARK CNNscore 0.84626919
REMARK CNNaffinity 7.26921129
REMARK  14 active torsions:
REMARK  status: ('A' for Active; 'I' for Inactive)
REMARK    1  A    between atoms: C5_5  and  C6_6 
REMARK    2  A    between atoms: C6_6  and  C8_8 
REMARK    3  A    between atoms: C8_8  and  O1_9 
REMARK    4  A    between atoms: O1_9  and  C9_10 
REMARK    5  A    between atoms: C17_20  and  O4_21 
REMARK    6  A    between atoms: C19_23  and  O5_24 
REMARK    7  A    between atoms: O5_24  and  C20_25 
REMARK    8  A    between atoms: C20_25  and  C21_27 
REMARK    9  A    between atoms: C21_27  and  C22_28 
REMARK   10  A    between atoms: C21_27  and  O7_30 
REMARK   11  A    between atoms: O7_30  and  C24_31 
REMARK   12  A    between atoms: C24_31  and  C25_33 
REMARK   13  A    between atoms: C25_33  and  C26_34 
REMARK   14  A    between atoms: C28_36  and  O9_38 
ROOT
HETATM    1  C1  UNL     1      -0.046  56.956  -7.415  1.00  0.00     0.015 C 
HETATM    2  C2  UNL     1       0.963  56.337  -8.050  1.00  0.00    -0.082 C 
HETATM    3  C3  UNL     1       2.370  56.401  -7.537  1.00  0.00     0.034 C 
HETATM    4  C4  UNL     1       2.889  54.981  -7.369  1.00  0.00     0.010 C 
HETATM    5  C5  UNL     1       2.954  54.185  -8.692  1.00  0.00    -0.001 C 
HETATM    6  C11 UNL     1       2.019  54.724  -9.816  1.00  0.00     0.033 C 
HETATM    7  C12 UNL     1       1.263  53.670 -10.638  1.00  0.00     0.163 C 
HETATM    8  O3  UNL     1       0.265  53.263  -9.707  1.00  0.00    -0.376 OA
HETATM    9  C13 UNL     1      -0.371  54.465  -9.263  1.00  0.00     0.134 C 
HETATM   10  C14 UNL     1      -1.536  54.767 -10.242  1.00  0.00     0.068 C 
HETATM   11  C15 UNL     1      -2.412  53.569 -10.630  1.00  0.00    -0.058 C 
HETATM   12  C16 UNL     1      -3.737  53.641 -10.390  1.00  0.00     0.017 C 
HETATM   13  C17 UNL     1      -1.741  52.321 -11.245  1.00  0.00     0.149 C 
HETATM   14  C18 UNL     1      -0.764  52.565 -12.426  1.00  0.00     0.072 C 
HETATM   15  C19 UNL     1       0.612  51.824 -12.333  1.00  0.00     0.171 C 
HETATM   16  C28 UNL     1       1.769  52.424 -11.382  1.00  0.00     0.107 C 
HETATM   17  C29 UNL     1       2.318  51.326 -10.458  1.00  0.00     0.051 C 
HETATM   18  C30 UNL     1       0.765  55.530  -9.310  1.00  0.00     0.050 C 
ENDROOT
BRANCH  15  19
HETATM   19  O5  UNL     1       0.368  50.426 -12.019  1.00  0.00    -0.311 OA
BRANCH  19  20
HETATM   20  C20 UNL     1       0.030  49.610 -13.057  1.00  0.00     0.289 C 
HETATM   21  O6  UNL     1      -0.983  48.921 -13.104  1.00  0.00    -0.262 OA
BRANCH  20  22
HETATM   22  C21 UNL     1       1.090  49.680 -14.163  1.00  0.00     0.231 C 
BRANCH  22  23
HETATM   23  C22 UNL     1       2.096  48.529 -14.037  1.00  0.00     0.038 C 
HETATM   24  C23 UNL     1       1.656  47.271 -14.770  1.00  0.00     0.008 C 
ENDBRANCH  22  23
BRANCH  22  25
HETATM   25  O7  UNL     1       0.436  49.522 -15.439  1.00  0.00    -0.306 OA
BRANCH  25  26
HETATM   26  C24 UNL     1      -0.021  50.685 -15.986  1.00  0.00     0.259 C 
HETATM   27  O8  UNL     1      -1.147  51.133 -15.822  1.00  0.00    -0.265 OA
BRANCH  26  28
HETATM   28  C25 UNL     1       1.074  51.318 -16.813  1.00  0.00     0.111 C 
BRANCH  28  29
HETATM   29  C26 UNL     1       1.714  52.532 -16.142  1.00  0.00     0.005 C 
HETATM   30  C27 UNL     1       3.227  52.575 -16.311  1.00  0.00     0.005 C 
ENDBRANCH  28  29
ENDBRANCH  26  28
ENDBRANCH  25  26
ENDBRANCH  22  25
ENDBRANCH  20  22
ENDBRANCH  19  20
ENDBRANCH  15  19
BRANCH  16  31
HETATM   31  O9  UNL     1       2.832  52.872 -12.250  1.00  0.00    -0.385 OA
HETATM   32  H45 UNL     1       3.654  52.401 -12.025  1.00  0.00     0.210 HD
ENDBRANCH  16  31
BRANCH  13  33
HETATM   33  O4  UNL     1      -2.755  51.419 -11.719  1.00  0.00    -0.391 OA
HETATM   34  H25 UNL     1      -3.240  51.890 -12.417  1.00  0.00     0.210 HD
ENDBRANCH  13  33
BRANCH   5  35
HETATM   35  C6  UNL     1       4.420  54.036  -9.217  1.00  0.00     0.010 C 
HETATM   36  C7  UNL     1       4.777  54.997 -10.362  1.00  0.00     0.012 C 
BRANCH  35  37
HETATM   37  C8  UNL     1       5.456  54.179  -8.082  1.00  0.00     0.183 C 
BRANCH  37  38
HETATM   38  O1  UNL     1       6.158  55.422  -8.273  1.00  0.00    -0.321 OA
BRANCH  38  39
HETATM   39  C9  UNL     1       6.379  56.180  -7.165  1.00  0.00     0.254 C 
HETATM   40  C10 UNL     1       7.281  55.443  -6.223  1.00  0.00     0.126 C 
HETATM   41  O2  UNL     1       5.911  57.287  -6.946  1.00  0.00    -0.266 OA
ENDBRANCH  38  39
ENDBRANCH  37  38
ENDBRANCH  35  37
ENDBRANCH   5  35
TORSDOF 14
ENDMDL
MODEL 3
REMARK minimizedAffinity -6.41847277
REMARK CNNscore 0.776886582
REMARK CNNaffinity 6.88116407
REMARK  14 active torsions:
REMARK  status: ('A' for Active; 'I' for Inactive)
REMARK    1  A    between atoms: C5_5  and  C6_6 
REMARK    2  A    between atoms: C6_6  and  C8_8 
REMARK    3  A    between atoms: C8_8  and  O1_9 
REMARK    4  A    between atoms: O1_9  and  C9_10 
REMARK    5  A    between atoms: C17_20  and  O4_21 
REMARK    6  A    between atoms: C19_23  and  O5_24 
REMARK    7  A    between atoms: O5_24  and  C20_25 
REMARK    8  A    between atoms: C20_25  and  C21_27 
REMARK    9  A    between atoms: C21_27  and  C22_28 
REMARK   10  A    between atoms: C21_27  and  O7_30 
REMARK   11  A    between atoms: O7_30  and  C24_31 
REMARK   12  A    between atoms: C24_31  and  C25_33 
REMARK   13  A    between atoms: C25_33  and  C26_34 
REMARK   14  A    between atoms: C28_36  and  O9_38 
ROOT
HETATM    1  C1  UNL     1       6.059  54.853  -9.665  1.00  0.00     0.015 C 
HETATM    2  C2  UNL     1       4.930  55.083  -8.976  1.00  0.00    -0.082 C 
HETATM    3  C3  UNL     1       4.818  56.224  -8.011  1.00  0.00     0.034 C 
HETATM    4  C4  UNL     1       3.609  57.065  -8.393  1.00  0.00     0.010 C 
HETATM    5  C5  UNL     1       2.269  56.299  -8.305  1.00  0.00    -0.001 C 
HETATM    6  C11 UNL     1       2.406  54.748  -8.380  1.00  0.00     0.033 C 
HETATM    7  C12 UNL     1       1.367  54.014  -9.240  1.00  0.00     0.163 C 
HETATM    8  O3  UNL     1       1.825  54.333 -10.551  1.00  0.00    -0.376 OA
HETATM    9  C13 UNL     1       3.210  53.977 -10.580  1.00  0.00     0.134 C 
HETATM   10  C14 UNL     1       3.301  52.488 -11.009  1.00  0.00     0.068 C 
HETATM   11  C15 UNL     1       2.408  52.074 -12.185  1.00  0.00    -0.058 C 
HETATM   12  C16 UNL     1       2.992  51.529 -13.272  1.00  0.00     0.017 C 
HETATM   13  C17 UNL     1       0.887  52.328 -12.093  1.00  0.00     0.149 C 
HETATM   14  C18 UNL     1       0.177  51.850 -10.799  1.00  0.00     0.072 C 
HETATM   15  C19 UNL     1      -0.788  52.888 -10.131  1.00  0.00     0.171 C 
HETATM   16  C28 UNL     1      -0.168  54.078  -9.233  1.00  0.00     0.107 C 
HETATM   17  C29 UNL     1      -0.739  55.432  -9.682  1.00  0.00     0.051 C 
HETATM   18  C30 UNL     1       3.693  54.229  -9.121  1.00  0.00     0.050 C 
ENDROOT
BRANCH  15  19
HETATM   19  O5  UNL     1      -1.671  53.426 -11.151  1.00  0.00    -0.311 OA
BRANCH  19  20
HETATM   20  C20 UNL     1      -3.010  53.273 -10.951  1.00  0.00     0.289 C 
HETATM   21  O6  UNL     1      -3.681  53.932 -10.164  1.00  0.00    -0.262 OA
BRANCH  20  22
HETATM   22  C21 UNL     1      -3.566  52.164 -11.854  1.00  0.00     0.231 C 
BRANCH  22  23
HETATM   23  C22 UNL     1      -2.959  52.242 -13.260  1.00  0.00     0.038 C 
HETATM   24  C23 UNL     1      -3.071  50.933 -14.028  1.00  0.00     0.008 C 
ENDBRANCH  22  23
BRANCH  22  25
HETATM   25  O7  UNL     1      -3.182  50.886 -11.305  1.00  0.00    -0.306 OA
BRANCH  25  26
HETATM   26  C24 UNL     1      -3.873  50.522 -10.187  1.00  0.00     0.259 C 
HETATM   27  O8  UNL     1      -3.361  50.269  -9.106  1.00  0.00    -0.265 OA
BRANCH  26  28
HETATM   28  C25 UNL     1      -5.352  50.484 -10.499  1.00  0.00     0.111 C 
BRANCH  28  29
HETATM   29  C26 UNL     1      -6.114  49.437  -9.689  1.00  0.00     0.005 C 
HETATM   30  C27 UNL     1      -7.602  49.738  -9.581  1.00  0.00     0.005 C 
ENDBRANCH  28  29
ENDBRANCH  26  28
ENDBRANCH  25  26
ENDBRANCH  22  25
ENDBRANCH  20  22
ENDBRANCH  19  20
ENDBRANCH  15  19
BRANCH  16  31
HETATM   31  O9  UNL     1      -0.580  53.830  -7.872  1.00  0.00    -0.385 OA
HETATM   32  H45 UNL     1      -1.091  54.592  -7.545  1.00  0.00     0.210 HD
ENDBRANCH  16  31
BRANCH  13  33
HETATM   33  O4  UNL     1       0.228  51.683 -13.196  1.00  0.00    -0.391 OA
HETATM   34  H25 UNL     1       0.394  50.730 -13.098  1.00  0.00     0.210 HD
ENDBRANCH  13  33
BRANCH   5  35
HETATM   35  C6  UNL     1       1.434  56.720  -7.050  1.00  0.00     0.010 C 
HETATM   36  C7  UNL     1       0.027  57.243  -7.380  1.00  0.00     0.012 C 
BRANCH  35  37
HETATM   37  C8  UNL     1       1.330  55.578  -6.017  1.00  0.00     0.183 C 
BRANCH  37  38
HETATM   38  O1  UNL     1      -0.045  55.475  -5.603  1.00  0.00    -0.321 OA
BRANCH  38  39
HETATM   39  C9  UNL     1      -0.288  54.835  -4.427  1.00  0.00     0.254 C 
HETATM   40  C10 UNL     1      -1.614  54.140  -4.497  1.00  0.00     0.126 C 
HETATM   41  O2  UNL     1       0.442  54.829  -3.448  1.00  0.00    -0.266 OA
ENDBRANCH  38  39
ENDBRANCH  37  38
ENDBRANCH  35  37
ENDBRANCH   5  35
TORSDOF 14
ENDMDL
MODEL 4
REMARK minimizedAffinity -6.43824005
REMARK CNNscore 0.738360703
REMARK CNNaffinity 7.26160002
REMARK  14 active torsions:
REMARK  status: ('A' for Active; 'I' for Inactive)
REMARK    1  A    between atoms: C5_5  and  C6_6 
REMARK    2  A    between atoms: C6_6  and  C8_8 
REMARK    3  A    between atoms: C8_8  and  O1_9 
REMARK    4  A    between atoms: O1_9  and  C9_10 
REMARK    5  A    between atoms: C17_20  and  O4_21 
REMARK    6  A    between atoms: C19_23  and  O5_24 
REMARK    7  A    between atoms: O5_24  and  C20_25 
REMARK    8  A    between atoms: C20_25  and  C21_27 
REMARK    9  A    between atoms: C21_27  and  C22_28 
REMARK   10  A    between atoms: C21_27  and  O7_30 
REMARK   11  A    between atoms: O7_30  and  C24_31 
REMARK   12  A    between atoms: C24_31  and  C25_33 
REMARK   13  A    between atoms: C25_33  and  C26_34 
REMARK   14  A    between atoms: C28_36  and  O9_38 
ROOT
HETATM    1  C1  UNL     1      -0.049  56.548  -7.627  1.00  0.00     0.015 C 
HETATM    2  C2  UNL     1       0.864  55.901  -8.371  1.00  0.00    -0.082 C 
HETATM    3  C3  UNL     1       2.303  55.827  -7.959  1.00  0.00     0.034 C 
HETATM    4  C4  UNL     1       2.721  54.366  -7.917  1.00  0.00     0.010 C 
HETATM    5  C5  UNL     1       2.633  53.657  -9.288  1.00  0.00    -0.001 C 
HETATM    6  C11 UNL     1       1.668  54.337 -10.305  1.00  0.00     0.033 C 
HETATM    7  C12 UNL     1       0.779  53.398 -11.133  1.00  0.00     0.163 C 
HETATM    8  O3  UNL     1      -0.182  53.004 -10.158  1.00  0.00    -0.376 OA
HETATM    9  C13 UNL     1      -0.691  54.217  -9.596  1.00  0.00     0.134 C 
HETATM   10  C14 UNL     1      -1.894  54.667 -10.467  1.00  0.00     0.068 C 
HETATM   11  C15 UNL     1      -2.885  53.565 -10.862  1.00  0.00    -0.058 C 
HETATM   12  C16 UNL     1      -4.181  53.717 -10.521  1.00  0.00     0.017 C 
HETATM   13  C17 UNL     1      -2.356  52.316 -11.601  1.00  0.00     0.149 C 
HETATM   14  C18 UNL     1      -1.446  52.566 -12.832  1.00  0.00     0.072 C 
HETATM   15  C19 UNL     1      -0.128  51.722 -12.887  1.00  0.00     0.171 C 
HETATM   16  C28 UNL     1       1.135  52.171 -11.987  1.00  0.00     0.107 C 
HETATM   17  C29 UNL     1       1.658  50.976 -11.176  1.00  0.00     0.051 C 
HETATM   18  C30 UNL     1       0.518  55.196  -9.660  1.00  0.00     0.050 C 
ENDROOT
BRANCH  15  19
HETATM   19  O5  UNL     1      -0.458  50.328 -12.642  1.00  0.00    -0.311 OA
BRANCH  19  20
HETATM   20  C20 UNL     1      -0.564  49.519 -13.733  1.00  0.00     0.289 C 
HETATM   21  O6  UNL     1      -1.554  48.853 -14.016  1.00  0.00    -0.262 OA
BRANCH  20  22
HETATM   22  C21 UNL     1       0.725  49.561 -14.562  1.00  0.00     0.231 C 
BRANCH  22  23
HETATM   23  C22 UNL     1       1.574  48.305 -14.327  1.00  0.00     0.038 C 
HETATM   24  C23 UNL     1       2.927  48.610 -13.703  1.00  0.00     0.008 C 
ENDBRANCH  22  23
BRANCH  22  25
HETATM   25  O7  UNL     1       0.375  49.571 -15.961  1.00  0.00    -0.306 OA
BRANCH  25  26
HETATM   26  C24 UNL     1       0.559  50.772 -16.580  1.00  0.00     0.259 C 
HETATM   27  O8  UNL     1       1.546  51.481 -16.437  1.00  0.00    -0.265 OA
BRANCH  26  28
HETATM   28  C25 UNL     1      -0.634  51.078 -17.455  1.00  0.00     0.111 C 
BRANCH  28  29
HETATM   29  C26 UNL     1      -0.426  50.693 -18.918  1.00  0.00     0.005 C 
HETATM   30  C27 UNL     1      -0.207  51.897 -19.823  1.00  0.00     0.005 C 
ENDBRANCH  28  29
ENDBRANCH  26  28
ENDBRANCH  25  26
ENDBRANCH  22  25
ENDBRANCH  20  22
ENDBRANCH  19  20
ENDBRANCH  15  19
BRANCH  16  31
HETATM   31  O9  UNL     1       2.166  52.598 -12.902  1.00  0.00    -0.385 OA
HETATM   32  H45 UNL     1       2.963  52.054 -12.767  1.00  0.00     0.210 HD
ENDBRANCH  16  31
BRANCH  13  33
HETATM   33  O4  UNL     1      -3.466  51.524 -12.053  1.00  0.00    -0.391 OA
HETATM   34  H25 UNL     1      -3.961  52.075 -12.683  1.00  0.00     0.210 HD
ENDBRANCH  13  33
BRANCH   5  35
HETATM   35  C6  UNL     1       4.044  53.437  -9.927  1.00  0.00     0.010 C 
HETATM   36  C7  UNL     1       4.842  54.733 -10.144  1.00  0.00     0.012 C 
BRANCH  35  37
HETATM   37  C8  UNL     1       4.895  52.437  -9.117  1.00  0.00     0.183 C 
BRANCH  37  38
HETATM   38  O1  UNL     1       4.731  51.132  -9.705  1.00  0.00    -0.321 OA
BRANCH  38  39
HETATM   39  C9  UNL     1       5.856  50.514 -10.155  1.00  0.00     0.254 C 
HETATM   40  C10 UNL     1       7.056  51.091  -9.469  1.00  0.00     0.126 C 
HETATM   41  O2  UNL     1       5.902  49.633 -11.000  1.00  0.00    -0.266 OA
ENDBRANCH  38  39
ENDBRANCH  37  38
ENDBRANCH  35  37
ENDBRANCH   5  35
TORSDOF 14
ENDMDL
MODEL 5
REMARK minimizedAffinity -8.19898415
REMARK CNNscore 0.506025851
REMARK CNNaffinity 7.22003031
REMARK  14 active torsions:
REMARK  status: ('A' for Active; 'I' for Inactive)
REMARK    1  A    between atoms: C5_5  and  C6_6 
REMARK    2  A    between atoms: C6_6  and  C8_8 
REMARK    3  A    between atoms: C8_8  and  O1_9 
REMARK    4  A    between atoms: O1_9  and  C9_10 
REMARK    5  A    between atoms: C17_20  and  O4_21 
REMARK    6  A    between atoms: C19_23  and  O5_24 
REMARK    7  A    between atoms: O5_24  and  C20_25 
REMARK    8  A    between atoms: C20_25  and  C21_27 
REMARK    9  A    between atoms: C21_27  and  C22_28 
REMARK   10  A    between atoms: C21_27  and  O7_30 
REMARK   11  A    between atoms: O7_30  and  C24_31 
REMARK   12  A    between atoms: C24_31  and  C25_33 
REMARK   13  A    between atoms: C25_33  and  C26_34 
REMARK   14  A    between atoms: C28_36  and  O9_38 
ROOT
HETATM    1  C1  UNL     1      -3.216  49.754 -16.950  1.00  0.00     0.015 C 
HETATM    2  C2  UNL     1      -3.472  49.475 -18.239  1.00  0.00    -0.082 C 
HETATM    3  C3  UNL     1      -4.775  48.870 -18.667  1.00  0.00     0.034 C 
HETATM    4  C4  UNL     1      -5.390  49.753 -19.741  1.00  0.00     0.010 C 
HETATM    5  C5  UNL     1      -4.530  49.862 -21.021  1.00  0.00    -0.001 C 
HETATM    6  C11 UNL     1      -3.020  49.535 -20.813  1.00  0.00     0.033 C 
HETATM    7  C12 UNL     1      -2.020  50.453 -21.531  1.00  0.00     0.163 C 
HETATM    8  O3  UNL     1      -2.099  51.624 -20.724  1.00  0.00    -0.376 OA
HETATM    9  C13 UNL     1      -1.885  51.189 -19.379  1.00  0.00     0.134 C 
HETATM   10  C14 UNL     1      -0.356  51.220 -19.115  1.00  0.00     0.068 C 
HETATM   11  C15 UNL     1       0.385  52.467 -19.612  1.00  0.00    -0.058 C 
HETATM   12  C16 UNL     1       1.086  53.194 -18.719  1.00  0.00     0.017 C 
HETATM   13  C17 UNL     1       0.271  52.857 -21.102  1.00  0.00     0.149 C 
HETATM   14  C18 UNL     1       0.532  51.734 -22.141  1.00  0.00     0.072 C 
HETATM   15  C19 UNL     1      -0.521  51.616 -23.294  1.00  0.00     0.171 C 
HETATM   16  C28 UNL     1      -1.930  50.884 -23.004  1.00  0.00     0.107 C 
HETATM   17  C29 UNL     1      -3.094  51.773 -23.467  1.00  0.00     0.051 C 
HETATM   18  C30 UNL     1      -2.488  49.753 -19.349  1.00  0.00     0.050 C 
ENDROOT
BRANCH  15  19
HETATM   19  O5  UNL     1      -0.740  52.936 -23.861  1.00  0.00    -0.311 OA
BRANCH  19  20
HETATM   20  C20 UNL     1       0.212  53.406 -24.715  1.00  0.00     0.289 C 
HETATM   21  O6  UNL     1       1.054  54.249 -24.429  1.00  0.00    -0.262 OA
BRANCH  20  22
HETATM   22  C21 UNL     1       0.088  52.727 -26.085  1.00  0.00     0.231 C 
BRANCH  22  23
HETATM   23  C22 UNL     1       1.281  51.800 -26.352  1.00  0.00     0.038 C 
HETATM   24  C23 UNL     1       1.709  51.789 -27.811  1.00  0.00     0.008 C 
ENDBRANCH  22  23
BRANCH  22  25
HETATM   25  O7  UNL     1      -1.092  51.897 -26.084  1.00  0.00    -0.306 OA
BRANCH  25  26
HETATM   26  C24 UNL     1      -1.941  52.123 -27.127  1.00  0.00     0.259 C 
HETATM   27  O8  UNL     1      -2.281  53.231 -27.516  1.00  0.00    -0.265 OA
BRANCH  26  28
HETATM   28  C25 UNL     1      -2.385  50.802 -27.712  1.00  0.00     0.111 C 
BRANCH  28  29
HETATM   29  C26 UNL     1      -3.406  50.069 -26.844  1.00  0.00     0.005 C 
HETATM   30  C27 UNL     1      -3.273  48.555 -26.922  1.00  0.00     0.005 C 
ENDBRANCH  28  29
ENDBRANCH  26  28
ENDBRANCH  25  26
ENDBRANCH  22  25
ENDBRANCH  20  22
ENDBRANCH  19  20
ENDBRANCH  15  19
BRANCH  16  31
HETATM   31  O9  UNL     1      -1.936  49.669 -23.784  1.00  0.00    -0.385 OA
HETATM   32  H45 UNL     1      -2.694  49.681 -24.395  1.00  0.00     0.210 HD
ENDBRANCH  16  31
BRANCH  13  33
HETATM   33  O4  UNL     1       1.197  53.918 -21.389  1.00  0.00    -0.391 OA
HETATM   34  H25 UNL     1       2.087  53.560 -21.226  1.00  0.00     0.210 HD
ENDBRANCH  13  33
BRANCH   5  35
HETATM   35  C6  UNL     1      -5.121  49.018 -22.199  1.00  0.00     0.010 C 
HETATM   36  C7  UNL     1      -4.744  47.528 -22.154  1.00  0.00     0.012 C 
BRANCH  35  37
HETATM   37  C8  UNL     1      -6.654  49.159 -22.298  1.00  0.00     0.183 C 
BRANCH  37  38
HETATM   38  O1  UNL     1      -6.972  49.679 -23.603  1.00  0.00    -0.321 OA
BRANCH  38  39
HETATM   39  C9  UNL     1      -7.730  48.890 -24.412  1.00  0.00     0.254 C 
HETATM   40  C10 UNL     1      -6.840  47.983 -25.207  1.00  0.00     0.126 C 
HETATM   41  O2  UNL     1      -8.948  48.914 -24.503  1.00  0.00    -0.266 OA
ENDBRANCH  38  39
ENDBRANCH  37  38
ENDBRANCH  35  37
ENDBRANCH   5  35
TORSDOF 14
ENDMDL
MODEL 6
REMARK minimizedAffinity -7.29705572
REMARK CNNscore 0.436857045
REMARK CNNaffinity 6.61743116
REMARK  14 active torsions:
REMARK  status: ('A' for Active; 'I' for Inactive)
REMARK    1  A    between atoms: C5_5  and  C6_6 
REMARK    2  A    between atoms: C6_6  and  C8_8 
REMARK    3  A    between atoms: C8_8  and  O1_9 
REMARK    4  A    between atoms: O1_9  and  C9_10 
REMARK    5  A    between atoms: C17_20  and  O4_21 
REMARK    6  A    between atoms: C19_23  and  O5_24 
REMARK    7  A    between atoms: O5_24  and  C20_25 
REMARK    8  A    between atoms: C20_25  and  C21_27 
REMARK    9  A    between atoms: C21_27  and  C22_28 
REMARK   10  A    between atoms: C21_27  and  O7_30 
REMARK   11  A    between atoms: O7_30  and  C24_31 
REMARK   12  A    between atoms: C24_31  and  C25_33 
REMARK   13  A    between atoms: C25_33  and  C26_34 
REMARK   14  A    between atoms: C28_36  and  O9_38 
ROOT
HETATM    1  C1  UNL     1       1.242  53.762 -23.019  1.00  0.00     0.015 C 
HETATM    2  C2  UNL     1       0.855  53.019 -21.969  1.00  0.00    -0.082 C 
HETATM    3  C3  UNL     1       1.376  53.281 -20.588  1.00  0.00     0.034 C 
HETATM    4  C4  UNL     1       0.193  53.476 -19.653  1.00  0.00     0.010 C 
HETATM    5  C5  UNL     1      -0.717  52.232 -19.536  1.00  0.00    -0.001 C 
HETATM    6  C11 UNL     1      -0.610  51.241 -20.734  1.00  0.00     0.033 C 
HETATM    7  C12 UNL     1      -1.931  50.649 -21.247  1.00  0.00     0.163 C 
HETATM    8  O3  UNL     1      -2.478  51.766 -21.942  1.00  0.00    -0.376 OA
HETATM    9  C13 UNL     1      -1.456  52.208 -22.839  1.00  0.00     0.134 C 
HETATM   10  C14 UNL     1      -1.622  51.419 -24.164  1.00  0.00     0.068 C 
HETATM   11  C15 UNL     1      -3.057  51.286 -24.689  1.00  0.00    -0.058 C 
HETATM   12  C16 UNL     1      -3.330  51.740 -25.929  1.00  0.00     0.017 C 
HETATM   13  C17 UNL     1      -4.135  50.672 -23.769  1.00  0.00     0.149 C 
HETATM   14  C18 UNL     1      -3.781  49.327 -23.080  1.00  0.00     0.072 C 
HETATM   15  C19 UNL     1      -4.088  49.247 -21.546  1.00  0.00     0.171 C 
HETATM   16  C28 UNL     1      -3.070  49.936 -20.501  1.00  0.00     0.107 C 
HETATM   17  C29 UNL     1      -3.842  50.842 -19.529  1.00  0.00     0.051 C 
HETATM   18  C30 UNL     1      -0.131  51.882 -22.088  1.00  0.00     0.050 C 
ENDROOT
BRANCH  15  19
HETATM   19  O5  UNL     1      -5.446  49.713 -21.319  1.00  0.00    -0.311 OA
BRANCH  19  20
HETATM   20  C20 UNL     1      -6.279  48.878 -20.637  1.00  0.00     0.289 C 
HETATM   21  O6  UNL     1      -6.174  48.604 -19.446  1.00  0.00    -0.262 OA
BRANCH  20  22
HETATM   22  C21 UNL     1      -7.371  48.333 -21.565  1.00  0.00     0.231 C 
BRANCH  22  23
HETATM   23  C22 UNL     1      -7.740  49.357 -22.645  1.00  0.00     0.038 C 
HETATM   24  C23 UNL     1      -8.240  48.712 -23.929  1.00  0.00     0.008 C 
ENDBRANCH  22  23
BRANCH  22  25
HETATM   25  O7  UNL     1      -6.858  47.172 -22.250  1.00  0.00    -0.306 OA
BRANCH  25  26
HETATM   26  C24 UNL     1      -7.203  45.982 -21.681  1.00  0.00     0.259 C 
HETATM   27  O8  UNL     1      -8.265  45.768 -21.113  1.00  0.00    -0.265 OA
BRANCH  26  28
HETATM   28  C25 UNL     1      -6.078  44.990 -21.863  1.00  0.00     0.111 C 
BRANCH  28  29
HETATM   29  C26 UNL     1      -5.165  44.881 -20.643  1.00  0.00     0.005 C 
HETATM   30  C27 UNL     1      -3.956  45.804 -20.723  1.00  0.00     0.005 C 
ENDBRANCH  28  29
ENDBRANCH  26  28
ENDBRANCH  25  26
ENDBRANCH  22  25
ENDBRANCH  20  22
ENDBRANCH  19  20
ENDBRANCH  15  19
BRANCH  16  31
HETATM   31  O9  UNL     1      -2.458  48.867 -19.750  1.00  0.00    -0.385 OA
HETATM   32  H45 UNL     1      -2.646  48.988 -18.801  1.00  0.00     0.210 HD
ENDBRANCH  16  31
BRANCH  13  33
HETATM   33  O4  UNL     1      -5.338  50.453 -24.523  1.00  0.00    -0.391 OA
HETATM   34  H25 UNL     1      -5.116  49.810 -25.218  1.00  0.00     0.210 HD
ENDBRANCH  13  33
BRANCH   5  35
HETATM   35  C6  UNL     1      -0.514  51.481 -18.178  1.00  0.00     0.010 C 
HETATM   36  C7  UNL     1      -0.023  50.032 -18.330  1.00  0.00     0.012 C 
BRANCH  35  37
HETATM   37  C8  UNL     1       0.430  52.249 -17.230  1.00  0.00     0.183 C 
BRANCH  37  38
HETATM   38  O1  UNL     1       1.001  51.303 -16.306  1.00  0.00    -0.321 OA
BRANCH  38  39
HETATM   39  C9  UNL     1       2.184  51.644 -15.728  1.00  0.00     0.254 C 
HETATM   40  C10 UNL     1       2.871  52.682 -16.561  1.00  0.00     0.126 C 
HETATM   41  O2  UNL     1       2.642  51.175 -14.696  1.00  0.00    -0.266 OA
ENDBRANCH  38  39
ENDBRANCH  37  38
ENDBRANCH  35  37
ENDBRANCH   5  35
TORSDOF 14
ENDMDL
MODEL 7
REMARK minimizedAffinity -7.96696043
REMARK CNNscore 0.424020439
REMARK CNNaffinity 6.88384771
REMARK  14 active torsions:
REMARK  status: ('A' for Active; 'I' for Inactive)
REMARK    1  A    between atoms: C5_5  and  C6_6 
REMARK    2  A    between atoms: C6_6  and  C8_8 
REMARK    3  A    between atoms: C8_8  and  O1_9 
REMARK    4  A    between atoms: O1_9  and  C9_10 
REMARK    5  A    between atoms: C17_20  and  O4_21 
REMARK    6  A    between atoms: C19_23  and  O5_24 
REMARK    7  A    between atoms: O5_24  and  C20_25 
REMARK    8  A    between atoms: C20_25  and  C21_27 
REMARK    9  A    between atoms: C21_27  and  C22_28 
REMARK   10  A    between atoms: C21_27  and  O7_30 
REMARK   11  A    between atoms: O7_30  and  C24_31 
REMARK   12  A    between atoms: C24_31  and  C25_33 
REMARK   13  A    between atoms: C25_33  and  C26_34 
REMARK   14  A    between atoms: C28_36  and  O9_38 
ROOT
HETATM    1  C1  UNL     1       0.102  51.364 -27.879  1.00  0.00     0.015 C 
HETATM    2  C2  UNL     1      -0.025  51.463 -26.546  1.00  0.00    -0.082 C 
HETATM    3  C3  UNL     1       0.708  52.510 -25.763  1.00  0.00     0.034 C 
HETATM    4  C4  UNL     1      -0.302  53.302 -24.947  1.00  0.00     0.010 C 
HETATM    5  C5  UNL     1      -1.064  52.448 -23.907  1.00  0.00    -0.001 C 
HETATM    6  C11 UNL     1      -1.085  50.921 -24.218  1.00  0.00     0.033 C 
HETATM    7  C12 UNL     1      -2.419  50.197 -23.982  1.00  0.00     0.163 C 
HETATM    8  O3  UNL     1      -3.177  50.654 -25.099  1.00  0.00    -0.376 OA
HETATM    9  C13 UNL     1      -2.374  50.389 -26.253  1.00  0.00     0.134 C 
HETATM   10  C14 UNL     1      -2.703  48.951 -26.733  1.00  0.00     0.068 C 
HETATM   11  C15 UNL     1      -4.191  48.581 -26.770  1.00  0.00    -0.058 C 
HETATM   12  C16 UNL     1      -4.719  48.168 -27.940  1.00  0.00     0.017 C 
HETATM   13  C17 UNL     1      -5.030  48.730 -25.481  1.00  0.00     0.149 C 
HETATM   14  C18 UNL     1      -4.442  48.101 -24.190  1.00  0.00     0.072 C 
HETATM   15  C19 UNL     1      -4.463  49.015 -22.918  1.00  0.00     0.171 C 
HETATM   16  C28 UNL     1      -3.340  50.162 -22.753  1.00  0.00     0.107 C 
HETATM   17  C29 UNL     1      -4.003  51.510 -22.431  1.00  0.00     0.051 C 
HETATM   18  C30 UNL     1      -0.913  50.548 -25.737  1.00  0.00     0.050 C 
ENDROOT
BRANCH  15  19
HETATM   19  O5  UNL     1      -5.794  49.580 -22.773  1.00  0.00    -0.311 OA
BRANCH  19  20
HETATM   20  C20 UNL     1      -6.388  49.454 -21.554  1.00  0.00     0.289 C 
HETATM   21  O6  UNL     1      -5.857  49.732 -20.484  1.00  0.00    -0.262 OA
BRANCH  20  22
HETATM   22  C21 UNL     1      -7.818  48.923 -21.705  1.00  0.00     0.231 C 
BRANCH  22  23
HETATM   23  C22 UNL     1      -7.992  48.172 -23.031  1.00  0.00     0.038 C 
HETATM   24  C23 UNL     1      -7.961  46.660 -22.866  1.00  0.00     0.008 C 
ENDBRANCH  22  23
BRANCH  22  25
HETATM   25  O7  UNL     1      -8.071  47.970 -20.651  1.00  0.00    -0.306 OA
BRANCH  25  26
HETATM   26  C24 UNL     1      -8.966  48.392 -19.713  1.00  0.00     0.259 C 
HETATM   27  O8  UNL     1      -8.693  49.131 -18.777  1.00  0.00    -0.265 OA
BRANCH  26  28
HETATM   28  C25 UNL     1     -10.326  47.806 -20.013  1.00  0.00     0.111 C 
BRANCH  28  29
HETATM   29  C26 UNL     1     -11.152  47.522 -18.759  1.00  0.00     0.005 C 
HETATM   30  C27 UNL     1     -10.450  46.587 -17.785  1.00  0.00     0.005 C 
ENDBRANCH  28  29
ENDBRANCH  26  28
ENDBRANCH  25  26
ENDBRANCH  22  25
ENDBRANCH  20  22
ENDBRANCH  19  20
ENDBRANCH  15  19
BRANCH  16  31
HETATM   31  O9  UNL     1      -2.511  49.775 -21.636  1.00  0.00    -0.385 OA
HETATM   32  H45 UNL     1      -2.538  50.473 -20.956  1.00  0.00     0.210 HD
ENDBRANCH  16  31
BRANCH  13  33
HETATM   33  O4  UNL     1      -6.324  48.139 -25.684  1.00  0.00    -0.391 OA
HETATM   34  H25 UNL     1      -6.174  47.194 -25.853  1.00  0.00     0.210 HD
ENDBRANCH  13  33
BRANCH   5  35
HETATM   35  C6  UNL     1      -0.557  52.708 -22.450  1.00  0.00     0.010 C 
HETATM   36  C7  UNL     1      -1.254  51.850 -21.381  1.00  0.00     0.012 C 
BRANCH  35  37
HETATM   37  C8  UNL     1       0.972  52.538 -22.331  1.00  0.00     0.183 C 
BRANCH  37  38
HETATM   38  O1  UNL     1       1.283  52.244 -20.956  1.00  0.00    -0.321 OA
BRANCH  38  39
HETATM   39  C9  UNL     1       1.409  53.304 -20.113  1.00  0.00     0.254 C 
HETATM   40  C10 UNL     1       1.047  52.886 -18.721  1.00  0.00     0.126 C 
HETATM   41  O2  UNL     1       1.749  54.435 -20.426  1.00  0.00    -0.266 OA
ENDBRANCH  38  39
ENDBRANCH  37  38
ENDBRANCH  35  37
ENDBRANCH   5  35
TORSDOF 14
ENDMDL
MODEL 8
REMARK minimizedAffinity -7.85527706
REMARK CNNscore 0.399973989
REMARK CNNaffinity 6.71442795
REMARK  14 active torsions:
REMARK  status: ('A' for Active; 'I' for Inactive)
REMARK    1  A    between atoms: C5_5  and  C6_6 
REMARK    2  A    between atoms: C6_6  and  C8_8 
REMARK    3  A    between atoms: C8_8  and  O1_9 
REMARK    4  A    between atoms: O1_9  and  C9_10 
REMARK    5  A    between atoms: C17_20  and  O4_21 
REMARK    6  A    between atoms: C19_23  and  O5_24 
REMARK    7  A    between atoms: O5_24  and  C20_25 
REMARK    8  A    between atoms: C20_25  and  C21_27 
REMARK    9  A    between atoms: C21_27  and  C22_28 
REMARK   10  A    between atoms: C21_27  and  O7_30 
REMARK   11  A    between atoms: O7_30  and  C24_31 
REMARK   12  A    between atoms: C24_31  and  C25_33 
REMARK   13  A    between atoms: C25_33  and  C26_34 
REMARK   14  A    between atoms: C28_36  and  O9_38 
ROOT
HETATM    1  C1  UNL     1       0.110  51.146 -27.520  1.00  0.00     0.015 C 
HETATM    2  C2  UNL     1      -0.078  51.244 -26.193  1.00  0.00    -0.082 C 
HETATM    3  C3  UNL     1       0.660  52.255 -25.369  1.00  0.00     0.034 C 
HETATM    4  C4  UNL     1      -0.355  53.086 -24.598  1.00  0.00     0.010 C 
HETATM    5  C5  UNL     1      -1.203  52.261 -23.602  1.00  0.00    -0.001 C 
HETATM    6  C11 UNL     1      -1.274  50.737 -23.924  1.00  0.00     0.033 C 
HETATM    7  C12 UNL     1      -2.648  50.070 -23.759  1.00  0.00     0.163 C 
HETATM    8  O3  UNL     1      -3.329  50.564 -24.908  1.00  0.00    -0.376 OA
HETATM    9  C13 UNL     1      -2.482  50.271 -26.023  1.00  0.00     0.134 C 
HETATM   10  C14 UNL     1      -2.849  48.850 -26.528  1.00  0.00     0.068 C 
HETATM   11  C15 UNL     1      -4.348  48.545 -26.641  1.00  0.00    -0.058 C 
HETATM   12  C16 UNL     1      -4.835  48.160 -27.838  1.00  0.00     0.017 C 
HETATM   13  C17 UNL     1      -5.241  48.723 -25.393  1.00  0.00     0.149 C 
HETATM   14  C18 UNL     1      -4.745  48.064 -24.079  1.00  0.00     0.072 C 
HETATM   15  C19 UNL     1      -4.790  48.972 -22.804  1.00  0.00     0.171 C 
HETATM   16  C28 UNL     1      -3.628  50.069 -22.576  1.00  0.00     0.107 C 
HETATM   17  C29 UNL     1      -4.248  51.443 -22.278  1.00  0.00     0.051 C 
HETATM   18  C30 UNL     1      -1.043  50.365 -25.435  1.00  0.00     0.050 C 
ENDROOT
BRANCH  15  19
HETATM   19  O5  UNL     1      -6.101  49.593 -22.721  1.00  0.00    -0.311 OA
BRANCH  19  20
HETATM   20  C20 UNL     1      -7.111  48.837 -22.207  1.00  0.00     0.289 C 
HETATM   21  O6  UNL     1      -8.007  48.325 -22.868  1.00  0.00    -0.262 OA
BRANCH  20  22
HETATM   22  C21 UNL     1      -6.966  48.708 -20.686  1.00  0.00     0.231 C 
BRANCH  22  23
HETATM   23  C22 UNL     1      -8.332  48.518 -20.015  1.00  0.00     0.038 C 
HETATM   24  C23 UNL     1      -8.421  49.184 -18.651  1.00  0.00     0.008 C 
ENDBRANCH  22  23
BRANCH  22  25
HETATM   25  O7  UNL     1      -6.192  47.525 -20.394  1.00  0.00    -0.306 OA
BRANCH  25  26
HETATM   26  C24 UNL     1      -6.853  46.352 -20.606  1.00  0.00     0.259 C 
HETATM   27  O8  UNL     1      -7.869  46.013 -20.015  1.00  0.00    -0.265 OA
BRANCH  26  28
HETATM   28  C25 UNL     1      -6.137  45.553 -21.670  1.00  0.00     0.111 C 
BRANCH  28  29
HETATM   29  C26 UNL     1      -6.993  44.438 -22.268  1.00  0.00     0.005 C 
HETATM   30  C27 UNL     1      -7.866  44.913 -23.421  1.00  0.00     0.005 C 
ENDBRANCH  28  29
ENDBRANCH  26  28
ENDBRANCH  25  26
ENDBRANCH  22  25
ENDBRANCH  20  22
ENDBRANCH  19  20
ENDBRANCH  15  19
BRANCH  16  31
HETATM   31  O9  UNL     1      -2.873  49.642 -21.422  1.00  0.00    -0.385 OA
HETATM   32  H45 UNL     1      -2.904  50.337 -20.740  1.00  0.00     0.210 HD
ENDBRANCH  16  31
BRANCH  13  33
HETATM   33  O4  UNL     1      -6.548  48.190 -25.663  1.00  0.00    -0.391 OA
HETATM   34  H25 UNL     1      -6.430  47.240 -25.831  1.00  0.00     0.210 HD
ENDBRANCH  13  33
BRANCH   5  35
HETATM   35  C6  UNL     1      -0.758  52.492 -22.120  1.00  0.00     0.010 C 
HETATM   36  C7  UNL     1      -1.489  51.603 -21.100  1.00  0.00     0.012 C 
BRANCH  35  37
HETATM   37  C8  UNL     1       0.767  52.333 -21.943  1.00  0.00     0.183 C 
BRANCH  37  38
HETATM   38  O1  UNL     1       1.034  52.120 -20.544  1.00  0.00    -0.321 OA
BRANCH  38  39
HETATM   39  C9  UNL     1       1.251  53.227 -19.783  1.00  0.00     0.254 C 
HETATM   40  C10 UNL     1       1.007  52.901 -18.341  1.00  0.00     0.126 C 
HETATM   41  O2  UNL     1       1.577  54.329 -20.195  1.00  0.00    -0.266 OA
ENDBRANCH  38  39
ENDBRANCH  37  38
ENDBRANCH  35  37
ENDBRANCH   5  35
TORSDOF 14
ENDMDL
MODEL 9
REMARK minimizedAffinity -6.54916096
REMARK CNNscore 0.396430284
REMARK CNNaffinity 6.28389692
REMARK  14 active torsions:
REMARK  status: ('A' for Active; 'I' for Inactive)
REMARK    1  A    between atoms: C5_5  and  C6_6 
REMARK    2  A    between atoms: C6_6  and  C8_8 
REMARK    3  A    between atoms: C8_8  and  O1_9 
REMARK    4  A    between atoms: O1_9  and  C9_10 
REMARK    5  A    between atoms: C17_20  and  O4_21 
REMARK    6  A    between atoms: C19_23  and  O5_24 
REMARK    7  A    between atoms: O5_24  and  C20_25 
REMARK    8  A    between atoms: C20_25  and  C21_27 
REMARK    9  A    between atoms: C21_27  and  C22_28 
REMARK   10  A    between atoms: C21_27  and  O7_30 
REMARK   11  A    between atoms: O7_30  and  C24_31 
REMARK   12  A    between atoms: C24_31  and  C25_33 
REMARK   13  A    between atoms: C25_33  and  C26_34 
REMARK   14  A    between atoms: C28_36  and  O9_38 
ROOT
HETATM    1  C1  UNL     1      -3.397  48.874 -24.461  1.00  0.00     0.015 C 
HETATM    2  C2  UNL     1      -3.624  48.831 -23.137  1.00  0.00    -0.082 C 
HETATM    3  C3  UNL     1      -4.412  47.720 -22.512  1.00  0.00     0.034 C 
HETATM    4  C4  UNL     1      -3.574  47.092 -21.409  1.00  0.00     0.010 C 
HETATM    5  C5  UNL     1      -3.228  48.068 -20.261  1.00  0.00    -0.001 C 
HETATM    6  C11 UNL     1      -3.304  49.575 -20.652  1.00  0.00     0.033 C 
HETATM    7  C12 UNL     1      -2.179  50.474 -20.118  1.00  0.00     0.163 C 
HETATM    8  O3  UNL     1      -1.099  50.089 -20.964  1.00  0.00    -0.376 OA
HETATM    9  C13 UNL     1      -1.586  50.212 -22.303  1.00  0.00     0.134 C 
HETATM   10  C14 UNL     1      -1.312  51.666 -22.769  1.00  0.00     0.068 C 
HETATM   11  C15 UNL     1       0.077  52.226 -22.435  1.00  0.00    -0.058 C 
HETATM   12  C16 UNL     1       0.848  52.671 -23.447  1.00  0.00     0.017 C 
HETATM   13  C17 UNL     1       0.547  52.227 -20.963  1.00  0.00     0.149 C 
HETATM   14  C18 UNL     1      -0.438  52.810 -19.916  1.00  0.00     0.072 C 
HETATM   15  C19 UNL     1      -0.653  51.944 -18.629  1.00  0.00     0.171 C 
HETATM   16  C28 UNL     1      -1.636  50.665 -18.694  1.00  0.00     0.107 C 
HETATM   17  C29 UNL     1      -0.929  49.426 -18.124  1.00  0.00     0.051 C 
HETATM   18  C30 UNL     1      -3.103  49.878 -22.183  1.00  0.00     0.050 C 
ENDROOT
BRANCH  15  19
HETATM   19  O5  UNL     1       0.646  51.563 -18.102  1.00  0.00    -0.311 OA
BRANCH  19  20
HETATM   20  C20 UNL     1       1.197  52.384 -17.164  1.00  0.00     0.289 C 
HETATM   21  O6  UNL     1       1.028  53.597 -17.110  1.00  0.00    -0.262 OA
BRANCH  20  22
HETATM   22  C21 UNL     1       2.052  51.577 -16.179  1.00  0.00     0.231 C 
BRANCH  22  23
HETATM   23  C22 UNL     1       3.471  52.152 -16.080  1.00  0.00     0.038 C 
HETATM   24  C23 UNL     1       4.308  51.484 -15.001  1.00  0.00     0.008 C 
ENDBRANCH  22  23
BRANCH  22  25
HETATM   25  O7  UNL     1       1.467  51.685 -14.865  1.00  0.00    -0.306 OA
BRANCH  25  26
HETATM   26  C24 UNL     1       0.608  50.675 -14.546  1.00  0.00     0.259 C 
HETATM   27  O8  UNL     1      -0.396  50.809 -13.859  1.00  0.00    -0.265 OA
BRANCH  26  28
HETATM   28  C25 UNL     1       1.091  49.386 -15.169  1.00  0.00     0.111 C 
BRANCH  28  29
HETATM   29  C26 UNL     1       1.750  48.439 -14.167  1.00  0.00     0.005 C 
HETATM   30  C27 UNL     1       1.708  46.983 -14.610  1.00  0.00     0.005 C 
ENDBRANCH  28  29
ENDBRANCH  26  28
ENDBRANCH  25  26
ENDBRANCH  22  25
ENDBRANCH  20  22
ENDBRANCH  19  20
ENDBRANCH  15  19
BRANCH  16  31
HETATM   31  O9  UNL     1      -2.774  50.973 -17.862  1.00  0.00    -0.385 OA
HETATM   32  H45 UNL     1      -2.850  50.305 -17.157  1.00  0.00     0.210 HD
ENDBRANCH  16  31
BRANCH  13  33
HETATM   33  O4  UNL     1       1.769  52.975 -20.854  1.00  0.00    -0.391 OA
HETATM   34  H25 UNL     1       1.559  53.888 -21.116  1.00  0.00     0.210 HD
ENDBRANCH  13  33
BRANCH   5  35
HETATM   35  C6  UNL     1      -4.075  47.787 -18.976  1.00  0.00     0.010 C 
HETATM   36  C7  UNL     1      -3.234  47.536 -17.714  1.00  0.00     0.012 C 
BRANCH  35  37
HETATM   37  C8  UNL     1      -5.096  48.911 -18.700  1.00  0.00     0.183 C 
BRANCH  37  38
HETATM   38  O1  UNL     1      -6.409  48.320 -18.661  1.00  0.00    -0.321 OA
BRANCH  38  39
HETATM   39  C9  UNL     1      -7.397  48.970 -19.333  1.00  0.00     0.254 C 
HETATM   40  C10 UNL     1      -6.793  49.968 -20.273  1.00  0.00     0.126 C 
HETATM   41  O2  UNL     1      -8.598  48.793 -19.194  1.00  0.00    -0.266 OA
ENDBRANCH  38  39
ENDBRANCH  37  38
ENDBRANCH  35  37
ENDBRANCH   5  35
TORSDOF 14
ENDMDL
