MODEL 1
REMARK minimizedAffinity -8.84625912
REMARK CNNscore 0.745299876
REMARK CNNaffinity 6.3252883
REMARK  12 active torsions:
REMARK  status: ('A' for Active; 'I' for Inactive)
REMARK    1  A    between atoms: C19_21  and  O3_22 
REMARK    2  A    between atoms: C19_21  and  C20_23 
REMARK    3  A    between atoms: C20_23  and  C21_25 
REMARK    4  A    between atoms: C21_25  and  O5_26 
REMARK    5  A    between atoms: O5_26  and  C22_27 
REMARK    6  A    between atoms: C22_27  and  C23_29 
REMARK    7  A    between atoms: C23_29  and  C24_30 
REMARK    8  A    between atoms: C24_30  and  C25_31 
REMARK       I    between atoms: C25_31  and  N1_33 
REMARK    9  A    between atoms: N1_33  and  C26_34 
REMARK   10  A    between atoms: C26_34  and  C27_35 
REMARK   11  A    between atoms: C27_35  and  C28_36 
REMARK   12  A    between atoms: C31_39  and  O8_40 
ROOT
HETATM    1  C1  UNL     1     -15.520  44.472 -24.694  1.00  0.00     0.021 C 
HETATM    2  C2  UNL     1     -15.904  45.728 -25.510  1.00  0.00    -0.009 C 
HETATM    3  C3  UNL     1     -16.457  46.828 -24.551  1.00  0.00     0.022 C 
HETATM    4  C4  UNL     1     -17.849  46.532 -24.011  1.00  0.00     0.084 C 
HETATM    5  C5  UNL     1     -18.811  46.304 -25.144  1.00  0.00     0.149 C 
HETATM    6  O1  UNL     1     -20.001  46.600 -25.071  1.00  0.00    -0.293 OA
HETATM    7  C6  UNL     1     -18.305  45.616 -26.353  1.00  0.00     0.053 C 
HETATM    8  C7  UNL     1     -17.003  45.314 -26.507  1.00  0.00    -0.067 C 
HETATM    9  C8  UNL     1     -16.568  44.497 -27.701  1.00  0.00     0.035 C 
HETATM   10  C9  UNL     1     -15.401  45.142 -28.437  1.00  0.00     0.010 C 
HETATM   11  C10 UNL     1     -14.226  45.408 -27.486  1.00  0.00     0.003 C 
HETATM   12  C11 UNL     1     -14.689  46.321 -26.310  1.00  0.00     0.072 C 
HETATM   13  C12 UNL     1     -13.471  46.739 -25.459  1.00  0.00     0.133 C 
HETATM   14  O2  UNL     1     -13.447  46.677 -24.232  1.00  0.00    -0.297 OA
HETATM   15  C13 UNL     1     -12.280  47.321 -26.209  1.00  0.00     0.091 C 
HETATM   16  C14 UNL     1     -11.836  46.346 -27.306  1.00  0.00     0.005 C 
HETATM   17  C15 UNL     1     -11.277  45.059 -26.642  1.00  0.00     0.019 C 
HETATM   18  C16 UNL     1     -13.060  46.084 -28.221  1.00  0.00     0.002 C 
HETATM   19  C17 UNL     1     -12.459  45.376 -29.431  1.00  0.00     0.009 C 
HETATM   20  C18 UNL     1     -11.051  45.991 -29.586  1.00  0.00     0.047 C 
HETATM   21  C19 UNL     1     -10.837  46.905 -28.359  1.00  0.00     0.128 C 
ENDROOT
BRANCH  21  22
HETATM   22  O3  UNL     1     -11.256  48.227 -28.751  1.00  0.00    -0.381 OA
HETATM   23  H25 UNL     1     -10.825  48.855 -28.134  1.00  0.00     0.211 HD
ENDBRANCH  21  22
BRANCH  21  24
HETATM   24  C20 UNL     1      -9.397  47.065 -27.839  1.00  0.00     0.185 C 
HETATM   25  O4  UNL     1      -8.485  46.466 -28.426  1.00  0.00    -0.292 OA
BRANCH  24  26
HETATM   26  C21 UNL     1      -9.130  47.962 -26.633  1.00  0.00     0.260 C 
BRANCH  26  27
HETATM   27  O5  UNL     1      -7.926  47.609 -25.950  1.00  0.00    -0.314 OA
BRANCH  27  28
HETATM   28  C22 UNL     1      -7.679  48.357 -24.836  1.00  0.00     0.259 C 
HETATM   29  O6  UNL     1      -8.343  49.323 -24.488  1.00  0.00    -0.265 OA
BRANCH  28  30
HETATM   30  C23 UNL     1      -6.463  47.833 -24.123  1.00  0.00     0.120 C 
BRANCH  30  31
HETATM   31  C24 UNL     1      -5.201  48.503 -24.651  1.00  0.00     0.112 C 
BRANCH  31  32
HETATM   32  C25 UNL     1      -4.221  48.812 -23.543  1.00  0.00     0.218 C 
HETATM   33  O7  UNL     1      -4.364  48.438 -22.385  1.00  0.00    -0.274 OA
HETATM   34  N1  UNL     1      -3.141  49.547 -23.979  1.00  0.00    -0.361 N 
HETATM   35  H32 UNL     1      -3.059  49.771 -24.962  1.00  0.00     0.162 HD
BRANCH  34  36
HETATM   36  C26 UNL     1      -2.055  49.917 -23.092  1.00  0.00     0.127 C 
BRANCH  36  37
HETATM   37  C27 UNL     1      -1.119  50.950 -23.725  1.00  0.00     0.058 C 
BRANCH  37  38
HETATM   38  C28 UNL     1      -0.435  51.796 -22.680  1.00  0.00    -0.057 A 
HETATM   39  C29 UNL     1       0.473  52.796 -23.057  1.00  0.00     0.010 A 
HETATM   40  C30 UNL     1       1.085  53.599 -22.091  1.00  0.00     0.037 A 
HETATM   41  C31 UNL     1       0.786  53.402 -20.747  1.00  0.00     0.065 A 
HETATM   42  C32 UNL     1      -0.114  52.418 -20.356  1.00  0.00     0.037 A 
HETATM   43  C33 UNL     1      -0.726  51.616 -21.320  1.00  0.00     0.010 A 
BRANCH  41  44
HETATM   44  O8  UNL     1       1.358  54.165 -19.772  1.00  0.00    -0.361 OA
HETATM   45  H39 UNL     1       1.954  54.806 -20.192  1.00  0.00     0.217 HD
ENDBRANCH  41  44
ENDBRANCH  37  38
ENDBRANCH  36  37
ENDBRANCH  34  36
ENDBRANCH  31  32
ENDBRANCH  30  31
ENDBRANCH  28  30
ENDBRANCH  27  28
ENDBRANCH  26  27
ENDBRANCH  24  26
ENDBRANCH  21  24
TORSDOF 12
ENDMDL
MODEL 2
REMARK minimizedAffinity -9.30604935
REMARK CNNscore 0.635933638
REMARK CNNaffinity 7.06073523
REMARK  12 active torsions:
REMARK  status: ('A' for Active; 'I' for Inactive)
REMARK    1  A    between atoms: C19_21  and  O3_22 
REMARK    2  A    between atoms: C19_21  and  C20_23 
REMARK    3  A    between atoms: C20_23  and  C21_25 
REMARK    4  A    between atoms: C21_25  and  O5_26 
REMARK    5  A    between atoms: O5_26  and  C22_27 
REMARK    6  A    between atoms: C22_27  and  C23_29 
REMARK    7  A    between atoms: C23_29  and  C24_30 
REMARK    8  A    between atoms: C24_30  and  C25_31 
REMARK       I    between atoms: C25_31  and  N1_33 
REMARK    9  A    between atoms: N1_33  and  C26_34 
REMARK   10  A    between atoms: C26_34  and  C27_35 
REMARK   11  A    between atoms: C27_35  and  C28_36 
REMARK   12  A    between atoms: C31_39  and  O8_40 
ROOT
HETATM    1  C1  UNL     1      -1.963  52.917 -24.029  1.00  0.00     0.021 C 
HETATM    2  C2  UNL     1      -1.023  51.689 -24.047  1.00  0.00    -0.009 C 
HETATM    3  C3  UNL     1       0.434  52.148 -24.364  1.00  0.00     0.022 C 
HETATM    4  C4  UNL     1       0.648  52.561 -25.814  1.00  0.00     0.084 C 
HETATM    5  C5  UNL     1       0.246  51.446 -26.739  1.00  0.00     0.149 C 
HETATM    6  O1  UNL     1       0.793  51.255 -27.822  1.00  0.00    -0.293 OA
HETATM    7  C6  UNL     1      -0.914  50.611 -26.351  1.00  0.00     0.053 C 
HETATM    8  C7  UNL     1      -1.519  50.744 -25.157  1.00  0.00    -0.067 C 
HETATM    9  C8  UNL     1      -2.776  49.955 -24.872  1.00  0.00     0.035 C 
HETATM   10  C9  UNL     1      -2.693  49.215 -23.543  1.00  0.00     0.010 C 
HETATM   11  C10 UNL     1      -2.364  50.176 -22.393  1.00  0.00     0.003 C 
HETATM   12  C11 UNL     1      -1.020  50.912 -22.681  1.00  0.00     0.072 C 
HETATM   13  C12 UNL     1      -0.599  51.736 -21.447  1.00  0.00     0.133 C 
HETATM   14  O2  UNL     1      -0.229  52.907 -21.506  1.00  0.00    -0.297 OA
HETATM   15  C13 UNL     1      -0.583  51.006 -20.110  1.00  0.00     0.091 C 
HETATM   16  C14 UNL     1      -1.952  50.362 -19.859  1.00  0.00     0.005 C 
HETATM   17  C15 UNL     1      -3.010  51.482 -19.671  1.00  0.00     0.019 C 
HETATM   18  C16 UNL     1      -2.252  49.426 -21.058  1.00  0.00     0.002 C 
HETATM   19  C17 UNL     1      -3.451  48.609 -20.584  1.00  0.00     0.009 C 
HETATM   20  C18 UNL     1      -3.242  48.455 -19.062  1.00  0.00     0.047 C 
HETATM   21  C19 UNL     1      -2.023  49.331 -18.698  1.00  0.00     0.128 C 
ENDROOT
BRANCH  21  22
HETATM   22  O3  UNL     1      -0.866  48.472 -18.757  1.00  0.00    -0.381 OA
HETATM   23  H25 UNL     1      -0.167  48.901 -18.220  1.00  0.00     0.211 HD
ENDBRANCH  21  22
BRANCH  21  24
HETATM   24  C20 UNL     1      -1.999  49.960 -17.293  1.00  0.00     0.185 C 
HETATM   25  O4  UNL     1      -3.059  50.391 -16.819  1.00  0.00    -0.292 OA
BRANCH  24  26
HETATM   26  C21 UNL     1      -0.683  50.022 -16.521  1.00  0.00     0.260 C 
BRANCH  26  27
HETATM   27  O5  UNL     1       0.156  51.091 -16.963  1.00  0.00    -0.314 OA
BRANCH  27  28
HETATM   28  C22 UNL     1       0.702  51.824 -15.952  1.00  0.00     0.259 C 
HETATM   29  O6  UNL     1       1.362  52.841 -16.109  1.00  0.00    -0.265 OA
BRANCH  28  30
HETATM   30  C23 UNL     1       0.392  51.183 -14.627  1.00  0.00     0.120 C 
BRANCH  30  31
HETATM   31  C24 UNL     1      -0.047  52.232 -13.612  1.00  0.00     0.112 C 
BRANCH  31  32
HETATM   32  C25 UNL     1      -1.229  51.766 -12.795  1.00  0.00     0.218 C 
HETATM   33  O7  UNL     1      -1.250  50.713 -12.168  1.00  0.00    -0.274 OA
HETATM   34  N1  UNL     1      -2.277  52.660 -12.819  1.00  0.00    -0.361 N 
HETATM   35  H32 UNL     1      -2.168  53.537 -13.310  1.00  0.00     0.162 HD
BRANCH  34  36
HETATM   36  C26 UNL     1      -3.496  52.435 -12.066  1.00  0.00     0.127 C 
BRANCH  36  37
HETATM   37  C27 UNL     1      -3.807  53.592 -11.114  1.00  0.00     0.058 C 
BRANCH  37  38
HETATM   38  C28 UNL     1      -2.652  53.875 -10.185  1.00  0.00    -0.057 A 
HETATM   39  C29 UNL     1      -2.329  52.976  -9.158  1.00  0.00     0.010 A 
HETATM   40  C30 UNL     1      -1.242  53.223  -8.315  1.00  0.00     0.037 A 
HETATM   41  C31 UNL     1      -0.477  54.370  -8.503  1.00  0.00     0.065 A 
HETATM   42  C32 UNL     1      -0.781  55.269  -9.517  1.00  0.00     0.037 A 
HETATM   43  C33 UNL     1      -1.866  55.023 -10.359  1.00  0.00     0.010 A 
BRANCH  41  44
HETATM   44  O8  UNL     1       0.595  54.648  -7.706  1.00  0.00    -0.361 OA
HETATM   45  H39 UNL     1       0.686  53.936  -7.052  1.00  0.00     0.217 HD
ENDBRANCH  41  44
ENDBRANCH  37  38
ENDBRANCH  36  37
ENDBRANCH  34  36
ENDBRANCH  31  32
ENDBRANCH  30  31
ENDBRANCH  28  30
ENDBRANCH  27  28
ENDBRANCH  26  27
ENDBRANCH  24  26
ENDBRANCH  21  24
TORSDOF 12
ENDMDL
MODEL 3
REMARK minimizedAffinity -8.54455185
REMARK CNNscore 0.616473198
REMARK CNNaffinity 6.00907087
REMARK  12 active torsions:
REMARK  status: ('A' for Active; 'I' for Inactive)
REMARK    1  A    between atoms: C19_21  and  O3_22 
REMARK    2  A    between atoms: C19_21  and  C20_23 
REMARK    3  A    between atoms: C20_23  and  C21_25 
REMARK    4  A    between atoms: C21_25  and  O5_26 
REMARK    5  A    between atoms: O5_26  and  C22_27 
REMARK    6  A    between atoms: C22_27  and  C23_29 
REMARK    7  A    between atoms: C23_29  and  C24_30 
REMARK    8  A    between atoms: C24_30  and  C25_31 
REMARK       I    between atoms: C25_31  and  N1_33 
REMARK    9  A    between atoms: N1_33  and  C26_34 
REMARK   10  A    between atoms: C26_34  and  C27_35 
REMARK   11  A    between atoms: C27_35  and  C28_36 
REMARK   12  A    between atoms: C31_39  and  O8_40 
ROOT
HETATM    1  C1  UNL     1     -16.986  44.117 -22.689  1.00  0.00     0.021 C 
HETATM    2  C2  UNL     1     -17.466  45.579 -22.537  1.00  0.00    -0.009 C 
HETATM    3  C3  UNL     1     -18.982  45.597 -22.168  1.00  0.00     0.022 C 
HETATM    4  C4  UNL     1     -19.902  45.224 -23.322  1.00  0.00     0.084 C 
HETATM    5  C5  UNL     1     -19.648  46.121 -24.502  1.00  0.00     0.149 C 
HETATM    6  O1  UNL     1     -20.531  46.439 -25.294  1.00  0.00    -0.293 OA
HETATM    7  C6  UNL     1     -18.254  46.557 -24.752  1.00  0.00     0.053 C 
HETATM    8  C7  UNL     1     -17.258  46.279 -23.893  1.00  0.00    -0.067 C 
HETATM    9  C8  UNL     1     -15.837  46.636 -24.265  1.00  0.00     0.035 C 
HETATM   10  C9  UNL     1     -15.135  47.409 -23.156  1.00  0.00     0.010 C 
HETATM   11  C10 UNL     1     -15.188  46.642 -21.828  1.00  0.00     0.003 C 
HETATM   12  C11 UNL     1     -16.669  46.363 -21.432  1.00  0.00     0.072 C 
HETATM   13  C12 UNL     1     -16.728  45.758 -20.013  1.00  0.00     0.133 C 
HETATM   14  O2  UNL     1     -17.392  44.765 -19.725  1.00  0.00    -0.297 OA
HETATM   15  C13 UNL     1     -15.968  46.500 -18.922  1.00  0.00     0.091 C 
HETATM   16  C14 UNL     1     -14.506  46.684 -19.347  1.00  0.00     0.005 C 
HETATM   17  C15 UNL     1     -13.821  45.293 -19.411  1.00  0.00     0.019 C 
HETATM   18  C16 UNL     1     -14.505  47.434 -20.703  1.00  0.00     0.002 C 
HETATM   19  C17 UNL     1     -13.047  47.842 -20.887  1.00  0.00     0.009 C 
HETATM   20  C18 UNL     1     -12.531  48.107 -19.456  1.00  0.00     0.047 C 
HETATM   21  C19 UNL     1     -13.664  47.678 -18.498  1.00  0.00     0.128 C 
ENDROOT
BRANCH  21  22
HETATM   22  O3  UNL     1     -14.450  48.857 -18.234  1.00  0.00    -0.381 OA
HETATM   23  H25 UNL     1     -14.938  48.692 -17.400  1.00  0.00     0.211 HD
ENDBRANCH  21  22
BRANCH  21  24
HETATM   24  C20 UNL     1     -13.254  47.137 -17.116  1.00  0.00     0.185 C 
HETATM   25  O4  UNL     1     -14.112  47.077 -16.225  1.00  0.00    -0.292 OA
BRANCH  24  26
HETATM   26  C21 UNL     1     -11.816  46.678 -16.887  1.00  0.00     0.260 C 
BRANCH  26  27
HETATM   27  O5  UNL     1     -10.940  47.766 -16.583  1.00  0.00    -0.314 OA
BRANCH  27  28
HETATM   28  C22 UNL     1      -9.681  47.621 -17.084  1.00  0.00     0.259 C 
HETATM   29  O6  UNL     1      -8.993  46.619 -16.954  1.00  0.00    -0.265 OA
BRANCH  28  30
HETATM   30  C23 UNL     1      -9.260  48.880 -17.791  1.00  0.00     0.120 C 
BRANCH  30  31
HETATM   31  C24 UNL     1      -7.990  48.644 -18.599  1.00  0.00     0.112 C 
BRANCH  31  32
HETATM   32  C25 UNL     1      -8.276  48.533 -20.078  1.00  0.00     0.218 C 
HETATM   33  O7  UNL     1      -9.349  48.159 -20.537  1.00  0.00    -0.274 OA
HETATM   34  N1  UNL     1      -7.204  48.914 -20.856  1.00  0.00    -0.361 N 
HETATM   35  H32 UNL     1      -6.369  49.268 -20.409  1.00  0.00     0.162 HD
BRANCH  34  36
HETATM   36  C26 UNL     1      -7.274  48.930 -22.305  1.00  0.00     0.127 C 
BRANCH  36  37
HETATM   37  C27 UNL     1      -6.596  47.707 -22.928  1.00  0.00     0.058 C 
BRANCH  37  38
HETATM   38  C28 UNL     1      -5.431  48.101 -23.802  1.00  0.00    -0.057 A 
HETATM   39  C29 UNL     1      -4.188  48.413 -23.231  1.00  0.00     0.010 A 
HETATM   40  C30 UNL     1      -3.101  48.750 -24.042  1.00  0.00     0.037 A 
HETATM   41  C31 UNL     1      -3.257  48.772 -25.423  1.00  0.00     0.065 A 
HETATM   42  C32 UNL     1      -4.480  48.463 -26.006  1.00  0.00     0.037 A 
HETATM   43  C33 UNL     1      -5.567  48.126 -25.196  1.00  0.00     0.010 A 
BRANCH  41  44
HETATM   44  O8  UNL     1      -2.222  49.092 -26.251  1.00  0.00    -0.361 OA
HETATM   45  H39 UNL     1      -1.439  49.278 -25.708  1.00  0.00     0.217 HD
ENDBRANCH  41  44
ENDBRANCH  37  38
ENDBRANCH  36  37
ENDBRANCH  34  36
ENDBRANCH  31  32
ENDBRANCH  30  31
ENDBRANCH  28  30
ENDBRANCH  27  28
ENDBRANCH  26  27
ENDBRANCH  24  26
ENDBRANCH  21  24
TORSDOF 12
ENDMDL
MODEL 4
REMARK minimizedAffinity -10.7936258
REMARK CNNscore 0.599431515
REMARK CNNaffinity 7.47582006
REMARK  12 active torsions:
REMARK  status: ('A' for Active; 'I' for Inactive)
REMARK    1  A    between atoms: C19_21  and  O3_22 
REMARK    2  A    between atoms: C19_21  and  C20_23 
REMARK    3  A    between atoms: C20_23  and  C21_25 
REMARK    4  A    between atoms: C21_25  and  O5_26 
REMARK    5  A    between atoms: O5_26  and  C22_27 
REMARK    6  A    between atoms: C22_27  and  C23_29 
REMARK    7  A    between atoms: C23_29  and  C24_30 
REMARK    8  A    between atoms: C24_30  and  C25_31 
REMARK       I    between atoms: C25_31  and  N1_33 
REMARK    9  A    between atoms: N1_33  and  C26_34 
REMARK   10  A    between atoms: C26_34  and  C27_35 
REMARK   11  A    between atoms: C27_35  and  C28_36 
REMARK   12  A    between atoms: C31_39  and  O8_40 
ROOT
HETATM    1  C1  UNL     1      -0.434  49.640 -21.008  1.00  0.00     0.021 C 
HETATM    2  C2  UNL     1      -1.131  51.015 -21.131  1.00  0.00    -0.009 C 
HETATM    3  C3  UNL     1      -0.412  51.872 -22.218  1.00  0.00     0.022 C 
HETATM    4  C4  UNL     1       0.949  52.399 -21.787  1.00  0.00     0.084 C 
HETATM    5  C5  UNL     1       0.825  53.183 -20.510  1.00  0.00     0.149 C 
HETATM    6  O1  UNL     1       1.554  54.136 -20.245  1.00  0.00    -0.293 OA
HETATM    7  C6  UNL     1      -0.162  52.721 -19.508  1.00  0.00     0.053 C 
HETATM    8  C7  UNL     1      -1.018  51.716 -19.764  1.00  0.00    -0.067 C 
HETATM    9  C8  UNL     1      -1.911  51.203 -18.658  1.00  0.00     0.035 C 
HETATM   10  C9  UNL     1      -3.368  51.125 -19.094  1.00  0.00     0.010 C 
HETATM   11  C10 UNL     1      -3.520  50.284 -20.369  1.00  0.00     0.003 C 
HETATM   12  C11 UNL     1      -2.651  50.888 -21.513  1.00  0.00     0.072 C 
HETATM   13  C12 UNL     1      -2.945  50.155 -22.838  1.00  0.00     0.133 C 
HETATM   14  O2  UNL     1      -2.069  49.740 -23.594  1.00  0.00    -0.297 OA
HETATM   15  C13 UNL     1      -4.410  50.022 -23.235  1.00  0.00     0.091 C 
HETATM   16  C14 UNL     1      -5.194  49.363 -22.094  1.00  0.00     0.005 C 
HETATM   17  C15 UNL     1      -4.708  47.898 -21.927  1.00  0.00     0.019 C 
HETATM   18  C16 UNL     1      -4.986  50.228 -20.825  1.00  0.00     0.002 C 
HETATM   19  C17 UNL     1      -6.028  49.691 -19.849  1.00  0.00     0.009 C 
HETATM   20  C18 UNL     1      -7.217  49.269 -20.739  1.00  0.00     0.047 C 
HETATM   21  C19 UNL     1      -6.744  49.424 -22.201  1.00  0.00     0.128 C 
ENDROOT
BRANCH  21  22
HETATM   22  O3  UNL     1      -7.136  50.746 -22.623  1.00  0.00    -0.381 OA
HETATM   23  H25 UNL     1      -7.154  50.736 -23.603  1.00  0.00     0.211 HD
ENDBRANCH  21  22
BRANCH  21  24
HETATM   24  C20 UNL     1      -7.342  48.462 -23.244  1.00  0.00     0.185 C 
HETATM   25  O4  UNL     1      -7.973  47.474 -22.844  1.00  0.00    -0.292 OA
BRANCH  24  26
HETATM   26  C21 UNL     1      -7.158  48.758 -24.730  1.00  0.00     0.260 C 
BRANCH  26  27
HETATM   27  O5  UNL     1      -6.974  47.569 -25.501  1.00  0.00    -0.314 OA
BRANCH  27  28
HETATM   28  C22 UNL     1      -6.102  47.710 -26.539  1.00  0.00     0.259 C 
HETATM   29  O6  UNL     1      -6.358  47.436 -27.703  1.00  0.00    -0.265 OA
BRANCH  28  30
HETATM   30  C23 UNL     1      -4.781  48.224 -26.037  1.00  0.00     0.120 C 
BRANCH  30  31
HETATM   31  C24 UNL     1      -3.792  48.378 -27.186  1.00  0.00     0.112 C 
BRANCH  31  32
HETATM   32  C25 UNL     1      -3.496  49.830 -27.483  1.00  0.00     0.218 C 
HETATM   33  O7  UNL     1      -3.490  50.305 -28.612  1.00  0.00    -0.274 OA
HETATM   34  N1  UNL     1      -3.248  50.564 -26.344  1.00  0.00    -0.361 N 
HETATM   35  H32 UNL     1      -3.327  50.118 -25.440  1.00  0.00     0.162 HD
BRANCH  34  36
HETATM   36  C26 UNL     1      -2.985  51.990 -26.392  1.00  0.00     0.127 C 
BRANCH  36  37
HETATM   37  C27 UNL     1      -2.109  52.375 -27.587  1.00  0.00     0.058 C 
BRANCH  37  38
HETATM   38  C28 UNL     1      -0.648  52.116 -27.312  1.00  0.00    -0.057 A 
HETATM   39  C29 UNL     1      -0.193  51.929 -25.999  1.00  0.00     0.010 A 
HETATM   40  C30 UNL     1       1.155  51.660 -25.747  1.00  0.00     0.037 A 
HETATM   41  C31 UNL     1       2.047  51.577 -26.811  1.00  0.00     0.065 A 
HETATM   42  C32 UNL     1       1.613  51.756 -28.119  1.00  0.00     0.037 A 
HETATM   43  C33 UNL     1       0.266  52.025 -28.371  1.00  0.00     0.010 A 
BRANCH  41  44
HETATM   44  O8  UNL     1       3.370  51.313 -26.611  1.00  0.00    -0.361 OA
HETATM   45  H39 UNL     1       3.523  51.209 -25.657  1.00  0.00     0.217 HD
ENDBRANCH  41  44
ENDBRANCH  37  38
ENDBRANCH  36  37
ENDBRANCH  34  36
ENDBRANCH  31  32
ENDBRANCH  30  31
ENDBRANCH  28  30
ENDBRANCH  27  28
ENDBRANCH  26  27
ENDBRANCH  24  26
ENDBRANCH  21  24
TORSDOF 12
ENDMDL
MODEL 5
REMARK minimizedAffinity -8.55085945
REMARK CNNscore 0.576398611
REMARK CNNaffinity 6.55789757
REMARK  12 active torsions:
REMARK  status: ('A' for Active; 'I' for Inactive)
REMARK    1  A    between atoms: C19_21  and  O3_22 
REMARK    2  A    between atoms: C19_21  and  C20_23 
REMARK    3  A    between atoms: C20_23  and  C21_25 
REMARK    4  A    between atoms: C21_25  and  O5_26 
REMARK    5  A    between atoms: O5_26  and  C22_27 
REMARK    6  A    between atoms: C22_27  and  C23_29 
REMARK    7  A    between atoms: C23_29  and  C24_30 
REMARK    8  A    between atoms: C24_30  and  C25_31 
REMARK       I    between atoms: C25_31  and  N1_33 
REMARK    9  A    between atoms: N1_33  and  C26_34 
REMARK   10  A    between atoms: C26_34  and  C27_35 
REMARK   11  A    between atoms: C27_35  and  C28_36 
REMARK   12  A    between atoms: C31_39  and  O8_40 
ROOT
HETATM    1  C1  UNL     1      -8.687  44.459 -33.966  1.00  0.00     0.021 C 
HETATM    2  C2  UNL     1      -9.467  45.793 -33.961  1.00  0.00    -0.009 C 
HETATM    3  C3  UNL     1     -10.878  45.578 -34.593  1.00  0.00     0.022 C 
HETATM    4  C4  UNL     1     -10.854  45.389 -36.103  1.00  0.00     0.084 C 
HETATM    5  C5  UNL     1     -10.164  46.551 -36.764  1.00  0.00     0.149 C 
HETATM    6  O1  UNL     1     -10.469  46.952 -37.884  1.00  0.00    -0.293 OA
HETATM    7  C6  UNL     1      -9.016  47.166 -36.058  1.00  0.00     0.053 C 
HETATM    8  C7  UNL     1      -8.670  46.800 -34.811  1.00  0.00    -0.067 C 
HETATM    9  C8  UNL     1      -7.413  47.369 -34.195  1.00  0.00     0.035 C 
HETATM   10  C9  UNL     1      -7.668  47.935 -32.804  1.00  0.00     0.010 C 
HETATM   11  C10 UNL     1      -8.313  46.886 -31.889  1.00  0.00     0.003 C 
HETATM   12  C11 UNL     1      -9.648  46.380 -32.514  1.00  0.00     0.072 C 
HETATM   13  C12 UNL     1     -10.385  45.467 -31.512  1.00  0.00     0.133 C 
HETATM   14  O2  UNL     1     -10.860  44.374 -31.813  1.00  0.00    -0.297 OA
HETATM   15  C13 UNL     1     -10.577  46.013 -30.104  1.00  0.00     0.091 C 
HETATM   16  C14 UNL     1      -9.220  46.430 -29.523  1.00  0.00     0.005 C 
HETATM   17  C15 UNL     1      -8.345  45.164 -29.326  1.00  0.00     0.019 C 
HETATM   18  C16 UNL     1      -8.596  47.464 -30.495  1.00  0.00     0.002 C 
HETATM   19  C17 UNL     1      -7.430  48.045 -29.700  1.00  0.00     0.009 C 
HETATM   20  C18 UNL     1      -7.908  48.027 -28.233  1.00  0.00     0.047 C 
HETATM   21  C19 UNL     1      -9.262  47.283 -28.224  1.00  0.00     0.128 C 
ENDROOT
BRANCH  21  22
HETATM   22  O3  UNL     1     -10.287  48.289 -28.353  1.00  0.00    -0.381 OA
HETATM   23  H25 UNL     1     -11.117  47.892 -28.017  1.00  0.00     0.211 HD
ENDBRANCH  21  22
BRANCH  21  24
HETATM   24  C20 UNL     1      -9.622  46.486 -26.957  1.00  0.00     0.185 C 
HETATM   25  O4  UNL     1     -10.783  46.073 -26.828  1.00  0.00    -0.292 OA
BRANCH  24  26
HETATM   26  C21 UNL     1      -8.545  46.213 -25.911  1.00  0.00     0.260 C 
BRANCH  26  27
HETATM   27  O5  UNL     1      -8.348  47.322 -25.032  1.00  0.00    -0.314 OA
BRANCH  27  28
HETATM   28  C22 UNL     1      -7.180  47.276 -24.331  1.00  0.00     0.259 C 
HETATM   29  O6  UNL     1      -7.048  46.748 -23.236  1.00  0.00    -0.265 OA
BRANCH  28  30
HETATM   30  C23 UNL     1      -6.095  47.988 -25.091  1.00  0.00     0.120 C 
BRANCH  30  31
HETATM   31  C24 UNL     1      -5.132  48.677 -24.132  1.00  0.00     0.112 C 
BRANCH  31  32
HETATM   32  C25 UNL     1      -3.821  49.022 -24.801  1.00  0.00     0.218 C 
HETATM   33  O7  UNL     1      -2.736  48.981 -24.232  1.00  0.00    -0.274 OA
HETATM   34  N1  UNL     1      -3.977  49.373 -26.123  1.00  0.00    -0.361 N 
HETATM   35  H32 UNL     1      -4.896  49.328 -26.543  1.00  0.00     0.162 HD
BRANCH  34  36
HETATM   36  C26 UNL     1      -2.845  49.698 -26.970  1.00  0.00     0.127 C 
BRANCH  36  37
HETATM   37  C27 UNL     1      -2.439  51.169 -26.851  1.00  0.00     0.058 C 
BRANCH  37  38
HETATM   38  C28 UNL     1      -0.945  51.345 -26.959  1.00  0.00    -0.057 A 
HETATM   39  C29 UNL     1      -0.363  51.768 -28.163  1.00  0.00     0.010 A 
HETATM   40  C30 UNL     1       1.018  51.959 -28.255  1.00  0.00     0.037 A 
HETATM   41  C31 UNL     1       1.816  51.728 -27.141  1.00  0.00     0.065 A 
HETATM   42  C32 UNL     1       1.257  51.313 -25.939  1.00  0.00     0.037 A 
HETATM   43  C33 UNL     1      -0.122  51.122 -25.846  1.00  0.00     0.010 A 
BRANCH  41  44
HETATM   44  O8  UNL     1       3.168  51.906 -27.186  1.00  0.00    -0.361 OA
HETATM   45  H39 UNL     1       3.411  52.199 -28.079  1.00  0.00     0.217 HD
ENDBRANCH  41  44
ENDBRANCH  37  38
ENDBRANCH  36  37
ENDBRANCH  34  36
ENDBRANCH  31  32
ENDBRANCH  30  31
ENDBRANCH  28  30
ENDBRANCH  27  28
ENDBRANCH  26  27
ENDBRANCH  24  26
ENDBRANCH  21  24
TORSDOF 12
ENDMDL
MODEL 6
REMARK minimizedAffinity -8.48891926
REMARK CNNscore 0.55801475
REMARK CNNaffinity 6.25585413
REMARK  12 active torsions:
REMARK  status: ('A' for Active; 'I' for Inactive)
REMARK    1  A    between atoms: C19_21  and  O3_22 
REMARK    2  A    between atoms: C19_21  and  C20_23 
REMARK    3  A    between atoms: C20_23  and  C21_25 
REMARK    4  A    between atoms: C21_25  and  O5_26 
REMARK    5  A    between atoms: O5_26  and  C22_27 
REMARK    6  A    between atoms: C22_27  and  C23_29 
REMARK    7  A    between atoms: C23_29  and  C24_30 
REMARK    8  A    between atoms: C24_30  and  C25_31 
REMARK       I    between atoms: C25_31  and  N1_33 
REMARK    9  A    between atoms: N1_33  and  C26_34 
REMARK   10  A    between atoms: C26_34  and  C27_35 
REMARK   11  A    between atoms: C27_35  and  C28_36 
REMARK   12  A    between atoms: C31_39  and  O8_40 
ROOT
HETATM    1  C1  UNL     1     -15.225  44.609 -24.710  1.00  0.00     0.021 C 
HETATM    2  C2  UNL     1     -15.690  45.805 -25.573  1.00  0.00    -0.009 C 
HETATM    3  C3  UNL     1     -16.213  46.948 -24.647  1.00  0.00     0.022 C 
HETATM    4  C4  UNL     1     -17.561  46.652 -24.006  1.00  0.00     0.084 C 
HETATM    5  C5  UNL     1     -18.584  46.335 -25.062  1.00  0.00     0.149 C 
HETATM    6  O1  UNL     1     -19.775  46.607 -24.933  1.00  0.00    -0.293 OA
HETATM    7  C6  UNL     1     -18.133  45.588 -26.258  1.00  0.00     0.053 C 
HETATM    8  C7  UNL     1     -16.836  45.307 -26.474  1.00  0.00    -0.067 C 
HETATM    9  C8  UNL     1     -16.452  44.430 -27.644  1.00  0.00     0.035 C 
HETATM   10  C9  UNL     1     -15.348  45.057 -28.486  1.00  0.00     0.010 C 
HETATM   11  C10 UNL     1     -14.127  45.407 -27.627  1.00  0.00     0.003 C 
HETATM   12  C11 UNL     1     -14.541  46.377 -26.480  1.00  0.00     0.072 C 
HETATM   13  C12 UNL     1     -13.286  46.872 -25.731  1.00  0.00     0.133 C 
HETATM   14  O2  UNL     1     -13.187  46.884 -24.506  1.00  0.00    -0.297 OA
HETATM   15  C13 UNL     1     -12.158  47.436 -26.586  1.00  0.00     0.091 C 
HETATM   16  C14 UNL     1     -11.755  46.408 -27.650  1.00  0.00     0.005 C 
HETATM   17  C15 UNL     1     -11.124  45.176 -26.947  1.00  0.00     0.019 C 
HETATM   18  C16 UNL     1     -13.025  46.064 -28.470  1.00  0.00     0.002 C 
HETATM   19  C17 UNL     1     -12.479  45.300 -29.672  1.00  0.00     0.009 C 
HETATM   20  C18 UNL     1     -11.100  45.936 -29.949  1.00  0.00     0.047 C 
HETATM   21  C19 UNL     1     -10.837  46.926 -28.792  1.00  0.00     0.128 C 
ENDROOT
BRANCH  21  22
HETATM   22  O3  UNL     1     -11.314  48.213 -29.234  1.00  0.00    -0.381 OA
HETATM   23  H25 UNL     1     -10.863  48.886 -28.683  1.00  0.00     0.211 HD
ENDBRANCH  21  22
BRANCH  21  24
HETATM   24  C20 UNL     1      -9.373  47.150 -28.372  1.00  0.00     0.185 C 
HETATM   25  O4  UNL     1      -8.497  46.430 -28.872  1.00  0.00    -0.292 OA
BRANCH  24  26
HETATM   26  C21 UNL     1      -9.040  48.254 -27.372  1.00  0.00     0.260 C 
BRANCH  26  27
HETATM   27  O5  UNL     1      -8.751  47.738 -26.071  1.00  0.00    -0.314 OA
BRANCH  27  28
HETATM   28  C22 UNL     1      -7.422  47.691 -25.774  1.00  0.00     0.259 C 
HETATM   29  O6  UNL     1      -6.525  47.666 -26.605  1.00  0.00    -0.265 OA
BRANCH  28  30
HETATM   30  C23 UNL     1      -7.227  47.649 -24.283  1.00  0.00     0.120 C 
BRANCH  30  31
HETATM   31  C24 UNL     1      -7.093  49.058 -23.719  1.00  0.00     0.112 C 
BRANCH  31  32
HETATM   32  C25 UNL     1      -5.651  49.423 -23.451  1.00  0.00     0.218 C 
HETATM   33  O7  UNL     1      -5.301  50.232 -22.600  1.00  0.00    -0.274 OA
HETATM   34  N1  UNL     1      -4.771  48.735 -24.257  1.00  0.00    -0.361 N 
HETATM   35  H32 UNL     1      -5.127  48.038 -24.898  1.00  0.00     0.162 HD
BRANCH  34  36
HETATM   36  C26 UNL     1      -3.334  48.895 -24.139  1.00  0.00     0.127 C 
BRANCH  36  37
HETATM   37  C27 UNL     1      -2.662  49.090 -25.499  1.00  0.00     0.058 C 
BRANCH  37  38
HETATM   38  C28 UNL     1      -1.609  50.170 -25.450  1.00  0.00    -0.057 A 
HETATM   39  C29 UNL     1      -0.925  50.551 -26.615  1.00  0.00     0.010 A 
HETATM   40  C30 UNL     1       0.029  51.571 -26.575  1.00  0.00     0.037 A 
HETATM   41  C31 UNL     1       0.297  52.211 -25.370  1.00  0.00     0.065 A 
HETATM   42  C32 UNL     1      -0.373  51.849 -24.208  1.00  0.00     0.037 A 
HETATM   43  C33 UNL     1      -1.326  50.831 -24.247  1.00  0.00     0.010 A 
BRANCH  41  44
HETATM   44  O8  UNL     1       1.218  53.214 -25.287  1.00  0.00    -0.361 OA
HETATM   45  H39 UNL     1       1.598  53.357 -26.169  1.00  0.00     0.217 HD
ENDBRANCH  41  44
ENDBRANCH  37  38
ENDBRANCH  36  37
ENDBRANCH  34  36
ENDBRANCH  31  32
ENDBRANCH  30  31
ENDBRANCH  28  30
ENDBRANCH  27  28
ENDBRANCH  26  27
ENDBRANCH  24  26
ENDBRANCH  21  24
TORSDOF 12
ENDMDL
MODEL 7
REMARK minimizedAffinity -8.58023643
REMARK CNNscore 0.49884367
REMARK CNNaffinity 6.73865557
REMARK  12 active torsions:
REMARK  status: ('A' for Active; 'I' for Inactive)
REMARK    1  A    between atoms: C19_21  and  O3_22 
REMARK    2  A    between atoms: C19_21  and  C20_23 
REMARK    3  A    between atoms: C20_23  and  C21_25 
REMARK    4  A    between atoms: C21_25  and  O5_26 
REMARK    5  A    between atoms: O5_26  and  C22_27 
REMARK    6  A    between atoms: C22_27  and  C23_29 
REMARK    7  A    between atoms: C23_29  and  C24_30 
REMARK    8  A    between atoms: C24_30  and  C25_31 
REMARK       I    between atoms: C25_31  and  N1_33 
REMARK    9  A    between atoms: N1_33  and  C26_34 
REMARK   10  A    between atoms: C26_34  and  C27_35 
REMARK   11  A    between atoms: C27_35  and  C28_36 
REMARK   12  A    between atoms: C31_39  and  O8_40 
ROOT
HETATM    1  C1  UNL     1      -0.046  50.802 -25.453  1.00  0.00     0.021 C 
HETATM    2  C2  UNL     1      -0.892  52.036 -25.062  1.00  0.00    -0.009 C 
HETATM    3  C3  UNL     1      -2.240  52.018 -25.849  1.00  0.00     0.022 C 
HETATM    4  C4  UNL     1      -2.095  52.359 -27.325  1.00  0.00     0.084 C 
HETATM    5  C5  UNL     1      -1.420  53.693 -27.490  1.00  0.00     0.149 C 
HETATM    6  O1  UNL     1      -1.663  54.446 -28.428  1.00  0.00    -0.293 OA
HETATM    7  C6  UNL     1      -0.360  54.054 -26.520  1.00  0.00     0.053 C 
HETATM    8  C7  UNL     1      -0.087  53.291 -25.447  1.00  0.00    -0.067 C 
HETATM    9  C8  UNL     1       1.090  53.643 -24.568  1.00  0.00     0.035 C 
HETATM   10  C9  UNL     1       0.705  53.692 -23.095  1.00  0.00     0.010 C 
HETATM   11  C10 UNL     1       0.050  52.378 -22.650  1.00  0.00     0.003 C 
HETATM   12  C11 UNL     1      -1.208  52.086 -23.523  1.00  0.00     0.072 C 
HETATM   13  C12 UNL     1      -1.968  50.868 -22.959  1.00  0.00     0.133 C 
HETATM   14  O2  UNL     1      -2.364  49.934 -23.652  1.00  0.00    -0.297 OA
HETATM   15  C13 UNL     1      -2.291  50.893 -21.471  1.00  0.00     0.091 C 
HETATM   16  C14 UNL     1      -1.003  51.118 -20.668  1.00  0.00     0.005 C 
HETATM   17  C15 UNL     1      -0.081  49.881 -20.839  1.00  0.00     0.019 C 
HETATM   18  C16 UNL     1      -0.364  52.436 -21.173  1.00  0.00     0.002 C 
HETATM   19  C17 UNL     1       0.709  52.736 -20.131  1.00  0.00     0.009 C 
HETATM   20  C18 UNL     1       0.127  52.205 -18.803  1.00  0.00     0.047 C 
HETATM   21  C19 UNL     1      -1.184  51.472 -19.165  1.00  0.00     0.128 C 
ENDROOT
BRANCH  21  22
HETATM   22  O3  UNL     1      -2.247  52.437 -19.032  1.00  0.00    -0.381 OA
HETATM   23  H25 UNL     1      -3.078  51.929 -18.924  1.00  0.00     0.211 HD
ENDBRANCH  21  22
BRANCH  21  24
HETATM   24  C20 UNL     1      -1.594  50.280 -18.281  1.00  0.00     0.185 C 
HETATM   25  O4  UNL     1      -1.485  49.136 -18.742  1.00  0.00    -0.292 OA
BRANCH  24  26
HETATM   26  C21 UNL     1      -2.105  50.537 -16.866  1.00  0.00     0.260 C 
BRANCH  26  27
HETATM   27  O5  UNL     1      -1.408  49.763 -15.888  1.00  0.00    -0.314 OA
BRANCH  27  28
HETATM   28  C22 UNL     1      -0.230  50.313 -15.481  1.00  0.00     0.259 C 
HETATM   29  O6  UNL     1       0.874  49.960 -15.872  1.00  0.00    -0.265 OA
BRANCH  28  30
HETATM   30  C23 UNL     1      -0.488  51.393 -14.467  1.00  0.00     0.120 C 
BRANCH  30  31
HETATM   31  C24 UNL     1      -1.258  50.838 -13.275  1.00  0.00     0.112 C 
BRANCH  31  32
HETATM   32  C25 UNL     1      -0.885  51.537 -11.988  1.00  0.00     0.218 C 
HETATM   33  O7  UNL     1      -0.237  51.010 -11.091  1.00  0.00    -0.274 OA
HETATM   34  N1  UNL     1      -1.339  52.836 -11.938  1.00  0.00    -0.361 N 
HETATM   35  H32 UNL     1      -1.818  53.225 -12.740  1.00  0.00     0.162 HD
BRANCH  34  36
HETATM   36  C26 UNL     1      -1.055  53.707 -10.814  1.00  0.00     0.127 C 
BRANCH  36  37
HETATM   37  C27 UNL     1       0.315  54.379 -10.937  1.00  0.00     0.058 C 
BRANCH  37  38
HETATM   38  C28 UNL     1       0.654  55.182  -9.705  1.00  0.00    -0.057 A 
HETATM   39  C29 UNL     1      -0.359  55.611  -8.834  1.00  0.00     0.010 A 
HETATM   40  C30 UNL     1      -0.043  56.330  -7.678  1.00  0.00     0.037 A 
HETATM   41  C31 UNL     1       1.288  56.617  -7.394  1.00  0.00     0.065 A 
HETATM   42  C32 UNL     1       2.304  56.197  -8.243  1.00  0.00     0.037 A 
HETATM   43  C33 UNL     1       1.989  55.479  -9.398  1.00  0.00     0.010 A 
BRANCH  41  44
HETATM   44  O8  UNL     1       1.641  57.313  -6.275  1.00  0.00    -0.361 OA
HETATM   45  H39 UNL     1       0.835  57.534  -5.781  1.00  0.00     0.217 HD
ENDBRANCH  41  44
ENDBRANCH  37  38
ENDBRANCH  36  37
ENDBRANCH  34  36
ENDBRANCH  31  32
ENDBRANCH  30  31
ENDBRANCH  28  30
ENDBRANCH  27  28
ENDBRANCH  26  27
ENDBRANCH  24  26
ENDBRANCH  21  24
TORSDOF 12
ENDMDL
MODEL 8
REMARK minimizedAffinity -9.12315941
REMARK CNNscore 0.456033766
REMARK CNNaffinity 6.90590143
REMARK  12 active torsions:
REMARK  status: ('A' for Active; 'I' for Inactive)
REMARK    1  A    between atoms: C19_21  and  O3_22 
REMARK    2  A    between atoms: C19_21  and  C20_23 
REMARK    3  A    between atoms: C20_23  and  C21_25 
REMARK    4  A    between atoms: C21_25  and  O5_26 
REMARK    5  A    between atoms: O5_26  and  C22_27 
REMARK    6  A    between atoms: C22_27  and  C23_29 
REMARK    7  A    between atoms: C23_29  and  C24_30 
REMARK    8  A    between atoms: C24_30  and  C25_31 
REMARK       I    between atoms: C25_31  and  N1_33 
REMARK    9  A    between atoms: N1_33  and  C26_34 
REMARK   10  A    between atoms: C26_34  and  C27_35 
REMARK   11  A    between atoms: C27_35  and  C28_36 
REMARK   12  A    between atoms: C31_39  and  O8_40 
ROOT
HETATM    1  C1  UNL     1      -1.964  52.830 -24.501  1.00  0.00     0.021 C 
HETATM    2  C2  UNL     1      -1.014  51.616 -24.616  1.00  0.00    -0.009 C 
HETATM    3  C3  UNL     1       0.442  52.113 -24.882  1.00  0.00     0.022 C 
HETATM    4  C4  UNL     1       0.663  52.649 -26.289  1.00  0.00     0.084 C 
HETATM    5  C5  UNL     1       0.277  51.613 -27.309  1.00  0.00     0.149 C 
HETATM    6  O1  UNL     1       0.833  51.519 -28.399  1.00  0.00    -0.293 OA
HETATM    7  C6  UNL     1      -0.879  50.738 -27.002  1.00  0.00     0.053 C 
HETATM    8  C7  UNL     1      -1.493  50.765 -25.806  1.00  0.00    -0.067 C 
HETATM    9  C8  UNL     1      -2.745  49.945 -25.599  1.00  0.00     0.035 C 
HETATM   10  C9  UNL     1      -2.665  49.095 -24.337  1.00  0.00     0.010 C 
HETATM   11  C10 UNL     1      -2.353  49.957 -23.107  1.00  0.00     0.003 C 
HETATM   12  C11 UNL     1      -1.014  50.726 -23.321  1.00  0.00     0.072 C 
HETATM   13  C12 UNL     1      -0.608  51.446 -22.017  1.00  0.00     0.133 C 
HETATM   14  O2  UNL     1      -0.248  52.620 -21.974  1.00  0.00    -0.297 OA
HETATM   15  C13 UNL     1      -0.595  50.605 -20.748  1.00  0.00     0.091 C 
HETATM   16  C14 UNL     1      -1.960  49.931 -20.563  1.00  0.00     0.005 C 
HETATM   17  C15 UNL     1      -3.029  51.022 -20.289  1.00  0.00     0.019 C 
HETATM   18  C16 UNL     1      -2.244  49.098 -21.839  1.00  0.00     0.002 C 
HETATM   19  C17 UNL     1      -3.438  48.234 -21.445  1.00  0.00     0.009 C 
HETATM   20  C18 UNL     1      -3.240  47.952 -19.940  1.00  0.00     0.047 C 
HETATM   21  C19 UNL     1      -2.031  48.804 -19.494  1.00  0.00     0.128 C 
ENDROOT
BRANCH  21  22
HETATM   22  O3  UNL     1      -0.865  47.963 -19.617  1.00  0.00    -0.381 OA
HETATM   23  H25 UNL     1      -0.175  48.350 -19.039  1.00  0.00     0.211 HD
ENDBRANCH  21  22
BRANCH  21  24
HETATM   24  C20 UNL     1      -2.022  49.312 -18.041  1.00  0.00     0.185 C 
HETATM   25  O4  UNL     1      -2.723  48.727 -17.204  1.00  0.00    -0.292 OA
BRANCH  24  26
HETATM   26  C21 UNL     1      -1.144  50.505 -17.669  1.00  0.00     0.260 C 
BRANCH  26  27
HETATM   27  O5  UNL     1       0.088  50.104 -17.065  1.00  0.00    -0.314 OA
BRANCH  27  28
HETATM   28  C22 UNL     1       0.777  51.124 -16.480  1.00  0.00     0.259 C 
HETATM   29  O6  UNL     1       1.117  52.151 -17.052  1.00  0.00    -0.265 OA
BRANCH  28  30
HETATM   30  C23 UNL     1       1.077  50.788 -15.046  1.00  0.00     0.120 C 
BRANCH  30  31
HETATM   31  C24 UNL     1       2.361  51.470 -14.591  1.00  0.00     0.112 C 
BRANCH  31  32
HETATM   32  C25 UNL     1       2.354  51.751 -13.106  1.00  0.00     0.218 C 
HETATM   33  O7  UNL     1       3.271  51.448 -12.352  1.00  0.00    -0.274 OA
HETATM   34  N1  UNL     1       1.211  52.400 -12.694  1.00  0.00    -0.361 N 
HETATM   35  H32 UNL     1       0.521  52.672 -13.382  1.00  0.00     0.162 HD
BRANCH  34  36
HETATM   36  C26 UNL     1       1.014  52.809 -11.317  1.00  0.00     0.127 C 
BRANCH  36  37
HETATM   37  C27 UNL     1       0.586  54.275 -11.206  1.00  0.00     0.058 C 
BRANCH  37  38
HETATM   38  C28 UNL     1       1.546  55.072 -10.358  1.00  0.00    -0.057 A 
HETATM   39  C29 UNL     1       2.749  55.547 -10.901  1.00  0.00     0.010 A 
HETATM   40  C30 UNL     1       3.625  56.310 -10.125  1.00  0.00     0.037 A 
HETATM   41  C31 UNL     1       3.295  56.600  -8.805  1.00  0.00     0.065 A 
HETATM   42  C32 UNL     1       2.106  56.141  -8.252  1.00  0.00     0.037 A 
HETATM   43  C33 UNL     1       1.230  55.379  -9.027  1.00  0.00     0.010 A 
BRANCH  41  44
HETATM   44  O8  UNL     1       4.119  57.345  -8.014  1.00  0.00    -0.361 OA
HETATM   45  H39 UNL     1       4.900  57.596  -8.532  1.00  0.00     0.217 HD
ENDBRANCH  41  44
ENDBRANCH  37  38
ENDBRANCH  36  37
ENDBRANCH  34  36
ENDBRANCH  31  32
ENDBRANCH  30  31
ENDBRANCH  28  30
ENDBRANCH  27  28
ENDBRANCH  26  27
ENDBRANCH  24  26
ENDBRANCH  21  24
TORSDOF 12
ENDMDL
MODEL 9
REMARK minimizedAffinity -9.03131676
REMARK CNNscore 0.452959418
REMARK CNNaffinity 6.57453918
REMARK  12 active torsions:
REMARK  status: ('A' for Active; 'I' for Inactive)
REMARK    1  A    between atoms: C19_21  and  O3_22 
REMARK    2  A    between atoms: C19_21  and  C20_23 
REMARK    3  A    between atoms: C20_23  and  C21_25 
REMARK    4  A    between atoms: C21_25  and  O5_26 
REMARK    5  A    between atoms: O5_26  and  C22_27 
REMARK    6  A    between atoms: C22_27  and  C23_29 
REMARK    7  A    between atoms: C23_29  and  C24_30 
REMARK    8  A    between atoms: C24_30  and  C25_31 
REMARK       I    between atoms: C25_31  and  N1_33 
REMARK    9  A    between atoms: N1_33  and  C26_34 
REMARK   10  A    between atoms: C26_34  and  C27_35 
REMARK   11  A    between atoms: C27_35  and  C28_36 
REMARK   12  A    between atoms: C31_39  and  O8_40 
ROOT
HETATM    1  C1  UNL     1      -2.190  52.659 -24.238  1.00  0.00     0.021 C 
HETATM    2  C2  UNL     1      -1.177  51.491 -24.266  1.00  0.00    -0.009 C 
HETATM    3  C3  UNL     1       0.270  52.055 -24.414  1.00  0.00     0.022 C 
HETATM    4  C4  UNL     1       0.581  52.596 -25.802  1.00  0.00     0.084 C 
HETATM    5  C5  UNL     1       0.330  51.540 -26.843  1.00  0.00     0.149 C 
HETATM    6  O1  UNL     1       0.978  51.469 -27.884  1.00  0.00    -0.293 OA
HETATM    7  C6  UNL     1      -0.804  50.613 -26.627  1.00  0.00     0.053 C 
HETATM    8  C7  UNL     1      -1.516  50.614 -25.485  1.00  0.00    -0.067 C 
HETATM    9  C8  UNL     1      -2.741  49.736 -25.376  1.00  0.00     0.035 C 
HETATM   10  C9  UNL     1      -2.726  48.895 -24.105  1.00  0.00     0.010 C 
HETATM   11  C10 UNL     1      -2.557  49.776 -22.860  1.00  0.00     0.003 C 
HETATM   12  C11 UNL     1      -1.243  50.606 -22.968  1.00  0.00     0.072 C 
HETATM   13  C12 UNL     1      -0.980  51.349 -21.642  1.00  0.00     0.133 C 
HETATM   14  O2  UNL     1      -0.680  52.539 -21.578  1.00  0.00    -0.297 OA
HETATM   15  C13 UNL     1      -1.033  50.514 -20.369  1.00  0.00     0.091 C 
HETATM   16  C14 UNL     1      -2.375  49.776 -20.293  1.00  0.00     0.005 C 
HETATM   17  C15 UNL     1      -3.514  50.817 -20.115  1.00  0.00     0.019 C 
HETATM   18  C16 UNL     1      -2.514  48.927 -21.582  1.00  0.00     0.002 C 
HETATM   19  C17 UNL     1      -3.694  48.009 -21.281  1.00  0.00     0.009 C 
HETATM   20  C18 UNL     1      -3.607  47.742 -19.763  1.00  0.00     0.047 C 
HETATM   21  C19 UNL     1      -2.481  48.651 -19.224  1.00  0.00     0.128 C 
ENDROOT
BRANCH  21  22
HETATM   22  O3  UNL     1      -1.271  47.866 -19.245  1.00  0.00    -0.381 OA
HETATM   23  H25 UNL     1      -0.650  48.288 -18.616  1.00  0.00     0.211 HD
ENDBRANCH  21  22
BRANCH  21  24
HETATM   24  C20 UNL     1      -2.616  49.165 -17.779  1.00  0.00     0.185 C 
HETATM   25  O4  UNL     1      -3.744  49.457 -17.358  1.00  0.00    -0.292 OA
BRANCH  24  26
HETATM   26  C21 UNL     1      -1.370  49.284 -16.906  1.00  0.00     0.260 C 
BRANCH  26  27
HETATM   27  O5  UNL     1      -1.678  49.237 -15.511  1.00  0.00    -0.314 OA
BRANCH  27  28
HETATM   28  C22 UNL     1      -1.669  50.455 -14.900  1.00  0.00     0.259 C 
HETATM   29  O6  UNL     1      -0.767  51.275 -14.997  1.00  0.00    -0.265 OA
BRANCH  28  30
HETATM   30  C23 UNL     1      -2.915  50.626 -14.074  1.00  0.00     0.120 C 
BRANCH  30  31
HETATM   31  C24 UNL     1      -3.082  52.080 -13.649  1.00  0.00     0.112 C 
BRANCH  31  32
HETATM   32  C25 UNL     1      -2.696  52.292 -12.203  1.00  0.00     0.218 C 
HETATM   33  O7  UNL     1      -3.391  51.943 -11.256  1.00  0.00    -0.274 OA
HETATM   34  N1  UNL     1      -1.471  52.905 -12.065  1.00  0.00    -0.361 N 
HETATM   35  H32 UNL     1      -0.925  53.113 -12.891  1.00  0.00     0.162 HD
BRANCH  34  36
HETATM   36  C26 UNL     1      -0.883  53.165 -10.764  1.00  0.00     0.127 C 
BRANCH  36  37
HETATM   37  C27 UNL     1      -0.958  54.645 -10.382  1.00  0.00     0.058 C 
BRANCH  37  38
HETATM   38  C28 UNL     1       0.372  55.161  -9.890  1.00  0.00    -0.057 A 
HETATM   39  C29 UNL     1       0.496  55.687  -8.596  1.00  0.00     0.010 A 
HETATM   40  C30 UNL     1       1.733  56.138  -8.129  1.00  0.00     0.037 A 
HETATM   41  C31 UNL     1       2.847  56.061  -8.958  1.00  0.00     0.065 A 
HETATM   42  C32 UNL     1       2.744  55.539 -10.242  1.00  0.00     0.037 A 
HETATM   43  C33 UNL     1       1.508  55.088 -10.708  1.00  0.00     0.010 A 
BRANCH  41  44
HETATM   44  O8  UNL     1       4.074  56.486  -8.542  1.00  0.00    -0.361 OA
HETATM   45  H39 UNL     1       3.993  56.818  -7.633  1.00  0.00     0.217 HD
ENDBRANCH  41  44
ENDBRANCH  37  38
ENDBRANCH  36  37
ENDBRANCH  34  36
ENDBRANCH  31  32
ENDBRANCH  30  31
ENDBRANCH  28  30
ENDBRANCH  27  28
ENDBRANCH  26  27
ENDBRANCH  24  26
ENDBRANCH  21  24
TORSDOF 12
ENDMDL
