MODEL 1
REMARK minimizedAffinity -9.58130646
REMARK  7 active torsions:
REMARK  status: ('A' for Active; 'I' for Inactive)
REMARK    1  A    between atoms: C2_2  and  C30_33 
REMARK    2  A    between atoms: C3_3  and  C4_4 
REMARK    3  A    between atoms: C4_4  and  O1_5 
REMARK    4  A    between atoms: C4_4  and  C5_6 
REMARK    5  A    between atoms: C5_6  and  C6_7 
REMARK    6  A    between atoms: C6_7  and  C8_9 
REMARK    7  A    between atoms: C30_33  and  O5_35 
ROOT
HETATM    1  C8  UNL     1      -6.073   7.312  14.353  1.00  0.00    -0.002 C 
HETATM    2  C9  UNL     1      -5.775   8.640  15.109  1.00  0.00     0.007 C 
HETATM    3  C10 UNL     1      -4.274   8.941  14.952  1.00  0.00     0.015 C 
HETATM    4  C11 UNL     1      -3.792   7.996  13.836  1.00  0.00    -0.005 C 
HETATM    5  C12 UNL     1      -4.130   8.683  12.477  1.00  0.00     0.021 C 
HETATM    6  C13 UNL     1      -2.319   7.627  13.733  1.00  0.00    -0.000 C 
HETATM    7  C14 UNL     1      -1.920   6.436  13.219  1.00  0.00    -0.060 C 
HETATM    8  C15 UNL     1      -2.962   5.390  12.792  1.00  0.00     0.036 C 
HETATM    9  C16 UNL     1      -4.451   5.728  13.008  1.00  0.00     0.015 C 
HETATM   10  C17 UNL     1      -4.647   6.709  14.171  1.00  0.00    -0.028 C 
HETATM   11  C18 UNL     1      -4.213   6.011  15.500  1.00  0.00     0.016 C 
HETATM   12  C19 UNL     1      -0.436   6.026  13.052  1.00  0.00    -0.014 C 
HETATM   13  C20 UNL     1      -0.118   4.991  14.168  1.00  0.00     0.020 C 
HETATM   14  C21 UNL     1      -0.209   5.336  11.674  1.00  0.00     0.021 C 
HETATM   15  C22 UNL     1       1.223   5.450  11.183  1.00  0.00     0.080 C 
HETATM   16  C23 UNL     1       1.531   6.902  10.903  1.00  0.00     0.135 C 
HETATM   17  O2  UNL     1       2.220   7.210   9.930  1.00  0.00    -0.297 OA
HETATM   18  C24 UNL     1       0.967   7.953  11.879  1.00  0.00     0.018 C 
HETATM   19  C25 UNL     1       2.100   8.974  12.132  1.00  0.00     0.023 C 
HETATM   20  C26 UNL     1      -0.181   8.684  11.168  1.00  0.00     0.023 C 
HETATM   21  C27 UNL     1       0.567   7.231  13.218  1.00  0.00     0.020 C 
HETATM   22  C28 UNL     1       0.113   8.157  14.351  1.00  0.00     0.090 C 
HETATM   23  C29 UNL     1      -1.300   8.630  14.166  1.00  0.00     0.157 C 
HETATM   24  O3  UNL     1      -1.606   9.797  14.389  1.00  0.00    -0.293 OA
ENDROOT
BRANCH   1  25
HETATM   25  C6  UNL     1      -7.205   6.487  15.049  1.00  0.00    -0.011 C 
HETATM   26  C7  UNL     1      -7.106   6.538  16.575  1.00  0.00     0.010 C 
BRANCH  25  27
HETATM   27  C5  UNL     1      -7.183   5.017  14.521  1.00  0.00     0.040 C 
BRANCH  27  28
HETATM   28  C4  UNL     1      -7.827   4.803  13.138  1.00  0.00     0.142 C 
BRANCH  28  29
HETATM   29  C3  UNL     1      -6.878   4.178  12.155  1.00  0.00     0.018 C 
HETATM   30  C2  UNL     1      -6.615   2.860  12.034  1.00  0.00     0.010 C 
HETATM   31  C1  UNL     1      -7.209   1.772  12.880  1.00  0.00     0.055 C 
BRANCH  30  32
HETATM   32  C30 UNL     1      -5.631   2.472  10.993  1.00  0.00     0.171 C 
HETATM   33  O4  UNL     1      -5.044   3.220  10.232  1.00  0.00    -0.646 OA
BRANCH  32  34
HETATM   34  O5  UNL     1      -5.424   1.145  10.954  1.00  0.00    -0.773 OA
HETATM   35  H44 UNL     1      -4.763   1.038  10.240  1.00  0.00     0.167 HD
ENDBRANCH  32  34
ENDBRANCH  30  32
ENDBRANCH  28  29
BRANCH  28  36
HETATM   36  O1  UNL     1      -8.935   3.917  13.257  1.00  0.00    -0.392 OA
HETATM   37  H6  UNL     1      -8.583   3.025  13.422  1.00  0.00     0.210 HD
ENDBRANCH  28  36
ENDBRANCH  27  28
ENDBRANCH  25  27
ENDBRANCH   1  25
TORSDOF 7
ENDMDL
MODEL 2
REMARK minimizedAffinity -9.08592129
REMARK  7 active torsions:
REMARK  status: ('A' for Active; 'I' for Inactive)
REMARK    1  A    between atoms: C2_2  and  C30_33 
REMARK    2  A    between atoms: C3_3  and  C4_4 
REMARK    3  A    between atoms: C4_4  and  O1_5 
REMARK    4  A    between atoms: C4_4  and  C5_6 
REMARK    5  A    between atoms: C5_6  and  C6_7 
REMARK    6  A    between atoms: C6_7  and  C8_9 
REMARK    7  A    between atoms: C30_33  and  O5_35 
ROOT
HETATM    1  C8  UNL     1      -5.683   7.852  14.952  1.00  0.00    -0.002 C 
HETATM    2  C9  UNL     1      -5.214   9.272  15.386  1.00  0.00     0.007 C 
HETATM    3  C10 UNL     1      -3.759   9.448  14.916  1.00  0.00     0.015 C 
HETATM    4  C11 UNL     1      -3.515   8.293  13.928  1.00  0.00    -0.005 C 
HETATM    5  C12 UNL     1      -4.075   8.748  12.545  1.00  0.00     0.021 C 
HETATM    6  C13 UNL     1      -2.098   7.821  13.641  1.00  0.00    -0.000 C 
HETATM    7  C14 UNL     1      -1.833   6.535  13.294  1.00  0.00    -0.060 C 
HETATM    8  C15 UNL     1      -2.965   5.496  13.256  1.00  0.00     0.036 C 
HETATM    9  C16 UNL     1      -4.379   5.958  13.662  1.00  0.00     0.015 C 
HETATM   10  C17 UNL     1      -4.332   7.140  14.639  1.00  0.00    -0.028 C 
HETATM   11  C18 UNL     1      -3.684   6.662  15.978  1.00  0.00     0.016 C 
HETATM   12  C19 UNL     1      -0.417   6.012  12.951  1.00  0.00    -0.014 C 
HETATM   13  C20 UNL     1       0.069   5.173  14.166  1.00  0.00     0.020 C 
HETATM   14  C21 UNL     1      -0.465   5.076  11.706  1.00  0.00     0.021 C 
HETATM   15  C22 UNL     1       0.856   5.013  10.961  1.00  0.00     0.080 C 
HETATM   16  C23 UNL     1       1.150   6.371  10.368  1.00  0.00     0.135 C 
HETATM   17  O2  UNL     1       1.659   6.459   9.250  1.00  0.00    -0.297 OA
HETATM   18  C24 UNL     1       0.804   7.610  11.215  1.00  0.00     0.018 C 
HETATM   19  C25 UNL     1       1.993   8.589  11.075  1.00  0.00     0.023 C 
HETATM   20  C26 UNL     1      -0.433   8.273  10.592  1.00  0.00     0.023 C 
HETATM   21  C27 UNL     1       0.634   7.162  12.714  1.00  0.00     0.020 C 
HETATM   22  C28 UNL     1       0.421   8.300  13.717  1.00  0.00     0.090 C 
HETATM   23  C29 UNL     1      -0.988   8.819  13.697  1.00  0.00     0.157 C 
HETATM   24  O3  UNL     1      -1.214  10.024  13.750  1.00  0.00    -0.293 OA
ENDROOT
BRANCH   1  25
HETATM   25  C6  UNL     1      -6.692   7.235  15.974  1.00  0.00    -0.011 C 
HETATM   26  C7  UNL     1      -6.633   5.706  15.997  1.00  0.00     0.010 C 
BRANCH  25  27
HETATM   27  C5  UNL     1      -8.134   7.749  15.663  1.00  0.00     0.040 C 
BRANCH  27  28
HETATM   28  C4  UNL     1      -8.885   6.981  14.559  1.00  0.00     0.142 C 
BRANCH  28  29
HETATM   29  C3  UNL     1      -8.151   5.742  14.124  1.00  0.00     0.018 C 
HETATM   30  C2  UNL     1      -8.117   5.239  12.872  1.00  0.00     0.010 C 
HETATM   31  C1  UNL     1      -8.827   5.814  11.682  1.00  0.00     0.055 C 
BRANCH  30  32
HETATM   32  C30 UNL     1      -7.332   3.995  12.678  1.00  0.00     0.171 C 
HETATM   33  O4  UNL     1      -6.529   3.774  11.789  1.00  0.00    -0.646 OA
BRANCH  32  34
HETATM   34  O5  UNL     1      -7.592   3.074  13.620  1.00  0.00    -0.773 OA
HETATM   35  H44 UNL     1      -7.012   2.325  13.373  1.00  0.00     0.167 HD
ENDBRANCH  32  34
ENDBRANCH  30  32
ENDBRANCH  28  29
BRANCH  28  36
HETATM   36  O1  UNL     1     -10.152   6.555  15.047  1.00  0.00    -0.392 OA
HETATM   37  H6  UNL     1      -9.998   5.834  15.682  1.00  0.00     0.210 HD
ENDBRANCH  28  36
ENDBRANCH  27  28
ENDBRANCH  25  27
ENDBRANCH   1  25
TORSDOF 7
ENDMDL
MODEL 3
REMARK minimizedAffinity -9.03386688
REMARK  7 active torsions:
REMARK  status: ('A' for Active; 'I' for Inactive)
REMARK    1  A    between atoms: C2_2  and  C30_33 
REMARK    2  A    between atoms: C3_3  and  C4_4 
REMARK    3  A    between atoms: C4_4  and  O1_5 
REMARK    4  A    between atoms: C4_4  and  C5_6 
REMARK    5  A    between atoms: C5_6  and  C6_7 
REMARK    6  A    between atoms: C6_7  and  C8_9 
REMARK    7  A    between atoms: C30_33  and  O5_35 
ROOT
HETATM    1  C8  UNL     1       6.892   9.805  14.282  1.00  0.00    -0.002 C 
HETATM    2  C9  UNL     1       7.949   8.854  13.648  1.00  0.00     0.007 C 
HETATM    3  C10 UNL     1       7.233   8.001  12.585  1.00  0.00     0.015 C 
HETATM    4  C11 UNL     1       5.875   8.692  12.366  1.00  0.00    -0.005 C 
HETATM    5  C12 UNL     1       6.112   9.856  11.355  1.00  0.00     0.021 C 
HETATM    6  C13 UNL     1       4.704   7.907  11.794  1.00  0.00    -0.000 C 
HETATM    7  C14 UNL     1       3.420   8.220  12.106  1.00  0.00    -0.060 C 
HETATM    8  C15 UNL     1       3.119   9.341  13.113  1.00  0.00     0.036 C 
HETATM    9  C16 UNL     1       4.316  10.053  13.775  1.00  0.00     0.015 C 
HETATM   10  C17 UNL     1       5.549   9.142  13.847  1.00  0.00    -0.028 C 
HETATM   11  C18 UNL     1       5.238   7.944  14.800  1.00  0.00     0.016 C 
HETATM   12  C19 UNL     1       2.190   7.483  11.521  1.00  0.00    -0.014 C 
HETATM   13  C20 UNL     1       1.627   6.567  12.644  1.00  0.00     0.020 C 
HETATM   14  C21 UNL     1       1.078   8.500  11.124  1.00  0.00     0.021 C 
HETATM   15  C22 UNL     1       0.152   7.974  10.043  1.00  0.00     0.080 C 
HETATM   16  C23 UNL     1       0.938   7.798   8.765  1.00  0.00     0.135 C 
HETATM   17  O2  UNL     1       0.426   8.078   7.681  1.00  0.00    -0.297 OA
HETATM   18  C24 UNL     1       2.375   7.251   8.880  1.00  0.00     0.018 C 
HETATM   19  C25 UNL     1       2.544   6.211   7.749  1.00  0.00     0.023 C 
HETATM   20  C26 UNL     1       3.341   8.412   8.607  1.00  0.00     0.023 C 
HETATM   21  C27 UNL     1       2.539   6.566  10.287  1.00  0.00     0.020 C 
HETATM   22  C28 UNL     1       3.873   5.847  10.513  1.00  0.00     0.090 C 
HETATM   23  C29 UNL     1       4.987   6.802  10.831  1.00  0.00     0.157 C 
HETATM   24  O3  UNL     1       6.099   6.659  10.330  1.00  0.00    -0.293 OA
ENDROOT
BRANCH   1  25
HETATM   25  C6  UNL     1       7.191  10.085  15.791  1.00  0.00    -0.011 C 
HETATM   26  C7  UNL     1       6.226  11.107  16.394  1.00  0.00     0.010 C 
BRANCH  25  27
HETATM   27  C5  UNL     1       8.679  10.533  15.955  1.00  0.00     0.040 C 
BRANCH  27  28
HETATM   28  C4  UNL     1       9.408   9.959  17.184  1.00  0.00     0.142 C 
BRANCH  28  29
HETATM   29  C3  UNL     1       9.039  10.674  18.454  1.00  0.00     0.018 C 
HETATM   30  C2  UNL     1       9.902  11.147  19.378  1.00  0.00     0.010 C 
HETATM   31  C1  UNL     1      11.396  11.026  19.318  1.00  0.00     0.055 C 
BRANCH  30  32
HETATM   32  C30 UNL     1       9.306  11.813  20.563  1.00  0.00     0.171 C 
HETATM   33  O4  UNL     1       9.743  11.802  21.700  1.00  0.00    -0.646 OA
BRANCH  32  34
HETATM   34  O5  UNL     1       8.176  12.475  20.263  1.00  0.00    -0.773 OA
HETATM   35  H44 UNL     1       7.903  12.860  21.121  1.00  0.00     0.167 HD
ENDBRANCH  32  34
ENDBRANCH  30  32
ENDBRANCH  28  29
BRANCH  28  36
HETATM   36  O1  UNL     1       9.047   8.594  17.363  1.00  0.00    -0.392 OA
HETATM   37  H6  UNL     1       8.129   8.571  17.684  1.00  0.00     0.210 HD
ENDBRANCH  28  36
ENDBRANCH  27  28
ENDBRANCH  25  27
ENDBRANCH   1  25
TORSDOF 7
ENDMDL
MODEL 4
REMARK minimizedAffinity -9.00737
REMARK  7 active torsions:
REMARK  status: ('A' for Active; 'I' for Inactive)
REMARK    1  A    between atoms: C2_2  and  C30_33 
REMARK    2  A    between atoms: C3_3  and  C4_4 
REMARK    3  A    between atoms: C4_4  and  O1_5 
REMARK    4  A    between atoms: C4_4  and  C5_6 
REMARK    5  A    between atoms: C5_6  and  C6_7 
REMARK    6  A    between atoms: C6_7  and  C8_9 
REMARK    7  A    between atoms: C30_33  and  O5_35 
ROOT
HETATM    1  C8  UNL     1      -3.390   4.338  13.118  1.00  0.00    -0.002 C 
HETATM    2  C9  UNL     1      -2.414   4.607  11.935  1.00  0.00     0.007 C 
HETATM    3  C10 UNL     1      -1.721   5.957  12.197  1.00  0.00     0.015 C 
HETATM    4  C11 UNL     1      -2.031   6.285  13.669  1.00  0.00    -0.005 C 
HETATM    5  C12 UNL     1      -0.987   5.516  14.538  1.00  0.00     0.021 C 
HETATM    6  C13 UNL     1      -1.966   7.723  14.160  1.00  0.00    -0.000 C 
HETATM    7  C14 UNL     1      -2.741   8.160  15.185  1.00  0.00    -0.060 C 
HETATM    8  C15 UNL     1      -3.769   7.219  15.833  1.00  0.00     0.036 C 
HETATM    9  C16 UNL     1      -3.908   5.797  15.252  1.00  0.00     0.015 C 
HETATM   10  C17 UNL     1      -3.515   5.749  13.769  1.00  0.00    -0.028 C 
HETATM   11  C18 UNL     1      -4.534   6.603  12.948  1.00  0.00     0.016 C 
HETATM   12  C19 UNL     1      -2.686   9.600  15.751  1.00  0.00    -0.014 C 
HETATM   13  C20 UNL     1      -3.954  10.343  15.242  1.00  0.00     0.020 C 
HETATM   14  C21 UNL     1      -2.730   9.580  17.308  1.00  0.00     0.021 C 
HETATM   15  C22 UNL     1      -2.097  10.808  17.936  1.00  0.00     0.080 C 
HETATM   16  C23 UNL     1      -0.618  10.810  17.627  1.00  0.00     0.135 C 
HETATM   17  O2  UNL     1       0.190  11.178  18.480  1.00  0.00    -0.297 OA
HETATM   18  C24 UNL     1      -0.181  10.352  16.222  1.00  0.00     0.018 C 
HETATM   19  C25 UNL     1       0.911  11.341  15.754  1.00  0.00     0.023 C 
HETATM   20  C26 UNL     1       0.461   8.965  16.360  1.00  0.00     0.023 C 
HETATM   21  C27 UNL     1      -1.427  10.416  15.264  1.00  0.00     0.020 C 
HETATM   22  C28 UNL     1      -1.135  10.122  13.789  1.00  0.00     0.090 C 
HETATM   23  C29 UNL     1      -0.985   8.652  13.521  1.00  0.00     0.157 C 
HETATM   24  O3  UNL     1      -0.098   8.236  12.782  1.00  0.00    -0.293 OA
ENDROOT
BRANCH   1  25
HETATM   25  C6  UNL     1      -4.663   3.557  12.656  1.00  0.00    -0.011 C 
HETATM   26  C7  UNL     1      -4.556   3.077  11.207  1.00  0.00     0.010 C 
BRANCH  25  27
HETATM   27  C5  UNL     1      -5.930   4.444  12.874  1.00  0.00     0.040 C 
BRANCH  27  28
HETATM   28  C4  UNL     1      -6.911   3.940  13.949  1.00  0.00     0.142 C 
BRANCH  28  29
HETATM   29  C3  UNL     1      -7.636   5.065  14.635  1.00  0.00     0.018 C 
HETATM   30  C2  UNL     1      -8.482   5.937  14.049  1.00  0.00     0.010 C 
HETATM   31  C1  UNL     1      -8.841   5.959  12.592  1.00  0.00     0.055 C 
BRANCH  30  32
HETATM   32  C30 UNL     1      -9.078   6.975  14.926  1.00  0.00     0.171 C 
HETATM   33  O4  UNL     1      -8.538   7.997  15.313  1.00  0.00    -0.646 OA
BRANCH  32  34
HETATM   34  O5  UNL     1     -10.340   6.683  15.281  1.00  0.00    -0.773 OA
HETATM   35  H44 UNL     1     -10.601   7.441  15.842  1.00  0.00     0.167 HD
ENDBRANCH  32  34
ENDBRANCH  30  32
ENDBRANCH  28  29
BRANCH  28  36
HETATM   36  O1  UNL     1      -7.906   3.121  13.345  1.00  0.00    -0.392 OA
HETATM   37  H6  UNL     1      -8.496   3.701  12.834  1.00  0.00     0.210 HD
ENDBRANCH  28  36
ENDBRANCH  27  28
ENDBRANCH  25  27
ENDBRANCH   1  25
TORSDOF 7
ENDMDL
MODEL 5
REMARK minimizedAffinity -8.94008827
REMARK  7 active torsions:
REMARK  status: ('A' for Active; 'I' for Inactive)
REMARK    1  A    between atoms: C2_2  and  C30_33 
REMARK    2  A    between atoms: C3_3  and  C4_4 
REMARK    3  A    between atoms: C4_4  and  O1_5 
REMARK    4  A    between atoms: C4_4  and  C5_6 
REMARK    5  A    between atoms: C5_6  and  C6_7 
REMARK    6  A    between atoms: C6_7  and  C8_9 
REMARK    7  A    between atoms: C30_33  and  O5_35 
ROOT
HETATM    1  C8  UNL     1      -4.633   5.959  13.813  1.00  0.00    -0.002 C 
HETATM    2  C9  UNL     1      -3.837   5.374  12.610  1.00  0.00     0.007 C 
HETATM    3  C10 UNL     1      -2.451   6.045  12.596  1.00  0.00     0.015 C 
HETATM    4  C11 UNL     1      -2.328   6.737  13.965  1.00  0.00    -0.005 C 
HETATM    5  C12 UNL     1      -1.856   5.655  14.984  1.00  0.00     0.021 C 
HETATM    6  C13 UNL     1      -1.361   7.897  14.149  1.00  0.00    -0.000 C 
HETATM    7  C14 UNL     1      -1.597   8.881  15.054  1.00  0.00    -0.060 C 
HETATM    8  C15 UNL     1      -2.898   8.885  15.872  1.00  0.00     0.036 C 
HETATM    9  C16 UNL     1      -3.924   7.768  15.595  1.00  0.00     0.015 C 
HETATM   10  C17 UNL     1      -3.815   7.240  14.158  1.00  0.00    -0.028 C 
HETATM   11  C18 UNL     1      -4.212   8.382  13.169  1.00  0.00     0.016 C 
HETATM   12  C19 UNL     1      -0.627  10.061  15.311  1.00  0.00    -0.014 C 
HETATM   13  C20 UNL     1      -1.252  11.321  14.648  1.00  0.00     0.020 C 
HETATM   14  C21 UNL     1      -0.492  10.337  16.839  1.00  0.00     0.021 C 
HETATM   15  C22 UNL     1       0.817  11.012  17.206  1.00  0.00     0.080 C 
HETATM   16  C23 UNL     1       1.956  10.062  16.919  1.00  0.00     0.135 C 
HETATM   17  O2  UNL     1       2.918  10.002  17.685  1.00  0.00    -0.297 OA
HETATM   18  C24 UNL     1       1.865   9.203  15.642  1.00  0.00     0.018 C 
HETATM   19  C25 UNL     1       3.268   9.228  14.992  1.00  0.00     0.023 C 
HETATM   20  C26 UNL     1       1.565   7.759  16.070  1.00  0.00     0.023 C 
HETATM   21  C27 UNL     1       0.801   9.847  14.679  1.00  0.00     0.020 C 
HETATM   22  C28 UNL     1       0.684   9.191  13.299  1.00  0.00     0.090 C 
HETATM   23  C29 UNL     1      -0.104   7.913  13.343  1.00  0.00     0.157 C 
HETATM   24  O3  UNL     1       0.265   6.926  12.713  1.00  0.00    -0.293 OA
ENDROOT
BRANCH   1  25
HETATM   25  C6  UNL     1      -6.165   6.048  13.510  1.00  0.00    -0.011 C 
HETATM   26  C7  UNL     1      -6.828   7.232  14.215  1.00  0.00     0.010 C 
BRANCH  25  27
HETATM   27  C5  UNL     1      -6.853   4.696  13.885  1.00  0.00     0.040 C 
BRANCH  27  28
HETATM   28  C4  UNL     1      -6.915   3.651  12.755  1.00  0.00     0.142 C 
BRANCH  28  29
HETATM   29  C3  UNL     1      -5.555   3.127  12.385  1.00  0.00     0.018 C 
HETATM   30  C2  UNL     1      -5.303   2.084  11.567  1.00  0.00     0.010 C 
HETATM   31  C1  UNL     1      -6.341   1.236  10.891  1.00  0.00     0.055 C 
BRANCH  30  32
HETATM   32  C30 UNL     1      -3.876   1.738  11.352  1.00  0.00     0.171 C 
HETATM   33  O4  UNL     1      -3.295   0.753  11.772  1.00  0.00    -0.646 OA
BRANCH  32  34
HETATM   34  O5  UNL     1      -3.234   2.655  10.609  1.00  0.00    -0.773 OA
HETATM   35  H44 UNL     1      -2.324   2.301  10.547  1.00  0.00     0.167 HD
ENDBRANCH  32  34
ENDBRANCH  30  32
ENDBRANCH  28  29
BRANCH  28  36
HETATM   36  O1  UNL     1      -7.683   2.531  13.179  1.00  0.00    -0.392 OA
HETATM   37  H6  UNL     1      -7.157   2.042  13.835  1.00  0.00     0.210 HD
ENDBRANCH  28  36
ENDBRANCH  27  28
ENDBRANCH  25  27
ENDBRANCH   1  25
TORSDOF 7
ENDMDL
MODEL 6
REMARK minimizedAffinity -8.92810249
REMARK  7 active torsions:
REMARK  status: ('A' for Active; 'I' for Inactive)
REMARK    1  A    between atoms: C2_2  and  C30_33 
REMARK    2  A    between atoms: C3_3  and  C4_4 
REMARK    3  A    between atoms: C4_4  and  O1_5 
REMARK    4  A    between atoms: C4_4  and  C5_6 
REMARK    5  A    between atoms: C5_6  and  C6_7 
REMARK    6  A    between atoms: C6_7  and  C8_9 
REMARK    7  A    between atoms: C30_33  and  O5_35 
ROOT
HETATM    1  C8  UNL     1      -1.936   4.515  12.525  1.00  0.00    -0.002 C 
HETATM    2  C9  UNL     1      -1.070   5.191  11.421  1.00  0.00     0.007 C 
HETATM    3  C10 UNL     1      -0.744   6.620  11.893  1.00  0.00     0.015 C 
HETATM    4  C11 UNL     1      -1.115   6.643  13.387  1.00  0.00    -0.005 C 
HETATM    5  C12 UNL     1       0.097   6.047  14.168  1.00  0.00     0.021 C 
HETATM    6  C13 UNL     1      -1.416   7.964  14.077  1.00  0.00    -0.000 C 
HETATM    7  C14 UNL     1      -2.269   8.036  15.131  1.00  0.00    -0.060 C 
HETATM    8  C15 UNL     1      -3.017   6.781  15.609  1.00  0.00     0.036 C 
HETATM    9  C16 UNL     1      -2.793   5.471  14.828  1.00  0.00     0.015 C 
HETATM   10  C17 UNL     1      -2.412   5.738  13.366  1.00  0.00    -0.028 C 
HETATM   11  C18 UNL     1      -3.622   6.415  12.645  1.00  0.00     0.016 C 
HETATM   12  C19 UNL     1      -2.579   9.346  15.897  1.00  0.00    -0.014 C 
HETATM   13  C20 UNL     1      -3.999   9.807  15.462  1.00  0.00     0.020 C 
HETATM   14  C21 UNL     1      -2.605   9.090  17.434  1.00  0.00     0.021 C 
HETATM   15  C22 UNL     1      -2.301  10.335  18.248  1.00  0.00     0.080 C 
HETATM   16  C23 UNL     1      -0.874  10.757  17.986  1.00  0.00     0.135 C 
HETATM   17  O2  UNL     1      -0.181  11.191  18.906  1.00  0.00    -0.297 OA
HETATM   18  C24 UNL     1      -0.347  10.633  16.543  1.00  0.00     0.018 C 
HETATM   19  C25 UNL     1       0.453  11.924  16.253  1.00  0.00     0.023 C 
HETATM   20  C26 UNL     1       0.631   9.450  16.502  1.00  0.00     0.023 C 
HETATM   21  C27 UNL     1      -1.575  10.516  15.567  1.00  0.00     0.020 C 
HETATM   22  C28 UNL     1      -1.229  10.522  14.075  1.00  0.00     0.090 C 
HETATM   23  C29 UNL     1      -0.710   9.193  13.606  1.00  0.00     0.157 C 
HETATM   24  O3  UNL     1       0.247   9.127  12.841  1.00  0.00    -0.293 OA
ENDROOT
BRANCH   1  25
HETATM   25  C6  UNL     1      -2.971   3.511  11.920  1.00  0.00    -0.011 C 
HETATM   26  C7  UNL     1      -3.241   3.779  10.438  1.00  0.00     0.010 C 
BRANCH  25  27
HETATM   27  C5  UNL     1      -4.288   3.547  12.759  1.00  0.00     0.040 C 
BRANCH  27  28
HETATM   28  C4  UNL     1      -5.542   3.013  12.042  1.00  0.00     0.142 C 
BRANCH  28  29
HETATM   29  C3  UNL     1      -6.632   4.045  11.951  1.00  0.00     0.018 C 
HETATM   30  C2  UNL     1      -7.486   4.386  12.939  1.00  0.00     0.010 C 
HETATM   31  C1  UNL     1      -7.519   3.779  14.310  1.00  0.00     0.055 C 
BRANCH  30  32
HETATM   32  C30 UNL     1      -8.490   5.429  12.617  1.00  0.00     0.171 C 
HETATM   33  O4  UNL     1      -9.092   6.129  13.412  1.00  0.00    -0.646 OA
BRANCH  32  34
HETATM   34  O5  UNL     1      -8.697   5.551  11.295  1.00  0.00    -0.773 OA
HETATM   35  H44 UNL     1      -9.365   6.263  11.233  1.00  0.00     0.167 HD
ENDBRANCH  32  34
ENDBRANCH  30  32
ENDBRANCH  28  29
BRANCH  28  36
HETATM   36  O1  UNL     1      -5.212   2.648  10.707  1.00  0.00    -0.392 OA
HETATM   37  H6  UNL     1      -5.064   3.468  10.204  1.00  0.00     0.210 HD
ENDBRANCH  28  36
ENDBRANCH  27  28
ENDBRANCH  25  27
ENDBRANCH   1  25
TORSDOF 7
ENDMDL
MODEL 7
REMARK minimizedAffinity -8.92732143
REMARK  7 active torsions:
REMARK  status: ('A' for Active; 'I' for Inactive)
REMARK    1  A    between atoms: C2_2  and  C30_33 
REMARK    2  A    between atoms: C3_3  and  C4_4 
REMARK    3  A    between atoms: C4_4  and  O1_5 
REMARK    4  A    between atoms: C4_4  and  C5_6 
REMARK    5  A    between atoms: C5_6  and  C6_7 
REMARK    6  A    between atoms: C6_7  and  C8_9 
REMARK    7  A    between atoms: C30_33  and  O5_35 
ROOT
HETATM    1  C8  UNL     1      -4.496   5.795  13.226  1.00  0.00    -0.002 C 
HETATM    2  C9  UNL     1      -5.500   6.293  14.307  1.00  0.00     0.007 C 
HETATM    3  C10 UNL     1      -4.788   7.370  15.145  1.00  0.00     0.015 C 
HETATM    4  C11 UNL     1      -3.526   7.733  14.342  1.00  0.00    -0.005 C 
HETATM    5  C12 UNL     1      -3.955   8.776  13.264  1.00  0.00     0.021 C 
HETATM    6  C13 UNL     1      -2.331   8.362  15.043  1.00  0.00    -0.000 C 
HETATM    7  C14 UNL     1      -1.064   8.174  14.593  1.00  0.00    -0.060 C 
HETATM    8  C15 UNL     1      -0.798   7.249  13.394  1.00  0.00     0.036 C 
HETATM    9  C16 UNL     1      -2.005   6.524  12.764  1.00  0.00     0.015 C 
HETATM   10  C17 UNL     1      -3.133   6.308  13.781  1.00  0.00    -0.028 C 
HETATM   11  C18 UNL     1      -2.631   5.327  14.890  1.00  0.00     0.016 C 
HETATM   12  C19 UNL     1       0.183   8.823  15.241  1.00  0.00    -0.014 C 
HETATM   13  C20 UNL     1       0.920   7.708  16.036  1.00  0.00     0.020 C 
HETATM   14  C21 UNL     1       1.155   9.358  14.147  1.00  0.00     0.021 C 
HETATM   15  C22 UNL     1       2.041  10.486  14.642  1.00  0.00     0.080 C 
HETATM   16  C23 UNL     1       1.179  11.684  14.962  1.00  0.00     0.135 C 
HETATM   17  O2  UNL     1       1.575  12.819  14.696  1.00  0.00    -0.297 OA
HETATM   18  C24 UNL     1      -0.183  11.424  15.636  1.00  0.00     0.018 C 
HETATM   19  C25 UNL     1      -0.336  12.487  16.749  1.00  0.00     0.023 C 
HETATM   20  C26 UNL     1      -1.278  11.672  14.588  1.00  0.00     0.023 C 
HETATM   21  C27 UNL     1      -0.169   9.978  16.255  1.00  0.00     0.020 C 
HETATM   22  C28 UNL     1      -1.403   9.608  17.083  1.00  0.00     0.090 C 
HETATM   23  C29 UNL     1      -2.578   9.245  16.221  1.00  0.00     0.157 C 
HETATM   24  O3  UNL     1      -3.706   9.644  16.497  1.00  0.00    -0.293 OA
ENDROOT
BRANCH   1  25
HETATM   25  C6  UNL     1      -4.703   4.282  12.892  1.00  0.00    -0.011 C 
HETATM   26  C7  UNL     1      -3.643   3.750  11.926  1.00  0.00     0.010 C 
BRANCH  25  27
HETATM   27  C5  UNL     1      -6.147   4.060  12.339  1.00  0.00     0.040 C 
BRANCH  27  28
HETATM   28  C4  UNL     1      -7.172   3.533  13.361  1.00  0.00     0.142 C 
BRANCH  28  29
HETATM   29  C3  UNL     1      -8.026   4.631  13.932  1.00  0.00     0.018 C 
HETATM   30  C2  UNL     1      -8.709   5.555  13.224  1.00  0.00     0.010 C 
HETATM   31  C1  UNL     1      -8.724   5.670  11.728  1.00  0.00     0.055 C 
BRANCH  30  32
HETATM   32  C30 UNL     1      -9.482   6.552  14.005  1.00  0.00     0.171 C 
HETATM   33  O4  UNL     1      -9.035   7.522  14.590  1.00  0.00    -0.646 OA
BRANCH  32  34
HETATM   34  O5  UNL     1     -10.799   6.284  14.016  1.00  0.00    -0.773 OA
HETATM   35  H44 UNL     1     -11.175   7.011  14.552  1.00  0.00     0.167 HD
ENDBRANCH  32  34
ENDBRANCH  30  32
ENDBRANCH  28  29
BRANCH  28  36
HETATM   36  O1  UNL     1      -8.055   2.616  12.726  1.00  0.00    -0.392 OA
HETATM   37  H6  UNL     1      -8.643   3.127  12.142  1.00  0.00     0.210 HD
ENDBRANCH  28  36
ENDBRANCH  27  28
ENDBRANCH  25  27
ENDBRANCH   1  25
TORSDOF 7
ENDMDL
MODEL 8
REMARK minimizedAffinity -8.92392731
REMARK  7 active torsions:
REMARK  status: ('A' for Active; 'I' for Inactive)
REMARK    1  A    between atoms: C2_2  and  C30_33 
REMARK    2  A    between atoms: C3_3  and  C4_4 
REMARK    3  A    between atoms: C4_4  and  O1_5 
REMARK    4  A    between atoms: C4_4  and  C5_6 
REMARK    5  A    between atoms: C5_6  and  C6_7 
REMARK    6  A    between atoms: C6_7  and  C8_9 
REMARK    7  A    between atoms: C30_33  and  O5_35 
ROOT
HETATM    1  C8  UNL     1      -6.464   7.383  14.572  1.00  0.00    -0.002 C 
HETATM    2  C9  UNL     1      -6.125   8.734  15.269  1.00  0.00     0.007 C 
HETATM    3  C10 UNL     1      -4.627   9.011  15.048  1.00  0.00     0.015 C 
HETATM    4  C11 UNL     1      -4.194   8.021  13.951  1.00  0.00    -0.005 C 
HETATM    5  C12 UNL     1      -4.573   8.663  12.581  1.00  0.00     0.021 C 
HETATM    6  C13 UNL     1      -2.731   7.630  13.811  1.00  0.00    -0.000 C 
HETATM    7  C14 UNL     1      -2.363   6.416  13.327  1.00  0.00    -0.060 C 
HETATM    8  C15 UNL     1      -3.430   5.368  12.974  1.00  0.00     0.036 C 
HETATM    9  C16 UNL     1      -4.907   5.732  13.230  1.00  0.00     0.015 C 
HETATM   10  C17 UNL     1      -5.051   6.757  14.363  1.00  0.00    -0.028 C 
HETATM   11  C18 UNL     1      -4.579   6.102  15.700  1.00  0.00     0.016 C 
HETATM   12  C19 UNL     1      -0.890   5.983  13.124  1.00  0.00    -0.014 C 
HETATM   13  C20 UNL     1      -0.544   4.985  14.265  1.00  0.00     0.020 C 
HETATM   14  C21 UNL     1      -0.719   5.240  11.765  1.00  0.00     0.021 C 
HETATM   15  C22 UNL     1       0.695   5.319  11.220  1.00  0.00     0.080 C 
HETATM   16  C23 UNL     1       1.010   6.756  10.876  1.00  0.00     0.135 C 
HETATM   17  O2  UNL     1       1.667   7.021   9.869  1.00  0.00    -0.297 OA
HETATM   18  C24 UNL     1       0.492   7.848  11.833  1.00  0.00     0.018 C 
HETATM   19  C25 UNL     1       1.644   8.864  12.009  1.00  0.00     0.023 C 
HETATM   20  C26 UNL     1      -0.673   8.567  11.136  1.00  0.00     0.023 C 
HETATM   21  C27 UNL     1       0.132   7.180  13.210  1.00  0.00     0.020 C 
HETATM   22  C28 UNL     1      -0.272   8.152  14.324  1.00  0.00     0.090 C 
HETATM   23  C29 UNL     1      -1.686   8.635  14.171  1.00  0.00     0.157 C 
HETATM   24  O3  UNL     1      -1.971   9.813  14.362  1.00  0.00    -0.293 OA
ENDROOT
BRANCH   1  25
HETATM   25  C6  UNL     1      -7.579   6.598  15.337  1.00  0.00    -0.011 C 
HETATM   26  C7  UNL     1      -7.381   5.083  15.257  1.00  0.00     0.010 C 
BRANCH  25  27
HETATM   27  C5  UNL     1      -8.982   7.023  14.797  1.00  0.00     0.040 C 
BRANCH  27  28
HETATM   28  C4  UNL     1      -9.546   8.330  15.384  1.00  0.00     0.142 C 
BRANCH  28  29
HETATM   29  C3  UNL     1     -10.433   9.058  14.412  1.00  0.00     0.018 C 
HETATM   30  C2  UNL     1     -11.441   8.514  13.697  1.00  0.00     0.010 C 
HETATM   31  C1  UNL     1     -11.849   7.070  13.726  1.00  0.00     0.055 C 
BRANCH  30  32
HETATM   32  C30 UNL     1     -12.179   9.426  12.790  1.00  0.00     0.171 C 
HETATM   33  O4  UNL     1     -13.161  10.092  13.068  1.00  0.00    -0.646 OA
BRANCH  32  34
HETATM   34  O5  UNL     1     -11.645   9.464  11.557  1.00  0.00    -0.773 OA
HETATM   35  H44 UNL     1     -12.220  10.096  11.079  1.00  0.00     0.167 HD
ENDBRANCH  32  34
ENDBRANCH  30  32
ENDBRANCH  28  29
BRANCH  28  36
HETATM   36  O1  UNL     1     -10.344   8.039  16.526  1.00  0.00    -0.392 OA
HETATM   37  H6  UNL     1     -11.166   7.623  16.214  1.00  0.00     0.210 HD
ENDBRANCH  28  36
ENDBRANCH  27  28
ENDBRANCH  25  27
ENDBRANCH   1  25
TORSDOF 7
ENDMDL
MODEL 9
REMARK minimizedAffinity -8.8309803
REMARK  7 active torsions:
REMARK  status: ('A' for Active; 'I' for Inactive)
REMARK    1  A    between atoms: C2_2  and  C30_33 
REMARK    2  A    between atoms: C3_3  and  C4_4 
REMARK    3  A    between atoms: C4_4  and  O1_5 
REMARK    4  A    between atoms: C4_4  and  C5_6 
REMARK    5  A    between atoms: C5_6  and  C6_7 
REMARK    6  A    between atoms: C6_7  and  C8_9 
REMARK    7  A    between atoms: C30_33  and  O5_35 
ROOT
HETATM    1  C8  UNL     1      -3.898   8.975  14.228  1.00  0.00    -0.002 C 
HETATM    2  C9  UNL     1      -3.673   8.855  15.764  1.00  0.00     0.007 C 
HETATM    3  C10 UNL     1      -2.168   8.639  16.001  1.00  0.00     0.015 C 
HETATM    4  C11 UNL     1      -1.498   8.980  14.658  1.00  0.00    -0.005 C 
HETATM    5  C12 UNL     1      -1.326  10.530  14.613  1.00  0.00     0.021 C 
HETATM    6  C13 UNL     1      -0.121   8.423  14.329  1.00  0.00    -0.000 C 
HETATM    7  C14 UNL     1       0.259   8.180  13.048  1.00  0.00    -0.060 C 
HETATM    8  C15 UNL     1      -0.731   8.395  11.893  1.00  0.00     0.036 C 
HETATM    9  C16 UNL     1      -2.162   8.849  12.247  1.00  0.00     0.015 C 
HETATM   10  C17 UNL     1      -2.570   8.393  13.654  1.00  0.00    -0.028 C 
HETATM   11  C18 UNL     1      -2.645   6.832  13.678  1.00  0.00     0.016 C 
HETATM   12  C19 UNL     1       1.661   7.653  12.654  1.00  0.00    -0.014 C 
HETATM   13  C20 UNL     1       1.498   6.154  12.277  1.00  0.00     0.020 C 
HETATM   14  C21 UNL     1       2.200   8.410  11.403  1.00  0.00     0.021 C 
HETATM   15  C22 UNL     1       3.715   8.409  11.316  1.00  0.00     0.080 C 
HETATM   16  C23 UNL     1       4.274   9.202  12.474  1.00  0.00     0.135 C 
HETATM   17  O2  UNL     1       5.255   9.928  12.308  1.00  0.00    -0.297 OA
HETATM   18  C24 UNL     1       3.582   9.051  13.843  1.00  0.00     0.018 C 
HETATM   19  C25 UNL     1       4.707   8.940  14.897  1.00  0.00     0.023 C 
HETATM   20  C26 UNL     1       2.800  10.344  14.117  1.00  0.00     0.023 C 
HETATM   21  C27 UNL     1       2.713   7.740  13.825  1.00  0.00     0.020 C 
HETATM   22  C28 UNL     1       2.063   7.367  15.161  1.00  0.00     0.090 C 
HETATM   23  C29 UNL     1       0.840   8.191  15.447  1.00  0.00     0.157 C 
HETATM   24  O3  UNL     1       0.633   8.635  16.573  1.00  0.00    -0.293 OA
ENDROOT
BRANCH   1  25
HETATM   25  C6  UNL     1      -5.280   8.387  13.794  1.00  0.00    -0.011 C 
HETATM   26  C7  UNL     1      -6.384   8.691  14.808  1.00  0.00     0.010 C 
BRANCH  25  27
HETATM   27  C5  UNL     1      -5.140   6.852  13.540  1.00  0.00     0.040 C 
BRANCH  27  28
HETATM   28  C4  UNL     1      -6.115   5.961  14.331  1.00  0.00     0.142 C 
BRANCH  28  29
HETATM   29  C3  UNL     1      -6.254   4.590  13.731  1.00  0.00     0.018 C 
HETATM   30  C2  UNL     1      -7.188   4.207  12.835  1.00  0.00     0.010 C 
HETATM   31  C1  UNL     1      -8.280   5.079  12.288  1.00  0.00     0.055 C 
BRANCH  30  32
HETATM   32  C30 UNL     1      -7.136   2.794  12.385  1.00  0.00     0.171 C 
HETATM   33  O4  UNL     1      -6.238   2.263  11.755  1.00  0.00    -0.646 OA
BRANCH  32  34
HETATM   34  O5  UNL     1      -8.227   2.100  12.751  1.00  0.00    -0.773 OA
HETATM   35  H44 UNL     1      -8.056   1.203  12.398  1.00  0.00     0.167 HD
ENDBRANCH  32  34
ENDBRANCH  30  32
ENDBRANCH  28  29
BRANCH  28  36
HETATM   36  O1  UNL     1      -5.631   5.779  15.657  1.00  0.00    -0.392 OA
HETATM   37  H6  UNL     1      -4.859   5.189  15.612  1.00  0.00     0.210 HD
ENDBRANCH  28  36
ENDBRANCH  27  28
ENDBRANCH  25  27
ENDBRANCH   1  25
TORSDOF 7
ENDMDL
