MODEL 1
REMARK minimizedAffinity -6.9946208
REMARK CNNscore 0.868626177
REMARK CNNaffinity 6.50504112
REMARK  11 active torsions:
REMARK  status: ('A' for Active; 'I' for Inactive)
REMARK    1  A    between atoms: C12_13  and  O2_14 
REMARK    2  A    between atoms: C19_21  and  O3_22 
REMARK    3  A    between atoms: C19_21  and  C20_23 
REMARK    4  A    between atoms: C20_23  and  C21_25 
REMARK    5  A    between atoms: C21_25  and  O5_26 
REMARK    6  A    between atoms: O5_26  and  C22_27 
REMARK    7  A    between atoms: C22_27  and  C23_29 
REMARK    8  A    between atoms: C23_29  and  C24_30 
REMARK    9  A    between atoms: C24_30  and  C25_31 
REMARK       I    between atoms: C25_31  and  N1_33 
REMARK   10  A    between atoms: N1_33  and  C26_34 
REMARK   11  A    between atoms: C26_34  and  C27_35 
ROOT
HETATM    1  C1  UNL     1     -15.466   7.372  24.108  1.00  0.00     0.025 C 
HETATM    2  C2  UNL     1     -14.022   6.966  23.729  1.00  0.00     0.004 A 
HETATM    3  C3  UNL     1     -13.109   8.035  24.329  1.00  0.00    -0.009 A 
HETATM    4  C4  UNL     1     -12.307   8.851  23.632  1.00  0.00     0.052 A 
HETATM    5  C5  UNL     1     -12.244   8.776  22.162  1.00  0.00     0.172 A 
HETATM    6  O1  UNL     1     -11.504   9.507  21.517  1.00  0.00    -0.289 OA
HETATM    7  C6  UNL     1     -13.109   7.779  21.501  1.00  0.00     0.058 A 
HETATM    8  C7  UNL     1     -13.923   6.966  22.198  1.00  0.00    -0.064 A 
HETATM    9  C8  UNL     1     -14.761   5.946  21.467  1.00  0.00     0.036 C 
HETATM   10  C9  UNL     1     -14.985   4.670  22.280  1.00  0.00     0.010 C 
HETATM   11  C10 UNL     1     -13.815   4.376  23.230  1.00  0.00    -0.002 C 
HETATM   12  C11 UNL     1     -13.564   5.541  24.252  1.00  0.00     0.035 C 
HETATM   13  C12 UNL     1     -13.949   5.140  25.705  1.00  0.00     0.124 C 
HETATM   14  C13 UNL     1     -15.151   4.197  25.766  1.00  0.00     0.045 C 
HETATM   15  C14 UNL     1     -14.952   2.838  25.043  1.00  0.00     0.001 C 
HETATM   16  C15 UNL     1     -16.340   2.383  24.529  1.00  0.00     0.019 C 
HETATM   17  C16 UNL     1     -13.937   2.974  23.867  1.00  0.00     0.002 C 
HETATM   18  C17 UNL     1     -12.573   2.477  24.403  1.00  0.00     0.009 C 
HETATM   19  C18 UNL     1     -12.796   1.952  25.816  1.00  0.00     0.047 C 
HETATM   20  C19 UNL     1     -14.295   1.706  25.912  1.00  0.00     0.128 C 
ENDROOT
BRANCH  20  21
HETATM   21  O3  UNL     1     -14.512   0.427  25.279  1.00  0.00    -0.381 OA
HETATM   22  H25 UNL     1     -15.401   0.129  25.560  1.00  0.00     0.211 HD
ENDBRANCH  20  21
BRANCH  20  23
HETATM   23  C20 UNL     1     -14.857   1.559  27.341  1.00  0.00     0.185 C 
HETATM   24  O4  UNL     1     -14.490   2.352  28.217  1.00  0.00    -0.292 OA
BRANCH  23  25
HETATM   25  C21 UNL     1     -15.843   0.426  27.631  1.00  0.00     0.260 C 
BRANCH  25  26
HETATM   26  O5  UNL     1     -15.501  -0.338  28.787  1.00  0.00    -0.314 OA
BRANCH  26  27
HETATM   27  C22 UNL     1     -16.287  -1.431  28.982  1.00  0.00     0.259 C 
HETATM   28  O6  UNL     1     -16.893  -1.681  30.016  1.00  0.00    -0.265 OA
BRANCH  27  29
HETATM   29  C23 UNL     1     -16.337  -2.293  27.747  1.00  0.00     0.120 C 
BRANCH  29  30
HETATM   30  C24 UNL     1     -17.327  -3.428  27.954  1.00  0.00     0.112 C 
BRANCH  30  31
HETATM   31  C25 UNL     1     -16.650  -4.781  27.866  1.00  0.00     0.218 C 
HETATM   32  O7  UNL     1     -17.241  -5.837  28.059  1.00  0.00    -0.274 OA
HETATM   33  N1  UNL     1     -15.301  -4.697  27.611  1.00  0.00    -0.357 N 
HETATM   34  H32 UNL     1     -14.862  -3.791  27.533  1.00  0.00     0.162 HD
BRANCH  33  35
HETATM   35  C26 UNL     1     -14.453  -5.866  27.570  1.00  0.00     0.162 C 
BRANCH  35  36
HETATM   36  C27 UNL     1     -13.550  -5.901  28.768  1.00  0.00    -0.025 A 
HETATM   37  C28 UNL     1     -13.213  -4.741  29.472  1.00  0.00     0.011 A 
HETATM   38  C29 UNL     1     -12.396  -4.829  30.596  1.00  0.00     0.018 A 
HETATM   39  C30 UNL     1     -11.944  -6.081  30.981  1.00  0.00     0.087 A 
HETATM   40  N2  UNL     1     -12.252  -7.222  30.332  1.00  0.00    -0.375 N 
HETATM   41  C31 UNL     1     -13.049  -7.109  29.243  1.00  0.00     0.096 A 
ATOM     42  H2  UNL     1     -11.902  -8.128  30.646  1.00  0.00     0.164 HD
ENDBRANCH  35  36
ENDBRANCH  33  35
ENDBRANCH  30  31
ENDBRANCH  29  30
ENDBRANCH  27  29
ENDBRANCH  26  27
ENDBRANCH  25  26
ENDBRANCH  23  25
ENDBRANCH  20  23
BRANCH  13  43
HETATM   43  O2  UNL     1     -14.171   6.264  26.544  1.00  0.00    -0.395 OA
HETATM   44  H14 UNL     1     -14.539   5.965  27.394  1.00  0.00     0.210 HD
ENDBRANCH  13  43
TORSDOF 11
ENDMDL
MODEL 2
REMARK minimizedAffinity -7.31748009
REMARK CNNscore 0.554131925
REMARK CNNaffinity 6.85523605
REMARK  11 active torsions:
REMARK  status: ('A' for Active; 'I' for Inactive)
REMARK    1  A    between atoms: C12_13  and  O2_14 
REMARK    2  A    between atoms: C19_21  and  O3_22 
REMARK    3  A    between atoms: C19_21  and  C20_23 
REMARK    4  A    between atoms: C20_23  and  C21_25 
REMARK    5  A    between atoms: C21_25  and  O5_26 
REMARK    6  A    between atoms: O5_26  and  C22_27 
REMARK    7  A    between atoms: C22_27  and  C23_29 
REMARK    8  A    between atoms: C23_29  and  C24_30 
REMARK    9  A    between atoms: C24_30  and  C25_31 
REMARK       I    between atoms: C25_31  and  N1_33 
REMARK   10  A    between atoms: N1_33  and  C26_34 
REMARK   11  A    between atoms: C26_34  and  C27_35 
ROOT
HETATM    1  C1  UNL     1      -4.249  14.911  16.885  1.00  0.00     0.025 C 
HETATM    2  C2  UNL     1      -4.346  13.958  18.099  1.00  0.00     0.004 A 
HETATM    3  C3  UNL     1      -5.813  13.965  18.529  1.00  0.00    -0.009 A 
HETATM    4  C4  UNL     1      -6.273  14.379  19.716  1.00  0.00     0.052 A 
HETATM    5  C5  UNL     1      -5.352  14.887  20.748  1.00  0.00     0.172 A 
HETATM    6  O1  UNL     1      -5.760  15.255  21.842  1.00  0.00    -0.289 OA
HETATM    7  C6  UNL     1      -3.915  14.929  20.408  1.00  0.00     0.058 A 
HETATM    8  C7  UNL     1      -3.454  14.523  19.212  1.00  0.00    -0.064 A 
HETATM    9  C8  UNL     1      -1.971  14.561  18.933  1.00  0.00     0.036 C 
HETATM   10  C9  UNL     1      -1.514  13.443  17.997  1.00  0.00     0.010 C 
HETATM   11  C10 UNL     1      -2.383  12.184  18.131  1.00  0.00    -0.002 C 
HETATM   12  C11 UNL     1      -3.896  12.463  17.819  1.00  0.00     0.035 C 
HETATM   13  C12 UNL     1      -4.351  11.803  16.486  1.00  0.00     0.124 C 
HETATM   14  C13 UNL     1      -3.252  11.781  15.424  1.00  0.00     0.045 C 
HETATM   15  C14 UNL     1      -1.978  10.987  15.819  1.00  0.00     0.001 C 
HETATM   16  C15 UNL     1      -0.779  11.653  15.102  1.00  0.00     0.019 C 
HETATM   17  C16 UNL     1      -1.776  10.988  17.364  1.00  0.00     0.002 C 
HETATM   18  C17 UNL     1      -2.336   9.642  17.883  1.00  0.00     0.009 C 
HETATM   19  C18 UNL     1      -2.752   8.817  16.671  1.00  0.00     0.047 C 
HETATM   20  C19 UNL     1      -2.019   9.450  15.496  1.00  0.00     0.128 C 
ENDROOT
BRANCH  20  21
HETATM   21  O3  UNL     1      -0.681   8.912  15.548  1.00  0.00    -0.381 OA
HETATM   22  H25 UNL     1      -0.280   9.087  14.672  1.00  0.00     0.211 HD
ENDBRANCH  20  21
BRANCH  20  23
HETATM   23  C20 UNL     1      -2.557   9.082  14.098  1.00  0.00     0.185 C 
HETATM   24  O4  UNL     1      -1.755   8.861  13.182  1.00  0.00    -0.292 OA
BRANCH  23  25
HETATM   25  C21 UNL     1      -4.071   9.014  13.888  1.00  0.00     0.260 C 
BRANCH  25  26
HETATM   26  O5  UNL     1      -4.553   7.687  13.680  1.00  0.00    -0.314 OA
BRANCH  26  27
HETATM   27  C22 UNL     1      -5.219   7.166  14.746  1.00  0.00     0.259 C 
HETATM   28  O6  UNL     1      -4.819   6.234  15.433  1.00  0.00    -0.265 OA
BRANCH  27  29
HETATM   29  C23 UNL     1      -6.512   7.898  14.990  1.00  0.00     0.120 C 
BRANCH  29  30
HETATM   30  C24 UNL     1      -7.558   6.928  15.520  1.00  0.00     0.112 C 
BRANCH  30  31
HETATM   31  C25 UNL     1      -8.038   5.981  14.438  1.00  0.00     0.218 C 
HETATM   32  O7  UNL     1      -8.851   6.305  13.581  1.00  0.00    -0.274 OA
HETATM   33  N1  UNL     1      -7.517   4.714  14.556  1.00  0.00    -0.357 N 
HETATM   34  H32 UNL     1      -6.906   4.494  15.330  1.00  0.00     0.162 HD
BRANCH  33  35
HETATM   35  C26 UNL     1      -7.910   3.638  13.677  1.00  0.00     0.162 C 
BRANCH  35  36
HETATM   36  C27 UNL     1      -6.740   3.176  12.858  1.00  0.00    -0.025 A 
HETATM   37  C28 UNL     1      -6.805   2.030  12.062  1.00  0.00     0.011 A 
HETATM   38  C29 UNL     1      -5.703   1.659  11.295  1.00  0.00     0.018 A 
HETATM   39  C30 UNL     1      -4.570   2.456  11.347  1.00  0.00     0.087 A 
HETATM   40  N2  UNL     1      -4.473   3.573  12.098  1.00  0.00    -0.375 N 
HETATM   41  C31 UNL     1      -5.558   3.910  12.833  1.00  0.00     0.096 A 
ATOM     42  H2  UNL     1      -3.622   4.136  12.111  1.00  0.00     0.164 HD
ENDBRANCH  35  36
ENDBRANCH  33  35
ENDBRANCH  30  31
ENDBRANCH  29  30
ENDBRANCH  27  29
ENDBRANCH  26  27
ENDBRANCH  25  26
ENDBRANCH  23  25
ENDBRANCH  20  23
BRANCH  13  43
HETATM   43  O2  UNL     1      -5.528  12.395  15.954  1.00  0.00    -0.395 OA
HETATM   44  H14 UNL     1      -5.691  12.042  15.061  1.00  0.00     0.210 HD
ENDBRANCH  13  43
TORSDOF 11
ENDMDL
MODEL 3
REMARK minimizedAffinity -7.11595869
REMARK CNNscore 0.538664997
REMARK CNNaffinity 7.01845551
REMARK  11 active torsions:
REMARK  status: ('A' for Active; 'I' for Inactive)
REMARK    1  A    between atoms: C12_13  and  O2_14 
REMARK    2  A    between atoms: C19_21  and  O3_22 
REMARK    3  A    between atoms: C19_21  and  C20_23 
REMARK    4  A    between atoms: C20_23  and  C21_25 
REMARK    5  A    between atoms: C21_25  and  O5_26 
REMARK    6  A    between atoms: O5_26  and  C22_27 
REMARK    7  A    between atoms: C22_27  and  C23_29 
REMARK    8  A    between atoms: C23_29  and  C24_30 
REMARK    9  A    between atoms: C24_30  and  C25_31 
REMARK       I    between atoms: C25_31  and  N1_33 
REMARK   10  A    between atoms: N1_33  and  C26_34 
REMARK   11  A    between atoms: C26_34  and  C27_35 
ROOT
HETATM    1  C1  UNL     1      -5.074   4.293  10.383  1.00  0.00     0.025 C 
HETATM    2  C2  UNL     1      -5.063   3.636  11.782  1.00  0.00     0.004 A 
HETATM    3  C3  UNL     1      -4.914   2.133  11.545  1.00  0.00    -0.009 A 
HETATM    4  C4  UNL     1      -5.809   1.199  11.893  1.00  0.00     0.052 A 
HETATM    5  C5  UNL     1      -7.068   1.571  12.562  1.00  0.00     0.172 A 
HETATM    6  O1  UNL     1      -7.887   0.724  12.896  1.00  0.00    -0.289 OA
HETATM    7  C6  UNL     1      -7.299   3.008  12.814  1.00  0.00     0.058 A 
HETATM    8  C7  UNL     1      -6.406   3.947  12.456  1.00  0.00    -0.064 A 
HETATM    9  C8  UNL     1      -6.684   5.397  12.769  1.00  0.00     0.036 C 
HETATM   10  C9  UNL     1      -5.413   6.198  13.053  1.00  0.00     0.010 C 
HETATM   11  C10 UNL     1      -4.308   5.328  13.671  1.00  0.00    -0.002 C 
HETATM   12  C11 UNL     1      -3.903   4.125  12.746  1.00  0.00     0.035 C 
HETATM   13  C12 UNL     1      -2.480   4.301  12.144  1.00  0.00     0.124 C 
HETATM   14  C13 UNL     1      -2.135   5.760  11.844  1.00  0.00     0.045 C 
HETATM   15  C14 UNL     1      -2.136   6.699  13.080  1.00  0.00     0.001 C 
HETATM   16  C15 UNL     1      -2.540   8.109  12.586  1.00  0.00     0.019 C 
HETATM   17  C16 UNL     1      -3.123   6.185  14.171  1.00  0.00     0.002 C 
HETATM   18  C17 UNL     1      -2.270   5.416  15.209  1.00  0.00     0.009 C 
HETATM   19  C18 UNL     1      -0.808   5.569  14.810  1.00  0.00     0.047 C 
HETATM   20  C19 UNL     1      -0.781   6.768  13.872  1.00  0.00     0.128 C 
ENDROOT
BRANCH  20  21
HETATM   21  O3  UNL     1      -0.786   7.925  14.733  1.00  0.00    -0.381 OA
HETATM   22  H25 UNL     1      -0.502   8.681  14.180  1.00  0.00     0.211 HD
ENDBRANCH  20  21
BRANCH  20  23
HETATM   23  C20 UNL     1       0.486   6.906  13.003  1.00  0.00     0.185 C 
HETATM   24  O4  UNL     1       1.170   5.901  12.769  1.00  0.00    -0.292 OA
BRANCH  23  25
HETATM   25  C21 UNL     1       0.864   8.289  12.468  1.00  0.00     0.260 C 
BRANCH  25  26
HETATM   26  O5  UNL     1       2.263   8.438  12.228  1.00  0.00    -0.314 OA
BRANCH  26  27
HETATM   27  C22 UNL     1       2.674   7.949  11.027  1.00  0.00     0.259 C 
HETATM   28  O6  UNL     1       2.115   8.159   9.958  1.00  0.00    -0.265 OA
BRANCH  27  29
HETATM   29  C23 UNL     1       3.927   7.127  11.174  1.00  0.00     0.120 C 
BRANCH  29  30
HETATM   30  C24 UNL     1       5.064   7.781  10.403  1.00  0.00     0.112 C 
BRANCH  30  31
HETATM   31  C25 UNL     1       5.624   8.977  11.145  1.00  0.00     0.218 C 
HETATM   32  O7  UNL     1       5.724  10.089  10.639  1.00  0.00    -0.274 OA
HETATM   33  N1  UNL     1       6.062   8.674  12.412  1.00  0.00    -0.357 N 
HETATM   34  H32 UNL     1       6.016   7.720  12.743  1.00  0.00     0.162 HD
BRANCH  33  35
HETATM   35  C26 UNL     1       6.706   9.652  13.257  1.00  0.00     0.162 C 
BRANCH  35  36
HETATM   36  C27 UNL     1       7.613   8.977  14.245  1.00  0.00    -0.025 A 
HETATM   37  C28 UNL     1       8.952   8.707  13.950  1.00  0.00     0.011 A 
HETATM   38  C29 UNL     1       9.762   8.106  14.911  1.00  0.00     0.018 A 
HETATM   39  C30 UNL     1       9.203   7.799  16.141  1.00  0.00     0.087 A 
HETATM   40  N2  UNL     1       7.917   8.051  16.464  1.00  0.00    -0.375 N 
HETATM   41  C31 UNL     1       7.152   8.635  15.513  1.00  0.00     0.096 A 
ATOM     42  H2  UNL     1       7.540   7.812  17.381  1.00  0.00     0.164 HD
ENDBRANCH  35  36
ENDBRANCH  33  35
ENDBRANCH  30  31
ENDBRANCH  29  30
ENDBRANCH  27  29
ENDBRANCH  26  27
ENDBRANCH  25  26
ENDBRANCH  23  25
ENDBRANCH  20  23
BRANCH  13  43
HETATM   43  O2  UNL     1      -2.272   3.505  10.987  1.00  0.00    -0.395 OA
HETATM   44  H14 UNL     1      -1.426   3.752  10.573  1.00  0.00     0.210 HD
ENDBRANCH  13  43
TORSDOF 11
ENDMDL
MODEL 4
REMARK minimizedAffinity -9.20774174
REMARK CNNscore 0.507094979
REMARK CNNaffinity 6.75369263
REMARK  11 active torsions:
REMARK  status: ('A' for Active; 'I' for Inactive)
REMARK    1  A    between atoms: C12_13  and  O2_14 
REMARK    2  A    between atoms: C19_21  and  O3_22 
REMARK    3  A    between atoms: C19_21  and  C20_23 
REMARK    4  A    between atoms: C20_23  and  C21_25 
REMARK    5  A    between atoms: C21_25  and  O5_26 
REMARK    6  A    between atoms: O5_26  and  C22_27 
REMARK    7  A    between atoms: C22_27  and  C23_29 
REMARK    8  A    between atoms: C23_29  and  C24_30 
REMARK    9  A    between atoms: C24_30  and  C25_31 
REMARK       I    between atoms: C25_31  and  N1_33 
REMARK   10  A    between atoms: N1_33  and  C26_34 
REMARK   11  A    between atoms: C26_34  and  C27_35 
ROOT
HETATM    1  C1  UNL     1      -7.589   5.173  15.636  1.00  0.00     0.025 C 
HETATM    2  C2  UNL     1      -7.732   6.293  14.578  1.00  0.00     0.004 A 
HETATM    3  C3  UNL     1      -8.803   7.245  15.111  1.00  0.00    -0.009 A 
HETATM    4  C4  UNL     1      -9.974   7.508  14.516  1.00  0.00     0.052 A 
HETATM    5  C5  UNL     1     -10.335   6.864  13.241  1.00  0.00     0.172 A 
HETATM    6  O1  UNL     1     -11.397   7.107  12.681  1.00  0.00    -0.289 OA
HETATM    7  C6  UNL     1      -9.361   5.915  12.665  1.00  0.00     0.058 A 
HETATM    8  C7  UNL     1      -8.190   5.642  13.266  1.00  0.00    -0.064 A 
HETATM    9  C8  UNL     1      -7.221   4.687  12.613  1.00  0.00     0.036 C 
HETATM   10  C9  UNL     1      -5.760   5.038  12.895  1.00  0.00     0.010 C 
HETATM   11  C10 UNL     1      -5.556   6.546  13.096  1.00  0.00    -0.002 C 
HETATM   12  C11 UNL     1      -6.409   7.115  14.285  1.00  0.00     0.035 C 
HETATM   13  C12 UNL     1      -5.524   7.528  15.496  1.00  0.00     0.124 C 
HETATM   14  C13 UNL     1      -4.302   6.628  15.678  1.00  0.00     0.045 C 
HETATM   15  C14 UNL     1      -3.314   6.618  14.480  1.00  0.00     0.001 C 
HETATM   16  C15 UNL     1      -2.648   5.221  14.445  1.00  0.00     0.019 C 
HETATM   17  C16 UNL     1      -4.056   6.917  13.142  1.00  0.00     0.002 C 
HETATM   18  C17 UNL     1      -3.837   8.419  12.842  1.00  0.00     0.009 C 
HETATM   19  C18 UNL     1      -2.896   8.970  13.907  1.00  0.00     0.047 C 
HETATM   20  C19 UNL     1      -2.218   7.743  14.504  1.00  0.00     0.128 C 
ENDROOT
BRANCH  20  21
HETATM   21  O3  UNL     1      -1.162   7.405  13.581  1.00  0.00    -0.381 OA
HETATM   22  H25 UNL     1      -0.558   6.805  14.063  1.00  0.00     0.211 HD
ENDBRANCH  20  21
BRANCH  20  23
HETATM   23  C20 UNL     1      -1.524   7.961  15.863  1.00  0.00     0.185 C 
HETATM   24  O4  UNL     1      -0.457   7.379  16.096  1.00  0.00    -0.292 OA
BRANCH  23  25
HETATM   25  C21 UNL     1      -2.186   8.885  16.888  1.00  0.00     0.260 C 
BRANCH  25  26
HETATM   26  O5  UNL     1      -1.345   9.959  17.306  1.00  0.00    -0.314 OA
BRANCH  26  27
HETATM   27  C22 UNL     1      -1.836  10.673  18.354  1.00  0.00     0.259 C 
HETATM   28  O6  UNL     1      -3.020  10.736  18.664  1.00  0.00    -0.265 OA
BRANCH  27  29
HETATM   29  C23 UNL     1      -0.732  11.366  19.107  1.00  0.00     0.120 C 
BRANCH  29  30
HETATM   30  C24 UNL     1       0.588  11.173  18.376  1.00  0.00     0.112 C 
BRANCH  30  31
HETATM   31  C25 UNL     1       1.622  10.505  19.260  1.00  0.00     0.218 C 
HETATM   32  O7  UNL     1       2.525   9.804  18.818  1.00  0.00    -0.274 OA
HETATM   33  N1  UNL     1       1.406  10.716  20.601  1.00  0.00    -0.357 N 
HETATM   34  H32 UNL     1       0.600  11.246  20.902  1.00  0.00     0.162 HD
BRANCH  33  35
HETATM   35  C26 UNL     1       2.227  10.100  21.617  1.00  0.00     0.162 C 
BRANCH  35  36
HETATM   36  C27 UNL     1       3.254  11.071  22.123  1.00  0.00    -0.025 A 
HETATM   37  C28 UNL     1       4.577  10.689  22.359  1.00  0.00     0.011 A 
HETATM   38  C29 UNL     1       5.500  11.635  22.799  1.00  0.00     0.018 A 
HETATM   39  C30 UNL     1       5.066  12.937  22.985  1.00  0.00     0.087 A 
HETATM   40  N2  UNL     1       3.800  13.345  22.762  1.00  0.00    -0.375 N 
HETATM   41  C31 UNL     1       2.923  12.407  22.334  1.00  0.00     0.096 A 
ATOM     42  H2  UNL     1       3.516  14.314  22.908  1.00  0.00     0.164 HD
ENDBRANCH  35  36
ENDBRANCH  33  35
ENDBRANCH  30  31
ENDBRANCH  29  30
ENDBRANCH  27  29
ENDBRANCH  26  27
ENDBRANCH  25  26
ENDBRANCH  23  25
ENDBRANCH  20  23
BRANCH  13  43
HETATM   43  O2  UNL     1      -6.256   7.603  16.710  1.00  0.00    -0.395 OA
HETATM   44  H14 UNL     1      -5.639   7.730  17.452  1.00  0.00     0.210 HD
ENDBRANCH  13  43
TORSDOF 11
ENDMDL
MODEL 5
REMARK minimizedAffinity -7.06679344
REMARK CNNscore 0.448878467
REMARK CNNaffinity 6.68590498
REMARK  11 active torsions:
REMARK  status: ('A' for Active; 'I' for Inactive)
REMARK    1  A    between atoms: C12_13  and  O2_14 
REMARK    2  A    between atoms: C19_21  and  O3_22 
REMARK    3  A    between atoms: C19_21  and  C20_23 
REMARK    4  A    between atoms: C20_23  and  C21_25 
REMARK    5  A    between atoms: C21_25  and  O5_26 
REMARK    6  A    between atoms: O5_26  and  C22_27 
REMARK    7  A    between atoms: C22_27  and  C23_29 
REMARK    8  A    between atoms: C23_29  and  C24_30 
REMARK    9  A    between atoms: C24_30  and  C25_31 
REMARK       I    between atoms: C25_31  and  N1_33 
REMARK   10  A    between atoms: N1_33  and  C26_34 
REMARK   11  A    between atoms: C26_34  and  C27_35 
ROOT
HETATM    1  C1  UNL     1      -2.356   5.084  10.258  1.00  0.00     0.025 C 
HETATM    2  C2  UNL     1      -2.021   4.248  11.515  1.00  0.00     0.004 A 
HETATM    3  C3  UNL     1      -0.562   3.816  11.362  1.00  0.00    -0.009 A 
HETATM    4  C4  UNL     1      -0.132   2.551  11.275  1.00  0.00     0.052 A 
HETATM    5  C5  UNL     1      -1.081   1.425  11.319  1.00  0.00     0.172 A 
HETATM    6  O1  UNL     1      -0.697   0.264  11.253  1.00  0.00    -0.289 OA
HETATM    7  C6  UNL     1      -2.514   1.756  11.449  1.00  0.00     0.058 A 
HETATM    8  C7  UNL     1      -2.949   3.026  11.527  1.00  0.00    -0.064 A 
HETATM    9  C8  UNL     1      -4.424   3.300  11.689  1.00  0.00     0.036 C 
HETATM   10  C9  UNL     1      -4.706   4.559  12.510  1.00  0.00     0.010 C 
HETATM   11  C10 UNL     1      -3.609   4.830  13.549  1.00  0.00    -0.002 C 
HETATM   12  C11 UNL     1      -2.193   5.010  12.895  1.00  0.00     0.035 C 
HETATM   13  C12 UNL     1      -1.687   6.478  12.985  1.00  0.00     0.124 C 
HETATM   14  C13 UNL     1      -2.813   7.506  12.874  1.00  0.00     0.045 C 
HETATM   15  C14 UNL     1      -3.893   7.414  13.986  1.00  0.00     0.001 C 
HETATM   16  C15 UNL     1      -5.230   7.892  13.369  1.00  0.00     0.019 C 
HETATM   17  C16 UNL     1      -4.016   5.957  14.526  1.00  0.00     0.002 C 
HETATM   18  C17 UNL     1      -3.186   5.899  15.831  1.00  0.00     0.009 C 
HETATM   19  C18 UNL     1      -2.682   7.308  16.120  1.00  0.00     0.047 C 
HETATM   20  C19 UNL     1      -3.578   8.222  15.296  1.00  0.00     0.128 C 
ENDROOT
BRANCH  20  21
HETATM   21  O3  UNL     1      -4.786   8.371  16.071  1.00  0.00    -0.381 OA
HETATM   22  H25 UNL     1      -5.255   9.148  15.703  1.00  0.00     0.211 HD
ENDBRANCH  20  21
BRANCH  20  23
HETATM   23  C20 UNL     1      -3.049   9.654  15.078  1.00  0.00     0.185 C 
HETATM   24  O4  UNL     1      -2.424   9.916  14.042  1.00  0.00    -0.292 OA
BRANCH  23  25
HETATM   25  C21 UNL     1      -3.304  10.706  16.161  1.00  0.00     0.260 C 
BRANCH  25  26
HETATM   26  O5  UNL     1      -2.401  10.612  17.262  1.00  0.00    -0.314 OA
BRANCH  26  27
HETATM   27  C22 UNL     1      -1.475  11.607  17.305  1.00  0.00     0.259 C 
HETATM   28  O6  UNL     1      -0.527  11.714  16.537  1.00  0.00    -0.265 OA
BRANCH  27  29
HETATM   29  C23 UNL     1      -1.774  12.582  18.413  1.00  0.00     0.120 C 
BRANCH  29  30
HETATM   30  C24 UNL     1      -0.510  12.851  19.215  1.00  0.00     0.112 C 
BRANCH  30  31
HETATM   31  C25 UNL     1       0.260  11.574  19.486  1.00  0.00     0.218 C 
HETATM   32  O7  UNL     1      -0.234  10.605  20.050  1.00  0.00    -0.274 OA
HETATM   33  N1  UNL     1       1.575  11.639  19.091  1.00  0.00    -0.357 N 
HETATM   34  H32 UNL     1       1.938  12.496  18.696  1.00  0.00     0.162 HD
BRANCH  33  35
HETATM   35  C26 UNL     1       2.504  10.560  19.334  1.00  0.00     0.162 C 
BRANCH  35  36
HETATM   36  C27 UNL     1       3.285  10.812  20.590  1.00  0.00    -0.025 A 
HETATM   37  C28 UNL     1       2.835  10.374  21.838  1.00  0.00     0.011 A 
HETATM   38  C29 UNL     1       3.611  10.605  22.972  1.00  0.00     0.018 A 
HETATM   39  C30 UNL     1       4.819  11.266  22.816  1.00  0.00     0.087 A 
HETATM   40  N2  UNL     1       5.290  11.697  21.627  1.00  0.00    -0.375 N 
HETATM   41  C31 UNL     1       4.517  11.459  20.542  1.00  0.00     0.096 A 
ATOM     42  H2  UNL     1       6.186  12.179  21.550  1.00  0.00     0.164 HD
ENDBRANCH  35  36
ENDBRANCH  33  35
ENDBRANCH  30  31
ENDBRANCH  29  30
ENDBRANCH  27  29
ENDBRANCH  26  27
ENDBRANCH  25  26
ENDBRANCH  23  25
ENDBRANCH  20  23
BRANCH  13  43
HETATM   43  O2  UNL     1      -0.671   6.767  12.036  1.00  0.00    -0.395 OA
HETATM   44  H14 UNL     1      -0.488   7.724  12.041  1.00  0.00     0.210 HD
ENDBRANCH  13  43
TORSDOF 11
ENDMDL
MODEL 6
REMARK minimizedAffinity -7.46010447
REMARK CNNscore 0.389509052
REMARK CNNaffinity 5.48642921
REMARK  11 active torsions:
REMARK  status: ('A' for Active; 'I' for Inactive)
REMARK    1  A    between atoms: C12_13  and  O2_14 
REMARK    2  A    between atoms: C19_21  and  O3_22 
REMARK    3  A    between atoms: C19_21  and  C20_23 
REMARK    4  A    between atoms: C20_23  and  C21_25 
REMARK    5  A    between atoms: C21_25  and  O5_26 
REMARK    6  A    between atoms: O5_26  and  C22_27 
REMARK    7  A    between atoms: C22_27  and  C23_29 
REMARK    8  A    between atoms: C23_29  and  C24_30 
REMARK    9  A    between atoms: C24_30  and  C25_31 
REMARK       I    between atoms: C25_31  and  N1_33 
REMARK   10  A    between atoms: N1_33  and  C26_34 
REMARK   11  A    between atoms: C26_34  and  C27_35 
ROOT
HETATM    1  C1  UNL     1     -17.680  -1.623  14.959  1.00  0.00     0.025 C 
HETATM    2  C2  UNL     1     -16.274  -0.996  14.805  1.00  0.00     0.004 A 
HETATM    3  C3  UNL     1     -16.124  -0.002  15.957  1.00  0.00    -0.009 A 
HETATM    4  C4  UNL     1     -15.951   1.320  15.825  1.00  0.00     0.052 A 
HETATM    5  C5  UNL     1     -15.891   1.944  14.492  1.00  0.00     0.172 A 
HETATM    6  O1  UNL     1     -15.720   3.149  14.359  1.00  0.00    -0.289 OA
HETATM    7  C6  UNL     1     -16.044   1.055  13.323  1.00  0.00     0.058 A 
HETATM    8  C7  UNL     1     -16.229  -0.271  13.454  1.00  0.00    -0.064 A 
HETATM    9  C8  UNL     1     -16.348  -1.133  12.221  1.00  0.00     0.036 C 
HETATM   10  C9  UNL     1     -15.781  -2.538  12.423  1.00  0.00     0.010 C 
HETATM   11  C10 UNL     1     -14.632  -2.558  13.440  1.00  0.00    -0.002 C 
HETATM   12  C11 UNL     1     -15.070  -2.027  14.852  1.00  0.00     0.035 C 
HETATM   13  C12 UNL     1     -15.120  -3.160  15.915  1.00  0.00     0.124 C 
HETATM   14  C13 UNL     1     -15.563  -4.504  15.336  1.00  0.00     0.045 C 
HETATM   15  C14 UNL     1     -14.638  -5.074  14.227  1.00  0.00     0.001 C 
HETATM   16  C15 UNL     1     -15.526  -5.906  13.270  1.00  0.00     0.019 C 
HETATM   17  C16 UNL     1     -13.913  -3.926  13.461  1.00  0.00     0.002 C 
HETATM   18  C17 UNL     1     -12.498  -3.811  14.077  1.00  0.00     0.009 C 
HETATM   19  C18 UNL     1     -12.346  -4.932  15.097  1.00  0.00     0.047 C 
HETATM   20  C19 UNL     1     -13.431  -5.939  14.739  1.00  0.00     0.128 C 
ENDROOT
BRANCH  20  21
HETATM   21  O3  UNL     1     -12.891  -6.707  13.643  1.00  0.00    -0.381 OA
HETATM   22  H25 UNL     1     -13.441  -7.513  13.575  1.00  0.00     0.211 HD
ENDBRANCH  20  21
BRANCH  20  23
HETATM   23  C20 UNL     1     -13.772  -6.968  15.835  1.00  0.00     0.185 C 
HETATM   24  O4  UNL     1     -14.158  -6.567  16.941  1.00  0.00    -0.292 OA
BRANCH  23  25
HETATM   25  C21 UNL     1     -13.612  -8.458  15.522  1.00  0.00     0.260 C 
BRANCH  25  26
HETATM   26  O5  UNL     1     -12.615  -9.097  16.318  1.00  0.00    -0.314 OA
BRANCH  26  27
HETATM   27  C22 UNL     1     -11.367  -8.578  16.165  1.00  0.00     0.259 C 
HETATM   28  O6  UNL     1     -10.810  -8.401  15.089  1.00  0.00    -0.265 OA
BRANCH  27  29
HETATM   29  C23 UNL     1     -10.757  -8.226  17.496  1.00  0.00     0.120 C 
BRANCH  29  30
HETATM   30  C24 UNL     1      -9.755  -9.297  17.901  1.00  0.00     0.112 C 
BRANCH  30  31
HETATM   31  C25 UNL     1     -10.357 -10.276  18.889  1.00  0.00     0.218 C 
HETATM   32  O7  UNL     1     -11.080 -11.205  18.551  1.00  0.00    -0.274 OA
HETATM   33  N1  UNL     1     -10.059  -9.979  20.198  1.00  0.00    -0.357 N 
HETATM   34  H32 UNL     1      -9.515  -9.155  20.413  1.00  0.00     0.162 HD
BRANCH  33  35
HETATM   35  C26 UNL     1     -10.602 -10.737  21.301  1.00  0.00     0.162 C 
BRANCH  35  36
HETATM   36  C27 UNL     1      -9.521 -11.082  22.283  1.00  0.00    -0.025 A 
HETATM   37  C28 UNL     1      -9.757 -11.923  23.374  1.00  0.00     0.011 A 
HETATM   38  C29 UNL     1      -8.713 -12.238  24.240  1.00  0.00     0.018 A 
HETATM   39  C30 UNL     1      -7.461 -11.704  23.981  1.00  0.00     0.087 A 
HETATM   40  N2  UNL     1      -7.193 -10.896  22.935  1.00  0.00    -0.375 N 
HETATM   41  C31 UNL     1      -8.225 -10.605  22.108  1.00  0.00     0.096 A 
ATOM     42  H2  UNL     1      -6.258 -10.521  22.774  1.00  0.00     0.164 HD
ENDBRANCH  35  36
ENDBRANCH  33  35
ENDBRANCH  30  31
ENDBRANCH  29  30
ENDBRANCH  27  29
ENDBRANCH  26  27
ENDBRANCH  25  26
ENDBRANCH  23  25
ENDBRANCH  20  23
BRANCH  13  43
HETATM   43  O2  UNL     1     -15.926  -2.826  17.036  1.00  0.00    -0.395 OA
HETATM   44  H14 UNL     1     -16.036  -3.611  17.601  1.00  0.00     0.210 HD
ENDBRANCH  13  43
TORSDOF 11
ENDMDL
MODEL 7
REMARK minimizedAffinity -9.07553577
REMARK CNNscore 0.382741481
REMARK CNNaffinity 6.54605246
REMARK  11 active torsions:
REMARK  status: ('A' for Active; 'I' for Inactive)
REMARK    1  A    between atoms: C12_13  and  O2_14 
REMARK    2  A    between atoms: C19_21  and  O3_22 
REMARK    3  A    between atoms: C19_21  and  C20_23 
REMARK    4  A    between atoms: C20_23  and  C21_25 
REMARK    5  A    between atoms: C21_25  and  O5_26 
REMARK    6  A    between atoms: O5_26  and  C22_27 
REMARK    7  A    between atoms: C22_27  and  C23_29 
REMARK    8  A    between atoms: C23_29  and  C24_30 
REMARK    9  A    between atoms: C24_30  and  C25_31 
REMARK       I    between atoms: C25_31  and  N1_33 
REMARK   10  A    between atoms: N1_33  and  C26_34 
REMARK   11  A    between atoms: C26_34  and  C27_35 
ROOT
HETATM    1  C1  UNL     1      -7.708   5.254  15.627  1.00  0.00     0.025 C 
HETATM    2  C2  UNL     1      -7.842   6.360  14.554  1.00  0.00     0.004 A 
HETATM    3  C3  UNL     1      -8.886   7.343  15.084  1.00  0.00    -0.009 A 
HETATM    4  C4  UNL     1     -10.059   7.620  14.499  1.00  0.00     0.052 A 
HETATM    5  C5  UNL     1     -10.448   6.965  13.238  1.00  0.00     0.172 A 
HETATM    6  O1  UNL     1     -11.511   7.221  12.688  1.00  0.00    -0.289 OA
HETATM    7  C6  UNL     1      -9.500   5.987  12.666  1.00  0.00     0.058 A 
HETATM    8  C7  UNL     1      -8.328   5.700  13.258  1.00  0.00    -0.064 A 
HETATM    9  C8  UNL     1      -7.387   4.715  12.609  1.00  0.00     0.036 C 
HETATM   10  C9  UNL     1      -5.916   5.040  12.868  1.00  0.00     0.010 C 
HETATM   11  C10 UNL     1      -5.678   6.546  13.043  1.00  0.00    -0.002 C 
HETATM   12  C11 UNL     1      -6.505   7.151  14.233  1.00  0.00     0.035 C 
HETATM   13  C12 UNL     1      -5.598   7.564  15.427  1.00  0.00     0.124 C 
HETATM   14  C13 UNL     1      -4.392   6.642  15.609  1.00  0.00     0.045 C 
HETATM   15  C14 UNL     1      -3.419   6.593  14.399  1.00  0.00     0.001 C 
HETATM   16  C15 UNL     1      -2.782   5.182  14.378  1.00  0.00     0.019 C 
HETATM   17  C16 UNL     1      -4.171   6.887  13.066  1.00  0.00     0.002 C 
HETATM   18  C17 UNL     1      -3.924   8.379  12.740  1.00  0.00     0.009 C 
HETATM   19  C18 UNL     1      -2.960   8.926  13.785  1.00  0.00     0.047 C 
HETATM   20  C19 UNL     1      -2.300   7.696  14.393  1.00  0.00     0.128 C 
ENDROOT
BRANCH  20  21
HETATM   21  O3  UNL     1      -1.262   7.322  13.463  1.00  0.00    -0.381 OA
HETATM   22  H25 UNL     1      -0.665   6.716  13.947  1.00  0.00     0.211 HD
ENDBRANCH  20  21
BRANCH  20  23
HETATM   23  C20 UNL     1      -1.585   7.920  15.741  1.00  0.00     0.185 C 
HETATM   24  O4  UNL     1      -2.182   8.511  16.650  1.00  0.00    -0.292 OA
BRANCH  23  25
HETATM   25  C21 UNL     1      -0.151   7.413  15.906  1.00  0.00     0.260 C 
BRANCH  25  26
HETATM   26  O5  UNL     1       0.578   7.374  14.681  1.00  0.00    -0.314 OA
BRANCH  26  27
HETATM   27  C22 UNL     1       1.907   7.630  14.819  1.00  0.00     0.259 C 
HETATM   28  O6  UNL     1       2.596   7.261  15.761  1.00  0.00    -0.265 OA
BRANCH  27  29
HETATM   29  C23 UNL     1       2.436   8.413  13.646  1.00  0.00     0.120 C 
BRANCH  29  30
HETATM   30  C24 UNL     1       3.278   7.507  12.761  1.00  0.00     0.112 C 
BRANCH  30  31
HETATM   31  C25 UNL     1       4.668   8.072  12.547  1.00  0.00     0.218 C 
HETATM   32  O7  UNL     1       4.869   9.199  12.111  1.00  0.00    -0.274 OA
HETATM   33  N1  UNL     1       5.669   7.174  12.833  1.00  0.00    -0.357 N 
HETATM   34  H32 UNL     1       5.432   6.235  13.121  1.00  0.00     0.162 HD
BRANCH  33  35
HETATM   35  C26 UNL     1       7.063   7.484  12.617  1.00  0.00     0.162 C 
BRANCH  35  36
HETATM   36  C27 UNL     1       7.758   7.717  13.927  1.00  0.00    -0.025 A 
HETATM   37  C28 UNL     1       9.142   7.886  14.007  1.00  0.00     0.011 A 
HETATM   38  C29 UNL     1       9.737   8.131  15.242  1.00  0.00     0.018 A 
HETATM   39  C30 UNL     1       8.921   8.204  16.360  1.00  0.00     0.087 A 
HETATM   40  N2  UNL     1       7.581   8.054  16.321  1.00  0.00    -0.375 N 
HETATM   41  C31 UNL     1       7.029   7.817  15.108  1.00  0.00     0.096 A 
ATOM     42  H2  UNL     1       7.012   8.115  17.165  1.00  0.00     0.164 HD
ENDBRANCH  35  36
ENDBRANCH  33  35
ENDBRANCH  30  31
ENDBRANCH  29  30
ENDBRANCH  27  29
ENDBRANCH  26  27
ENDBRANCH  25  26
ENDBRANCH  23  25
ENDBRANCH  20  23
BRANCH  13  43
HETATM   43  O2  UNL     1      -6.314   7.672  16.648  1.00  0.00    -0.395 OA
HETATM   44  H14 UNL     1      -5.685   7.797  17.381  1.00  0.00     0.210 HD
ENDBRANCH  13  43
TORSDOF 11
ENDMDL
MODEL 8
REMARK minimizedAffinity -8.20681381
REMARK CNNscore 0.380191088
REMARK CNNaffinity 6.59403658
REMARK  11 active torsions:
REMARK  status: ('A' for Active; 'I' for Inactive)
REMARK    1  A    between atoms: C12_13  and  O2_14 
REMARK    2  A    between atoms: C19_21  and  O3_22 
REMARK    3  A    between atoms: C19_21  and  C20_23 
REMARK    4  A    between atoms: C20_23  and  C21_25 
REMARK    5  A    between atoms: C21_25  and  O5_26 
REMARK    6  A    between atoms: O5_26  and  C22_27 
REMARK    7  A    between atoms: C22_27  and  C23_29 
REMARK    8  A    between atoms: C23_29  and  C24_30 
REMARK    9  A    between atoms: C24_30  and  C25_31 
REMARK       I    between atoms: C25_31  and  N1_33 
REMARK   10  A    between atoms: N1_33  and  C26_34 
REMARK   11  A    between atoms: C26_34  and  C27_35 
ROOT
HETATM    1  C1  UNL     1      -6.723   5.632  15.946  1.00  0.00     0.025 C 
HETATM    2  C2  UNL     1      -6.948   6.506  14.690  1.00  0.00     0.004 A 
HETATM    3  C3  UNL     1      -8.093   7.459  15.035  1.00  0.00    -0.009 A 
HETATM    4  C4  UNL     1      -9.277   7.508  14.412  1.00  0.00     0.052 A 
HETATM    5  C5  UNL     1      -9.580   6.599  13.293  1.00  0.00     0.172 A 
HETATM    6  O1  UNL     1     -10.654   6.645  12.707  1.00  0.00    -0.289 OA
HETATM    7  C6  UNL     1      -8.532   5.634  12.905  1.00  0.00     0.058 A 
HETATM    8  C7  UNL     1      -7.346   5.577  13.537  1.00  0.00    -0.064 A 
HETATM    9  C8  UNL     1      -6.303   4.589  13.075  1.00  0.00     0.036 C 
HETATM   10  C9  UNL     1      -4.875   5.100  13.267  1.00  0.00     0.010 C 
HETATM   11  C10 UNL     1      -4.790   6.630  13.165  1.00  0.00    -0.002 C 
HETATM   12  C11 UNL     1      -5.691   7.354  14.228  1.00  0.00     0.035 C 
HETATM   13  C12 UNL     1      -4.848   8.065  15.324  1.00  0.00     0.124 C 
HETATM   14  C13 UNL     1      -3.560   7.316  15.667  1.00  0.00     0.045 C 
HETATM   15  C14 UNL     1      -2.568   7.146  14.485  1.00  0.00     0.001 C 
HETATM   16  C15 UNL     1      -1.795   5.826  14.719  1.00  0.00     0.019 C 
HETATM   17  C16 UNL     1      -3.324   7.117  13.122  1.00  0.00     0.002 C 
HETATM   18  C17 UNL     1      -3.220   8.543  12.530  1.00  0.00     0.009 C 
HETATM   19  C18 UNL     1      -2.331   9.364  13.456  1.00  0.00     0.047 C 
HETATM   20  C19 UNL     1      -1.563   8.335  14.275  1.00  0.00     0.128 C 
ENDROOT
BRANCH  20  21
HETATM   21  O3  UNL     1      -0.479   7.905  13.427  1.00  0.00    -0.381 OA
HETATM   22  H25 UNL     1       0.168   7.459  14.011  1.00  0.00     0.211 HD
ENDBRANCH  20  21
BRANCH  20  23
HETATM   23  C20 UNL     1      -0.895   8.870  15.559  1.00  0.00     0.185 C 
HETATM   24  O4  UNL     1      -1.534   9.626  16.302  1.00  0.00    -0.292 OA
BRANCH  23  25
HETATM   25  C21 UNL     1       0.546   8.456  15.865  1.00  0.00     0.260 C 
BRANCH  25  26
HETATM   26  O5  UNL     1       1.474   9.536  15.775  1.00  0.00    -0.314 OA
BRANCH  26  27
HETATM   27  C22 UNL     1       1.932   9.975  16.978  1.00  0.00     0.259 C 
HETATM   28  O6  UNL     1       2.367   9.253  17.866  1.00  0.00    -0.265 OA
BRANCH  27  29
HETATM   29  C23 UNL     1       1.856  11.476  17.075  1.00  0.00     0.120 C 
BRANCH  29  30
HETATM   30  C24 UNL     1       3.177  12.025  17.593  1.00  0.00     0.112 C 
BRANCH  30  31
HETATM   31  C25 UNL     1       3.155  12.198  19.099  1.00  0.00     0.218 C 
HETATM   32  O7  UNL     1       2.623  13.153  19.653  1.00  0.00    -0.274 OA
HETATM   33  N1  UNL     1       3.843  11.214  19.768  1.00  0.00    -0.357 N 
HETATM   34  H32 UNL     1       4.321  10.493  19.245  1.00  0.00     0.162 HD
BRANCH  33  35
HETATM   35  C26 UNL     1       4.016  11.237  21.202  1.00  0.00     0.162 C 
BRANCH  35  36
HETATM   36  C27 UNL     1       5.366  11.786  21.559  1.00  0.00    -0.025 A 
HETATM   37  C28 UNL     1       5.702  12.118  22.874  1.00  0.00     0.011 A 
HETATM   38  C29 UNL     1       6.979  12.595  23.161  1.00  0.00     0.018 A 
HETATM   39  C30 UNL     1       7.882  12.720  22.117  1.00  0.00     0.087 A 
HETATM   40  N2  UNL     1       7.596  12.403  20.837  1.00  0.00    -0.375 N 
HETATM   41  C31 UNL     1       6.349  11.941  20.586  1.00  0.00     0.096 A 
ATOM     42  H2  UNL     1       8.287  12.506  20.094  1.00  0.00     0.164 HD
ENDBRANCH  35  36
ENDBRANCH  33  35
ENDBRANCH  30  31
ENDBRANCH  29  30
ENDBRANCH  27  29
ENDBRANCH  26  27
ENDBRANCH  25  26
ENDBRANCH  23  25
ENDBRANCH  20  23
BRANCH  13  43
HETATM   43  O2  UNL     1      -5.590   8.321  16.507  1.00  0.00    -0.395 OA
HETATM   44  H14 UNL     1      -4.988   8.639  17.204  1.00  0.00     0.210 HD
ENDBRANCH  13  43
TORSDOF 11
ENDMDL
MODEL 9
REMARK minimizedAffinity -8.29819679
REMARK CNNscore 0.347406685
REMARK CNNaffinity 5.45089102
REMARK  11 active torsions:
REMARK  status: ('A' for Active; 'I' for Inactive)
REMARK    1  A    between atoms: C12_13  and  O2_14 
REMARK    2  A    between atoms: C19_21  and  O3_22 
REMARK    3  A    between atoms: C19_21  and  C20_23 
REMARK    4  A    between atoms: C20_23  and  C21_25 
REMARK    5  A    between atoms: C21_25  and  O5_26 
REMARK    6  A    between atoms: O5_26  and  C22_27 
REMARK    7  A    between atoms: C22_27  and  C23_29 
REMARK    8  A    between atoms: C23_29  and  C24_30 
REMARK    9  A    between atoms: C24_30  and  C25_31 
REMARK       I    between atoms: C25_31  and  N1_33 
REMARK   10  A    between atoms: N1_33  and  C26_34 
REMARK   11  A    between atoms: C26_34  and  C27_35 
ROOT
HETATM    1  C1  UNL     1      -6.908  -8.007  10.253  1.00  0.00     0.025 C 
HETATM    2  C2  UNL     1      -6.496  -9.498  10.251  1.00  0.00     0.004 A 
HETATM    3  C3  UNL     1      -4.989  -9.523  10.511  1.00  0.00    -0.009 A 
HETATM    4  C4  UNL     1      -4.063  -9.998   9.668  1.00  0.00     0.052 A 
HETATM    5  C5  UNL     1      -4.448 -10.558   8.361  1.00  0.00     0.172 A 
HETATM    6  O1  UNL     1      -3.611 -11.007   7.588  1.00  0.00    -0.289 OA
HETATM    7  C6  UNL     1      -5.885 -10.557   8.023  1.00  0.00     0.058 A 
HETATM    8  C7  UNL     1      -6.815 -10.071   8.864  1.00  0.00    -0.064 A 
HETATM    9  C8  UNL     1      -8.272 -10.125   8.476  1.00  0.00     0.036 C 
HETATM   10  C9  UNL     1      -9.200 -10.306   9.677  1.00  0.00     0.010 C 
HETATM   11  C10 UNL     1      -8.530 -11.094  10.812  1.00  0.00    -0.002 C 
HETATM   12  C11 UNL     1      -7.223 -10.398  11.335  1.00  0.00     0.035 C 
HETATM   13  C12 UNL     1      -7.400  -9.816  12.766  1.00  0.00     0.124 C 
HETATM   14  C13 UNL     1      -8.809  -9.283  13.024  1.00  0.00     0.045 C 
HETATM   15  C14 UNL     1      -9.939 -10.343  12.909  1.00  0.00     0.001 C 
HETATM   16  C15 UNL     1     -11.214  -9.606  12.430  1.00  0.00     0.019 C 
HETATM   17  C16 UNL     1      -9.542 -11.476  11.916  1.00  0.00     0.002 C 
HETATM   18  C17 UNL     1      -9.022 -12.653  12.775  1.00  0.00     0.009 C 
HETATM   19  C18 UNL     1      -9.213 -12.276  14.239  1.00  0.00     0.047 C 
HETATM   20  C19 UNL     1     -10.239 -11.150  14.223  1.00  0.00     0.128 C 
ENDROOT
BRANCH  20  21
HETATM   21  O3  UNL     1     -11.520 -11.803  14.105  1.00  0.00    -0.381 OA
HETATM   22  H25 UNL     1     -12.192 -11.138  14.358  1.00  0.00     0.211 HD
ENDBRANCH  20  21
BRANCH  20  23
HETATM   23  C20 UNL     1     -10.323 -10.307  15.512  1.00  0.00     0.185 C 
HETATM   24  O4  UNL     1      -9.349  -9.622  15.850  1.00  0.00    -0.292 OA
BRANCH  23  25
HETATM   25  C21 UNL     1     -11.609 -10.356  16.340  1.00  0.00     0.260 C 
BRANCH  25  26
HETATM   26  O5  UNL     1     -11.498  -9.683  17.593  1.00  0.00    -0.314 OA
BRANCH  26  27
HETATM   27  C22 UNL     1     -11.359 -10.517  18.659  1.00  0.00     0.259 C 
HETATM   28  O6  UNL     1     -12.143 -11.409  18.957  1.00  0.00    -0.265 OA
BRANCH  27  29
HETATM   29  C23 UNL     1     -10.096 -10.217  19.424  1.00  0.00     0.120 C 
BRANCH  29  30
HETATM   30  C24 UNL     1     -10.272 -10.618  20.881  1.00  0.00     0.112 C 
BRANCH  30  31
HETATM   31  C25 UNL     1      -8.947 -10.634  21.617  1.00  0.00     0.218 C 
HETATM   32  O7  UNL     1      -7.876 -10.408  21.067  1.00  0.00    -0.274 OA
HETATM   33  N1  UNL     1      -9.066 -10.988  22.940  1.00  0.00    -0.357 N 
HETATM   34  H32 UNL     1      -9.972 -11.232  23.314  1.00  0.00     0.162 HD
BRANCH  33  35
HETATM   35  C26 UNL     1      -7.915 -11.145  23.799  1.00  0.00     0.162 C 
BRANCH  35  36
HETATM   36  C27 UNL     1      -8.019 -12.418  24.587  1.00  0.00    -0.025 A 
HETATM   37  C28 UNL     1      -8.734 -12.487  25.786  1.00  0.00     0.011 A 
HETATM   38  C29 UNL     1      -8.827 -13.699  26.465  1.00  0.00     0.018 A 
HETATM   39  C30 UNL     1      -8.201 -14.808  25.917  1.00  0.00     0.087 A 
HETATM   40  N2  UNL     1      -7.508 -14.781  24.760  1.00  0.00    -0.375 N 
HETATM   41  C31 UNL     1      -7.434 -13.591  24.120  1.00  0.00     0.096 A 
ATOM     42  H2  UNL     1      -7.061 -15.618  24.385  1.00  0.00     0.164 HD
ENDBRANCH  35  36
ENDBRANCH  33  35
ENDBRANCH  30  31
ENDBRANCH  29  30
ENDBRANCH  27  29
ENDBRANCH  26  27
ENDBRANCH  25  26
ENDBRANCH  23  25
ENDBRANCH  20  23
BRANCH  13  43
HETATM   43  O2  UNL     1      -6.440  -8.816  13.074  1.00  0.00    -0.395 OA
HETATM   44  H14 UNL     1      -6.675  -8.392  13.918  1.00  0.00     0.210 HD
ENDBRANCH  13  43
TORSDOF 11
ENDMDL
