MODEL 1
REMARK minimizedAffinity -10.1007576
REMARK  8 active torsions:
REMARK  status: ('A' for Active; 'I' for Inactive)
REMARK    1  A    between atoms: C4_4  and  C5_5 
REMARK    2  A    between atoms: C5_5  and  C6_6 
REMARK    3  A    between atoms: C6_6  and  C7_7 
REMARK    4  A    between atoms: C7_7  and  C9_9 
REMARK    5  A    between atoms: C19_19  and  C21_21 
REMARK    6  A    between atoms: C21_21  and  O2_23 
REMARK    7  A    between atoms: C22_24  and  O3_25 
REMARK    8  A    between atoms: C24_27  and  O4_28 
ROOT
HETATM    1  C9  UNL     1      -2.184   5.512  13.609  1.00  0.00    -0.002 C 
HETATM    2  C10 UNL     1      -2.160   4.689  12.288  1.00  0.00     0.006 C 
HETATM    3  C11 UNL     1      -1.120   5.347  11.361  1.00  0.00     0.011 C 
HETATM    4  C12 UNL     1      -0.216   6.163  12.304  1.00  0.00    -0.028 C 
HETATM    5  C13 UNL     1       0.696   5.095  13.051  1.00  0.00     0.016 C 
HETATM    6  C14 UNL     1       0.757   7.251  11.639  1.00  0.00    -0.028 C 
HETATM    7  C15 UNL     1       0.062   8.247  10.667  1.00  0.00     0.016 C 
HETATM    8  C16 UNL     1       1.805   6.492  10.741  1.00  0.00     0.011 C 
HETATM    9  C17 UNL     1       3.139   7.200  10.553  1.00  0.00     0.007 C 
HETATM   10  C18 UNL     1       3.849   7.350  11.909  1.00  0.00     0.018 C 
HETATM   11  C19 UNL     1       5.283   8.003  11.799  1.00  0.00     0.072 C 
HETATM   12  C20 UNL     1       5.330   9.162  10.778  1.00  0.00     0.030 C 
HETATM   13  C22 UNL     1       5.807   8.460  13.198  1.00  0.00     0.139 C 
HETATM   14  C23 UNL     1       5.094   7.741  14.335  1.00  0.00     0.065 C 
HETATM   15  C24 UNL     1       3.597   8.049  14.348  1.00  0.00     0.130 C 
HETATM   16  C25 UNL     1       2.979   8.060  12.950  1.00  0.00    -0.000 A 
HETATM   17  C26 UNL     1       2.273   9.304  12.479  1.00  0.00     0.024 A 
HETATM   18  C27 UNL     1       1.422   8.084  12.811  1.00  0.00    -0.021 A 
HETATM   19  C28 UNL     1       0.492   8.433  14.001  1.00  0.00     0.012 C 
HETATM   20  C29 UNL     1      -0.511   7.369  14.465  1.00  0.00     0.011 C 
HETATM   21  C30 UNL     1      -1.299   6.774  13.288  1.00  0.00    -0.032 C 
HETATM   22  C31 UNL     1      -2.213   7.875  12.703  1.00  0.00     0.016 C 
ENDROOT
BRANCH   1  23
HETATM   23  C7  UNL     1      -3.602   5.585  14.257  1.00  0.00    -0.014 C 
HETATM   24  C8  UNL     1      -3.575   6.397  15.559  1.00  0.00     0.010 C 
BRANCH  23  25
HETATM   25  C6  UNL     1      -4.767   6.036  13.342  1.00  0.00     0.008 C 
BRANCH  25  26
HETATM   26  C5  UNL     1      -5.918   5.019  13.251  1.00  0.00     0.028 C 
BRANCH  26  27
HETATM   27  C4  UNL     1      -5.626   3.853  12.350  1.00  0.00    -0.025 C 
HETATM   28  C2  UNL     1      -6.352   2.732  12.174  1.00  0.00    -0.091 C 
HETATM   29  C1  UNL     1      -7.664   2.429  12.845  1.00  0.00     0.042 C 
HETATM   30  C3  UNL     1      -5.879   1.654  11.234  1.00  0.00     0.042 C 
ENDBRANCH  26  27
ENDBRANCH  25  26
ENDBRANCH  23  25
ENDBRANCH   1  23
BRANCH  15  31
HETATM   31  O4  UNL     1       2.966   7.041  15.136  1.00  0.00    -0.395 OA
HETATM   32  H41 UNL     1       3.260   7.173  16.052  1.00  0.00     0.210 HD
ENDBRANCH  15  31
BRANCH  11  33
HETATM   33  C21 UNL     1       6.257   6.925  11.311  1.00  0.00     0.151 C 
HETATM   34  O1  UNL     1       7.146   7.045  10.485  1.00  0.00    -0.649 OA
BRANCH  33  35
HETATM   35  O2  UNL     1       6.044   5.713  11.867  1.00  0.00    -0.776 OA
HETATM   36  H35 UNL     1       6.741   5.147  11.469  1.00  0.00     0.167 HD
ENDBRANCH  33  35
ENDBRANCH  11  33
BRANCH  13  37
HETATM   37  O3  UNL     1       5.650   9.866  13.418  1.00  0.00    -0.394 OA
HETATM   38  H37 UNL     1       6.344  10.323  12.910  1.00  0.00     0.210 HD
ENDBRANCH  13  37
TORSDOF 8
ENDMDL
MODEL 2
REMARK minimizedAffinity -9.00232887
REMARK  8 active torsions:
REMARK  status: ('A' for Active; 'I' for Inactive)
REMARK    1  A    between atoms: C4_4  and  C5_5 
REMARK    2  A    between atoms: C5_5  and  C6_6 
REMARK    3  A    between atoms: C6_6  and  C7_7 
REMARK    4  A    between atoms: C7_7  and  C9_9 
REMARK    5  A    between atoms: C19_19  and  C21_21 
REMARK    6  A    between atoms: C21_21  and  O2_23 
REMARK    7  A    between atoms: C22_24  and  O3_25 
REMARK    8  A    between atoms: C24_27  and  O4_28 
ROOT
HETATM    1  C9  UNL     1      -3.125   7.464  13.118  1.00  0.00    -0.002 C 
HETATM    2  C10 UNL     1      -3.244   9.009  13.270  1.00  0.00     0.006 C 
HETATM    3  C11 UNL     1      -1.854   9.535  13.673  1.00  0.00     0.011 C 
HETATM    4  C12 UNL     1      -0.876   8.426  13.242  1.00  0.00    -0.028 C 
HETATM    5  C13 UNL     1      -0.780   8.534  11.658  1.00  0.00     0.016 C 
HETATM    6  C14 UNL     1       0.618   8.488  13.824  1.00  0.00    -0.028 C 
HETATM    7  C15 UNL     1       0.715   8.632  15.370  1.00  0.00     0.016 C 
HETATM    8  C16 UNL     1       1.312   9.785  13.263  1.00  0.00     0.011 C 
HETATM    9  C17 UNL     1       2.828   9.717  13.149  1.00  0.00     0.007 C 
HETATM   10  C18 UNL     1       3.231   8.618  12.152  1.00  0.00     0.018 C 
HETATM   11  C19 UNL     1       4.789   8.531  11.907  1.00  0.00     0.072 C 
HETATM   12  C20 UNL     1       5.605   8.722  13.206  1.00  0.00     0.030 C 
HETATM   13  C22 UNL     1       5.176   7.200  11.186  1.00  0.00     0.139 C 
HETATM   14  C23 UNL     1       3.990   6.580  10.462  1.00  0.00     0.065 C 
HETATM   15  C24 UNL     1       2.872   6.199  11.431  1.00  0.00     0.130 C 
HETATM   16  C25 UNL     1       2.634   7.255  12.511  1.00  0.00    -0.000 A 
HETATM   17  C26 UNL     1       2.743   6.849  13.957  1.00  0.00     0.024 A 
HETATM   18  C27 UNL     1       1.355   7.150  13.404  1.00  0.00    -0.021 A 
HETATM   19  C28 UNL     1       0.500   5.859  13.473  1.00  0.00     0.012 C 
HETATM   20  C29 UNL     1      -0.967   5.944  13.032  1.00  0.00     0.011 C 
HETATM   21  C30 UNL     1      -1.689   7.136  13.676  1.00  0.00    -0.032 C 
HETATM   22  C31 UNL     1      -1.804   6.876  15.196  1.00  0.00     0.016 C 
ENDROOT
BRANCH   1  23
HETATM   23  C7  UNL     1      -4.421   6.707  13.547  1.00  0.00    -0.014 C 
HETATM   24  C8  UNL     1      -5.660   7.599  13.392  1.00  0.00     0.010 C 
BRANCH  23  25
HETATM   25  C6  UNL     1      -4.656   5.311  12.918  1.00  0.00     0.008 C 
BRANCH  25  26
HETATM   26  C5  UNL     1      -6.036   4.710  13.234  1.00  0.00     0.028 C 
BRANCH  26  27
HETATM   27  C4  UNL     1      -6.261   3.356  12.625  1.00  0.00    -0.025 C 
HETATM   28  C2  UNL     1      -5.572   2.763  11.631  1.00  0.00    -0.091 C 
HETATM   29  C1  UNL     1      -4.375   3.347  10.930  1.00  0.00     0.042 C 
HETATM   30  C3  UNL     1      -5.967   1.395  11.136  1.00  0.00     0.042 C 
ENDBRANCH  26  27
ENDBRANCH  25  26
ENDBRANCH  23  25
ENDBRANCH   1  23
BRANCH  15  31
HETATM   31  O4  UNL     1       1.682   6.037  10.660  1.00  0.00    -0.395 OA
HETATM   32  H41 UNL     1       1.812   5.253  10.102  1.00  0.00     0.210 HD
ENDBRANCH  15  31
BRANCH  11  33
HETATM   33  C21 UNL     1       5.181   9.662  10.951  1.00  0.00     0.151 C 
HETATM   34  O1  UNL     1       5.259   9.615   9.734  1.00  0.00    -0.649 OA
BRANCH  33  35
HETATM   35  O2  UNL     1       5.499  10.815  11.579  1.00  0.00    -0.776 OA
HETATM   36  H35 UNL     1       5.713  11.431  10.844  1.00  0.00     0.167 HD
ENDBRANCH  33  35
ENDBRANCH  11  33
BRANCH  13  37
HETATM   37  O3  UNL     1       5.692   6.211  12.085  1.00  0.00    -0.394 OA
HETATM   38  H37 UNL     1       6.606   6.461  12.306  1.00  0.00     0.210 HD
ENDBRANCH  13  37
TORSDOF 8
ENDMDL
MODEL 3
REMARK minimizedAffinity -8.96241856
REMARK  8 active torsions:
REMARK  status: ('A' for Active; 'I' for Inactive)
REMARK    1  A    between atoms: C4_4  and  C5_5 
REMARK    2  A    between atoms: C5_5  and  C6_6 
REMARK    3  A    between atoms: C6_6  and  C7_7 
REMARK    4  A    between atoms: C7_7  and  C9_9 
REMARK    5  A    between atoms: C19_19  and  C21_21 
REMARK    6  A    between atoms: C21_21  and  O2_23 
REMARK    7  A    between atoms: C22_24  and  O3_25 
REMARK    8  A    between atoms: C24_27  and  O4_28 
ROOT
HETATM    1  C9  UNL     1      -5.534   6.016  14.507  1.00  0.00    -0.002 C 
HETATM    2  C10 UNL     1      -4.540   5.069  13.773  1.00  0.00     0.006 C 
HETATM    3  C11 UNL     1      -3.281   5.895  13.448  1.00  0.00     0.011 C 
HETATM    4  C12 UNL     1      -3.333   7.087  14.423  1.00  0.00    -0.028 C 
HETATM    5  C13 UNL     1      -2.933   6.493  15.844  1.00  0.00     0.016 C 
HETATM    6  C14 UNL     1      -2.362   8.329  14.126  1.00  0.00    -0.028 C 
HETATM    7  C15 UNL     1      -2.444   8.895  12.679  1.00  0.00     0.016 C 
HETATM    8  C16 UNL     1      -0.874   7.838  14.274  1.00  0.00     0.011 C 
HETATM    9  C17 UNL     1       0.133   8.911  14.664  1.00  0.00     0.007 C 
HETATM   10  C18 UNL     1      -0.213   9.475  16.052  1.00  0.00     0.018 C 
HETATM   11  C19 UNL     1       0.828  10.540  16.576  1.00  0.00     0.072 C 
HETATM   12  C20 UNL     1       1.312  11.495  15.461  1.00  0.00     0.030 C 
HETATM   13  C22 UNL     1       0.263  11.335  17.796  1.00  0.00     0.139 C 
HETATM   14  C23 UNL     1      -0.872  10.590  18.484  1.00  0.00     0.065 C 
HETATM   15  C24 UNL     1      -2.064  10.388  17.549  1.00  0.00     0.130 C 
HETATM   16  C25 UNL     1      -1.650   9.998  16.130  1.00  0.00    -0.000 A 
HETATM   17  C26 UNL     1      -2.099  10.862  14.981  1.00  0.00     0.024 A 
HETATM   18  C27 UNL     1      -2.743   9.490  15.135  1.00  0.00    -0.021 A 
HETATM   19  C28 UNL     1      -4.258   9.678  15.405  1.00  0.00     0.012 C 
HETATM   20  C29 UNL     1      -5.128   8.420  15.524  1.00  0.00     0.011 C 
HETATM   21  C30 UNL     1      -4.877   7.440  14.368  1.00  0.00    -0.032 C 
HETATM   22  C31 UNL     1      -5.387   8.087  13.059  1.00  0.00     0.016 C 
ENDROOT
BRANCH   1  23
HETATM   23  C7  UNL     1      -7.028   5.709  14.175  1.00  0.00    -0.014 C 
HETATM   24  C8  UNL     1      -7.402   6.225  12.779  1.00  0.00     0.010 C 
BRANCH  23  25
HETATM   25  C6  UNL     1      -7.502   4.248  14.376  1.00  0.00     0.008 C 
BRANCH  25  26
HETATM   26  C5  UNL     1      -8.027   3.582  13.092  1.00  0.00     0.028 C 
BRANCH  26  27
HETATM   27  C4  UNL     1      -7.222   2.392  12.654  1.00  0.00    -0.025 C 
HETATM   28  C2  UNL     1      -6.250   2.338  11.723  1.00  0.00    -0.091 C 
HETATM   29  C1  UNL     1      -5.735   3.509  10.931  1.00  0.00     0.042 C 
HETATM   30  C3  UNL     1      -5.568   1.032  11.404  1.00  0.00     0.042 C 
ENDBRANCH  26  27
ENDBRANCH  25  26
ENDBRANCH  23  25
ENDBRANCH   1  23
BRANCH  15  31
HETATM   31  O4  UNL     1      -2.868   9.350  18.108  1.00  0.00    -0.395 OA
HETATM   32  H41 UNL     1      -3.247   9.698  18.932  1.00  0.00     0.210 HD
ENDBRANCH  15  31
BRANCH  11  33
HETATM   33  C21 UNL     1       2.058   9.785  17.094  1.00  0.00     0.151 C 
HETATM   34  O1  UNL     1       2.269   8.585  17.041  1.00  0.00    -0.649 OA
BRANCH  33  35
HETATM   35  O2  UNL     1       2.966  10.581  17.698  1.00  0.00    -0.776 OA
HETATM   36  H35 UNL     1       3.682   9.962  17.959  1.00  0.00     0.167 HD
ENDBRANCH  33  35
ENDBRANCH  11  33
BRANCH  13  37
HETATM   37  O3  UNL     1      -0.235  12.629  17.434  1.00  0.00    -0.394 OA
HETATM   38  H37 UNL     1       0.532  13.212  17.296  1.00  0.00     0.210 HD
ENDBRANCH  13  37
TORSDOF 8
ENDMDL
MODEL 4
REMARK minimizedAffinity -8.95461464
REMARK  8 active torsions:
REMARK  status: ('A' for Active; 'I' for Inactive)
REMARK    1  A    between atoms: C4_4  and  C5_5 
REMARK    2  A    between atoms: C5_5  and  C6_6 
REMARK    3  A    between atoms: C6_6  and  C7_7 
REMARK    4  A    between atoms: C7_7  and  C9_9 
REMARK    5  A    between atoms: C19_19  and  C21_21 
REMARK    6  A    between atoms: C21_21  and  O2_23 
REMARK    7  A    between atoms: C22_24  and  O3_25 
REMARK    8  A    between atoms: C24_27  and  O4_28 
ROOT
HETATM    1  C9  UNL     1      -3.281   7.981  14.362  1.00  0.00    -0.002 C 
HETATM    2  C10 UNL     1      -2.593   8.750  15.528  1.00  0.00     0.006 C 
HETATM    3  C11 UNL     1      -1.092   8.406  15.476  1.00  0.00     0.011 C 
HETATM    4  C12 UNL     1      -0.855   7.908  14.037  1.00  0.00    -0.028 C 
HETATM    5  C13 UNL     1      -0.887   9.210  13.125  1.00  0.00     0.016 C 
HETATM    6  C14 UNL     1       0.520   7.139  13.737  1.00  0.00    -0.028 C 
HETATM    7  C15 UNL     1       0.840   5.964  14.705  1.00  0.00     0.016 C 
HETATM    8  C16 UNL     1       1.707   8.153  13.942  1.00  0.00     0.011 C 
HETATM    9  C17 UNL     1       2.963   7.861  13.133  1.00  0.00     0.007 C 
HETATM   10  C18 UNL     1       2.651   7.952  11.630  1.00  0.00     0.018 C 
HETATM   11  C19 UNL     1       3.918   7.744  10.711  1.00  0.00     0.072 C 
HETATM   12  C20 UNL     1       4.853   6.629  11.233  1.00  0.00     0.030 C 
HETATM   13  C22 UNL     1       3.507   7.488   9.226  1.00  0.00     0.139 C 
HETATM   14  C23 UNL     1       2.100   7.990   8.931  1.00  0.00     0.065 C 
HETATM   15  C24 UNL     1       1.052   7.258   9.769  1.00  0.00     0.130 C 
HETATM   16  C25 UNL     1       1.493   7.040  11.217  1.00  0.00    -0.000 A 
HETATM   17  C26 UNL     1       1.536   5.635  11.756  1.00  0.00     0.024 A 
HETATM   18  C27 UNL     1       0.437   6.559  12.264  1.00  0.00    -0.021 A 
HETATM   19  C28 UNL     1      -0.937   5.978  11.846  1.00  0.00     0.012 C 
HETATM   20  C29 UNL     1      -2.201   6.711  12.314  1.00  0.00     0.011 C 
HETATM   21  C30 UNL     1      -2.155   7.027  13.817  1.00  0.00    -0.032 C 
HETATM   22  C31 UNL     1      -2.222   5.695  14.599  1.00  0.00     0.016 C 
ENDROOT
BRANCH   1  23
HETATM   23  C7  UNL     1      -4.729   7.511  14.712  1.00  0.00    -0.014 C 
HETATM   24  C8  UNL     1      -5.532   8.639  15.372  1.00  0.00     0.010 C 
BRANCH  23  25
HETATM   25  C6  UNL     1      -5.539   6.838  13.576  1.00  0.00     0.008 C 
BRANCH  25  26
HETATM   26  C5  UNL     1      -5.933   5.381  13.872  1.00  0.00     0.028 C 
BRANCH  26  27
HETATM   27  C4  UNL     1      -5.484   4.407  12.821  1.00  0.00    -0.025 C 
HETATM   28  C2  UNL     1      -6.106   3.289  12.398  1.00  0.00    -0.091 C 
HETATM   29  C1  UNL     1      -7.439   2.794  12.888  1.00  0.00     0.042 C 
HETATM   30  C3  UNL     1      -5.479   2.419  11.339  1.00  0.00     0.042 C 
ENDBRANCH  26  27
ENDBRANCH  25  26
ENDBRANCH  23  25
ENDBRANCH   1  23
BRANCH  15  31
HETATM   31  O4  UNL     1      -0.133   8.053   9.751  1.00  0.00    -0.395 OA
HETATM   32  H41 UNL     1      -0.474   8.031   8.842  1.00  0.00     0.210 HD
ENDBRANCH  15  31
BRANCH  11  33
HETATM   33  C21 UNL     1       4.721   9.050  10.710  1.00  0.00     0.151 C 
HETATM   34  O1  UNL     1       5.309   9.561   9.772  1.00  0.00    -0.649 OA
BRANCH  33  35
HETATM   35  O2  UNL     1       4.780   9.648  11.920  1.00  0.00    -0.776 OA
HETATM   36  H35 UNL     1       5.309  10.459  11.754  1.00  0.00     0.167 HD
ENDBRANCH  33  35
ENDBRANCH  11  33
BRANCH  13  37
HETATM   37  O3  UNL     1       3.548   6.102   8.868  1.00  0.00    -0.394 OA
HETATM   38  H37 UNL     1       4.483   5.857   8.744  1.00  0.00     0.210 HD
ENDBRANCH  13  37
TORSDOF 8
ENDMDL
MODEL 5
REMARK minimizedAffinity -8.88446522
REMARK  8 active torsions:
REMARK  status: ('A' for Active; 'I' for Inactive)
REMARK    1  A    between atoms: C4_4  and  C5_5 
REMARK    2  A    between atoms: C5_5  and  C6_6 
REMARK    3  A    between atoms: C6_6  and  C7_7 
REMARK    4  A    between atoms: C7_7  and  C9_9 
REMARK    5  A    between atoms: C19_19  and  C21_21 
REMARK    6  A    between atoms: C21_21  and  O2_23 
REMARK    7  A    between atoms: C22_24  and  O3_25 
REMARK    8  A    between atoms: C24_27  and  O4_28 
ROOT
HETATM    1  C9  UNL     1       0.368   8.584  12.713  1.00  0.00    -0.002 C 
HETATM    2  C10 UNL     1       0.273   7.641  11.478  1.00  0.00     0.006 C 
HETATM    3  C11 UNL     1      -0.796   6.579  11.799  1.00  0.00     0.011 C 
HETATM    4  C12 UNL     1      -1.645   7.205  12.922  1.00  0.00    -0.028 C 
HETATM    5  C13 UNL     1      -2.539   8.313  12.214  1.00  0.00     0.016 C 
HETATM    6  C14 UNL     1      -2.629   6.234  13.735  1.00  0.00    -0.028 C 
HETATM    7  C15 UNL     1      -1.962   4.949  14.304  1.00  0.00     0.016 C 
HETATM    8  C16 UNL     1      -3.727   5.701  12.741  1.00  0.00     0.011 C 
HETATM    9  C17 UNL     1      -5.057   5.323  13.378  1.00  0.00     0.007 C 
HETATM   10  C18 UNL     1      -5.704   6.563  14.018  1.00  0.00     0.018 C 
HETATM   11  C19 UNL     1      -7.130   6.281  14.634  1.00  0.00     0.072 C 
HETATM   12  C20 UNL     1      -7.205   4.919  15.360  1.00  0.00     0.030 C 
HETATM   13  C22 UNL     1      -7.585   7.447  15.569  1.00  0.00     0.139 C 
HETATM   14  C23 UNL     1      -6.834   8.738  15.275  1.00  0.00     0.065 C 
HETATM   15  C24 UNL     1      -5.333   8.587  15.523  1.00  0.00     0.130 C 
HETATM   16  C25 UNL     1      -4.777   7.254  15.022  1.00  0.00    -0.000 A 
HETATM   17  C26 UNL     1      -4.073   6.350  15.998  1.00  0.00     0.024 A 
HETATM   18  C27 UNL     1      -3.228   7.060  14.948  1.00  0.00    -0.021 A 
HETATM   19  C28 UNL     1      -2.241   8.016  15.665  1.00  0.00     0.012 C 
HETATM   20  C29 UNL     1      -1.235   8.789  14.802  1.00  0.00     0.011 C 
HETATM   21  C30 UNL     1      -0.510   7.870  13.808  1.00  0.00    -0.032 C 
HETATM   22  C31 UNL     1       0.395   6.902  14.604  1.00  0.00     0.016 C 
ENDROOT
BRANCH   1  23
HETATM   23  C7  UNL     1       1.815   9.114  12.966  1.00  0.00    -0.014 C 
HETATM   24  C8  UNL     1       1.836  10.145  14.102  1.00  0.00     0.010 C 
BRANCH  23  25
HETATM   25  C6  UNL     1       2.925   8.051  13.157  1.00  0.00     0.008 C 
BRANCH  25  26
HETATM   26  C5  UNL     1       3.935   7.991  11.998  1.00  0.00     0.028 C 
BRANCH  26  27
HETATM   27  C4  UNL     1       3.720   6.833  11.066  1.00  0.00    -0.025 C 
HETATM   28  C2  UNL     1       3.412   6.862   9.754  1.00  0.00    -0.091 C 
HETATM   29  C1  UNL     1       3.251   8.107   8.924  1.00  0.00     0.042 C 
HETATM   30  C3  UNL     1       3.210   5.581   8.986  1.00  0.00     0.042 C 
ENDBRANCH  26  27
ENDBRANCH  25  26
ENDBRANCH  23  25
ENDBRANCH   1  23
BRANCH  15  31
HETATM   31  O4  UNL     1      -4.683   9.657  14.838  1.00  0.00    -0.395 OA
HETATM   32  H41 UNL     1      -4.935  10.478  15.293  1.00  0.00     0.210 HD
ENDBRANCH  15  31
BRANCH  11  33
HETATM   33  C21 UNL     1      -8.143   6.241  13.483  1.00  0.00     0.151 C 
HETATM   34  O1  UNL     1      -7.959   5.842  12.345  1.00  0.00    -0.649 OA
BRANCH  33  35
HETATM   35  O2  UNL     1      -9.352   6.744  13.810  1.00  0.00    -0.776 OA
HETATM   36  H35 UNL     1      -9.879   6.639  12.987  1.00  0.00     0.167 HD
ENDBRANCH  33  35
ENDBRANCH  11  33
BRANCH  13  37
HETATM   37  O3  UNL     1      -7.397   7.151  16.957  1.00  0.00    -0.394 OA
HETATM   38  H37 UNL     1      -8.105   6.539  17.228  1.00  0.00     0.210 HD
ENDBRANCH  13  37
TORSDOF 8
ENDMDL
MODEL 6
REMARK minimizedAffinity -8.70052338
REMARK  8 active torsions:
REMARK  status: ('A' for Active; 'I' for Inactive)
REMARK    1  A    between atoms: C4_4  and  C5_5 
REMARK    2  A    between atoms: C5_5  and  C6_6 
REMARK    3  A    between atoms: C6_6  and  C7_7 
REMARK    4  A    between atoms: C7_7  and  C9_9 
REMARK    5  A    between atoms: C19_19  and  C21_21 
REMARK    6  A    between atoms: C21_21  and  O2_23 
REMARK    7  A    between atoms: C22_24  and  O3_25 
REMARK    8  A    between atoms: C24_27  and  O4_28 
ROOT
HETATM    1  C9  UNL     1      -3.319   7.184  12.904  1.00  0.00    -0.002 C 
HETATM    2  C10 UNL     1      -3.502   8.719  13.084  1.00  0.00     0.006 C 
HETATM    3  C11 UNL     1      -2.151   9.284  13.564  1.00  0.00     0.011 C 
HETATM    4  C12 UNL     1      -1.115   8.220  13.154  1.00  0.00    -0.028 C 
HETATM    5  C13 UNL     1      -0.950   8.369  11.579  1.00  0.00     0.016 C 
HETATM    6  C14 UNL     1       0.347   8.321  13.807  1.00  0.00    -0.028 C 
HETATM    7  C15 UNL     1       0.367   8.432  15.359  1.00  0.00     0.016 C 
HETATM    8  C16 UNL     1       1.019   9.655  13.309  1.00  0.00     0.011 C 
HETATM    9  C17 UNL     1       2.540   9.643  13.264  1.00  0.00     0.007 C 
HETATM   10  C18 UNL     1       3.028   8.583  12.263  1.00  0.00     0.018 C 
HETATM   11  C19 UNL     1       4.597   8.556  12.090  1.00  0.00     0.072 C 
HETATM   12  C20 UNL     1       5.345   8.745  13.429  1.00  0.00     0.030 C 
HETATM   13  C22 UNL     1       5.066   7.258  11.359  1.00  0.00     0.139 C 
HETATM   14  C23 UNL     1       3.938   6.613  10.565  1.00  0.00     0.065 C 
HETATM   15  C24 UNL     1       2.790   6.171  11.472  1.00  0.00     0.130 C 
HETATM   16  C25 UNL     1       2.465   7.191  12.564  1.00  0.00    -0.000 A 
HETATM   17  C26 UNL     1       2.522   6.755  14.003  1.00  0.00     0.024 A 
HETATM   18  C27 UNL     1       1.151   7.020  13.392  1.00  0.00    -0.021 A 
HETATM   19  C28 UNL     1       0.341   5.698  13.393  1.00  0.00     0.012 C 
HETATM   20  C29 UNL     1      -1.106   5.743  12.885  1.00  0.00     0.011 C 
HETATM   21  C30 UNL     1      -1.900   6.893  13.521  1.00  0.00    -0.032 C 
HETATM   22  C31 UNL     1      -2.076   6.593  15.027  1.00  0.00     0.016 C 
ENDROOT
BRANCH   1  23
HETATM   23  C7  UNL     1      -4.606   6.371  13.255  1.00  0.00    -0.014 C 
HETATM   24  C8  UNL     1      -4.348   4.861  13.165  1.00  0.00     0.010 C 
BRANCH  23  25
HETATM   25  C6  UNL     1      -5.325   6.737  14.577  1.00  0.00     0.008 C 
BRANCH  25  26
HETATM   26  C5  UNL     1      -6.836   6.448  14.564  1.00  0.00     0.028 C 
BRANCH  26  27
HETATM   27  C4  UNL     1      -7.180   5.040  14.169  1.00  0.00    -0.025 C 
HETATM   28  C2  UNL     1      -7.899   4.623  13.108  1.00  0.00    -0.091 C 
HETATM   29  C1  UNL     1      -8.491   5.515  12.051  1.00  0.00     0.042 C 
HETATM   30  C3  UNL     1      -8.159   3.155  12.890  1.00  0.00     0.042 C 
ENDBRANCH  26  27
ENDBRANCH  25  26
ENDBRANCH  23  25
ENDBRANCH   1  23
BRANCH  15  31
HETATM   31  O4  UNL     1       1.644   5.985  10.643  1.00  0.00    -0.395 OA
HETATM   32  H41 UNL     1       1.828   5.219  10.074  1.00  0.00     0.210 HD
ENDBRANCH  15  31
BRANCH  11  33
HETATM   33  C21 UNL     1       4.993   9.724  11.178  1.00  0.00     0.151 C 
HETATM   34  O1  UNL     1       5.235   9.685   9.983  1.00  0.00    -0.649 OA
BRANCH  33  35
HETATM   35  O2  UNL     1       5.102  10.902  11.827  1.00  0.00    -0.776 OA
HETATM   36  H35 UNL     1       5.345  11.538  11.119  1.00  0.00     0.167 HD
ENDBRANCH  33  35
ENDBRANCH  11  33
BRANCH  13  37
HETATM   37  O3  UNL     1       5.575   6.266  12.258  1.00  0.00    -0.394 OA
HETATM   38  H37 UNL     1       6.468   6.543  12.528  1.00  0.00     0.210 HD
ENDBRANCH  13  37
TORSDOF 8
ENDMDL
MODEL 7
REMARK minimizedAffinity -8.64672565
REMARK  8 active torsions:
REMARK  status: ('A' for Active; 'I' for Inactive)
REMARK    1  A    between atoms: C4_4  and  C5_5 
REMARK    2  A    between atoms: C5_5  and  C6_6 
REMARK    3  A    between atoms: C6_6  and  C7_7 
REMARK    4  A    between atoms: C7_7  and  C9_9 
REMARK    5  A    between atoms: C19_19  and  C21_21 
REMARK    6  A    between atoms: C21_21  and  O2_23 
REMARK    7  A    between atoms: C22_24  and  O3_25 
REMARK    8  A    between atoms: C24_27  and  O4_28 
ROOT
HETATM    1  C9  UNL     1      -4.973   6.666  13.559  1.00  0.00    -0.002 C 
HETATM    2  C10 UNL     1      -5.431   8.154  13.579  1.00  0.00     0.006 C 
HETATM    3  C11 UNL     1      -4.328   8.960  14.291  1.00  0.00     0.011 C 
HETATM    4  C12 UNL     1      -3.072   8.074  14.193  1.00  0.00    -0.028 C 
HETATM    5  C13 UNL     1      -2.586   8.186  12.683  1.00  0.00     0.016 C 
HETATM    6  C14 UNL     1      -1.826   8.448  15.133  1.00  0.00    -0.028 C 
HETATM    7  C15 UNL     1      -2.170   8.622  16.640  1.00  0.00     0.016 C 
HETATM    8  C16 UNL     1      -1.280   9.857  14.689  1.00  0.00     0.011 C 
HETATM    9  C17 UNL     1       0.195  10.103  14.970  1.00  0.00     0.007 C 
HETATM   10  C18 UNL     1       1.055   9.104  14.180  1.00  0.00     0.018 C 
HETATM   11  C19 UNL     1       2.608   9.338  14.348  1.00  0.00     0.072 C 
HETATM   12  C20 UNL     1       2.999   9.705  15.797  1.00  0.00     0.030 C 
HETATM   13  C22 UNL     1       3.426   8.111  13.834  1.00  0.00     0.139 C 
HETATM   14  C23 UNL     1       2.620   7.253  12.870  1.00  0.00     0.065 C 
HETATM   15  C24 UNL     1       1.384   6.657  13.543  1.00  0.00     0.130 C 
HETATM   16  C25 UNL     1       0.666   7.649  14.459  1.00  0.00    -0.000 A 
HETATM   17  C26 UNL     1       0.469   7.286  15.906  1.00  0.00     0.024 A 
HETATM   18  C27 UNL     1      -0.755   7.288  14.999  1.00  0.00    -0.021 A 
HETATM   19  C28 UNL     1      -1.326   5.849  14.928  1.00  0.00     0.012 C 
HETATM   20  C29 UNL     1      -2.612   5.625  14.121  1.00  0.00     0.011 C 
HETATM   21  C30 UNL     1      -3.699   6.647  14.484  1.00  0.00    -0.032 C 
HETATM   22  C31 UNL     1      -4.156   6.381  15.937  1.00  0.00     0.016 C 
ENDROOT
BRANCH   1  23
HETATM   23  C7  UNL     1      -6.160   5.661  13.688  1.00  0.00    -0.014 C 
HETATM   24  C8  UNL     1      -7.476   6.296  13.221  1.00  0.00     0.010 C 
BRANCH  23  25
HETATM   25  C6  UNL     1      -5.961   4.260  13.058  1.00  0.00     0.008 C 
BRANCH  25  26
HETATM   26  C5  UNL     1      -5.074   4.263  11.801  1.00  0.00     0.028 C 
BRANCH  26  27
HETATM   27  C4  UNL     1      -4.036   3.178  11.789  1.00  0.00    -0.025 C 
HETATM   28  C2  UNL     1      -4.211   1.857  11.584  1.00  0.00    -0.091 C 
HETATM   29  C1  UNL     1      -5.524   1.189  11.280  1.00  0.00     0.042 C 
HETATM   30  C3  UNL     1      -3.037   0.913  11.634  1.00  0.00     0.042 C 
ENDBRANCH  26  27
ENDBRANCH  25  26
ENDBRANCH  23  25
ENDBRANCH   1  23
BRANCH  15  31
HETATM   31  O4  UNL     1       0.495   6.245  12.505  1.00  0.00    -0.395 OA
HETATM   32  H41 UNL     1       0.920   5.500  12.048  1.00  0.00     0.210 HD
ENDBRANCH  15  31
BRANCH  11  33
HETATM   33  C21 UNL     1       3.006  10.519  13.455  1.00  0.00     0.151 C 
HETATM   34  O1  UNL     1       3.766  10.506  12.500  1.00  0.00    -0.649 OA
BRANCH  33  35
HETATM   35  O2  UNL     1       2.450  11.691  13.830  1.00  0.00    -0.776 OA
HETATM   36  H35 UNL     1       2.788  12.333  13.167  1.00  0.00     0.167 HD
ENDBRANCH  33  35
ENDBRANCH  11  33
BRANCH  13  37
HETATM   37  O3  UNL     1       3.872   7.258  14.894  1.00  0.00    -0.394 OA
HETATM   38  H37 UNL     1       4.628   7.694  15.326  1.00  0.00     0.210 HD
ENDBRANCH  13  37
TORSDOF 8
ENDMDL
MODEL 8
REMARK minimizedAffinity -8.56066322
REMARK  8 active torsions:
REMARK  status: ('A' for Active; 'I' for Inactive)
REMARK    1  A    between atoms: C4_4  and  C5_5 
REMARK    2  A    between atoms: C5_5  and  C6_6 
REMARK    3  A    between atoms: C6_6  and  C7_7 
REMARK    4  A    between atoms: C7_7  and  C9_9 
REMARK    5  A    between atoms: C19_19  and  C21_21 
REMARK    6  A    between atoms: C21_21  and  O2_23 
REMARK    7  A    between atoms: C22_24  and  O3_25 
REMARK    8  A    between atoms: C24_27  and  O4_28 
ROOT
HETATM    1  C9  UNL     1      -5.601   6.025  14.340  1.00  0.00    -0.002 C 
HETATM    2  C10 UNL     1      -4.642   5.041  13.609  1.00  0.00     0.006 C 
HETATM    3  C11 UNL     1      -3.359   5.824  13.270  1.00  0.00     0.011 C 
HETATM    4  C12 UNL     1      -3.368   7.025  14.235  1.00  0.00    -0.028 C 
HETATM    5  C13 UNL     1      -2.980   6.432  15.659  1.00  0.00     0.016 C 
HETATM    6  C14 UNL     1      -2.361   8.234  13.922  1.00  0.00    -0.028 C 
HETATM    7  C15 UNL     1      -2.432   8.789  12.471  1.00  0.00     0.016 C 
HETATM    8  C16 UNL     1      -0.888   7.697  14.066  1.00  0.00     0.011 C 
HETATM    9  C17 UNL     1       0.154   8.742  14.442  1.00  0.00     0.007 C 
HETATM   10  C18 UNL     1      -0.167   9.328  15.827  1.00  0.00     0.018 C 
HETATM   11  C19 UNL     1       0.911  10.365  16.336  1.00  0.00     0.072 C 
HETATM   12  C20 UNL     1       1.418  11.294  15.209  1.00  0.00     0.030 C 
HETATM   13  C22 UNL     1       0.377  11.188  17.551  1.00  0.00     0.139 C 
HETATM   14  C23 UNL     1      -0.777  10.484  18.252  1.00  0.00     0.065 C 
HETATM   15  C24 UNL     1      -1.980  10.312  17.325  1.00  0.00     0.130 C 
HETATM   16  C25 UNL     1      -1.586   9.897  15.907  1.00  0.00    -0.000 A 
HETATM   17  C26 UNL     1      -2.013  10.765  14.753  1.00  0.00     0.024 A 
HETATM   18  C27 UNL     1      -2.700   9.415  14.922  1.00  0.00    -0.021 A 
HETATM   19  C28 UNL     1      -4.206   9.653  15.199  1.00  0.00     0.012 C 
HETATM   20  C29 UNL     1      -5.115   8.424  15.333  1.00  0.00     0.011 C 
HETATM   21  C30 UNL     1      -4.901   7.427  14.184  1.00  0.00    -0.032 C 
HETATM   22  C31 UNL     1      -5.397   8.077  12.873  1.00  0.00     0.016 C 
ENDROOT
BRANCH   1  23
HETATM   23  C7  UNL     1      -7.107   5.762  14.018  1.00  0.00    -0.014 C 
HETATM   24  C8  UNL     1      -7.356   4.279  13.712  1.00  0.00     0.010 C 
BRANCH  23  25
HETATM   25  C6  UNL     1      -8.143   6.305  15.033  1.00  0.00     0.008 C 
BRANCH  25  26
HETATM   26  C5  UNL     1      -9.172   7.269  14.416  1.00  0.00     0.028 C 
BRANCH  26  27
HETATM   27  C4  UNL     1     -10.589   6.779  14.502  1.00  0.00    -0.025 C 
HETATM   28  C2  UNL     1     -11.662   7.201  13.804  1.00  0.00    -0.091 C 
HETATM   29  C1  UNL     1     -11.646   8.261  12.737  1.00  0.00     0.042 C 
HETATM   30  C3  UNL     1     -13.020   6.596  14.051  1.00  0.00     0.042 C 
ENDBRANCH  26  27
ENDBRANCH  25  26
ENDBRANCH  23  25
ENDBRANCH   1  23
BRANCH  15  31
HETATM   31  O4  UNL     1      -2.813   9.305  17.897  1.00  0.00    -0.395 OA
HETATM   32  H41 UNL     1      -3.176   9.672  18.720  1.00  0.00     0.210 HD
ENDBRANCH  15  31
BRANCH  11  33
HETATM   33  C21 UNL     1       2.118   9.575  16.854  1.00  0.00     0.151 C 
HETATM   34  O1  UNL     1       2.217   8.366  16.981  1.00  0.00    -0.649 OA
BRANCH  33  35
HETATM   35  O2  UNL     1       3.153  10.357  17.230  1.00  0.00    -0.776 OA
HETATM   36  H35 UNL     1       3.837   9.715  17.522  1.00  0.00     0.167 HD
ENDBRANCH  33  35
ENDBRANCH  11  33
BRANCH  13  37
HETATM   37  O3  UNL     1      -0.082  12.493  17.180  1.00  0.00    -0.394 OA
HETATM   38  H37 UNL     1       0.703  13.051  17.033  1.00  0.00     0.210 HD
ENDBRANCH  13  37
TORSDOF 8
ENDMDL
MODEL 9
REMARK minimizedAffinity -8.50807762
REMARK  8 active torsions:
REMARK  status: ('A' for Active; 'I' for Inactive)
REMARK    1  A    between atoms: C4_4  and  C5_5 
REMARK    2  A    between atoms: C5_5  and  C6_6 
REMARK    3  A    between atoms: C6_6  and  C7_7 
REMARK    4  A    between atoms: C7_7  and  C9_9 
REMARK    5  A    between atoms: C19_19  and  C21_21 
REMARK    6  A    between atoms: C21_21  and  O2_23 
REMARK    7  A    between atoms: C22_24  and  O3_25 
REMARK    8  A    between atoms: C24_27  and  O4_28 
ROOT
HETATM    1  C9  UNL     1      -4.644   6.721  13.289  1.00  0.00    -0.002 C 
HETATM    2  C10 UNL     1      -5.134   8.198  13.323  1.00  0.00     0.006 C 
HETATM    3  C11 UNL     1      -4.071   9.012  14.086  1.00  0.00     0.011 C 
HETATM    4  C12 UNL     1      -2.794   8.154  14.011  1.00  0.00    -0.028 C 
HETATM    5  C13 UNL     1      -2.263   8.307  12.520  1.00  0.00     0.016 C 
HETATM    6  C14 UNL     1      -1.587   8.535  14.997  1.00  0.00    -0.028 C 
HETATM    7  C15 UNL     1      -1.981   8.671  16.496  1.00  0.00     0.016 C 
HETATM    8  C16 UNL     1      -1.057   9.963  14.599  1.00  0.00     0.011 C 
HETATM    9  C17 UNL     1       0.404  10.234  14.932  1.00  0.00     0.007 C 
HETATM   10  C18 UNL     1       1.308   9.269  14.149  1.00  0.00     0.018 C 
HETATM   11  C19 UNL     1       2.850   9.532  14.371  1.00  0.00     0.072 C 
HETATM   12  C20 UNL     1       3.187   9.877  15.839  1.00  0.00     0.030 C 
HETATM   13  C22 UNL     1       3.710   8.333  13.860  1.00  0.00     0.139 C 
HETATM   14  C23 UNL     1       2.952   7.477  12.854  1.00  0.00     0.065 C 
HETATM   15  C24 UNL     1       1.709   6.842  13.475  1.00  0.00     0.130 C 
HETATM   16  C25 UNL     1       0.942   7.801  14.387  1.00  0.00    -0.000 A 
HETATM   17  C26 UNL     1       0.707   7.405  15.820  1.00  0.00     0.024 A 
HETATM   18  C27 UNL     1      -0.488   7.400  14.875  1.00  0.00    -0.021 A 
HETATM   19  C28 UNL     1      -1.025   5.951  14.757  1.00  0.00     0.012 C 
HETATM   20  C29 UNL     1      -2.280   5.718  13.906  1.00  0.00     0.011 C 
HETATM   21  C30 UNL     1      -3.400   6.709  14.254  1.00  0.00    -0.032 C 
HETATM   22  C31 UNL     1      -3.896   6.405  15.686  1.00  0.00     0.016 C 
ENDROOT
BRANCH   1  23
HETATM   23  C7  UNL     1      -5.813   5.689  13.361  1.00  0.00    -0.014 C 
HETATM   24  C8  UNL     1      -5.312   4.266  13.077  1.00  0.00     0.010 C 
BRANCH  23  25
HETATM   25  C6  UNL     1      -6.701   5.725  14.629  1.00  0.00     0.008 C 
BRANCH  25  26
HETATM   26  C5  UNL     1      -7.405   7.074  14.857  1.00  0.00     0.028 C 
BRANCH  26  27
HETATM   27  C4  UNL     1      -8.904   6.985  14.839  1.00  0.00    -0.025 C 
HETATM   28  C2  UNL     1      -9.709   6.659  13.808  1.00  0.00    -0.091 C 
HETATM   29  C1  UNL     1      -9.246   6.270  12.431  1.00  0.00     0.042 C 
HETATM   30  C3  UNL     1     -11.206   6.647  13.981  1.00  0.00     0.042 C 
ENDBRANCH  26  27
ENDBRANCH  25  26
ENDBRANCH  23  25
ENDBRANCH   1  23
BRANCH  15  31
HETATM   31  O4  UNL     1       0.862   6.434  12.402  1.00  0.00    -0.395 OA
HETATM   32  H41 UNL     1       1.317   5.707  11.944  1.00  0.00     0.210 HD
ENDBRANCH  15  31
BRANCH  11  33
HETATM   33  C21 UNL     1       3.251  10.738  13.515  1.00  0.00     0.151 C 
HETATM   34  O1  UNL     1       4.052  10.764  12.595  1.00  0.00    -0.649 OA
BRANCH  33  35
HETATM   35  O2  UNL     1       2.643  11.887  13.882  1.00  0.00    -0.776 OA
HETATM   36  H35 UNL     1       2.990  12.549  13.244  1.00  0.00     0.167 HD
ENDBRANCH  33  35
ENDBRANCH  11  33
BRANCH  13  37
HETATM   37  O3  UNL     1       4.140   7.467  14.917  1.00  0.00    -0.394 OA
HETATM   38  H37 UNL     1       4.873   7.909  15.381  1.00  0.00     0.210 HD
ENDBRANCH  13  37
TORSDOF 8
ENDMDL
