MODEL 1
REMARK minimizedAffinity -8.50251198
REMARK CNNscore 0.443139315
REMARK CNNaffinity 7.16374445
REMARK  12 active torsions:
REMARK  status: ('A' for Active; 'I' for Inactive)
REMARK    1  A    between atoms: C2_2  and  C3_3 
REMARK    2  A    between atoms: C4_5  and  C5_6 
REMARK    3  A    between atoms: C5_6  and  C6_7 
REMARK    4  A    between atoms: C6_7  and  C7_8 
REMARK    5  A    between atoms: C7_8  and  C9_10 
REMARK    6  A    between atoms: C21_22  and  O2_23 
REMARK    7  A    between atoms: O2_23  and  C22_24 
REMARK    8  A    between atoms: C23_26  and  C24_27 
REMARK    9  A    between atoms: C24_27  and  O4_28 
REMARK   10  A    between atoms: C25_29  and  O5_30 
REMARK   11  A    between atoms: C26_31  and  O6_32 
REMARK   12  A    between atoms: C27_33  and  O7_34 
ROOT
HETATM    1  C9  UNL     1      -3.242  48.775 -22.255  1.00  0.00    -0.002 C 
HETATM    2  C10 UNL     1      -2.021  47.809 -22.541  1.00  0.00     0.006 C 
HETATM    3  C11 UNL     1      -1.205  47.679 -21.206  1.00  0.00     0.011 C 
HETATM    4  C12 UNL     1      -2.166  48.273 -20.164  1.00  0.00    -0.031 C 
HETATM    5  C13 UNL     1      -3.244  47.099 -20.025  1.00  0.00     0.016 C 
HETATM    6  C14 UNL     1      -1.677  48.628 -18.660  1.00  0.00     0.014 C 
HETATM    7  C15 UNL     1      -2.721  48.151 -17.584  1.00  0.00     0.034 C 
HETATM    8  C16 UNL     1      -2.821  48.836 -16.267  1.00  0.00    -0.022 C 
HETATM    9  C17 UNL     1      -2.160  49.946 -15.927  1.00  0.00    -0.068 C 
HETATM   10  C18 UNL     1      -1.162  50.535 -16.888  1.00  0.00     0.031 C 
HETATM   11  C19 UNL     1       0.228  50.249 -16.260  1.00  0.00     0.013 C 
HETATM   12  C20 UNL     1       0.278  50.446 -14.735  1.00  0.00     0.034 C 
HETATM   13  C21 UNL     1      -0.873  51.322 -14.216  1.00  0.00     0.136 C 
HETATM   14  C28 UNL     1      -2.255  50.640 -14.549  1.00  0.00     0.002 C 
HETATM   15  C29 UNL     1      -3.361  51.713 -14.621  1.00  0.00     0.022 C 
HETATM   16  C30 UNL     1      -2.643  49.643 -13.429  1.00  0.00     0.022 C 
HETATM   17  C31 UNL     1      -1.357  50.129 -18.417  1.00  0.00     0.029 C 
HETATM   18  C32 UNL     1      -0.023  50.485 -19.117  1.00  0.00     0.025 C 
HETATM   19  C33 UNL     1      -2.569  50.974 -18.973  1.00  0.00     0.137 C 
HETATM   20  O8  UNL     1      -2.761  52.140 -18.610  1.00  0.00    -0.297 OA
HETATM   21  C34 UNL     1      -3.515  50.360 -20.040  1.00  0.00     0.089 C 
HETATM   22  C35 UNL     1      -2.681  49.546 -21.018  1.00  0.00    -0.026 C 
HETATM   23  C36 UNL     1      -1.687  50.588 -21.664  1.00  0.00     0.016 C 
ENDROOT
BRANCH  13  24
HETATM   24  O2  UNL     1      -0.674  51.491 -12.806  1.00  0.00    -0.352 OA
BRANCH  24  25
HETATM   25  C22 UNL     1      -1.284  50.484 -12.002  1.00  0.00     0.292 C 
HETATM   26  O3  UNL     1      -2.345  51.042 -11.225  1.00  0.00    -0.348 OA
HETATM   27  C23 UNL     1      -1.932  52.004 -10.248  1.00  0.00     0.179 C 
HETATM   28  C25 UNL     1      -0.411  52.107  -9.994  1.00  0.00     0.180 C 
HETATM   29  C26 UNL     1       0.209  50.709  -9.933  1.00  0.00     0.183 C 
HETATM   30  C27 UNL     1      -0.254  49.798 -11.083  1.00  0.00     0.204 C 
BRANCH  27  31
HETATM   31  C24 UNL     1      -2.528  53.369 -10.623  1.00  0.00     0.198 C 
BRANCH  31  32
HETATM   32  O4  UNL     1      -3.808  53.554 -10.025  1.00  0.00    -0.398 OA
HETATM   33  H36 UNL     1      -4.138  54.420 -10.330  1.00  0.00     0.209 HD
ENDBRANCH  31  32
ENDBRANCH  27  31
BRANCH  28  34
HETATM   34  O5  UNL     1      -0.169  52.785  -8.749  1.00  0.00    -0.390 OA
HETATM   35  H38 UNL     1      -0.752  53.577  -8.745  1.00  0.00     0.210 HD
ENDBRANCH  28  34
BRANCH  29  36
HETATM   36  O6  UNL     1       1.648  50.806  -9.968  1.00  0.00    -0.390 OA
HETATM   37  H40 UNL     1       1.994  50.013  -9.524  1.00  0.00     0.210 HD
ENDBRANCH  29  36
BRANCH  30  38
HETATM   38  O7  UNL     1      -0.825  48.597 -10.520  1.00  0.00    -0.388 OA
HETATM   39  H42 UNL     1      -1.624  48.855 -10.025  1.00  0.00     0.210 HD
ENDBRANCH  30  38
ENDBRANCH  24  25
ENDBRANCH  13  24
BRANCH   1  40
HETATM   40  C7  UNL     1      -3.737  49.496 -23.538  1.00  0.00    -0.014 C 
HETATM   41  C8  UNL     1      -4.021  48.512 -24.679  1.00  0.00     0.010 C 
BRANCH  40  42
HETATM   42  C6  UNL     1      -2.757  50.596 -24.026  1.00  0.00     0.008 C 
BRANCH  42  43
HETATM   43  C5  UNL     1      -1.951  50.262 -25.287  1.00  0.00     0.028 C 
BRANCH  43  44
HETATM   44  C4  UNL     1      -0.589  50.896 -25.232  1.00  0.00    -0.017 C 
HETATM   45  C2  UNL     1       0.077  51.505 -26.231  1.00  0.00    -0.028 C 
HETATM   46  C1  UNL     1      -0.365  51.672 -27.652  1.00  0.00     0.051 C 
BRANCH  45  47
HETATM   47  C3  UNL     1       1.424  52.079 -25.913  1.00  0.00     0.265 C 
HETATM   48  O1  UNL     1       2.381  52.057 -26.678  1.00  0.00    -0.302 OA
ENDBRANCH  45  47
ENDBRANCH  43  44
ENDBRANCH  42  43
ENDBRANCH  40  42
ENDBRANCH   1  40
TORSDOF 12
ENDMDL
MODEL 2
REMARK minimizedAffinity -8.77566433
REMARK CNNscore 0.429545552
REMARK CNNaffinity 7.17291975
REMARK  12 active torsions:
REMARK  status: ('A' for Active; 'I' for Inactive)
REMARK    1  A    between atoms: C2_2  and  C3_3 
REMARK    2  A    between atoms: C4_5  and  C5_6 
REMARK    3  A    between atoms: C5_6  and  C6_7 
REMARK    4  A    between atoms: C6_7  and  C7_8 
REMARK    5  A    between atoms: C7_8  and  C9_10 
REMARK    6  A    between atoms: C21_22  and  O2_23 
REMARK    7  A    between atoms: O2_23  and  C22_24 
REMARK    8  A    between atoms: C23_26  and  C24_27 
REMARK    9  A    between atoms: C24_27  and  O4_28 
REMARK   10  A    between atoms: C25_29  and  O5_30 
REMARK   11  A    between atoms: C26_31  and  O6_32 
REMARK   12  A    between atoms: C27_33  and  O7_34 
ROOT
HETATM    1  C9  UNL     1      -3.927  48.964 -22.367  1.00  0.00    -0.002 C 
HETATM    2  C10 UNL     1      -2.747  48.088 -22.957  1.00  0.00     0.006 C 
HETATM    3  C11 UNL     1      -1.696  47.889 -21.808  1.00  0.00     0.011 C 
HETATM    4  C12 UNL     1      -2.469  48.343 -20.560  1.00  0.00    -0.031 C 
HETATM    5  C13 UNL     1      -3.461  47.107 -20.338  1.00  0.00     0.016 C 
HETATM    6  C14 UNL     1      -1.724  48.595 -19.143  1.00  0.00     0.014 C 
HETATM    7  C15 UNL     1      -2.534  47.975 -17.945  1.00  0.00     0.034 C 
HETATM    8  C16 UNL     1      -2.414  48.541 -16.574  1.00  0.00    -0.022 C 
HETATM    9  C17 UNL     1      -1.741  49.651 -16.258  1.00  0.00    -0.068 C 
HETATM   10  C18 UNL     1      -0.958  50.369 -17.324  1.00  0.00     0.031 C 
HETATM   11  C19 UNL     1       0.533  50.103 -16.986  1.00  0.00     0.013 C 
HETATM   12  C20 UNL     1       0.855  50.173 -15.483  1.00  0.00     0.034 C 
HETATM   13  C21 UNL     1      -0.210  50.941 -14.687  1.00  0.00     0.136 C 
HETATM   14  C28 UNL     1      -1.605  50.220 -14.827  1.00  0.00     0.002 C 
HETATM   15  C29 UNL     1      -2.742  51.237 -14.600  1.00  0.00     0.022 C 
HETATM   16  C30 UNL     1      -1.745  49.113 -13.753  1.00  0.00     0.022 C 
HETATM   17  C31 UNL     1      -1.417  50.084 -18.825  1.00  0.00     0.029 C 
HETATM   18  C32 UNL     1      -0.248  50.566 -19.717  1.00  0.00     0.025 C 
HETATM   19  C33 UNL     1      -2.740  50.909 -19.072  1.00  0.00     0.137 C 
HETATM   20  O8  UNL     1      -2.903  52.030 -18.574  1.00  0.00    -0.297 OA
HETATM   21  C34 UNL     1      -3.844  50.340 -20.003  1.00  0.00     0.089 C 
HETATM   22  C35 UNL     1      -3.176  49.655 -21.187  1.00  0.00    -0.026 C 
HETATM   23  C36 UNL     1      -2.355  50.797 -21.902  1.00  0.00     0.016 C 
ENDROOT
BRANCH  13  24
HETATM   24  O2  UNL     1       0.240  51.001 -13.327  1.00  0.00    -0.352 OA
BRANCH  24  25
HETATM   25  C22 UNL     1       0.972  52.182 -13.003  1.00  0.00     0.292 C 
HETATM   26  O3  UNL     1       2.376  51.931 -13.074  1.00  0.00    -0.348 OA
HETATM   27  C23 UNL     1       2.868  50.992 -12.110  1.00  0.00     0.179 C 
HETATM   28  C25 UNL     1       1.886  50.591 -10.986  1.00  0.00     0.180 C 
HETATM   29  C26 UNL     1       1.142  51.826 -10.472  1.00  0.00     0.183 C 
HETATM   30  C27 UNL     1       0.594  52.711 -11.605  1.00  0.00     0.204 C 
BRANCH  27  31
HETATM   31  C24 UNL     1       3.395  49.757 -12.856  1.00  0.00     0.198 C 
BRANCH  31  32
HETATM   32  O4  UNL     1       4.819  49.760 -12.915  1.00  0.00    -0.398 OA
HETATM   33  H36 UNL     1       5.080  48.970 -13.425  1.00  0.00     0.209 HD
ENDBRANCH  31  32
ENDBRANCH  27  31
BRANCH  28  34
HETATM   34  O5  UNL     1       2.608  49.989  -9.898  1.00  0.00    -0.390 OA
HETATM   35  H38 UNL     1       3.229  49.342 -10.301  1.00  0.00     0.210 HD
ENDBRANCH  28  34
BRANCH  29  36
HETATM   36  O6  UNL     1       0.045  51.424  -9.626  1.00  0.00    -0.390 OA
HETATM   37  H40 UNL     1      -0.124  52.162  -9.014  1.00  0.00     0.210 HD
ENDBRANCH  29  36
BRANCH  30  38
HETATM   38  O7  UNL     1       1.108  54.050 -11.436  1.00  0.00    -0.388 OA
HETATM   39  H42 UNL     1       2.075  54.012 -11.550  1.00  0.00     0.210 HD
ENDBRANCH  30  38
ENDBRANCH  24  25
ENDBRANCH  13  24
BRANCH   1  40
HETATM   40  C7  UNL     1      -4.676  49.764 -23.469  1.00  0.00    -0.014 C 
HETATM   41  C8  UNL     1      -6.197  49.711 -23.286  1.00  0.00     0.010 C 
BRANCH  40  42
HETATM   42  C6  UNL     1      -4.303  49.304 -24.903  1.00  0.00     0.008 C 
BRANCH  42  43
HETATM   43  C5  UNL     1      -5.198  48.217 -25.511  1.00  0.00     0.028 C 
BRANCH  43  44
HETATM   44  C4  UNL     1      -5.084  48.210 -27.010  1.00  0.00    -0.017 C 
HETATM   45  C2  UNL     1      -5.976  47.738 -27.901  1.00  0.00    -0.028 C 
HETATM   46  C1  UNL     1      -7.288  47.076 -27.615  1.00  0.00     0.051 C 
BRANCH  45  47
HETATM   47  C3  UNL     1      -5.633  47.867 -29.354  1.00  0.00     0.265 C 
HETATM   48  O1  UNL     1      -4.490  47.873 -29.795  1.00  0.00    -0.302 OA
ENDBRANCH  45  47
ENDBRANCH  43  44
ENDBRANCH  42  43
ENDBRANCH  40  42
ENDBRANCH   1  40
TORSDOF 12
ENDMDL
MODEL 3
REMARK minimizedAffinity -8.01281834
REMARK CNNscore 0.316288829
REMARK CNNaffinity 6.94733238
REMARK  12 active torsions:
REMARK  status: ('A' for Active; 'I' for Inactive)
REMARK    1  A    between atoms: C2_2  and  C3_3 
REMARK    2  A    between atoms: C4_5  and  C5_6 
REMARK    3  A    between atoms: C5_6  and  C6_7 
REMARK    4  A    between atoms: C6_7  and  C7_8 
REMARK    5  A    between atoms: C7_8  and  C9_10 
REMARK    6  A    between atoms: C21_22  and  O2_23 
REMARK    7  A    between atoms: O2_23  and  C22_24 
REMARK    8  A    between atoms: C23_26  and  C24_27 
REMARK    9  A    between atoms: C24_27  and  O4_28 
REMARK   10  A    between atoms: C25_29  and  O5_30 
REMARK   11  A    between atoms: C26_31  and  O6_32 
REMARK   12  A    between atoms: C27_33  and  O7_34 
ROOT
HETATM    1  C9  UNL     1      -2.527  49.460 -20.770  1.00  0.00    -0.002 C 
HETATM    2  C10 UNL     1      -3.440  50.749 -20.879  1.00  0.00     0.006 C 
HETATM    3  C11 UNL     1      -3.089  51.674 -19.659  1.00  0.00     0.011 C 
HETATM    4  C12 UNL     1      -1.786  51.054 -19.130  1.00  0.00    -0.031 C 
HETATM    5  C13 UNL     1      -0.737  51.533 -20.238  1.00  0.00     0.016 C 
HETATM    6  C14 UNL     1      -1.164  51.479 -17.694  1.00  0.00     0.014 C 
HETATM    7  C15 UNL     1       0.391  51.703 -17.781  1.00  0.00     0.034 C 
HETATM    8  C16 UNL     1       1.253  51.514 -16.583  1.00  0.00    -0.022 C 
HETATM    9  C17 UNL     1       0.838  51.038 -15.406  1.00  0.00    -0.068 C 
HETATM   10  C18 UNL     1      -0.623  50.736 -15.204  1.00  0.00     0.031 C 
HETATM   11  C19 UNL     1      -1.140  51.843 -14.247  1.00  0.00     0.013 C 
HETATM   12  C20 UNL     1      -0.165  52.190 -13.108  1.00  0.00     0.034 C 
HETATM   13  C21 UNL     1       0.871  51.083 -12.862  1.00  0.00     0.136 C 
HETATM   14  C28 UNL     1       1.737  50.863 -14.160  1.00  0.00     0.002 C 
HETATM   15  C29 UNL     1       2.306  49.429 -14.170  1.00  0.00     0.022 C 
HETATM   16  C30 UNL     1       2.936  51.843 -14.176  1.00  0.00     0.022 C 
HETATM   17  C31 UNL     1      -1.465  50.488 -16.536  1.00  0.00     0.029 C 
HETATM   18  C32 UNL     1      -2.950  50.623 -16.122  1.00  0.00     0.025 C 
HETATM   19  C33 UNL     1      -1.113  49.035 -17.045  1.00  0.00     0.137 C 
HETATM   20  O8  UNL     1      -0.913  48.106 -16.253  1.00  0.00    -0.297 OA
HETATM   21  C34 UNL     1      -1.070  48.738 -18.568  1.00  0.00     0.089 C 
HETATM   22  C35 UNL     1      -2.205  49.496 -19.243  1.00  0.00    -0.026 C 
HETATM   23  C36 UNL     1      -3.520  48.924 -18.584  1.00  0.00     0.016 C 
ENDROOT
BRANCH  13  24
HETATM   24  O2  UNL     1       1.665  51.488 -11.738  1.00  0.00    -0.352 OA
BRANCH  24  25
HETATM   25  C22 UNL     1       1.468  50.700 -10.566  1.00  0.00     0.292 C 
HETATM   26  O3  UNL     1       1.731  51.475  -9.396  1.00  0.00    -0.348 OA
HETATM   27  C23 UNL     1       3.090  51.904  -9.251  1.00  0.00     0.179 C 
HETATM   28  C25 UNL     1       4.112  51.264 -10.217  1.00  0.00     0.180 C 
HETATM   29  C26 UNL     1       3.843  49.764 -10.351  1.00  0.00     0.183 C 
HETATM   30  C27 UNL     1       2.356  49.440 -10.582  1.00  0.00     0.204 C 
BRANCH  27  31
HETATM   31  C24 UNL     1       3.129  53.437  -9.333  1.00  0.00     0.198 C 
BRANCH  31  32
HETATM   32  O4  UNL     1       3.880  53.873 -10.464  1.00  0.00    -0.398 OA
HETATM   33  H36 UNL     1       3.890  54.848 -10.435  1.00  0.00     0.209 HD
ENDBRANCH  31  32
ENDBRANCH  27  31
BRANCH  28  34
HETATM   34  O5  UNL     1       5.446  51.461  -9.716  1.00  0.00    -0.390 OA
HETATM   35  H38 UNL     1       5.505  52.405  -9.446  1.00  0.00     0.210 HD
ENDBRANCH  28  34
BRANCH  29  36
HETATM   36  O6  UNL     1       4.611  49.221 -11.445  1.00  0.00    -0.390 OA
HETATM   37  H40 UNL     1       4.751  48.277 -11.249  1.00  0.00     0.210 HD
ENDBRANCH  29  36
BRANCH  30  38
HETATM   38  O7  UNL     1       1.919  48.521  -9.557  1.00  0.00    -0.388 OA
HETATM   39  H42 UNL     1       1.977  48.985  -8.701  1.00  0.00     0.210 HD
ENDBRANCH  30  38
ENDBRANCH  24  25
ENDBRANCH  13  24
BRANCH   1  40
HETATM   40  C7  UNL     1      -3.164  48.226 -21.464  1.00  0.00    -0.014 C 
HETATM   41  C8  UNL     1      -2.205  47.031 -21.509  1.00  0.00     0.010 C 
BRANCH  40  42
HETATM   42  C6  UNL     1      -3.680  48.539 -22.894  1.00  0.00     0.008 C 
BRANCH  42  43
HETATM   43  C5  UNL     1      -2.696  49.274 -23.812  1.00  0.00     0.028 C 
BRANCH  43  44
HETATM   44  C4  UNL     1      -2.878  48.842 -25.241  1.00  0.00    -0.017 C 
HETATM   45  C2  UNL     1      -4.027  48.513 -25.862  1.00  0.00    -0.028 C 
HETATM   46  C1  UNL     1      -5.402  48.468 -25.270  1.00  0.00     0.051 C 
BRANCH  45  47
HETATM   47  C3  UNL     1      -3.945  48.133 -27.308  1.00  0.00     0.265 C 
HETATM   48  O1  UNL     1      -3.814  48.934 -28.226  1.00  0.00    -0.302 OA
ENDBRANCH  45  47
ENDBRANCH  43  44
ENDBRANCH  42  43
ENDBRANCH  40  42
ENDBRANCH   1  40
TORSDOF 12
ENDMDL
MODEL 4
REMARK minimizedAffinity -9.23970413
REMARK CNNscore 0.29926911
REMARK CNNaffinity 6.77503443
REMARK  12 active torsions:
REMARK  status: ('A' for Active; 'I' for Inactive)
REMARK    1  A    between atoms: C2_2  and  C3_3 
REMARK    2  A    between atoms: C4_5  and  C5_6 
REMARK    3  A    between atoms: C5_6  and  C6_7 
REMARK    4  A    between atoms: C6_7  and  C7_8 
REMARK    5  A    between atoms: C7_8  and  C9_10 
REMARK    6  A    between atoms: C21_22  and  O2_23 
REMARK    7  A    between atoms: O2_23  and  C22_24 
REMARK    8  A    between atoms: C23_26  and  C24_27 
REMARK    9  A    between atoms: C24_27  and  O4_28 
REMARK   10  A    between atoms: C25_29  and  O5_30 
REMARK   11  A    between atoms: C26_31  and  O6_32 
REMARK   12  A    between atoms: C27_33  and  O7_34 
ROOT
HETATM    1  C9  UNL     1      -3.552  48.687 -22.275  1.00  0.00    -0.002 C 
HETATM    2  C10 UNL     1      -2.325  47.760 -22.652  1.00  0.00     0.006 C 
HETATM    3  C11 UNL     1      -1.426  47.633 -21.372  1.00  0.00     0.011 C 
HETATM    4  C12 UNL     1      -2.336  48.184 -20.263  1.00  0.00    -0.031 C 
HETATM    5  C13 UNL     1      -3.370  46.977 -20.078  1.00  0.00     0.016 C 
HETATM    6  C14 UNL     1      -1.765  48.530 -18.786  1.00  0.00     0.014 C 
HETATM    7  C15 UNL     1      -2.726  48.006 -17.656  1.00  0.00     0.034 C 
HETATM    8  C16 UNL     1      -2.763  48.669 -16.324  1.00  0.00    -0.022 C 
HETATM    9  C17 UNL     1      -2.114  49.792 -16.007  1.00  0.00    -0.068 C 
HETATM   10  C18 UNL     1      -1.194  50.424 -17.017  1.00  0.00     0.031 C 
HETATM   11  C19 UNL     1       0.240  50.168 -16.481  1.00  0.00     0.013 C 
HETATM   12  C20 UNL     1       0.378  50.344 -14.958  1.00  0.00     0.034 C 
HETATM   13  C21 UNL     1      -0.762  51.178 -14.355  1.00  0.00     0.136 C 
HETATM   14  C28 UNL     1      -2.142  50.462 -14.614  1.00  0.00     0.002 C 
HETATM   15  C29 UNL     1      -3.280  51.504 -14.600  1.00  0.00     0.022 C 
HETATM   16  C30 UNL     1      -2.433  49.437 -13.489  1.00  0.00     0.022 C 
HETATM   17  C31 UNL     1      -1.471  50.036 -18.538  1.00  0.00     0.029 C 
HETATM   18  C32 UNL     1      -0.194  50.440 -19.313  1.00  0.00     0.025 C 
HETATM   19  C33 UNL     1      -2.739  50.853 -19.004  1.00  0.00     0.137 C 
HETATM   20  O8  UNL     1      -2.941  52.009 -18.610  1.00  0.00    -0.297 OA
HETATM   21  C34 UNL     1      -3.732  50.229 -20.021  1.00  0.00     0.089 C 
HETATM   22  C35 UNL     1      -2.937  49.454 -21.062  1.00  0.00    -0.026 C 
HETATM   23  C36 UNL     1      -2.015  50.534 -21.751  1.00  0.00     0.016 C 
ENDROOT
BRANCH  13  24
HETATM   24  O2  UNL     1      -0.480  51.332 -12.958  1.00  0.00    -0.352 OA
BRANCH  24  25
HETATM   25  C22 UNL     1      -0.686  52.652 -12.460  1.00  0.00     0.292 C 
HETATM   26  O3  UNL     1       0.558  53.237 -12.071  1.00  0.00    -0.348 OA
HETATM   27  C23 UNL     1       1.206  52.592 -10.968  1.00  0.00     0.179 C 
HETATM   28  C25 UNL     1       0.367  51.546 -10.202  1.00  0.00     0.180 C 
HETATM   29  C26 UNL     1      -1.059  52.062  -9.995  1.00  0.00     0.183 C 
HETATM   30  C27 UNL     1      -1.672  52.659 -11.275  1.00  0.00     0.204 C 
BRANCH  27  31
HETATM   31  C24 UNL     1       2.530  51.990 -11.463  1.00  0.00     0.198 C 
BRANCH  31  32
HETATM   32  O4  UNL     1       2.915  52.554 -12.714  1.00  0.00    -0.398 OA
HETATM   33  H36 UNL     1       3.741  52.106 -12.981  1.00  0.00     0.209 HD
ENDBRANCH  31  32
ENDBRANCH  27  31
BRANCH  28  34
HETATM   34  O5  UNL     1       0.964  51.284  -8.920  1.00  0.00    -0.390 OA
HETATM   35  H38 UNL     1       1.926  51.162  -9.081  1.00  0.00     0.210 HD
ENDBRANCH  28  34
BRANCH  29  36
HETATM   36  O6  UNL     1      -1.908  50.994  -9.528  1.00  0.00    -0.390 OA
HETATM   37  H40 UNL     1      -2.633  51.409  -9.028  1.00  0.00     0.210 HD
ENDBRANCH  29  36
BRANCH  30  38
HETATM   38  O7  UNL     1      -2.094  54.012 -10.998  1.00  0.00    -0.388 OA
HETATM   39  H42 UNL     1      -1.296  54.534 -10.797  1.00  0.00     0.210 HD
ENDBRANCH  30  38
ENDBRANCH  24  25
ENDBRANCH  13  24
BRANCH   1  40
HETATM   40  C7  UNL     1      -4.146  49.412 -23.513  1.00  0.00    -0.014 C 
HETATM   41  C8  UNL     1      -5.430  50.177 -23.172  1.00  0.00     0.010 C 
BRANCH  40  42
HETATM   42  C6  UNL     1      -4.407  48.452 -24.704  1.00  0.00     0.008 C 
BRANCH  42  43
HETATM   43  C5  UNL     1      -3.386  48.511 -25.847  1.00  0.00     0.028 C 
BRANCH  43  44
HETATM   44  C4  UNL     1      -3.372  49.876 -26.477  1.00  0.00    -0.017 C 
HETATM   45  C2  UNL     1      -2.326  50.717 -26.597  1.00  0.00    -0.028 C 
HETATM   46  C1  UNL     1      -0.928  50.508 -26.104  1.00  0.00     0.051 C 
BRANCH  45  47
HETATM   47  C3  UNL     1      -2.567  52.023 -27.289  1.00  0.00     0.265 C 
HETATM   48  O1  UNL     1      -2.563  53.112 -26.728  1.00  0.00    -0.302 OA
ENDBRANCH  45  47
ENDBRANCH  43  44
ENDBRANCH  42  43
ENDBRANCH  40  42
ENDBRANCH   1  40
TORSDOF 12
ENDMDL
MODEL 5
REMARK minimizedAffinity -8.49402046
REMARK CNNscore 0.274659067
REMARK CNNaffinity 6.7219758
REMARK  12 active torsions:
REMARK  status: ('A' for Active; 'I' for Inactive)
REMARK    1  A    between atoms: C2_2  and  C3_3 
REMARK    2  A    between atoms: C4_5  and  C5_6 
REMARK    3  A    between atoms: C5_6  and  C6_7 
REMARK    4  A    between atoms: C6_7  and  C7_8 
REMARK    5  A    between atoms: C7_8  and  C9_10 
REMARK    6  A    between atoms: C21_22  and  O2_23 
REMARK    7  A    between atoms: O2_23  and  C22_24 
REMARK    8  A    between atoms: C23_26  and  C24_27 
REMARK    9  A    between atoms: C24_27  and  O4_28 
REMARK   10  A    between atoms: C25_29  and  O5_30 
REMARK   11  A    between atoms: C26_31  and  O6_32 
REMARK   12  A    between atoms: C27_33  and  O7_34 
ROOT
HETATM    1  C9  UNL     1      -8.720  47.312 -18.558  1.00  0.00    -0.002 C 
HETATM    2  C10 UNL     1      -8.724  45.787 -18.982  1.00  0.00     0.006 C 
HETATM    3  C11 UNL     1      -7.531  45.578 -19.982  1.00  0.00     0.011 C 
HETATM    4  C12 UNL     1      -6.716  46.869 -19.809  1.00  0.00    -0.031 C 
HETATM    5  C13 UNL     1      -6.023  46.616 -18.390  1.00  0.00     0.016 C 
HETATM    6  C14 UNL     1      -5.527  47.267 -20.837  1.00  0.00     0.014 C 
HETATM    7  C15 UNL     1      -4.252  47.786 -20.073  1.00  0.00     0.034 C 
HETATM    8  C16 UNL     1      -3.306  48.728 -20.729  1.00  0.00    -0.022 C 
HETATM    9  C17 UNL     1      -3.494  49.299 -21.922  1.00  0.00    -0.068 C 
HETATM   10  C18 UNL     1      -4.701  48.924 -22.738  1.00  0.00     0.031 C 
HETATM   11  C19 UNL     1      -4.151  48.073 -23.915  1.00  0.00     0.013 C 
HETATM   12  C20 UNL     1      -2.838  48.608 -24.511  1.00  0.00     0.034 C 
HETATM   13  C21 UNL     1      -2.592  50.085 -24.168  1.00  0.00     0.136 C 
HETATM   14  C28 UNL     1      -2.494  50.261 -22.605  1.00  0.00     0.002 C 
HETATM   15  C29 UNL     1      -2.872  51.706 -22.219  1.00  0.00     0.022 C 
HETATM   16  C30 UNL     1      -1.042  50.014 -22.128  1.00  0.00     0.022 C 
HETATM   17  C31 UNL     1      -5.923  48.310 -21.918  1.00  0.00     0.029 C 
HETATM   18  C32 UNL     1      -6.833  47.632 -22.970  1.00  0.00     0.025 C 
HETATM   19  C33 UNL     1      -6.643  49.509 -21.187  1.00  0.00     0.137 C 
HETATM   20  O8  UNL     1      -6.748  50.620 -21.721  1.00  0.00    -0.297 OA
HETATM   21  C34 UNL     1      -7.286  49.290 -19.790  1.00  0.00     0.089 C 
HETATM   22  C35 UNL     1      -7.945  47.919 -19.770  1.00  0.00    -0.026 C 
HETATM   23  C36 UNL     1      -9.041  47.980 -20.903  1.00  0.00     0.016 C 
ENDROOT
BRANCH  13  24
HETATM   24  O2  UNL     1      -1.388  50.481 -24.838  1.00  0.00    -0.352 OA
BRANCH  24  25
HETATM   25  C22 UNL     1      -1.363  50.172 -26.231  1.00  0.00     0.292 C 
HETATM   26  O3  UNL     1      -0.060  50.402 -26.768  1.00  0.00    -0.348 OA
HETATM   27  C23 UNL     1       0.364  51.770 -26.751  1.00  0.00     0.179 C 
HETATM   28  C25 UNL     1      -0.721  52.815 -26.408  1.00  0.00     0.180 C 
HETATM   29  C26 UNL     1      -2.027  52.477 -27.131  1.00  0.00     0.183 C 
HETATM   30  C27 UNL     1      -2.413  50.992 -27.007  1.00  0.00     0.204 C 
BRANCH  27  31
HETATM   31  C24 UNL     1       1.574  51.895 -25.814  1.00  0.00     0.198 C 
BRANCH  31  32
HETATM   32  O4  UNL     1       1.181  52.356 -24.524  1.00  0.00    -0.398 OA
HETATM   33  H36 UNL     1       1.997  52.441 -23.996  1.00  0.00     0.209 HD
ENDBRANCH  31  32
ENDBRANCH  27  31
BRANCH  28  34
HETATM   34  O5  UNL     1      -0.284  54.124 -26.813  1.00  0.00    -0.390 OA
HETATM   35  H38 UNL     1       0.644  54.216 -26.501  1.00  0.00     0.210 HD
ENDBRANCH  28  34
BRANCH  29  36
HETATM   36  O6  UNL     1      -3.104  53.281 -26.607  1.00  0.00    -0.390 OA
HETATM   37  H40 UNL     1      -3.767  53.359 -27.316  1.00  0.00     0.210 HD
ENDBRANCH  29  36
BRANCH  30  38
HETATM   38  O7  UNL     1      -2.577  50.445 -28.333  1.00  0.00    -0.388 OA
HETATM   39  H42 UNL     1      -1.708  50.475 -28.774  1.00  0.00     0.210 HD
ENDBRANCH  30  38
ENDBRANCH  24  25
ENDBRANCH  13  24
BRANCH   1  40
HETATM   40  C7  UNL     1     -10.128  47.808 -18.129  1.00  0.00    -0.014 C 
HETATM   41  C8  UNL     1     -10.215  48.057 -16.618  1.00  0.00     0.010 C 
BRANCH  40  42
HETATM   42  C6  UNL     1     -11.264  46.847 -18.570  1.00  0.00     0.008 C 
BRANCH  42  43
HETATM   43  C5  UNL     1     -12.350  46.572 -17.523  1.00  0.00     0.028 C 
BRANCH  43  44
HETATM   44  C4  UNL     1     -13.423  47.624 -17.581  1.00  0.00    -0.017 C 
HETATM   45  C2  UNL     1     -14.676  47.496 -18.057  1.00  0.00    -0.028 C 
HETATM   46  C1  UNL     1     -15.297  46.281 -18.675  1.00  0.00     0.051 C 
BRANCH  45  47
HETATM   47  C3  UNL     1     -15.568  48.698 -17.983  1.00  0.00     0.265 C 
HETATM   48  O1  UNL     1     -15.227  49.830 -18.304  1.00  0.00    -0.302 OA
ENDBRANCH  45  47
ENDBRANCH  43  44
ENDBRANCH  42  43
ENDBRANCH  40  42
ENDBRANCH   1  40
TORSDOF 12
ENDMDL
MODEL 6
REMARK minimizedAffinity -7.85726452
REMARK CNNscore 0.247308999
REMARK CNNaffinity 7.38647604
REMARK  12 active torsions:
REMARK  status: ('A' for Active; 'I' for Inactive)
REMARK    1  A    between atoms: C2_2  and  C3_3 
REMARK    2  A    between atoms: C4_5  and  C5_6 
REMARK    3  A    between atoms: C5_6  and  C6_7 
REMARK    4  A    between atoms: C6_7  and  C7_8 
REMARK    5  A    between atoms: C7_8  and  C9_10 
REMARK    6  A    between atoms: C21_22  and  O2_23 
REMARK    7  A    between atoms: O2_23  and  C22_24 
REMARK    8  A    between atoms: C23_26  and  C24_27 
REMARK    9  A    between atoms: C24_27  and  O4_28 
REMARK   10  A    between atoms: C25_29  and  O5_30 
REMARK   11  A    between atoms: C26_31  and  O6_32 
REMARK   12  A    between atoms: C27_33  and  O7_34 
ROOT
HETATM    1  C9  UNL     1       1.290  51.746 -12.810  1.00  0.00    -0.002 C 
HETATM    2  C10 UNL     1       2.491  50.717 -12.877  1.00  0.00     0.006 C 
HETATM    3  C11 UNL     1       2.442  50.033 -14.289  1.00  0.00     0.011 C 
HETATM    4  C12 UNL     1       1.464  50.930 -15.065  1.00  0.00    -0.031 C 
HETATM    5  C13 UNL     1       2.370  52.220 -15.338  1.00  0.00     0.016 C 
HETATM    6  C14 UNL     1       0.855  50.483 -16.499  1.00  0.00     0.014 C 
HETATM    7  C15 UNL     1       0.881  51.669 -17.533  1.00  0.00     0.034 C 
HETATM    8  C16 UNL     1      -0.101  51.724 -18.649  1.00  0.00    -0.022 C 
HETATM    9  C17 UNL     1      -1.130  50.887 -18.809  1.00  0.00    -0.068 C 
HETATM   10  C18 UNL     1      -1.297  49.732 -17.858  1.00  0.00     0.031 C 
HETATM   11  C19 UNL     1      -0.932  48.468 -18.681  1.00  0.00     0.013 C 
HETATM   12  C20 UNL     1      -1.470  48.484 -20.123  1.00  0.00     0.034 C 
HETATM   13  C21 UNL     1      -2.627  49.478 -20.309  1.00  0.00     0.136 C 
HETATM   14  C28 UNL     1      -2.133  50.939 -19.984  1.00  0.00     0.002 C 
HETATM   15  C29 UNL     1      -3.333  51.811 -19.558  1.00  0.00     0.022 C 
HETATM   16  C30 UNL     1      -1.509  51.586 -21.245  1.00  0.00     0.022 C 
HETATM   17  C31 UNL     1      -0.583  49.898 -16.442  1.00  0.00     0.029 C 
HETATM   18  C32 UNL     1      -0.530  48.477 -15.831  1.00  0.00     0.025 C 
HETATM   19  C33 UNL     1      -1.468  50.886 -15.586  1.00  0.00     0.137 C 
HETATM   20  O8  UNL     1      -2.703  50.874 -15.663  1.00  0.00    -0.297 OA
HETATM   21  C34 UNL     1      -0.793  51.858 -14.582  1.00  0.00     0.089 C 
HETATM   22  C35 UNL     1       0.358  51.132 -13.902  1.00  0.00    -0.026 C 
HETATM   23  C36 UNL     1      -0.316  49.915 -13.157  1.00  0.00     0.016 C 
ENDROOT
BRANCH  13  24
HETATM   24  O2  UNL     1      -3.086  49.344 -21.661  1.00  0.00    -0.352 OA
BRANCH  24  25
HETATM   25  C22 UNL     1      -4.455  48.965 -21.780  1.00  0.00     0.292 C 
HETATM   26  O3  UNL     1      -4.679  48.293 -23.021  1.00  0.00    -0.348 OA
HETATM   27  C23 UNL     1      -4.483  49.103 -24.187  1.00  0.00     0.179 C 
HETATM   28  C25 UNL     1      -4.320  50.620 -23.943  1.00  0.00     0.180 C 
HETATM   29  C26 UNL     1      -5.331  51.097 -22.898  1.00  0.00     0.183 C 
HETATM   30  C27 UNL     1      -5.389  50.186 -21.659  1.00  0.00     0.204 C 
BRANCH  27  31
HETATM   31  C24 UNL     1      -3.298  48.536 -24.982  1.00  0.00     0.198 C 
BRANCH  31  32
HETATM   32  O4  UNL     1      -2.670  49.549 -25.763  1.00  0.00    -0.398 OA
HETATM   33  H36 UNL     1      -1.952  49.115 -26.261  1.00  0.00     0.209 HD
ENDBRANCH  31  32
ENDBRANCH  27  31
BRANCH  28  34
HETATM   34  O5  UNL     1      -4.536  51.337 -25.170  1.00  0.00    -0.390 OA
HETATM   35  H38 UNL     1      -4.023  50.864 -25.863  1.00  0.00     0.210 HD
ENDBRANCH  28  34
BRANCH  29  36
HETATM   36  O6  UNL     1      -5.006  52.437 -22.473  1.00  0.00    -0.390 OA
HETATM   37  H40 UNL     1      -5.836  52.845 -22.169  1.00  0.00     0.210 HD
ENDBRANCH  29  36
BRANCH  30  38
HETATM   38  O7  UNL     1      -6.751  49.742 -21.475  1.00  0.00    -0.388 OA
HETATM   39  H42 UNL     1      -6.988  49.191 -22.242  1.00  0.00     0.210 HD
ENDBRANCH  30  38
ENDBRANCH  24  25
ENDBRANCH  13  24
BRANCH   1  40
HETATM   40  C7  UNL     1       0.816  52.006 -11.354  1.00  0.00    -0.014 C 
HETATM   41  C8  UNL     1       0.023  53.312 -11.231  1.00  0.00     0.010 C 
BRANCH  40  42
HETATM   42  C6  UNL     1       1.985  52.004 -10.333  1.00  0.00     0.008 C 
BRANCH  42  43
HETATM   43  C5  UNL     1       1.941  53.103  -9.264  1.00  0.00     0.028 C 
BRANCH  43  44
HETATM   44  C4  UNL     1       3.294  53.739  -9.099  1.00  0.00    -0.017 C 
HETATM   45  C2  UNL     1       3.765  54.842  -9.712  1.00  0.00    -0.028 C 
HETATM   46  C1  UNL     1       3.066  55.687 -10.731  1.00  0.00     0.051 C 
BRANCH  45  47
HETATM   47  C3  UNL     1       5.151  55.288  -9.359  1.00  0.00     0.265 C 
HETATM   48  O1  UNL     1       6.172  54.703  -9.700  1.00  0.00    -0.302 OA
ENDBRANCH  45  47
ENDBRANCH  43  44
ENDBRANCH  42  43
ENDBRANCH  40  42
ENDBRANCH   1  40
TORSDOF 12
ENDMDL
MODEL 7
REMARK minimizedAffinity -8.91400242
REMARK CNNscore 0.241648644
REMARK CNNaffinity 6.74973059
REMARK  12 active torsions:
REMARK  status: ('A' for Active; 'I' for Inactive)
REMARK    1  A    between atoms: C2_2  and  C3_3 
REMARK    2  A    between atoms: C4_5  and  C5_6 
REMARK    3  A    between atoms: C5_6  and  C6_7 
REMARK    4  A    between atoms: C6_7  and  C7_8 
REMARK    5  A    between atoms: C7_8  and  C9_10 
REMARK    6  A    between atoms: C21_22  and  O2_23 
REMARK    7  A    between atoms: O2_23  and  C22_24 
REMARK    8  A    between atoms: C23_26  and  C24_27 
REMARK    9  A    between atoms: C24_27  and  O4_28 
REMARK   10  A    between atoms: C25_29  and  O5_30 
REMARK   11  A    between atoms: C26_31  and  O6_32 
REMARK   12  A    between atoms: C27_33  and  O7_34 
ROOT
HETATM    1  C9  UNL     1      -3.709  49.418 -22.745  1.00  0.00    -0.002 C 
HETATM    2  C10 UNL     1      -2.656  48.339 -23.228  1.00  0.00     0.006 C 
HETATM    3  C11 UNL     1      -1.845  47.881 -21.965  1.00  0.00     0.011 C 
HETATM    4  C12 UNL     1      -2.684  48.437 -20.804  1.00  0.00    -0.031 C 
HETATM    5  C13 UNL     1      -3.926  47.429 -20.801  1.00  0.00     0.016 C 
HETATM    6  C14 UNL     1      -2.118  48.474 -19.285  1.00  0.00     0.014 C 
HETATM    7  C15 UNL     1      -3.202  47.991 -18.252  1.00  0.00     0.034 C 
HETATM    8  C16 UNL     1      -3.171  48.467 -16.843  1.00  0.00    -0.022 C 
HETATM    9  C17 UNL     1      -2.342  49.399 -16.364  1.00  0.00    -0.068 C 
HETATM   10  C18 UNL     1      -1.284  49.978 -17.264  1.00  0.00     0.031 C 
HETATM   11  C19 UNL     1       0.058  49.394 -16.748  1.00  0.00     0.013 C 
HETATM   12  C20 UNL     1       0.165  49.337 -15.214  1.00  0.00     0.034 C 
HETATM   13  C21 UNL     1      -0.828  50.280 -14.518  1.00  0.00     0.136 C 
HETATM   14  C28 UNL     1      -2.304  49.872 -14.893  1.00  0.00     0.002 C 
HETATM   15  C29 UNL     1      -3.234  51.094 -14.752  1.00  0.00     0.022 C 
HETATM   16  C30 UNL     1      -2.819  48.778 -13.924  1.00  0.00     0.022 C 
HETATM   17  C31 UNL     1      -1.567  49.853 -18.829  1.00  0.00     0.029 C 
HETATM   18  C32 UNL     1      -0.208  50.114 -19.522  1.00  0.00     0.025 C 
HETATM   19  C33 UNL     1      -2.647  50.945 -19.196  1.00  0.00     0.137 C 
HETATM   20  O8  UNL     1      -2.652  52.055 -18.650  1.00  0.00    -0.297 OA
HETATM   21  C34 UNL     1      -3.696  50.655 -20.304  1.00  0.00     0.089 C 
HETATM   22  C35 UNL     1      -3.014  49.892 -21.430  1.00  0.00    -0.026 C 
HETATM   23  C36 UNL     1      -1.885  50.864 -21.950  1.00  0.00     0.016 C 
ENDROOT
BRANCH  13  24
HETATM   24  O2  UNL     1      -0.578  50.193 -13.109  1.00  0.00    -0.352 OA
BRANCH  24  25
HETATM   25  C22 UNL     1       0.368  51.142 -12.622  1.00  0.00     0.292 C 
HETATM   26  O3  UNL     1       0.840  50.755 -11.330  1.00  0.00    -0.348 OA
HETATM   27  C23 UNL     1      -0.155  50.759 -10.300  1.00  0.00     0.179 C 
HETATM   28  C25 UNL     1      -1.505  51.418 -10.660  1.00  0.00     0.180 C 
HETATM   29  C26 UNL     1      -1.267  52.717 -11.435  1.00  0.00     0.183 C 
HETATM   30  C27 UNL     1      -0.235  52.559 -12.566  1.00  0.00     0.204 C 
BRANCH  27  31
HETATM   31  C24 UNL     1      -0.353  49.318  -9.806  1.00  0.00     0.198 C 
BRANCH  31  32
HETATM   32  O4  UNL     1      -1.494  48.718 -10.414  1.00  0.00    -0.398 OA
HETATM   33  H36 UNL     1      -1.576  47.823 -10.033  1.00  0.00     0.209 HD
ENDBRANCH  31  32
ENDBRANCH  27  31
BRANCH  28  34
HETATM   34  O5  UNL     1      -2.240  51.714  -9.460  1.00  0.00    -0.390 OA
HETATM   35  H38 UNL     1      -2.188  50.909  -8.897  1.00  0.00     0.210 HD
ENDBRANCH  28  34
BRANCH  29  36
HETATM   36  O6  UNL     1      -2.508  53.187 -12.002  1.00  0.00    -0.390 OA
HETATM   37  H40 UNL     1      -2.423  54.151 -12.104  1.00  0.00     0.210 HD
ENDBRANCH  29  36
BRANCH  30  38
HETATM   38  O7  UNL     1       0.816  53.530 -12.370  1.00  0.00    -0.388 OA
HETATM   39  H42 UNL     1       1.272  53.307 -11.538  1.00  0.00     0.210 HD
ENDBRANCH  30  38
ENDBRANCH  24  25
ENDBRANCH  13  24
BRANCH   1  40
HETATM   40  C7  UNL     1      -4.113  50.398 -23.880  1.00  0.00    -0.014 C 
HETATM   41  C8  UNL     1      -5.618  50.687 -23.884  1.00  0.00     0.010 C 
BRANCH  40  42
HETATM   42  C6  UNL     1      -3.668  49.908 -25.284  1.00  0.00     0.008 C 
BRANCH  42  43
HETATM   43  C5  UNL     1      -4.125  48.497 -25.674  1.00  0.00     0.028 C 
BRANCH  43  44
HETATM   44  C4  UNL     1      -4.311  48.390 -27.162  1.00  0.00    -0.017 C 
HETATM   45  C2  UNL     1      -5.405  47.975 -27.828  1.00  0.00    -0.028 C 
HETATM   46  C1  UNL     1      -6.696  47.487 -27.245  1.00  0.00     0.051 C 
BRANCH  45  47
HETATM   47  C3  UNL     1      -5.346  47.980 -29.325  1.00  0.00     0.265 C 
HETATM   48  O1  UNL     1      -4.710  48.791 -29.987  1.00  0.00    -0.302 OA
ENDBRANCH  45  47
ENDBRANCH  43  44
ENDBRANCH  42  43
ENDBRANCH  40  42
ENDBRANCH   1  40
TORSDOF 12
ENDMDL
MODEL 8
REMARK minimizedAffinity -8.05666256
REMARK CNNscore 0.229842082
REMARK CNNaffinity 5.64654732
REMARK  12 active torsions:
REMARK  status: ('A' for Active; 'I' for Inactive)
REMARK    1  A    between atoms: C2_2  and  C3_3 
REMARK    2  A    between atoms: C4_5  and  C5_6 
REMARK    3  A    between atoms: C5_6  and  C6_7 
REMARK    4  A    between atoms: C6_7  and  C7_8 
REMARK    5  A    between atoms: C7_8  and  C9_10 
REMARK    6  A    between atoms: C21_22  and  O2_23 
REMARK    7  A    between atoms: O2_23  and  C22_24 
REMARK    8  A    between atoms: C23_26  and  C24_27 
REMARK    9  A    between atoms: C24_27  and  O4_28 
REMARK   10  A    between atoms: C25_29  and  O5_30 
REMARK   11  A    between atoms: C26_31  and  O6_32 
REMARK   12  A    between atoms: C27_33  and  O7_34 
ROOT
HETATM    1  C9  UNL     1     -18.231  44.456 -23.755  1.00  0.00    -0.002 C 
HETATM    2  C10 UNL     1     -18.827  45.921 -23.823  1.00  0.00     0.006 C 
HETATM    3  C11 UNL     1     -17.872  46.772 -24.734  1.00  0.00     0.011 C 
HETATM    4  C12 UNL     1     -17.002  45.698 -25.407  1.00  0.00    -0.031 C 
HETATM    5  C13 UNL     1     -18.029  45.080 -26.466  1.00  0.00     0.016 C 
HETATM    6  C14 UNL     1     -15.663  46.083 -26.235  1.00  0.00     0.014 C 
HETATM    7  C15 UNL     1     -15.574  45.291 -27.592  1.00  0.00     0.034 C 
HETATM    8  C16 UNL     1     -14.256  45.006 -28.219  1.00  0.00    -0.022 C 
HETATM    9  C17 UNL     1     -13.069  45.266 -27.664  1.00  0.00    -0.068 C 
HETATM   10  C18 UNL     1     -13.014  45.980 -26.340  1.00  0.00     0.031 C 
HETATM   11  C19 UNL     1     -12.487  47.404 -26.666  1.00  0.00     0.013 C 
HETATM   12  C20 UNL     1     -11.356  47.428 -27.708  1.00  0.00     0.034 C 
HETATM   13  C21 UNL     1     -10.661  46.066 -27.856  1.00  0.00     0.136 C 
HETATM   14  C28 UNL     1     -11.704  44.984 -28.332  1.00  0.00     0.002 C 
HETATM   15  C29 UNL     1     -11.232  43.581 -27.897  1.00  0.00     0.022 C 
HETATM   16  C30 UNL     1     -11.809  44.985 -29.877  1.00  0.00     0.022 C 
HETATM   17  C31 UNL     1     -14.335  45.889 -25.453  1.00  0.00     0.029 C 
HETATM   18  C32 UNL     1     -14.203  47.005 -24.389  1.00  0.00     0.025 C 
HETATM   19  C33 UNL     1     -14.365  44.448 -24.808  1.00  0.00     0.137 C 
HETATM   20  O8  UNL     1     -13.327  43.887 -24.438  1.00  0.00    -0.297 OA
HETATM   21  C34 UNL     1     -15.723  43.732 -24.577  1.00  0.00     0.089 C 
HETATM   22  C35 UNL     1     -16.742  44.762 -24.114  1.00  0.00    -0.026 C 
HETATM   23  C36 UNL     1     -16.156  45.331 -22.763  1.00  0.00     0.016 C 
ENDROOT
BRANCH  13  24
HETATM   24  O2  UNL     1      -9.588  46.238 -28.791  1.00  0.00    -0.352 OA
BRANCH  24  25
HETATM   25  C22 UNL     1      -9.578  47.505 -29.446  1.00  0.00     0.292 C 
HETATM   26  O3  UNL     1      -9.327  47.342 -30.842  1.00  0.00    -0.348 OA
HETATM   27  C23 UNL     1      -8.031  46.822 -31.163  1.00  0.00     0.179 C 
HETATM   28  C25 UNL     1      -7.015  46.762 -30.001  1.00  0.00     0.180 C 
HETATM   29  C26 UNL     1      -7.089  48.044 -29.169  1.00  0.00     0.183 C 
HETATM   30  C27 UNL     1      -8.532  48.452 -28.823  1.00  0.00     0.204 C 
BRANCH  27  31
HETATM   31  C24 UNL     1      -8.205  45.446 -31.823  1.00  0.00     0.198 C 
BRANCH  31  32
HETATM   32  O4  UNL     1      -7.973  45.515 -33.227  1.00  0.00    -0.398 OA
HETATM   33  H36 UNL     1      -8.132  44.620 -33.582  1.00  0.00     0.209 HD
ENDBRANCH  31  32
ENDBRANCH  27  31
BRANCH  28  34
HETATM   34  O5  UNL     1      -5.683  46.615 -30.524  1.00  0.00    -0.390 OA
HETATM   35  H38 UNL     1      -5.729  45.914 -31.211  1.00  0.00     0.210 HD
ENDBRANCH  28  34
BRANCH  29  36
HETATM   36  O6  UNL     1      -6.348  47.880 -27.942  1.00  0.00    -0.390 OA
HETATM   37  H40 UNL     1      -6.066  48.768 -27.663  1.00  0.00     0.210 HD
ENDBRANCH  29  36
BRANCH  30  38
HETATM   38  O7  UNL     1      -8.756  49.800 -29.289  1.00  0.00    -0.388 OA
HETATM   39  H42 UNL     1      -8.690  49.791 -30.262  1.00  0.00     0.210 HD
ENDBRANCH  30  38
ENDBRANCH  24  25
ENDBRANCH  13  24
BRANCH   1  40
HETATM   40  C7  UNL     1     -18.644  43.711 -22.456  1.00  0.00    -0.014 C 
HETATM   41  C8  UNL     1     -19.255  42.336 -22.751  1.00  0.00     0.010 C 
BRANCH  40  42
HETATM   42  C6  UNL     1     -19.615  44.538 -21.572  1.00  0.00     0.008 C 
BRANCH  42  43
HETATM   43  C5  UNL     1     -19.333  44.512 -20.065  1.00  0.00     0.028 C 
BRANCH  43  44
HETATM   44  C4  UNL     1     -18.116  45.331 -19.737  1.00  0.00    -0.017 C 
HETATM   45  C2  UNL     1     -18.050  46.658 -19.519  1.00  0.00    -0.028 C 
HETATM   46  C1  UNL     1     -19.172  47.648 -19.580  1.00  0.00     0.051 C 
BRANCH  45  47
HETATM   47  C3  UNL     1     -16.709  47.237 -19.187  1.00  0.00     0.265 C 
HETATM   48  O1  UNL     1     -15.676  46.583 -19.103  1.00  0.00    -0.302 OA
ENDBRANCH  45  47
ENDBRANCH  43  44
ENDBRANCH  42  43
ENDBRANCH  40  42
ENDBRANCH   1  40
TORSDOF 12
ENDMDL
MODEL 9
REMARK minimizedAffinity -8.37572956
REMARK CNNscore 0.229029328
REMARK CNNaffinity 6.47960091
REMARK  12 active torsions:
REMARK  status: ('A' for Active; 'I' for Inactive)
REMARK    1  A    between atoms: C2_2  and  C3_3 
REMARK    2  A    between atoms: C4_5  and  C5_6 
REMARK    3  A    between atoms: C5_6  and  C6_7 
REMARK    4  A    between atoms: C6_7  and  C7_8 
REMARK    5  A    between atoms: C7_8  and  C9_10 
REMARK    6  A    between atoms: C21_22  and  O2_23 
REMARK    7  A    between atoms: O2_23  and  C22_24 
REMARK    8  A    between atoms: C23_26  and  C24_27 
REMARK    9  A    between atoms: C24_27  and  O4_28 
REMARK   10  A    between atoms: C25_29  and  O5_30 
REMARK   11  A    between atoms: C26_31  and  O6_32 
REMARK   12  A    between atoms: C27_33  and  O7_34 
ROOT
HETATM    1  C9  UNL     1      -2.087  49.583 -22.621  1.00  0.00    -0.002 C 
HETATM    2  C10 UNL     1      -1.783  49.730 -21.074  1.00  0.00     0.006 C 
HETATM    3  C11 UNL     1      -3.019  49.150 -20.298  1.00  0.00     0.011 C 
HETATM    4  C12 UNL     1      -3.786  48.400 -21.398  1.00  0.00    -0.031 C 
HETATM    5  C13 UNL     1      -2.866  47.107 -21.598  1.00  0.00     0.016 C 
HETATM    6  C14 UNL     1      -5.297  47.859 -21.164  1.00  0.00     0.014 C 
HETATM    7  C15 UNL     1      -5.478  46.395 -21.713  1.00  0.00     0.034 C 
HETATM    8  C16 UNL     1      -6.813  45.911 -22.156  1.00  0.00    -0.022 C 
HETATM    9  C17 UNL     1      -7.912  46.665 -22.247  1.00  0.00    -0.068 C 
HETATM   10  C18 UNL     1      -7.862  48.100 -21.796  1.00  0.00     0.031 C 
HETATM   11  C19 UNL     1      -8.683  48.145 -20.479  1.00  0.00     0.013 C 
HETATM   12  C20 UNL     1      -9.965  47.294 -20.513  1.00  0.00     0.034 C 
HETATM   13  C21 UNL     1     -10.420  46.971 -21.944  1.00  0.00     0.136 C 
HETATM   14  C28 UNL     1      -9.301  46.148 -22.688  1.00  0.00     0.002 C 
HETATM   15  C29 UNL     1      -9.431  46.351 -24.212  1.00  0.00     0.022 C 
HETATM   16  C30 UNL     1      -9.468  44.635 -22.401  1.00  0.00     0.022 C 
HETATM   17  C31 UNL     1      -6.411  48.761 -21.761  1.00  0.00     0.029 C 
HETATM   18  C32 UNL     1      -6.553  50.036 -20.895  1.00  0.00     0.025 C 
HETATM   19  C33 UNL     1      -6.013  49.091 -23.253  1.00  0.00     0.137 C 
HETATM   20  O8  UNL     1      -6.854  49.479 -24.073  1.00  0.00    -0.297 OA
HETATM   21  C34 UNL     1      -4.530  48.984 -23.700  1.00  0.00     0.089 C 
HETATM   22  C35 UNL     1      -3.646  49.501 -22.575  1.00  0.00    -0.026 C 
HETATM   23  C36 UNL     1      -4.079  51.006 -22.380  1.00  0.00     0.016 C 
ENDROOT
BRANCH  13  24
HETATM   24  O2  UNL     1     -11.654  46.247 -21.842  1.00  0.00    -0.352 OA
BRANCH  24  25
HETATM   25  C22 UNL     1     -12.635  46.621 -22.807  1.00  0.00     0.292 C 
HETATM   26  O3  UNL     1     -13.522  47.598 -22.261  1.00  0.00    -0.348 OA
HETATM   27  C23 UNL     1     -14.327  47.136 -21.169  1.00  0.00     0.179 C 
HETATM   28  C25 UNL     1     -14.317  45.612 -20.913  1.00  0.00     0.180 C 
HETATM   29  C26 UNL     1     -14.401  44.854 -22.240  1.00  0.00     0.183 C 
HETATM   30  C27 UNL     1     -13.430  45.397 -23.303  1.00  0.00     0.204 C 
BRANCH  27  31
HETATM   31  C24 UNL     1     -13.933  47.916 -19.907  1.00  0.00     0.198 C 
BRANCH  31  32
HETATM   32  O4  UNL     1     -13.485  49.229 -20.232  1.00  0.00    -0.398 OA
HETATM   33  H36 UNL     1     -13.223  49.652 -19.393  1.00  0.00     0.209 HD
ENDBRANCH  31  32
ENDBRANCH  27  31
BRANCH  28  34
HETATM   34  O5  UNL     1     -15.438  45.248 -20.089  1.00  0.00    -0.390 OA
HETATM   35  H38 UNL     1     -15.466  45.899 -19.353  1.00  0.00     0.210 HD
ENDBRANCH  28  34
BRANCH  29  36
HETATM   36  O6  UNL     1     -14.120  43.455 -22.027  1.00  0.00    -0.390 OA
HETATM   37  H40 UNL     1     -14.572  42.966 -22.737  1.00  0.00     0.210 HD
ENDBRANCH  29  36
BRANCH  30  38
HETATM   38  O7  UNL     1     -14.186  45.751 -24.482  1.00  0.00    -0.388 OA
HETATM   39  H42 UNL     1     -14.781  46.485 -24.241  1.00  0.00     0.210 HD
ENDBRANCH  30  38
ENDBRANCH  24  25
ENDBRANCH  13  24
BRANCH   1  40
HETATM   40  C7  UNL     1      -1.328  50.634 -23.474  1.00  0.00    -0.014 C 
HETATM   41  C8  UNL     1      -1.012  51.905 -22.676  1.00  0.00     0.010 C 
BRANCH  40  42
HETATM   42  C6  UNL     1      -2.081  51.007 -24.779  1.00  0.00     0.008 C 
BRANCH  42  43
HETATM   43  C5  UNL     1      -1.452  50.499 -26.082  1.00  0.00     0.028 C 
BRANCH  43  44
HETATM   44  C4  UNL     1       0.040  50.683 -26.060  1.00  0.00    -0.017 C 
HETATM   45  C2  UNL     1       0.758  51.657 -26.650  1.00  0.00    -0.028 C 
HETATM   46  C1  UNL     1       0.247  52.780 -27.499  1.00  0.00     0.051 C 
BRANCH  45  47
HETATM   47  C3  UNL     1       2.244  51.630 -26.461  1.00  0.00     0.265 C 
HETATM   48  O1  UNL     1       3.047  51.358 -27.345  1.00  0.00    -0.302 OA
ENDBRANCH  45  47
ENDBRANCH  43  44
ENDBRANCH  42  43
ENDBRANCH  40  42
ENDBRANCH   1  40
TORSDOF 12
ENDMDL
