MODEL 1
REMARK minimizedAffinity -10.0674143
REMARK CNNscore 0.752997875
REMARK CNNaffinity 7.63495493
REMARK  13 active torsions:
REMARK  status: ('A' for Active; 'I' for Inactive)
REMARK    1  A    between atoms: C2_2  and  C3_3 
REMARK    2  A    between atoms: C3_3  and  C5_5 
REMARK    3  A    between atoms: C5_5  and  N1_6 
REMARK    4  A    between atoms: C5_5  and  C31_39 
REMARK       I    between atoms: N1_6  and  C6_7 
REMARK    5  A    between atoms: C6_7  and  C7_9 
REMARK    6  A    between atoms: C7_9  and  C8_10 
REMARK    7  A    between atoms: C8_10  and  C9_11 
REMARK    8  A    between atoms: C9_11  and  O3_13 
REMARK    9  A    between atoms: O3_13  and  C10_14 
REMARK   10  A    between atoms: C10_14  and  C11_15 
REMARK   11  A    between atoms: C11_15  and  C12_17 
REMARK   12  A    between atoms: C12_17  and  O5_18 
REMARK   13  A    between atoms: C31_39  and  O9_41 
ROOT
HETATM    1  C12 UNL     1      -6.480  49.427 -22.328  1.00  0.00     0.128 C 
HETATM    2  C13 UNL     1      -7.045  49.372 -20.891  1.00  0.00     0.047 C 
HETATM    3  C14 UNL     1      -5.916  49.864 -19.956  1.00  0.00     0.009 C 
HETATM    4  C15 UNL     1      -4.787  50.282 -20.898  1.00  0.00     0.002 C 
HETATM    5  C16 UNL     1      -3.353  50.353 -20.346  1.00  0.00     0.003 C 
HETATM    6  C17 UNL     1      -3.269  51.298 -19.139  1.00  0.00     0.010 C 
HETATM    7  C18 UNL     1      -1.837  51.438 -18.641  1.00  0.00     0.035 C 
HETATM    8  C19 UNL     1      -0.901  51.871 -19.743  1.00  0.00    -0.067 C 
HETATM    9  C20 UNL     1      -0.118  52.949 -19.571  1.00  0.00     0.053 C 
HETATM   10  C21 UNL     1       0.879  53.354 -20.589  1.00  0.00     0.149 C 
HETATM   11  O6  UNL     1       1.456  54.430 -20.479  1.00  0.00    -0.293 OA
HETATM   12  C22 UNL     1       1.170  52.381 -21.697  1.00  0.00     0.084 C 
HETATM   13  C23 UNL     1      -0.129  51.739 -22.162  1.00  0.00     0.022 C 
HETATM   14  C24 UNL     1      -0.913  51.015 -21.024  1.00  0.00    -0.009 C 
HETATM   15  C25 UNL     1      -0.216  49.673 -20.697  1.00  0.00     0.021 C 
HETATM   16  C26 UNL     1      -2.404  50.842 -21.481  1.00  0.00     0.072 C 
HETATM   17  C27 UNL     1      -2.619  49.969 -22.733  1.00  0.00     0.133 C 
HETATM   18  O7  UNL     1      -1.714  49.386 -23.324  1.00  0.00    -0.297 OA
HETATM   19  C28 UNL     1      -4.054  49.868 -23.237  1.00  0.00     0.091 C 
HETATM   20  C29 UNL     1      -4.942  49.325 -22.108  1.00  0.00     0.005 C 
HETATM   21  C30 UNL     1      -4.522  47.866 -21.793  1.00  0.00     0.019 C 
ENDROOT
BRANCH   1  22
HETATM   22  C11 UNL     1      -7.045  48.434 -23.360  1.00  0.00     0.185 C 
HETATM   23  O4  UNL     1      -7.565  47.387 -22.949  1.00  0.00    -0.292 OA
BRANCH  22  24
HETATM   24  C10 UNL     1      -6.962  48.742 -24.845  1.00  0.00     0.260 C 
BRANCH  24  25
HETATM   25  O3  UNL     1      -5.873  48.096 -25.496  1.00  0.00    -0.314 OA
BRANCH  25  26
HETATM   26  C9  UNL     1      -6.105  47.698 -26.776  1.00  0.00     0.259 C 
HETATM   27  O2  UNL     1      -7.145  47.201 -27.174  1.00  0.00    -0.265 OA
BRANCH  26  28
HETATM   28  C8  UNL     1      -4.884  47.955 -27.620  1.00  0.00     0.120 C 
BRANCH  28  29
HETATM   29  C7  UNL     1      -3.708  48.426 -26.768  1.00  0.00     0.112 C 
BRANCH  29  30
HETATM   30  C6  UNL     1      -3.115  49.706 -27.315  1.00  0.00     0.218 C 
HETATM   31  N1  UNL     1      -2.142  50.247 -26.498  1.00  0.00    -0.346 N 
HETATM   32  H11 UNL     1      -1.672  49.592 -25.882  1.00  0.00     0.163 HD
HETATM   33  O1  UNL     1      -3.480  50.216 -28.366  1.00  0.00    -0.274 OA
BRANCH  31  34
HETATM   34  C5  UNL     1      -1.324  51.391 -26.936  1.00  0.00     0.186 C 
BRANCH  34  35
HETATM   35  C3  UNL     1       0.009  51.585 -26.153  1.00  0.00     0.014 C 
HETATM   36  C4  UNL     1      -0.049  52.856 -25.287  1.00  0.00     0.012 C 
BRANCH  35  37
HETATM   37  C2  UNL     1       1.227  51.662 -27.111  1.00  0.00     0.002 C 
HETATM   38  C1  UNL     1       2.538  51.190 -26.490  1.00  0.00     0.005 C 
ENDBRANCH  35  37
ENDBRANCH  34  35
BRANCH  34  39
HETATM   39  C31 UNL     1      -2.208  52.661 -27.014  1.00  0.00     0.163 C 
HETATM   40  O8  UNL     1      -3.060  53.020 -26.217  1.00  0.00    -0.648 OA
BRANCH  39  41
HETATM   41  O9  UNL     1      -1.883  53.494 -28.035  1.00  0.00    -0.775 OA
HETATM   42  H43 UNL     1      -2.524  54.232 -27.930  1.00  0.00     0.167 HD
ENDBRANCH  39  41
ENDBRANCH  34  39
ENDBRANCH  31  34
ENDBRANCH  29  30
ENDBRANCH  28  29
ENDBRANCH  26  28
ENDBRANCH  25  26
ENDBRANCH  24  25
ENDBRANCH  22  24
ENDBRANCH   1  22
BRANCH   1  43
HETATM   43  O5  UNL     1      -6.782  50.742 -22.841  1.00  0.00    -0.381 OA
HETATM   44  H18 UNL     1      -6.923  50.655 -23.807  1.00  0.00     0.211 HD
ENDBRANCH   1  43
TORSDOF 13
ENDMDL
MODEL 2
REMARK minimizedAffinity -8.10991669
REMARK CNNscore 0.51848495
REMARK CNNaffinity 6.84018326
REMARK  13 active torsions:
REMARK  status: ('A' for Active; 'I' for Inactive)
REMARK    1  A    between atoms: C2_2  and  C3_3 
REMARK    2  A    between atoms: C3_3  and  C5_5 
REMARK    3  A    between atoms: C5_5  and  N1_6 
REMARK    4  A    between atoms: C5_5  and  C31_39 
REMARK       I    between atoms: N1_6  and  C6_7 
REMARK    5  A    between atoms: C6_7  and  C7_9 
REMARK    6  A    between atoms: C7_9  and  C8_10 
REMARK    7  A    between atoms: C8_10  and  C9_11 
REMARK    8  A    between atoms: C9_11  and  O3_13 
REMARK    9  A    between atoms: O3_13  and  C10_14 
REMARK   10  A    between atoms: C10_14  and  C11_15 
REMARK   11  A    between atoms: C11_15  and  C12_17 
REMARK   12  A    between atoms: C12_17  and  O5_18 
REMARK   13  A    between atoms: C31_39  and  O9_41 
ROOT
HETATM    1  C12 UNL     1       5.899  66.856 -35.279  1.00  0.00     0.128 C 
HETATM    2  C13 UNL     1       7.085  67.659 -35.858  1.00  0.00     0.047 C 
HETATM    3  C14 UNL     1       6.526  68.470 -37.050  1.00  0.00     0.009 C 
HETATM    4  C15 UNL     1       5.025  68.184 -37.043  1.00  0.00     0.002 C 
HETATM    5  C16 UNL     1       4.226  68.405 -38.338  1.00  0.00     0.003 C 
HETATM    6  C17 UNL     1       4.381  69.845 -38.848  1.00  0.00     0.010 C 
HETATM    7  C18 UNL     1       3.525  70.094 -40.082  1.00  0.00     0.035 C 
HETATM    8  C19 UNL     1       2.075  69.752 -39.836  1.00  0.00    -0.067 C 
HETATM    9  C20 UNL     1       1.121  70.663 -40.091  1.00  0.00     0.053 C 
HETATM   10  C21 UNL     1      -0.318  70.338 -39.951  1.00  0.00     0.149 C 
HETATM   11  O6  UNL     1      -1.153  71.232 -40.028  1.00  0.00    -0.293 OA
HETATM   12  C22 UNL     1      -0.686  68.891 -39.767  1.00  0.00     0.084 C 
HETATM   13  C23 UNL     1       0.308  68.232 -38.822  1.00  0.00     0.022 C 
HETATM   14  C24 UNL     1       1.790  68.338 -39.295  1.00  0.00    -0.009 C 
HETATM   15  C25 UNL     1       2.029  67.338 -40.451  1.00  0.00     0.021 C 
HETATM   16  C26 UNL     1       2.725  68.091 -38.060  1.00  0.00     0.072 C 
HETATM   17  C27 UNL     1       2.611  66.699 -37.408  1.00  0.00     0.133 C 
HETATM   18  O7  UNL     1       1.892  65.800 -37.835  1.00  0.00    -0.297 OA
HETATM   19  C28 UNL     1       3.450  66.480 -36.154  1.00  0.00     0.091 C 
HETATM   20  C29 UNL     1       4.925  66.740 -36.489  1.00  0.00     0.005 C 
HETATM   21  C30 UNL     1       5.413  65.663 -37.493  1.00  0.00     0.019 C 
ENDROOT
BRANCH   1  22
HETATM   22  C11 UNL     1       6.210  65.520 -34.580  1.00  0.00     0.185 C 
HETATM   23  O4  UNL     1       7.303  65.391 -34.011  1.00  0.00    -0.292 OA
BRANCH  22  24
HETATM   24  C10 UNL     1       5.189  64.394 -34.591  1.00  0.00     0.260 C 
BRANCH  24  25
HETATM   25  O3  UNL     1       5.718  63.159 -35.062  1.00  0.00    -0.314 OA
BRANCH  25  26
HETATM   26  C9  UNL     1       5.193  62.040 -34.495  1.00  0.00     0.259 C 
HETATM   27  O2  UNL     1       4.391  62.033 -33.577  1.00  0.00    -0.265 OA
BRANCH  26  28
HETATM   28  C8  UNL     1       5.758  60.815 -35.165  1.00  0.00     0.120 C 
BRANCH  28  29
HETATM   29  C7  UNL     1       6.864  60.180 -34.325  1.00  0.00     0.112 C 
BRANCH  29  30
HETATM   30  C6  UNL     1       8.179  60.902 -34.517  1.00  0.00     0.218 C 
HETATM   31  N1  UNL     1       8.333  61.987 -33.676  1.00  0.00    -0.346 N 
HETATM   32  H11 UNL     1       7.795  61.955 -32.817  1.00  0.00     0.163 HD
HETATM   33  O1  UNL     1       9.009  60.566 -35.351  1.00  0.00    -0.274 OA
BRANCH  31  34
HETATM   34  C5  UNL     1       9.613  62.711 -33.587  1.00  0.00     0.186 C 
BRANCH  34  35
HETATM   35  C3  UNL     1      10.393  62.836 -34.929  1.00  0.00     0.014 C 
HETATM   36  C4  UNL     1      11.865  63.202 -34.671  1.00  0.00     0.012 C 
BRANCH  35  37
HETATM   37  C2  UNL     1       9.750  63.892 -35.866  1.00  0.00     0.002 C 
HETATM   38  C1  UNL     1      10.758  64.722 -36.655  1.00  0.00     0.005 C 
ENDBRANCH  35  37
ENDBRANCH  34  35
BRANCH  34  39
HETATM   39  C31 UNL     1      10.449  62.141 -32.414  1.00  0.00     0.163 C 
HETATM   40  O8  UNL     1      11.597  62.431 -32.115  1.00  0.00    -0.648 OA
BRANCH  39  41
HETATM   41  O9  UNL     1       9.750  61.324 -31.587  1.00  0.00    -0.775 OA
HETATM   42  H43 UNL     1      10.418  61.068 -30.912  1.00  0.00     0.167 HD
ENDBRANCH  39  41
ENDBRANCH  34  39
ENDBRANCH  31  34
ENDBRANCH  29  30
ENDBRANCH  28  29
ENDBRANCH  26  28
ENDBRANCH  25  26
ENDBRANCH  24  25
ENDBRANCH  22  24
ENDBRANCH   1  22
BRANCH   1  43
HETATM   43  O5  UNL     1       5.284  67.692 -34.276  1.00  0.00    -0.381 OA
HETATM   44  H18 UNL     1       4.923  67.101 -33.582  1.00  0.00     0.211 HD
ENDBRANCH   1  43
TORSDOF 13
ENDMDL
MODEL 3
REMARK minimizedAffinity -7.56002235
REMARK CNNscore 0.513838649
REMARK CNNaffinity 5.94529486
REMARK  13 active torsions:
REMARK  status: ('A' for Active; 'I' for Inactive)
REMARK    1  A    between atoms: C2_2  and  C3_3 
REMARK    2  A    between atoms: C3_3  and  C5_5 
REMARK    3  A    between atoms: C5_5  and  N1_6 
REMARK    4  A    between atoms: C5_5  and  C31_39 
REMARK       I    between atoms: N1_6  and  C6_7 
REMARK    5  A    between atoms: C6_7  and  C7_9 
REMARK    6  A    between atoms: C7_9  and  C8_10 
REMARK    7  A    between atoms: C8_10  and  C9_11 
REMARK    8  A    between atoms: C9_11  and  O3_13 
REMARK    9  A    between atoms: O3_13  and  C10_14 
REMARK   10  A    between atoms: C10_14  and  C11_15 
REMARK   11  A    between atoms: C11_15  and  C12_17 
REMARK   12  A    between atoms: C12_17  and  O5_18 
REMARK   13  A    between atoms: C31_39  and  O9_41 
ROOT
HETATM    1  C12 UNL     1      -9.163  48.193 -26.810  1.00  0.00     0.128 C 
HETATM    2  C13 UNL     1      -7.882  47.812 -26.035  1.00  0.00     0.047 C 
HETATM    3  C14 UNL     1      -6.828  47.421 -27.097  1.00  0.00     0.009 C 
HETATM    4  C15 UNL     1      -7.508  47.694 -28.438  1.00  0.00     0.002 C 
HETATM    5  C16 UNL     1      -6.978  46.982 -29.693  1.00  0.00     0.003 C 
HETATM    6  C17 UNL     1      -5.486  47.272 -29.908  1.00  0.00     0.010 C 
HETATM    7  C18 UNL     1      -4.976  46.639 -31.195  1.00  0.00     0.035 C 
HETATM    8  C19 UNL     1      -5.795  47.062 -32.391  1.00  0.00    -0.067 C 
HETATM    9  C20 UNL     1      -5.186  47.591 -33.465  1.00  0.00     0.053 C 
HETATM   10  C21 UNL     1      -5.941  47.934 -34.693  1.00  0.00     0.149 C 
HETATM   11  O6  UNL     1      -5.391  48.566 -35.587  1.00  0.00    -0.293 OA
HETATM   12  C22 UNL     1      -7.356  47.436 -34.797  1.00  0.00     0.084 C 
HETATM   13  C23 UNL     1      -8.046  47.585 -33.449  1.00  0.00     0.022 C 
HETATM   14  C24 UNL     1      -7.316  46.846 -32.286  1.00  0.00    -0.009 C 
HETATM   15  C25 UNL     1      -7.583  45.326 -32.399  1.00  0.00     0.021 C 
HETATM   16  C26 UNL     1      -7.803  47.459 -30.926  1.00  0.00     0.072 C 
HETATM   17  C27 UNL     1      -9.306  47.297 -30.623  1.00  0.00     0.133 C 
HETATM   18  O7  UNL     1     -10.087  46.685 -31.346  1.00  0.00    -0.297 OA
HETATM   19  C28 UNL     1      -9.805  47.967 -29.348  1.00  0.00     0.091 C 
HETATM   20  C29 UNL     1      -9.008  47.423 -28.154  1.00  0.00     0.005 C 
HETATM   21  C30 UNL     1      -9.334  45.917 -27.973  1.00  0.00     0.019 C 
ENDROOT
BRANCH   1  22
HETATM   22  C11 UNL     1     -10.517  47.981 -26.106  1.00  0.00     0.185 C 
HETATM   23  O4  UNL     1     -11.512  48.572 -26.547  1.00  0.00    -0.292 OA
BRANCH  22  24
HETATM   24  C10 UNL     1     -10.617  47.062 -24.900  1.00  0.00     0.260 C 
BRANCH  24  25
HETATM   25  O3  UNL     1     -11.957  46.824 -24.482  1.00  0.00    -0.314 OA
BRANCH  25  26
HETATM   26  C9  UNL     1     -12.465  45.604 -24.803  1.00  0.00     0.259 C 
HETATM   27  O2  UNL     1     -12.135  44.551 -24.283  1.00  0.00    -0.265 OA
BRANCH  26  28
HETATM   28  C8  UNL     1     -13.487  45.749 -25.900  1.00  0.00     0.120 C 
BRANCH  28  29
HETATM   29  C7  UNL     1     -14.817  45.108 -25.511  1.00  0.00     0.112 C 
BRANCH  29  30
HETATM   30  C6  UNL     1     -15.717  46.099 -24.806  1.00  0.00     0.218 C 
HETATM   31  N1  UNL     1     -16.799  45.506 -24.186  1.00  0.00    -0.346 N 
HETATM   32  H11 UNL     1     -16.681  44.530 -23.935  1.00  0.00     0.163 HD
HETATM   33  O1  UNL     1     -15.511  47.305 -24.807  1.00  0.00    -0.274 OA
BRANCH  31  34
HETATM   34  C5  UNL     1     -17.692  46.276 -23.303  1.00  0.00     0.186 C 
BRANCH  34  35
HETATM   35  C3  UNL     1     -17.772  45.758 -21.836  1.00  0.00     0.014 C 
HETATM   36  C4  UNL     1     -18.652  46.685 -20.979  1.00  0.00     0.012 C 
BRANCH  35  37
HETATM   37  C2  UNL     1     -16.365  45.636 -21.195  1.00  0.00     0.002 C 
HETATM   38  C1  UNL     1     -15.612  46.960 -21.089  1.00  0.00     0.005 C 
ENDBRANCH  35  37
ENDBRANCH  34  35
BRANCH  34  39
HETATM   39  C31 UNL     1     -19.067  46.462 -23.990  1.00  0.00     0.163 C 
HETATM   40  O8  UNL     1     -19.386  47.331 -24.786  1.00  0.00    -0.648 OA
BRANCH  39  41
HETATM   41  O9  UNL     1     -19.946  45.458 -23.741  1.00  0.00    -0.775 OA
HETATM   42  H43 UNL     1     -20.741  45.729 -24.250  1.00  0.00     0.167 HD
ENDBRANCH  39  41
ENDBRANCH  34  39
ENDBRANCH  31  34
ENDBRANCH  29  30
ENDBRANCH  28  29
ENDBRANCH  26  28
ENDBRANCH  25  26
ENDBRANCH  24  25
ENDBRANCH  22  24
ENDBRANCH   1  22
BRANCH   1  43
HETATM   43  O5  UNL     1      -9.077  49.607 -27.080  1.00  0.00    -0.381 OA
HETATM   44  H18 UNL     1      -9.991  49.963 -27.078  1.00  0.00     0.211 HD
ENDBRANCH   1  43
TORSDOF 13
ENDMDL
MODEL 4
REMARK minimizedAffinity -7.90377998
REMARK CNNscore 0.37144509
REMARK CNNaffinity 6.48818445
REMARK  13 active torsions:
REMARK  status: ('A' for Active; 'I' for Inactive)
REMARK    1  A    between atoms: C2_2  and  C3_3 
REMARK    2  A    between atoms: C3_3  and  C5_5 
REMARK    3  A    between atoms: C5_5  and  N1_6 
REMARK    4  A    between atoms: C5_5  and  C31_39 
REMARK       I    between atoms: N1_6  and  C6_7 
REMARK    5  A    between atoms: C6_7  and  C7_9 
REMARK    6  A    between atoms: C7_9  and  C8_10 
REMARK    7  A    between atoms: C8_10  and  C9_11 
REMARK    8  A    between atoms: C9_11  and  O3_13 
REMARK    9  A    between atoms: O3_13  and  C10_14 
REMARK   10  A    between atoms: C10_14  and  C11_15 
REMARK   11  A    between atoms: C11_15  and  C12_17 
REMARK   12  A    between atoms: C12_17  and  O5_18 
REMARK   13  A    between atoms: C31_39  and  O9_41 
ROOT
HETATM    1  C12 UNL     1      -2.249  48.257 -19.539  1.00  0.00     0.128 C 
HETATM    2  C13 UNL     1      -3.435  47.395 -20.025  1.00  0.00     0.047 C 
HETATM    3  C14 UNL     1      -3.655  47.751 -21.514  1.00  0.00     0.009 C 
HETATM    4  C15 UNL     1      -2.523  48.721 -21.852  1.00  0.00     0.002 C 
HETATM    5  C16 UNL     1      -2.689  49.656 -23.061  1.00  0.00     0.003 C 
HETATM    6  C17 UNL     1      -2.962  48.860 -24.345  1.00  0.00     0.010 C 
HETATM    7  C18 UNL     1      -3.042  49.775 -25.560  1.00  0.00     0.035 C 
HETATM    8  C19 UNL     1      -1.808  50.632 -25.698  1.00  0.00    -0.067 C 
HETATM    9  C20 UNL     1      -1.125  50.640 -26.855  1.00  0.00     0.053 C 
HETATM   10  C21 UNL     1       0.037  51.535 -27.063  1.00  0.00     0.149 C 
HETATM   11  O6  UNL     1       0.736  51.400 -28.061  1.00  0.00    -0.293 OA
HETATM   12  C22 UNL     1       0.270  52.615 -26.043  1.00  0.00     0.084 C 
HETATM   13  C23 UNL     1       0.017  52.058 -24.650  1.00  0.00     0.022 C 
HETATM   14  C24 UNL     1      -1.412  51.462 -24.462  1.00  0.00    -0.009 C 
HETATM   15  C25 UNL     1      -2.433  52.616 -24.326  1.00  0.00     0.021 C 
HETATM   16  C26 UNL     1      -1.392  50.505 -23.219  1.00  0.00     0.072 C 
HETATM   17  C27 UNL     1      -1.056  51.173 -21.871  1.00  0.00     0.133 C 
HETATM   18  O7  UNL     1      -0.870  52.379 -21.732  1.00  0.00    -0.297 OA
HETATM   19  C28 UNL     1      -0.946  50.238 -20.673  1.00  0.00     0.091 C 
HETATM   20  C29 UNL     1      -2.266  49.468 -20.518  1.00  0.00     0.005 C 
HETATM   21  C30 UNL     1      -3.393  50.467 -20.147  1.00  0.00     0.019 C 
ENDROOT
BRANCH   1  22
HETATM   22  C11 UNL     1      -2.206  48.642 -18.048  1.00  0.00     0.185 C 
HETATM   23  O4  UNL     1      -3.234  48.503 -17.372  1.00  0.00    -0.292 OA
BRANCH  22  24
HETATM   24  C10 UNL     1      -0.924  49.177 -17.433  1.00  0.00     0.260 C 
BRANCH  24  25
HETATM   25  O3  UNL     1      -1.146  50.200 -16.468  1.00  0.00    -0.314 OA
BRANCH  25  26
HETATM   26  C9  UNL     1      -0.617  49.971 -15.235  1.00  0.00     0.259 C 
HETATM   27  O2  UNL     1       0.428  49.378 -15.023  1.00  0.00    -0.265 OA
BRANCH  26  28
HETATM   28  C8  UNL     1      -1.518  50.551 -14.177  1.00  0.00     0.120 C 
BRANCH  28  29
HETATM   29  C7  UNL     1      -1.134  51.991 -13.847  1.00  0.00     0.112 C 
BRANCH  29  30
HETATM   30  C6  UNL     1      -0.490  52.086 -12.481  1.00  0.00     0.218 C 
HETATM   31  N1  UNL     1       0.539  53.006 -12.427  1.00  0.00    -0.346 N 
HETATM   32  H11 UNL     1       0.500  53.749 -13.117  1.00  0.00     0.163 HD
HETATM   33  O1  UNL     1      -0.838  51.399 -11.530  1.00  0.00    -0.274 OA
BRANCH  31  34
HETATM   34  C5  UNL     1       1.172  53.371 -11.148  1.00  0.00     0.186 C 
BRANCH  34  35
HETATM   35  C3  UNL     1       0.917  54.835 -10.682  1.00  0.00     0.014 C 
HETATM   36  C4  UNL     1       2.208  55.667 -10.767  1.00  0.00     0.012 C 
BRANCH  35  37
HETATM   37  C2  UNL     1       0.359  54.884  -9.235  1.00  0.00     0.002 C 
HETATM   38  C1  UNL     1       1.300  55.537  -8.227  1.00  0.00     0.005 C 
ENDBRANCH  35  37
ENDBRANCH  34  35
BRANCH  34  39
HETATM   39  C31 UNL     1       2.666  52.962 -11.174  1.00  0.00     0.163 C 
HETATM   40  O8  UNL     1       3.397  52.768 -10.216  1.00  0.00    -0.648 OA
BRANCH  39  41
HETATM   41  O9  UNL     1       3.139  52.687 -12.416  1.00  0.00    -0.775 OA
HETATM   42  H43 UNL     1       4.075  52.443 -12.247  1.00  0.00     0.167 HD
ENDBRANCH  39  41
ENDBRANCH  34  39
ENDBRANCH  31  34
ENDBRANCH  29  30
ENDBRANCH  28  29
ENDBRANCH  26  28
ENDBRANCH  25  26
ENDBRANCH  24  25
ENDBRANCH  22  24
ENDBRANCH   1  22
BRANCH   1  43
HETATM   43  O5  UNL     1      -1.053  47.488 -19.782  1.00  0.00    -0.381 OA
HETATM   44  H18 UNL     1      -0.408  47.718 -19.080  1.00  0.00     0.211 HD
ENDBRANCH   1  43
TORSDOF 13
ENDMDL
MODEL 5
REMARK minimizedAffinity -9.88086605
REMARK CNNscore 0.353887469
REMARK CNNaffinity 7.05204344
REMARK  13 active torsions:
REMARK  status: ('A' for Active; 'I' for Inactive)
REMARK    1  A    between atoms: C2_2  and  C3_3 
REMARK    2  A    between atoms: C3_3  and  C5_5 
REMARK    3  A    between atoms: C5_5  and  N1_6 
REMARK    4  A    between atoms: C5_5  and  C31_39 
REMARK       I    between atoms: N1_6  and  C6_7 
REMARK    5  A    between atoms: C6_7  and  C7_9 
REMARK    6  A    between atoms: C7_9  and  C8_10 
REMARK    7  A    between atoms: C8_10  and  C9_11 
REMARK    8  A    between atoms: C9_11  and  O3_13 
REMARK    9  A    between atoms: O3_13  and  C10_14 
REMARK   10  A    between atoms: C10_14  and  C11_15 
REMARK   11  A    between atoms: C11_15  and  C12_17 
REMARK   12  A    between atoms: C12_17  and  O5_18 
REMARK   13  A    between atoms: C31_39  and  O9_41 
ROOT
HETATM    1  C12 UNL     1      -1.623  49.953 -20.388  1.00  0.00     0.128 C 
HETATM    2  C13 UNL     1      -1.307  51.355 -20.954  1.00  0.00     0.047 C 
HETATM    3  C14 UNL     1      -0.383  52.046 -19.924  1.00  0.00     0.009 C 
HETATM    4  C15 UNL     1      -0.119  50.978 -18.863  1.00  0.00     0.002 C 
HETATM    5  C16 UNL     1       0.336  51.425 -17.464  1.00  0.00     0.003 C 
HETATM    6  C17 UNL     1       1.614  52.272 -17.539  1.00  0.00     0.010 C 
HETATM    7  C18 UNL     1       2.116  52.646 -16.151  1.00  0.00     0.035 C 
HETATM    8  C19 UNL     1       2.315  51.429 -15.281  1.00  0.00    -0.067 C 
HETATM    9  C20 UNL     1       3.497  51.225 -14.676  1.00  0.00     0.053 C 
HETATM   10  C21 UNL     1       3.706  50.094 -13.742  1.00  0.00     0.149 C 
HETATM   11  O6  UNL     1       4.835  49.840 -13.339  1.00  0.00    -0.293 OA
HETATM   12  C22 UNL     1       2.488  49.335 -13.292  1.00  0.00     0.084 C 
HETATM   13  C23 UNL     1       1.546  49.145 -14.472  1.00  0.00     0.022 C 
HETATM   14  C24 UNL     1       1.108  50.481 -15.147  1.00  0.00    -0.009 C 
HETATM   15  C25 UNL     1       0.058  51.184 -14.256  1.00  0.00     0.021 C 
HETATM   16  C26 UNL     1       0.579  50.159 -16.589  1.00  0.00     0.072 C 
HETATM   17  C27 UNL     1      -0.665  49.251 -16.653  1.00  0.00     0.133 C 
HETATM   18  O7  UNL     1      -1.263  48.838 -15.663  1.00  0.00    -0.297 OA
HETATM   19  C28 UNL     1      -1.133  48.860 -18.050  1.00  0.00     0.091 C 
HETATM   20  C29 UNL     1      -1.420  50.135 -18.856  1.00  0.00     0.005 C 
HETATM   21  C30 UNL     1      -2.626  50.874 -18.219  1.00  0.00     0.019 C 
ENDROOT
BRANCH   1  22
HETATM   22  C11 UNL     1      -2.964  49.306 -20.782  1.00  0.00     0.185 C 
HETATM   23  O4  UNL     1      -3.322  48.279 -20.189  1.00  0.00    -0.292 OA
BRANCH  22  24
HETATM   24  C10 UNL     1      -3.822  49.925 -21.873  1.00  0.00     0.260 C 
BRANCH  24  25
HETATM   25  O3  UNL     1      -4.325  48.972 -22.804  1.00  0.00    -0.314 OA
BRANCH  25  26
HETATM   26  C9  UNL     1      -4.387  49.389 -24.098  1.00  0.00     0.259 C 
HETATM   27  O2  UNL     1      -5.049  50.332 -24.496  1.00  0.00    -0.265 OA
BRANCH  26  28
HETATM   28  C8  UNL     1      -3.522  48.508 -24.960  1.00  0.00     0.120 C 
BRANCH  28  29
HETATM   29  C7  UNL     1      -4.019  48.481 -26.403  1.00  0.00     0.112 C 
BRANCH  29  30
HETATM   30  C6  UNL     1      -3.315  49.524 -27.244  1.00  0.00     0.218 C 
HETATM   31  N1  UNL     1      -2.427  50.295 -26.521  1.00  0.00    -0.346 N 
HETATM   32  H11 UNL     1      -2.060  49.869 -25.677  1.00  0.00     0.163 HD
HETATM   33  O1  UNL     1      -3.531  49.676 -28.438  1.00  0.00    -0.274 OA
BRANCH  31  34
HETATM   34  C5  UNL     1      -1.518  51.244 -27.188  1.00  0.00     0.186 C 
BRANCH  34  35
HETATM   35  C3  UNL     1      -0.022  51.128 -26.768  1.00  0.00     0.014 C 
HETATM   36  C4  UNL     1       0.223  51.838 -25.426  1.00  0.00     0.012 C 
BRANCH  35  37
HETATM   37  C2  UNL     1       0.921  51.718 -27.850  1.00  0.00     0.002 C 
HETATM   38  C1  UNL     1       2.402  51.660 -27.484  1.00  0.00     0.005 C 
ENDBRANCH  35  37
ENDBRANCH  34  35
BRANCH  34  39
HETATM   39  C31 UNL     1      -2.099  52.676 -27.088  1.00  0.00     0.163 C 
HETATM   40  O8  UNL     1      -1.864  53.623 -27.824  1.00  0.00    -0.648 OA
BRANCH  39  41
HETATM   41  O9  UNL     1      -3.056  52.816 -26.138  1.00  0.00    -0.775 OA
HETATM   42  H43 UNL     1      -3.312  53.761 -26.218  1.00  0.00     0.167 HD
ENDBRANCH  39  41
ENDBRANCH  34  39
ENDBRANCH  31  34
ENDBRANCH  29  30
ENDBRANCH  28  29
ENDBRANCH  26  28
ENDBRANCH  25  26
ENDBRANCH  24  25
ENDBRANCH  22  24
ENDBRANCH   1  22
BRANCH   1  43
HETATM   43  O5  UNL     1      -0.598  49.067 -20.884  1.00  0.00    -0.381 OA
HETATM   44  H18 UNL     1      -1.005  48.182 -20.999  1.00  0.00     0.211 HD
ENDBRANCH   1  43
TORSDOF 13
ENDMDL
MODEL 6
REMARK minimizedAffinity -7.95270967
REMARK CNNscore 0.349349558
REMARK CNNaffinity 6.62654829
REMARK  13 active torsions:
REMARK  status: ('A' for Active; 'I' for Inactive)
REMARK    1  A    between atoms: C2_2  and  C3_3 
REMARK    2  A    between atoms: C3_3  and  C5_5 
REMARK    3  A    between atoms: C5_5  and  N1_6 
REMARK    4  A    between atoms: C5_5  and  C31_39 
REMARK       I    between atoms: N1_6  and  C6_7 
REMARK    5  A    between atoms: C6_7  and  C7_9 
REMARK    6  A    between atoms: C7_9  and  C8_10 
REMARK    7  A    between atoms: C8_10  and  C9_11 
REMARK    8  A    between atoms: C9_11  and  O3_13 
REMARK    9  A    between atoms: O3_13  and  C10_14 
REMARK   10  A    between atoms: C10_14  and  C11_15 
REMARK   11  A    between atoms: C11_15  and  C12_17 
REMARK   12  A    between atoms: C12_17  and  O5_18 
REMARK   13  A    between atoms: C31_39  and  O9_41 
ROOT
HETATM    1  C12 UNL     1      -2.261  49.346 -18.671  1.00  0.00     0.128 C 
HETATM    2  C13 UNL     1      -3.569  48.668 -18.208  1.00  0.00     0.047 C 
HETATM    3  C14 UNL     1      -4.422  48.446 -19.479  1.00  0.00     0.009 C 
HETATM    4  C15 UNL     1      -3.529  48.906 -20.631  1.00  0.00     0.002 C 
HETATM    5  C16 UNL     1      -4.186  49.296 -21.965  1.00  0.00     0.003 C 
HETATM    6  C17 UNL     1      -5.036  48.146 -22.522  1.00  0.00     0.010 C 
HETATM    7  C18 UNL     1      -5.621  48.495 -23.884  1.00  0.00     0.035 C 
HETATM    8  C19 UNL     1      -4.550  48.911 -24.863  1.00  0.00    -0.067 C 
HETATM    9  C20 UNL     1      -4.460  48.298 -26.056  1.00  0.00     0.053 C 
HETATM   10  C21 UNL     1      -3.484  48.736 -27.081  1.00  0.00     0.149 C 
HETATM   11  O6  UNL     1      -3.313  48.057 -28.086  1.00  0.00    -0.293 OA
HETATM   12  C22 UNL     1      -2.778  50.044 -26.850  1.00  0.00     0.084 C 
HETATM   13  C23 UNL     1      -2.397  50.160 -25.381  1.00  0.00     0.022 C 
HETATM   14  C24 UNL     1      -3.610  50.043 -24.407  1.00  0.00    -0.009 C 
HETATM   15  C25 UNL     1      -4.418  51.362 -24.436  1.00  0.00     0.021 C 
HETATM   16  C26 UNL     1      -3.068  49.681 -22.980  1.00  0.00     0.072 C 
HETATM   17  C27 UNL     1      -2.138  50.729 -22.337  1.00  0.00     0.133 C 
HETATM   18  O7  UNL     1      -1.865  51.810 -22.851  1.00  0.00    -0.297 OA
HETATM   19  C28 UNL     1      -1.536  50.347 -20.990  1.00  0.00     0.091 C 
HETATM   20  C29 UNL     1      -2.671  50.036 -20.005  1.00  0.00     0.005 C 
HETATM   21  C30 UNL     1      -3.474  51.335 -19.733  1.00  0.00     0.019 C 
ENDROOT
BRANCH   1  22
HETATM   22  C11 UNL     1      -1.538  50.267 -17.671  1.00  0.00     0.185 C 
HETATM   23  O4  UNL     1      -2.207  51.101 -17.046  1.00  0.00    -0.292 OA
BRANCH  22  24
HETATM   24  C10 UNL     1      -0.038  50.144 -17.463  1.00  0.00     0.260 C 
BRANCH  24  25
HETATM   25  O3  UNL     1       0.322  49.123 -16.539  1.00  0.00    -0.314 OA
BRANCH  25  26
HETATM   26  C9  UNL     1       0.276  49.476 -15.226  1.00  0.00     0.259 C 
HETATM   27  O2  UNL     1      -0.378  48.902 -14.371  1.00  0.00    -0.265 OA
BRANCH  26  28
HETATM   28  C8  UNL     1       1.145  50.683 -14.991  1.00  0.00     0.120 C 
BRANCH  28  29
HETATM   29  C7  UNL     1       0.321  51.882 -14.528  1.00  0.00     0.112 C 
BRANCH  29  30
HETATM   30  C6  UNL     1       0.060  51.824 -13.039  1.00  0.00     0.218 C 
HETATM   31  N1  UNL     1      -1.035  52.572 -12.650  1.00  0.00    -0.346 N 
HETATM   32  H11 UNL     1      -1.732  52.735 -13.368  1.00  0.00     0.163 HD
HETATM   33  O1  UNL     1       0.764  51.194 -12.262  1.00  0.00    -0.274 OA
BRANCH  31  34
HETATM   34  C5  UNL     1      -1.557  52.504 -11.274  1.00  0.00     0.186 C 
BRANCH  34  35
HETATM   35  C3  UNL     1      -3.105  52.377 -11.164  1.00  0.00     0.014 C 
HETATM   36  C4  UNL     1      -3.746  53.749 -10.894  1.00  0.00     0.012 C 
BRANCH  35  37
HETATM   37  C2  UNL     1      -3.518  51.381 -10.048  1.00  0.00     0.002 C 
HETATM   38  C1  UNL     1      -4.847  50.676 -10.302  1.00  0.00     0.005 C 
ENDBRANCH  35  37
ENDBRANCH  34  35
BRANCH  34  39
HETATM   39  C31 UNL     1      -0.950  53.654 -10.433  1.00  0.00     0.163 C 
HETATM   40  O8  UNL     1      -0.570  54.744 -10.833  1.00  0.00    -0.648 OA
BRANCH  39  41
HETATM   41  O9  UNL     1      -0.971  53.427  -9.095  1.00  0.00    -0.775 OA
HETATM   42  H43 UNL     1      -0.566  54.242  -8.726  1.00  0.00     0.167 HD
ENDBRANCH  39  41
ENDBRANCH  34  39
ENDBRANCH  31  34
ENDBRANCH  29  30
ENDBRANCH  28  29
ENDBRANCH  26  28
ENDBRANCH  25  26
ENDBRANCH  24  25
ENDBRANCH  22  24
ENDBRANCH   1  22
BRANCH   1  43
HETATM   43  O5  UNL     1      -1.330  48.285 -18.973  1.00  0.00    -0.381 OA
HETATM   44  H18 UNL     1      -0.431  48.615 -18.764  1.00  0.00     0.211 HD
ENDBRANCH   1  43
TORSDOF 13
ENDMDL
MODEL 7
REMARK minimizedAffinity -8.38299656
REMARK CNNscore 0.346420199
REMARK CNNaffinity 6.32194757
REMARK  13 active torsions:
REMARK  status: ('A' for Active; 'I' for Inactive)
REMARK    1  A    between atoms: C2_2  and  C3_3 
REMARK    2  A    between atoms: C3_3  and  C5_5 
REMARK    3  A    between atoms: C5_5  and  N1_6 
REMARK    4  A    between atoms: C5_5  and  C31_39 
REMARK       I    between atoms: N1_6  and  C6_7 
REMARK    5  A    between atoms: C6_7  and  C7_9 
REMARK    6  A    between atoms: C7_9  and  C8_10 
REMARK    7  A    between atoms: C8_10  and  C9_11 
REMARK    8  A    between atoms: C9_11  and  O3_13 
REMARK    9  A    between atoms: O3_13  and  C10_14 
REMARK   10  A    between atoms: C10_14  and  C11_15 
REMARK   11  A    between atoms: C11_15  and  C12_17 
REMARK   12  A    between atoms: C12_17  and  O5_18 
REMARK   13  A    between atoms: C31_39  and  O9_41 
ROOT
HETATM    1  C12 UNL     1      -1.783  49.612 -21.022  1.00  0.00     0.128 C 
HETATM    2  C13 UNL     1      -1.555  51.033 -21.582  1.00  0.00     0.047 C 
HETATM    3  C14 UNL     1      -0.771  51.811 -20.500  1.00  0.00     0.009 C 
HETATM    4  C15 UNL     1      -0.487  50.778 -19.410  1.00  0.00     0.002 C 
HETATM    5  C16 UNL     1      -0.173  51.273 -17.988  1.00  0.00     0.003 C 
HETATM    6  C17 UNL     1       1.027  52.231 -17.986  1.00  0.00     0.010 C 
HETATM    7  C18 UNL     1       1.395  52.658 -16.571  1.00  0.00     0.035 C 
HETATM    8  C19 UNL     1       1.641  51.469 -15.674  1.00  0.00    -0.067 C 
HETATM    9  C20 UNL     1       2.792  51.377 -14.986  1.00  0.00     0.053 C 
HETATM   10  C21 UNL     1       3.035  50.276 -14.026  1.00  0.00     0.149 C 
HETATM   11  O6  UNL     1       4.151  50.126 -13.543  1.00  0.00    -0.293 OA
HETATM   12  C22 UNL     1       1.861  49.413 -13.651  1.00  0.00     0.084 C 
HETATM   13  C23 UNL     1       1.025  49.131 -14.891  1.00  0.00     0.022 C 
HETATM   14  C24 UNL     1       0.518  50.417 -15.612  1.00  0.00    -0.009 C 
HETATM   15  C25 UNL     1      -0.651  51.029 -14.804  1.00  0.00     0.021 C 
HETATM   16  C26 UNL     1       0.122  50.040 -17.082  1.00  0.00     0.072 C 
HETATM   17  C27 UNL     1      -1.029  49.023 -17.220  1.00  0.00     0.133 C 
HETATM   18  O7  UNL     1      -1.655  48.564 -16.269  1.00  0.00    -0.297 OA
HETATM   19  C28 UNL     1      -1.362  48.582 -18.641  1.00  0.00     0.091 C 
HETATM   20  C29 UNL     1      -1.704  49.821 -19.481  1.00  0.00     0.005 C 
HETATM   21  C30 UNL     1      -3.013  50.453 -18.939  1.00  0.00     0.019 C 
ENDROOT
BRANCH   1  22
HETATM   22  C11 UNL     1      -3.030  48.844 -21.499  1.00  0.00     0.185 C 
HETATM   23  O4  UNL     1      -4.005  48.770 -20.739  1.00  0.00    -0.292 OA
BRANCH  22  24
HETATM   24  C10 UNL     1      -3.052  48.200 -22.875  1.00  0.00     0.260 C 
BRANCH  24  25
HETATM   25  O3  UNL     1      -3.851  48.909 -23.817  1.00  0.00    -0.314 OA
BRANCH  25  26
HETATM   26  C9  UNL     1      -3.553  48.687 -25.126  1.00  0.00     0.259 C 
HETATM   27  O2  UNL     1      -2.433  48.734 -25.604  1.00  0.00    -0.265 OA
BRANCH  26  28
HETATM   28  C8  UNL     1      -4.814  48.382 -25.891  1.00  0.00     0.120 C 
BRANCH  28  29
HETATM   29  C7  UNL     1      -4.543  48.274 -27.390  1.00  0.00     0.112 C 
BRANCH  29  30
HETATM   30  C6  UNL     1      -5.790  47.864 -28.142  1.00  0.00     0.218 C 
HETATM   31  N1  UNL     1      -5.997  48.599 -29.293  1.00  0.00    -0.346 N 
HETATM   32  H11 UNL     1      -5.169  49.017 -29.702  1.00  0.00     0.163 HD
HETATM   33  O1  UNL     1      -6.545  46.982 -27.754  1.00  0.00    -0.274 OA
BRANCH  31  34
HETATM   34  C5  UNL     1      -7.055  48.237 -30.252  1.00  0.00     0.186 C 
BRANCH  34  35
HETATM   35  C3  UNL     1      -6.552  47.891 -31.686  1.00  0.00     0.014 C 
HETATM   36  C4  UNL     1      -7.531  46.936 -32.390  1.00  0.00     0.012 C 
BRANCH  35  37
HETATM   37  C2  UNL     1      -5.136  47.258 -31.656  1.00  0.00     0.002 C 
HETATM   38  C1  UNL     1      -5.132  45.736 -31.767  1.00  0.00     0.005 C 
ENDBRANCH  35  37
ENDBRANCH  34  35
BRANCH  34  39
HETATM   39  C31 UNL     1      -8.179  49.301 -30.211  1.00  0.00     0.163 C 
HETATM   40  O8  UNL     1      -8.636  49.933 -31.151  1.00  0.00    -0.648 OA
BRANCH  39  41
HETATM   41  O9  UNL     1      -8.771  49.428 -28.996  1.00  0.00    -0.775 OA
HETATM   42  H43 UNL     1      -9.449  50.122 -29.152  1.00  0.00     0.167 HD
ENDBRANCH  39  41
ENDBRANCH  34  39
ENDBRANCH  31  34
ENDBRANCH  29  30
ENDBRANCH  28  29
ENDBRANCH  26  28
ENDBRANCH  25  26
ENDBRANCH  24  25
ENDBRANCH  22  24
ENDBRANCH   1  22
BRANCH   1  43
HETATM   43  O5  UNL     1      -0.651  48.819 -21.434  1.00  0.00    -0.381 OA
HETATM   44  H18 UNL     1      -0.967  47.900 -21.566  1.00  0.00     0.211 HD
ENDBRANCH   1  43
TORSDOF 13
ENDMDL
MODEL 8
REMARK minimizedAffinity -9.04549599
REMARK CNNscore 0.342528611
REMARK CNNaffinity 6.16072702
REMARK  13 active torsions:
REMARK  status: ('A' for Active; 'I' for Inactive)
REMARK    1  A    between atoms: C2_2  and  C3_3 
REMARK    2  A    between atoms: C3_3  and  C5_5 
REMARK    3  A    between atoms: C5_5  and  N1_6 
REMARK    4  A    between atoms: C5_5  and  C31_39 
REMARK       I    between atoms: N1_6  and  C6_7 
REMARK    5  A    between atoms: C6_7  and  C7_9 
REMARK    6  A    between atoms: C7_9  and  C8_10 
REMARK    7  A    between atoms: C8_10  and  C9_11 
REMARK    8  A    between atoms: C9_11  and  O3_13 
REMARK    9  A    between atoms: O3_13  and  C10_14 
REMARK   10  A    between atoms: C10_14  and  C11_15 
REMARK   11  A    between atoms: C11_15  and  C12_17 
REMARK   12  A    between atoms: C12_17  and  O5_18 
REMARK   13  A    between atoms: C31_39  and  O9_41 
ROOT
HETATM    1  C12 UNL     1      -6.493  49.717 -22.538  1.00  0.00     0.128 C 
HETATM    2  C13 UNL     1      -7.076  49.644 -21.110  1.00  0.00     0.047 C 
HETATM    3  C14 UNL     1      -5.944  50.079 -20.151  1.00  0.00     0.009 C 
HETATM    4  C15 UNL     1      -4.792  50.485 -21.069  1.00  0.00     0.002 C 
HETATM    5  C16 UNL     1      -3.364  50.500 -20.501  1.00  0.00     0.003 C 
HETATM    6  C17 UNL     1      -3.266  51.412 -19.270  1.00  0.00     0.010 C 
HETATM    7  C18 UNL     1      -1.836  51.497 -18.753  1.00  0.00     0.035 C 
HETATM    8  C19 UNL     1      -0.875  51.929 -19.834  1.00  0.00    -0.067 C 
HETATM    9  C20 UNL     1      -0.062  52.979 -19.627  1.00  0.00     0.053 C 
HETATM   10  C21 UNL     1       0.958  53.379 -20.623  1.00  0.00     0.149 C 
HETATM   11  O6  UNL     1       1.565  54.434 -20.481  1.00  0.00    -0.293 OA
HETATM   12  C22 UNL     1       1.233  52.425 -21.753  1.00  0.00     0.084 C 
HETATM   13  C23 UNL     1      -0.079  51.833 -22.246  1.00  0.00     0.022 C 
HETATM   14  C24 UNL     1      -0.897  51.106 -21.136  1.00  0.00    -0.009 C 
HETATM   15  C25 UNL     1      -0.244  49.736 -20.834  1.00  0.00     0.021 C 
HETATM   16  C26 UNL     1      -2.387  50.988 -21.612  1.00  0.00     0.072 C 
HETATM   17  C27 UNL     1      -2.613  50.153 -22.888  1.00  0.00     0.133 C 
HETATM   18  O7  UNL     1      -1.720  49.557 -23.484  1.00  0.00    -0.297 OA
HETATM   19  C28 UNL     1      -4.045  50.107 -23.410  1.00  0.00     0.091 C 
HETATM   20  C29 UNL     1      -4.961  49.563 -22.305  1.00  0.00     0.005 C 
HETATM   21  C30 UNL     1      -4.588  48.085 -22.021  1.00  0.00     0.019 C 
ENDROOT
BRANCH   1  22
HETATM   22  C11 UNL     1      -7.075  48.766 -23.600  1.00  0.00     0.185 C 
HETATM   23  O4  UNL     1      -6.414  47.771 -23.929  1.00  0.00    -0.292 OA
BRANCH  22  24
HETATM   24  C10 UNL     1      -8.432  49.050 -24.222  1.00  0.00     0.260 C 
BRANCH  24  25
HETATM   25  O3  UNL     1      -9.090  47.881 -24.699  1.00  0.00    -0.314 OA
BRANCH  25  26
HETATM   26  C9  UNL     1      -9.676  47.994 -25.922  1.00  0.00     0.259 C 
HETATM   27  O2  UNL     1     -10.583  48.762 -26.193  1.00  0.00    -0.265 OA
BRANCH  26  28
HETATM   28  C8  UNL     1      -9.042  47.024 -26.883  1.00  0.00     0.120 C 
BRANCH  28  29
HETATM   29  C7  UNL     1      -7.660  47.500 -27.324  1.00  0.00     0.112 C 
BRANCH  29  30
HETATM   30  C6  UNL     1      -7.708  48.110 -28.708  1.00  0.00     0.218 C 
HETATM   31  N1  UNL     1      -6.627  47.760 -29.494  1.00  0.00    -0.346 N 
HETATM   32  H11 UNL     1      -6.167  46.891 -29.245  1.00  0.00     0.163 HD
HETATM   33  O1  UNL     1      -8.605  48.855 -29.078  1.00  0.00    -0.274 OA
BRANCH  31  34
HETATM   34  C5  UNL     1      -6.578  48.107 -30.925  1.00  0.00     0.186 C 
BRANCH  34  35
HETATM   35  C3  UNL     1      -7.117  47.008 -31.887  1.00  0.00     0.014 C 
HETATM   36  C4  UNL     1      -5.958  46.189 -32.481  1.00  0.00     0.012 C 
BRANCH  35  37
HETATM   37  C2  UNL     1      -7.964  47.619 -33.034  1.00  0.00     0.002 C 
HETATM   38  C1  UNL     1      -7.321  47.506 -34.413  1.00  0.00     0.005 C 
ENDBRANCH  35  37
ENDBRANCH  34  35
BRANCH  34  39
HETATM   39  C31 UNL     1      -5.165  48.631 -31.283  1.00  0.00     0.163 C 
HETATM   40  O8  UNL     1      -4.567  48.486 -32.337  1.00  0.00    -0.648 OA
BRANCH  39  41
HETATM   41  O9  UNL     1      -4.620  49.432 -30.333  1.00  0.00    -0.775 OA
HETATM   42  H43 UNL     1      -3.750  49.674 -30.721  1.00  0.00     0.167 HD
ENDBRANCH  39  41
ENDBRANCH  34  39
ENDBRANCH  31  34
ENDBRANCH  29  30
ENDBRANCH  28  29
ENDBRANCH  26  28
ENDBRANCH  25  26
ENDBRANCH  24  25
ENDBRANCH  22  24
ENDBRANCH   1  22
BRANCH   1  43
HETATM   43  O5  UNL     1      -6.751  51.052 -23.022  1.00  0.00    -0.381 OA
HETATM   44  H18 UNL     1      -6.882  50.993 -23.992  1.00  0.00     0.211 HD
ENDBRANCH   1  43
TORSDOF 13
ENDMDL
MODEL 9
REMARK minimizedAffinity -7.69938993
REMARK CNNscore 0.340387404
REMARK CNNaffinity 5.82821131
REMARK  13 active torsions:
REMARK  status: ('A' for Active; 'I' for Inactive)
REMARK    1  A    between atoms: C2_2  and  C3_3 
REMARK    2  A    between atoms: C3_3  and  C5_5 
REMARK    3  A    between atoms: C5_5  and  N1_6 
REMARK    4  A    between atoms: C5_5  and  C31_39 
REMARK       I    between atoms: N1_6  and  C6_7 
REMARK    5  A    between atoms: C6_7  and  C7_9 
REMARK    6  A    between atoms: C7_9  and  C8_10 
REMARK    7  A    between atoms: C8_10  and  C9_11 
REMARK    8  A    between atoms: C9_11  and  O3_13 
REMARK    9  A    between atoms: O3_13  and  C10_14 
REMARK   10  A    between atoms: C10_14  and  C11_15 
REMARK   11  A    between atoms: C11_15  and  C12_17 
REMARK   12  A    between atoms: C12_17  and  O5_18 
REMARK   13  A    between atoms: C31_39  and  O9_41 
ROOT
HETATM    1  C12 UNL     1      -9.436  48.165 -26.846  1.00  0.00     0.128 C 
HETATM    2  C13 UNL     1      -8.188  47.719 -26.052  1.00  0.00     0.047 C 
HETATM    3  C14 UNL     1      -7.126  47.306 -27.098  1.00  0.00     0.009 C 
HETATM    4  C15 UNL     1      -7.765  47.631 -28.448  1.00  0.00     0.002 C 
HETATM    5  C16 UNL     1      -7.235  46.920 -29.704  1.00  0.00     0.003 C 
HETATM    6  C17 UNL     1      -5.729  47.155 -29.881  1.00  0.00     0.010 C 
HETATM    7  C18 UNL     1      -5.215  46.525 -31.169  1.00  0.00     0.035 C 
HETATM    8  C19 UNL     1      -5.990  47.002 -32.374  1.00  0.00    -0.067 C 
HETATM    9  C20 UNL     1      -5.337  47.527 -33.424  1.00  0.00     0.053 C 
HETATM   10  C21 UNL     1      -6.050  47.922 -34.661  1.00  0.00     0.149 C 
HETATM   11  O6  UNL     1      -5.455  48.547 -35.531  1.00  0.00    -0.293 OA
HETATM   12  C22 UNL     1      -7.481  47.482 -34.806  1.00  0.00     0.084 C 
HETATM   13  C23 UNL     1      -8.194  47.634 -33.471  1.00  0.00     0.022 C 
HETATM   14  C24 UNL     1      -7.521  46.846 -32.306  1.00  0.00    -0.009 C 
HETATM   15  C25 UNL     1      -7.844  45.340 -32.454  1.00  0.00     0.021 C 
HETATM   16  C26 UNL     1      -8.013  47.453 -30.945  1.00  0.00     0.072 C 
HETATM   17  C27 UNL     1      -9.528  47.345 -30.679  1.00  0.00     0.133 C 
HETATM   18  O7  UNL     1     -10.316  46.779 -31.429  1.00  0.00    -0.297 OA
HETATM   19  C28 UNL     1     -10.028  48.011 -29.402  1.00  0.00     0.091 C 
HETATM   20  C29 UNL     1      -9.280  47.414 -28.201  1.00  0.00     0.005 C 
HETATM   21  C30 UNL     1      -9.670  45.920 -28.056  1.00  0.00     0.019 C 
ENDROOT
BRANCH   1  22
HETATM   22  C11 UNL     1     -10.811  47.995 -26.176  1.00  0.00     0.185 C 
HETATM   23  O4  UNL     1     -11.757  48.684 -26.583  1.00  0.00    -0.292 OA
BRANCH  22  24
HETATM   24  C10 UNL     1     -10.994  46.997 -25.044  1.00  0.00     0.260 C 
BRANCH  24  25
HETATM   25  O3  UNL     1     -12.221  46.279 -25.118  1.00  0.00    -0.314 OA
BRANCH  25  26
HETATM   26  C9  UNL     1     -13.192  46.685 -24.255  1.00  0.00     0.259 C 
HETATM   27  O2  UNL     1     -12.990  47.167 -23.153  1.00  0.00    -0.265 OA
BRANCH  26  28
HETATM   28  C8  UNL     1     -14.549  46.442 -24.862  1.00  0.00     0.120 C 
BRANCH  28  29
HETATM   29  C7  UNL     1     -15.617  47.314 -24.207  1.00  0.00     0.112 C 
BRANCH  29  30
HETATM   30  C6  UNL     1     -16.388  46.541 -23.160  1.00  0.00     0.218 C 
HETATM   31  N1  UNL     1     -15.929  46.759 -21.876  1.00  0.00    -0.346 N 
HETATM   32  H11 UNL     1     -15.445  47.637 -21.726  1.00  0.00     0.163 HD
HETATM   33  O1  UNL     1     -17.309  45.784 -23.434  1.00  0.00    -0.274 OA
BRANCH  31  34
HETATM   34  C5  UNL     1     -16.657  46.238 -20.705  1.00  0.00     0.186 C 
BRANCH  34  35
HETATM   35  C3  UNL     1     -18.151  46.669 -20.613  1.00  0.00     0.014 C 
HETATM   36  C4  UNL     1     -18.365  47.643 -19.442  1.00  0.00     0.012 C 
BRANCH  35  37
HETATM   37  C2  UNL     1     -19.089  45.444 -20.451  1.00  0.00     0.002 C 
HETATM   38  C1  UNL     1     -19.192  44.923 -19.021  1.00  0.00     0.005 C 
ENDBRANCH  35  37
ENDBRANCH  34  35
BRANCH  34  39
HETATM   39  C31 UNL     1     -15.834  46.511 -19.421  1.00  0.00     0.163 C 
HETATM   40  O8  UNL     1     -15.670  45.757 -18.474  1.00  0.00    -0.648 OA
BRANCH  39  41
HETATM   41  O9  UNL     1     -15.145  47.678 -19.448  1.00  0.00    -0.775 OA
HETATM   42  H43 UNL     1     -14.685  47.684 -18.579  1.00  0.00     0.167 HD
ENDBRANCH  39  41
ENDBRANCH  34  39
ENDBRANCH  31  34
ENDBRANCH  29  30
ENDBRANCH  28  29
ENDBRANCH  26  28
ENDBRANCH  25  26
ENDBRANCH  24  25
ENDBRANCH  22  24
ENDBRANCH   1  22
BRANCH   1  43
HETATM   43  O5  UNL     1      -9.288  49.580 -27.088  1.00  0.00    -0.381 OA
HETATM   44  H18 UNL     1     -10.186  49.972 -27.099  1.00  0.00     0.211 HD
ENDBRANCH   1  43
TORSDOF 13
ENDMDL
