MODEL 1
REMARK minimizedAffinity -9.6651001
REMARK  7 active torsions:
REMARK  status: ('A' for Active; 'I' for Inactive)
REMARK    1  A    between atoms: C2_2  and  C30_33 
REMARK    2  A    between atoms: C3_3  and  C4_4 
REMARK    3  A    between atoms: C4_4  and  C5_5 
REMARK    4  A    between atoms: C5_5  and  C6_6 
REMARK    5  A    between atoms: C6_6  and  C8_8 
REMARK    6  A    between atoms: C15_15  and  O1_16 
REMARK    7  A    between atoms: C30_33  and  O5_35 
ROOT
HETATM    1  C8  UNL     1      -2.134   5.959  13.393  1.00  0.00    -0.002 C 
HETATM    2  C9  UNL     1      -2.279   5.349  11.981  1.00  0.00     0.007 C 
HETATM    3  C10 UNL     1      -0.890   5.461  11.307  1.00  0.00     0.015 C 
HETATM    4  C11 UNL     1       0.095   5.781  12.454  1.00  0.00    -0.005 C 
HETATM    5  C12 UNL     1       0.457   4.425  13.136  1.00  0.00     0.021 C 
HETATM    6  C13 UNL     1       1.446   6.437  12.188  1.00  0.00     0.002 C 
HETATM    7  C14 UNL     1       2.021   7.268  13.106  1.00  0.00    -0.032 C 
HETATM    8  C15 UNL     1       1.320   7.580  14.430  1.00  0.00     0.149 C 
HETATM    9  C16 UNL     1      -0.107   7.020  14.637  1.00  0.00     0.047 C 
HETATM   10  C17 UNL     1      -0.808   6.765  13.303  1.00  0.00    -0.026 C 
HETATM   11  C18 UNL     1      -1.029   8.132  12.591  1.00  0.00     0.016 C 
HETATM   12  C19 UNL     1       3.343   8.017  12.777  1.00  0.00    -0.012 C 
HETATM   13  C20 UNL     1       2.912   9.230  11.908  1.00  0.00     0.021 C 
HETATM   14  C21 UNL     1       4.147   8.609  13.975  1.00  0.00     0.021 C 
HETATM   15  C22 UNL     1       5.214   7.668  14.510  1.00  0.00     0.080 C 
HETATM   16  C23 UNL     1       6.259   7.448  13.435  1.00  0.00     0.135 C 
HETATM   17  O2  UNL     1       7.456   7.416  13.725  1.00  0.00    -0.297 OA
HETATM   18  C24 UNL     1       5.764   7.254  11.988  1.00  0.00     0.018 C 
HETATM   19  C25 UNL     1       6.151   8.497  11.179  1.00  0.00     0.023 C 
HETATM   20  C26 UNL     1       6.525   6.043  11.405  1.00  0.00     0.023 C 
HETATM   21  C27 UNL     1       4.230   6.958  12.033  1.00  0.00     0.020 C 
HETATM   22  C28 UNL     1       3.587   6.580  10.699  1.00  0.00     0.090 C 
HETATM   23  C29 UNL     1       2.151   6.128  10.895  1.00  0.00     0.157 C 
HETATM   24  O3  UNL     1       1.582   5.515   9.993  1.00  0.00    -0.293 OA
ENDROOT
BRANCH   1  25
HETATM   25  C6  UNL     1      -3.403   6.545  14.071  1.00  0.00    -0.014 C 
HETATM   26  C7  UNL     1      -3.484   6.053  15.528  1.00  0.00     0.010 C 
BRANCH  25  27
HETATM   27  C5  UNL     1      -4.792   6.485  13.391  1.00  0.00     0.008 C 
BRANCH  27  28
HETATM   28  C4  UNL     1      -5.711   5.270  13.552  1.00  0.00     0.028 C 
BRANCH  28  29
HETATM   29  C3  UNL     1      -5.479   4.151  12.580  1.00  0.00    -0.013 C 
HETATM   30  C2  UNL     1      -6.314   3.129  12.303  1.00  0.00     0.008 C 
HETATM   31  C1  UNL     1      -7.638   2.879  12.959  1.00  0.00     0.055 C 
BRANCH  30  32
HETATM   32  C30 UNL     1      -5.857   2.160  11.273  1.00  0.00     0.171 C 
HETATM   33  O4  UNL     1      -5.943   0.946  11.323  1.00  0.00    -0.646 OA
BRANCH  32  34
HETATM   34  O5  UNL     1      -5.301   2.769  10.212  1.00  0.00    -0.773 OA
HETATM   35  H44 UNL     1      -5.049   2.023   9.630  1.00  0.00     0.167 HD
ENDBRANCH  32  34
ENDBRANCH  30  32
ENDBRANCH  28  29
ENDBRANCH  27  28
ENDBRANCH  25  27
ENDBRANCH   1  25
BRANCH   8  36
HETATM   36  O1  UNL     1       2.132   7.087  15.491  1.00  0.00    -0.391 OA
HETATM   37  H22 UNL     1       2.160   6.118  15.412  1.00  0.00     0.210 HD
ENDBRANCH   8  36
TORSDOF 7
ENDMDL
MODEL 2
REMARK minimizedAffinity -9.37570095
REMARK  7 active torsions:
REMARK  status: ('A' for Active; 'I' for Inactive)
REMARK    1  A    between atoms: C2_2  and  C30_33 
REMARK    2  A    between atoms: C3_3  and  C4_4 
REMARK    3  A    between atoms: C4_4  and  C5_5 
REMARK    4  A    between atoms: C5_5  and  C6_6 
REMARK    5  A    between atoms: C6_6  and  C8_8 
REMARK    6  A    between atoms: C15_15  and  O1_16 
REMARK    7  A    between atoms: C30_33  and  O5_35 
ROOT
HETATM    1  C8  UNL     1      -3.308   4.133  12.607  1.00  0.00    -0.002 C 
HETATM    2  C9  UNL     1      -2.949   3.875  11.125  1.00  0.00     0.007 C 
HETATM    3  C10 UNL     1      -1.612   4.608  10.862  1.00  0.00     0.015 C 
HETATM    4  C11 UNL     1      -1.050   4.949  12.261  1.00  0.00    -0.005 C 
HETATM    5  C12 UNL     1      -0.327   3.670  12.785  1.00  0.00     0.021 C 
HETATM    6  C13 UNL     1      -0.030   6.063  12.463  1.00  0.00     0.002 C 
HETATM    7  C14 UNL     1       0.005   6.788  13.619  1.00  0.00    -0.032 C 
HETATM    8  C15 UNL     1      -0.989   6.512  14.749  1.00  0.00     0.149 C 
HETATM    9  C16 UNL     1      -2.104   5.473  14.487  1.00  0.00     0.047 C 
HETATM   10  C17 UNL     1      -2.399   5.332  12.993  1.00  0.00    -0.026 C 
HETATM   11  C18 UNL     1      -2.994   6.676  12.479  1.00  0.00     0.016 C 
HETATM   12  C19 UNL     1       0.976   7.993  13.769  1.00  0.00    -0.012 C 
HETATM   13  C20 UNL     1       0.279   9.165  13.025  1.00  0.00     0.021 C 
HETATM   14  C21 UNL     1       1.260   8.508  15.213  1.00  0.00     0.021 C 
HETATM   15  C22 UNL     1       2.490   7.878  15.848  1.00  0.00     0.080 C 
HETATM   16  C23 UNL     1       3.716   8.292  15.059  1.00  0.00     0.135 C 
HETATM   17  O2  UNL     1       4.759   8.594  15.640  1.00  0.00    -0.297 OA
HETATM   18  C24 UNL     1       3.605   8.304  13.522  1.00  0.00     0.018 C 
HETATM   19  C25 UNL     1       3.626   9.763  13.051  1.00  0.00     0.023 C 
HETATM   20  C26 UNL     1       4.864   7.600  12.969  1.00  0.00     0.023 C 
HETATM   21  C27 UNL     1       2.321   7.509  13.120  1.00  0.00     0.020 C 
HETATM   22  C28 UNL     1       2.125   7.276  11.622  1.00  0.00     0.090 C 
HETATM   23  C29 UNL     1       0.962   6.336  11.364  1.00  0.00     0.157 C 
HETATM   24  O3  UNL     1       0.844   5.808  10.259  1.00  0.00    -0.293 OA
ENDROOT
BRANCH   1  25
HETATM   25  C6  UNL     1      -4.805   4.073  13.018  1.00  0.00    -0.014 C 
HETATM   26  C7  UNL     1      -5.569   3.148  12.053  1.00  0.00     0.010 C 
BRANCH  25  27
HETATM   27  C5  UNL     1      -5.621   5.355  13.315  1.00  0.00     0.008 C 
BRANCH  27  28
HETATM   28  C4  UNL     1      -6.300   5.574  14.671  1.00  0.00     0.028 C 
BRANCH  28  29
HETATM   29  C3  UNL     1      -7.678   6.165  14.615  1.00  0.00    -0.013 C 
HETATM   30  C2  UNL     1      -8.589   6.009  13.633  1.00  0.00     0.008 C 
HETATM   31  C1  UNL     1      -8.383   5.242  12.363  1.00  0.00     0.055 C 
BRANCH  30  32
HETATM   32  C30 UNL     1      -9.899   6.683  13.831  1.00  0.00     0.171 C 
HETATM   33  O4  UNL     1     -10.570   7.239  12.980  1.00  0.00    -0.646 OA
BRANCH  32  34
HETATM   34  O5  UNL     1     -10.311   6.630  15.108  1.00  0.00    -0.773 OA
HETATM   35  H44 UNL     1     -11.167   7.106  15.090  1.00  0.00     0.167 HD
ENDBRANCH  32  34
ENDBRANCH  30  32
ENDBRANCH  28  29
ENDBRANCH  27  28
ENDBRANCH  25  27
ENDBRANCH   1  25
BRANCH   8  36
HETATM   36  O1  UNL     1      -0.257   6.076  15.891  1.00  0.00    -0.391 OA
HETATM   37  H22 UNL     1       0.154   5.223  15.667  1.00  0.00     0.210 HD
ENDBRANCH   8  36
TORSDOF 7
ENDMDL
MODEL 3
REMARK minimizedAffinity -9.07890606
REMARK  7 active torsions:
REMARK  status: ('A' for Active; 'I' for Inactive)
REMARK    1  A    between atoms: C2_2  and  C30_33 
REMARK    2  A    between atoms: C3_3  and  C4_4 
REMARK    3  A    between atoms: C4_4  and  C5_5 
REMARK    4  A    between atoms: C5_5  and  C6_6 
REMARK    5  A    between atoms: C6_6  and  C8_8 
REMARK    6  A    between atoms: C15_15  and  O1_16 
REMARK    7  A    between atoms: C30_33  and  O5_35 
ROOT
HETATM    1  C8  UNL     1       3.506   8.026  11.001  1.00  0.00    -0.002 C 
HETATM    2  C9  UNL     1       3.858   6.585  10.569  1.00  0.00     0.007 C 
HETATM    3  C10 UNL     1       2.617   5.715  10.885  1.00  0.00     0.015 C 
HETATM    4  C11 UNL     1       1.469   6.717  11.136  1.00  0.00    -0.005 C 
HETATM    5  C12 UNL     1       0.911   7.130   9.739  1.00  0.00     0.021 C 
HETATM    6  C13 UNL     1       0.229   6.329  11.933  1.00  0.00     0.002 C 
HETATM    7  C14 UNL     1      -0.446   7.248  12.684  1.00  0.00    -0.032 C 
HETATM    8  C15 UNL     1       0.031   8.700  12.760  1.00  0.00     0.149 C 
HETATM    9  C16 UNL     1       1.362   9.058  12.059  1.00  0.00     0.047 C 
HETATM   10  C17 UNL     1       2.269   7.835  11.921  1.00  0.00    -0.026 C 
HETATM   11  C18 UNL     1       2.694   7.371  13.345  1.00  0.00     0.016 C 
HETATM   12  C19 UNL     1      -1.641   6.816  13.579  1.00  0.00    -0.012 C 
HETATM   13  C20 UNL     1      -0.991   6.212  14.853  1.00  0.00     0.021 C 
HETATM   14  C21 UNL     1      -2.605   7.937  14.076  1.00  0.00     0.021 C 
HETATM   15  C22 UNL     1      -3.805   8.150  13.167  1.00  0.00     0.080 C 
HETATM   16  C23 UNL     1      -4.657   6.897  13.178  1.00  0.00     0.135 C 
HETATM   17  O2  UNL     1      -5.886   6.979  13.211  1.00  0.00    -0.297 OA
HETATM   18  C24 UNL     1      -3.930   5.539  13.133  1.00  0.00     0.018 C 
HETATM   19  C25 UNL     1      -4.093   4.862  14.498  1.00  0.00     0.023 C 
HETATM   20  C26 UNL     1      -4.650   4.672  12.076  1.00  0.00     0.023 C 
HETATM   21  C27 UNL     1      -2.449   5.794  12.704  1.00  0.00     0.020 C 
HETATM   22  C28 UNL     1      -1.606   4.544  12.449  1.00  0.00     0.090 C 
HETATM   23  C29 UNL     1      -0.258   4.906  11.856  1.00  0.00     0.157 C 
HETATM   24  O3  UNL     1       0.422   4.033  11.319  1.00  0.00    -0.293 OA
ENDROOT
BRANCH   1  25
HETATM   25  C6  UNL     1       4.671   8.980  11.384  1.00  0.00    -0.014 C 
HETATM   26  C7  UNL     1       5.760   8.928  10.296  1.00  0.00     0.010 C 
BRANCH  25  27
HETATM   27  C5  UNL     1       5.302   8.971  12.797  1.00  0.00     0.008 C 
BRANCH  27  28
HETATM   28  C4  UNL     1       6.324   7.906  13.211  1.00  0.00     0.028 C 
BRANCH  28  29
HETATM   29  C3  UNL     1       6.889   8.056  14.592  1.00  0.00    -0.013 C 
HETATM   30  C2  UNL     1       8.192   8.113  14.935  1.00  0.00     0.008 C 
HETATM   31  C1  UNL     1       9.350   7.986  13.993  1.00  0.00     0.055 C 
BRANCH  30  32
HETATM   32  C30 UNL     1       8.490   8.293  16.380  1.00  0.00     0.171 C 
HETATM   33  O4  UNL     1       8.222   9.264  17.065  1.00  0.00    -0.646 OA
BRANCH  32  34
HETATM   34  O5  UNL     1       9.125   7.232  16.905  1.00  0.00    -0.773 OA
HETATM   35  H44 UNL     1       9.257   7.488  17.841  1.00  0.00     0.167 HD
ENDBRANCH  32  34
ENDBRANCH  30  32
ENDBRANCH  28  29
ENDBRANCH  27  28
ENDBRANCH  25  27
ENDBRANCH   1  25
BRANCH   8  36
HETATM   36  O1  UNL     1      -0.983   9.532  12.205  1.00  0.00    -0.391 OA
HETATM   37  H22 UNL     1      -1.056   9.313  11.260  1.00  0.00     0.210 HD
ENDBRANCH   8  36
TORSDOF 7
ENDMDL
MODEL 4
REMARK minimizedAffinity -9.01545143
REMARK  7 active torsions:
REMARK  status: ('A' for Active; 'I' for Inactive)
REMARK    1  A    between atoms: C2_2  and  C30_33 
REMARK    2  A    between atoms: C3_3  and  C4_4 
REMARK    3  A    between atoms: C4_4  and  C5_5 
REMARK    4  A    between atoms: C5_5  and  C6_6 
REMARK    5  A    between atoms: C6_6  and  C8_8 
REMARK    6  A    between atoms: C15_15  and  O1_16 
REMARK    7  A    between atoms: C30_33  and  O5_35 
ROOT
HETATM    1  C8  UNL     1      -1.210   6.031  12.074  1.00  0.00    -0.002 C 
HETATM    2  C9  UNL     1      -1.912   7.134  12.899  1.00  0.00     0.007 C 
HETATM    3  C10 UNL     1      -0.830   8.188  13.236  1.00  0.00     0.015 C 
HETATM    4  C11 UNL     1       0.359   7.867  12.302  1.00  0.00    -0.005 C 
HETATM    5  C12 UNL     1       0.045   8.527  10.924  1.00  0.00     0.021 C 
HETATM    6  C13 UNL     1       1.776   8.328  12.623  1.00  0.00     0.002 C 
HETATM    7  C14 UNL     1       2.862   7.595  12.239  1.00  0.00    -0.032 C 
HETATM    8  C15 UNL     1       2.690   6.277  11.482  1.00  0.00     0.149 C 
HETATM    9  C16 UNL     1       1.252   5.748  11.276  1.00  0.00     0.047 C 
HETATM   10  C17 UNL     1       0.299   6.286  12.343  1.00  0.00    -0.026 C 
HETATM   11  C18 UNL     1       0.729   5.711  13.725  1.00  0.00     0.016 C 
HETATM   12  C19 UNL     1       4.294   8.019  12.669  1.00  0.00    -0.012 C 
HETATM   13  C20 UNL     1       4.440   7.517  14.132  1.00  0.00     0.021 C 
HETATM   14  C21 UNL     1       5.490   7.402  11.881  1.00  0.00     0.021 C 
HETATM   15  C22 UNL     1       5.955   8.262  10.716  1.00  0.00     0.080 C 
HETATM   16  C23 UNL     1       6.503   9.566  11.258  1.00  0.00     0.135 C 
HETATM   17  O2  UNL     1       7.522  10.063  10.776  1.00  0.00    -0.297 OA
HETATM   18  C24 UNL     1       5.732  10.240  12.411  1.00  0.00     0.018 C 
HETATM   19  C25 UNL     1       6.577  10.124  13.684  1.00  0.00     0.023 C 
HETATM   20  C26 UNL     1       5.599  11.738  12.055  1.00  0.00     0.023 C 
HETATM   21  C27 UNL     1       4.319   9.579  12.504  1.00  0.00     0.020 C 
HETATM   22  C28 UNL     1       3.347  10.226  13.491  1.00  0.00     0.090 C 
HETATM   23  C29 UNL     1       1.957   9.630  13.357  1.00  0.00     0.157 C 
HETATM   24  O3  UNL     1       0.996  10.219  13.849  1.00  0.00    -0.293 OA
ENDROOT
BRANCH   1  25
HETATM   25  C6  UNL     1      -1.816   4.601  12.101  1.00  0.00    -0.014 C 
HETATM   26  C7  UNL     1      -1.559   3.905  10.751  1.00  0.00     0.010 C 
BRANCH  25  27
HETATM   27  C5  UNL     1      -3.261   4.336  12.591  1.00  0.00     0.008 C 
BRANCH  27  28
HETATM   28  C4  UNL     1      -4.309   3.688  11.679  1.00  0.00     0.028 C 
BRANCH  28  29
HETATM   29  C3  UNL     1      -5.611   3.341  12.339  1.00  0.00    -0.013 C 
HETATM   30  C2  UNL     1      -6.412   4.168  13.040  1.00  0.00     0.008 C 
HETATM   31  C1  UNL     1      -6.132   5.608  13.343  1.00  0.00     0.055 C 
BRANCH  30  32
HETATM   32  C30 UNL     1      -7.669   3.580  13.572  1.00  0.00     0.171 C 
HETATM   33  O4  UNL     1      -8.462   2.880  12.966  1.00  0.00    -0.646 OA
BRANCH  32  34
HETATM   34  O5  UNL     1      -7.879   3.905  14.858  1.00  0.00    -0.773 OA
HETATM   35  H44 UNL     1      -8.726   3.460  15.068  1.00  0.00     0.167 HD
ENDBRANCH  32  34
ENDBRANCH  30  32
ENDBRANCH  28  29
ENDBRANCH  27  28
ENDBRANCH  25  27
ENDBRANCH   1  25
BRANCH   8  36
HETATM   36  O1  UNL     1       3.283   6.423  10.194  1.00  0.00    -0.391 OA
HETATM   37  H22 UNL     1       2.768   7.090   9.710  1.00  0.00     0.210 HD
ENDBRANCH   8  36
TORSDOF 7
ENDMDL
MODEL 5
REMARK minimizedAffinity -8.97122002
REMARK  7 active torsions:
REMARK  status: ('A' for Active; 'I' for Inactive)
REMARK    1  A    between atoms: C2_2  and  C30_33 
REMARK    2  A    between atoms: C3_3  and  C4_4 
REMARK    3  A    between atoms: C4_4  and  C5_5 
REMARK    4  A    between atoms: C5_5  and  C6_6 
REMARK    5  A    between atoms: C6_6  and  C8_8 
REMARK    6  A    between atoms: C15_15  and  O1_16 
REMARK    7  A    between atoms: C30_33  and  O5_35 
ROOT
HETATM    1  C8  UNL     1      -3.895   6.267  14.454  1.00  0.00    -0.002 C 
HETATM    2  C9  UNL     1      -4.206   5.060  13.541  1.00  0.00     0.007 C 
HETATM    3  C10 UNL     1      -3.007   4.919  12.573  1.00  0.00     0.015 C 
HETATM    4  C11 UNL     1      -1.887   5.792  13.180  1.00  0.00    -0.005 C 
HETATM    5  C12 UNL     1      -1.188   4.936  14.281  1.00  0.00     0.021 C 
HETATM    6  C13 UNL     1      -0.735   6.320  12.331  1.00  0.00     0.002 C 
HETATM    7  C14 UNL     1      -0.138   7.515  12.614  1.00  0.00    -0.032 C 
HETATM    8  C15 UNL     1      -0.615   8.371  13.789  1.00  0.00     0.149 C 
HETATM    9  C16 UNL     1      -1.866   7.896  14.564  1.00  0.00     0.047 C 
HETATM   10  C17 UNL     1      -2.758   7.008  13.697  1.00  0.00    -0.026 C 
HETATM   11  C18 UNL     1      -3.328   7.868  12.530  1.00  0.00     0.016 C 
HETATM   12  C19 UNL     1       0.958   8.093  11.676  1.00  0.00    -0.012 C 
HETATM   13  C20 UNL     1       0.180   8.732  10.494  1.00  0.00     0.021 C 
HETATM   14  C21 UNL     1       1.870   9.220  12.251  1.00  0.00     0.021 C 
HETATM   15  C22 UNL     1       3.158   8.699  12.870  1.00  0.00     0.080 C 
HETATM   16  C23 UNL     1       4.000   8.059  11.786  1.00  0.00     0.135 C 
HETATM   17  O2  UNL     1       5.219   8.232  11.758  1.00  0.00    -0.297 OA
HETATM   18  C24 UNL     1       3.276   7.183  10.744  1.00  0.00     0.018 C 
HETATM   19  C25 UNL     1       3.296   7.921   9.401  1.00  0.00     0.023 C 
HETATM   20  C26 UNL     1       4.097   5.883  10.592  1.00  0.00     0.023 C 
HETATM   21  C27 UNL     1       1.847   6.859  11.288  1.00  0.00     0.020 C 
HETATM   22  C28 UNL     1       1.031   5.865  10.462  1.00  0.00     0.090 C 
HETATM   23  C29 UNL     1      -0.249   5.480  11.180  1.00  0.00     0.157 C 
HETATM   24  O3  UNL     1      -0.874   4.486  10.813  1.00  0.00    -0.293 OA
ENDROOT
BRANCH   1  25
HETATM   25  C6  UNL     1      -5.089   7.032  15.089  1.00  0.00    -0.014 C 
HETATM   26  C7  UNL     1      -4.594   8.363  15.684  1.00  0.00     0.010 C 
BRANCH  25  27
HETATM   27  C5  UNL     1      -6.086   6.336  16.048  1.00  0.00     0.008 C 
BRANCH  27  28
HETATM   28  C4  UNL     1      -7.452   5.840  15.561  1.00  0.00     0.028 C 
BRANCH  28  29
HETATM   29  C3  UNL     1      -7.420   4.633  14.671  1.00  0.00    -0.013 C 
HETATM   30  C2  UNL     1      -7.697   4.588  13.352  1.00  0.00     0.008 C 
HETATM   31  C1  UNL     1      -8.145   5.745  12.513  1.00  0.00     0.055 C 
BRANCH  30  32
HETATM   32  C30 UNL     1      -7.565   3.263  12.691  1.00  0.00     0.171 C 
HETATM   33  O4  UNL     1      -8.250   2.276  12.891  1.00  0.00    -0.646 OA
BRANCH  32  34
HETATM   34  O5  UNL     1      -6.560   3.236  11.800  1.00  0.00    -0.773 OA
HETATM   35  H44 UNL     1      -6.589   2.320  11.454  1.00  0.00     0.167 HD
ENDBRANCH  32  34
ENDBRANCH  30  32
ENDBRANCH  28  29
ENDBRANCH  27  28
ENDBRANCH  25  27
ENDBRANCH   1  25
BRANCH   8  36
HETATM   36  O1  UNL     1       0.454   8.478  14.725  1.00  0.00    -0.391 OA
HETATM   37  H22 UNL     1       0.622   7.588  15.080  1.00  0.00     0.210 HD
ENDBRANCH   8  36
TORSDOF 7
ENDMDL
MODEL 6
REMARK minimizedAffinity -8.94596672
REMARK  7 active torsions:
REMARK  status: ('A' for Active; 'I' for Inactive)
REMARK    1  A    between atoms: C2_2  and  C30_33 
REMARK    2  A    between atoms: C3_3  and  C4_4 
REMARK    3  A    between atoms: C4_4  and  C5_5 
REMARK    4  A    between atoms: C5_5  and  C6_6 
REMARK    5  A    between atoms: C6_6  and  C8_8 
REMARK    6  A    between atoms: C15_15  and  O1_16 
REMARK    7  A    between atoms: C30_33  and  O5_35 
ROOT
HETATM    1  C8  UNL     1       1.455   6.572  11.705  1.00  0.00    -0.002 C 
HETATM    2  C9  UNL     1       1.651   5.078  11.358  1.00  0.00     0.007 C 
HETATM    3  C10 UNL     1       0.295   4.381  11.627  1.00  0.00     0.015 C 
HETATM    4  C11 UNL     1      -0.733   5.526  11.760  1.00  0.00    -0.005 C 
HETATM    5  C12 UNL     1      -1.151   5.934  10.313  1.00  0.00     0.021 C 
HETATM    6  C13 UNL     1      -2.058   5.331  12.489  1.00  0.00     0.002 C 
HETATM    7  C14 UNL     1      -2.657   6.361  13.156  1.00  0.00    -0.032 C 
HETATM    8  C15 UNL     1      -2.010   7.746  13.202  1.00  0.00     0.149 C 
HETATM    9  C16 UNL     1      -0.605   7.906  12.576  1.00  0.00     0.047 C 
HETATM   10  C17 UNL     1       0.150   6.576  12.549  1.00  0.00    -0.026 C 
HETATM   11  C18 UNL     1       0.428   6.136  14.016  1.00  0.00     0.016 C 
HETATM   12  C19 UNL     1      -3.949   6.121  13.987  1.00  0.00    -0.012 C 
HETATM   13  C20 UNL     1      -3.456   5.506  15.326  1.00  0.00     0.021 C 
HETATM   14  C21 UNL     1      -4.794   7.373  14.373  1.00  0.00     0.021 C 
HETATM   15  C22 UNL     1      -5.902   7.684  13.379  1.00  0.00     0.080 C 
HETATM   16  C23 UNL     1      -6.902   6.546  13.386  1.00  0.00     0.135 C 
HETATM   17  O2  UNL     1      -8.110   6.777  13.334  1.00  0.00    -0.297 OA
HETATM   18  C24 UNL     1      -6.346   5.109  13.445  1.00  0.00     0.018 C 
HETATM   19  C25 UNL     1      -6.674   4.525  14.824  1.00  0.00     0.023 C 
HETATM   20  C26 UNL     1      -7.104   4.284  12.380  1.00  0.00     0.023 C 
HETATM   21  C27 UNL     1      -4.822   5.161  13.104  1.00  0.00     0.020 C 
HETATM   22  C28 UNL     1      -4.127   3.808  12.957  1.00  0.00     0.090 C 
HETATM   23  C29 UNL     1      -2.711   3.975  12.440  1.00  0.00     0.157 C 
HETATM   24  O3  UNL     1      -2.113   3.001  11.985  1.00  0.00    -0.293 OA
ENDROOT
BRANCH   1  25
HETATM   25  C6  UNL     1       2.704   7.396  12.123  1.00  0.00    -0.014 C 
HETATM   26  C7  UNL     1       2.361   8.897  12.108  1.00  0.00     0.010 C 
BRANCH  25  27
HETATM   27  C5  UNL     1       4.096   7.141  11.497  1.00  0.00     0.008 C 
BRANCH  27  28
HETATM   28  C4  UNL     1       4.459   7.679  10.108  1.00  0.00     0.028 C 
BRANCH  28  29
HETATM   29  C3  UNL     1       3.298   7.948   9.197  1.00  0.00    -0.013 C 
HETATM   30  C2  UNL     1       2.667   7.060   8.402  1.00  0.00     0.008 C 
HETATM   31  C1  UNL     1       3.039   5.619   8.234  1.00  0.00     0.055 C 
BRANCH  30  32
HETATM   32  C30 UNL     1       1.520   7.577   7.611  1.00  0.00     0.171 C 
HETATM   33  O4  UNL     1       0.599   8.261   8.021  1.00  0.00    -0.646 OA
BRANCH  32  34
HETATM   34  O5  UNL     1       1.579   7.202   6.322  1.00  0.00    -0.773 OA
HETATM   35  H44 UNL     1       0.775   7.603   5.933  1.00  0.00     0.167 HD
ENDBRANCH  32  34
ENDBRANCH  30  32
ENDBRANCH  28  29
ENDBRANCH  27  28
ENDBRANCH  25  27
ENDBRANCH   1  25
BRANCH   8  36
HETATM   36  O1  UNL     1      -2.879   8.666  12.547  1.00  0.00    -0.391 OA
HETATM   37  H22 UNL     1      -2.921   8.411  11.610  1.00  0.00     0.210 HD
ENDBRANCH   8  36
TORSDOF 7
ENDMDL
MODEL 7
REMARK minimizedAffinity -8.91688347
REMARK  7 active torsions:
REMARK  status: ('A' for Active; 'I' for Inactive)
REMARK    1  A    between atoms: C2_2  and  C30_33 
REMARK    2  A    between atoms: C3_3  and  C4_4 
REMARK    3  A    between atoms: C4_4  and  C5_5 
REMARK    4  A    between atoms: C5_5  and  C6_6 
REMARK    5  A    between atoms: C6_6  and  C8_8 
REMARK    6  A    between atoms: C15_15  and  O1_16 
REMARK    7  A    between atoms: C30_33  and  O5_35 
ROOT
HETATM    1  C8  UNL     1      -1.972   6.042  13.351  1.00  0.00    -0.002 C 
HETATM    2  C9  UNL     1      -2.166   5.449  11.937  1.00  0.00     0.007 C 
HETATM    3  C10 UNL     1      -0.790   5.527  11.233  1.00  0.00     0.015 C 
HETATM    4  C11 UNL     1       0.229   5.809  12.360  1.00  0.00    -0.005 C 
HETATM    5  C12 UNL     1       0.567   4.437  13.022  1.00  0.00     0.021 C 
HETATM    6  C13 UNL     1       1.592   6.429  12.069  1.00  0.00     0.002 C 
HETATM    7  C14 UNL     1       2.210   7.235  12.980  1.00  0.00    -0.032 C 
HETATM    8  C15 UNL     1       1.549   7.554  14.322  1.00  0.00     0.149 C 
HETATM    9  C16 UNL     1       0.112   7.034  14.557  1.00  0.00     0.047 C 
HETATM   10  C17 UNL     1      -0.626   6.810  13.237  1.00  0.00    -0.026 C 
HETATM   11  C18 UNL     1      -0.824   8.189  12.542  1.00  0.00     0.016 C 
HETATM   12  C19 UNL     1       3.545   7.949  12.627  1.00  0.00    -0.012 C 
HETATM   13  C20 UNL     1       3.130   9.182  11.779  1.00  0.00     0.021 C 
HETATM   14  C21 UNL     1       4.393   8.507  13.811  1.00  0.00     0.021 C 
HETATM   15  C22 UNL     1       5.445   7.531  14.315  1.00  0.00     0.080 C 
HETATM   16  C23 UNL     1       6.458   7.292  13.215  1.00  0.00     0.135 C 
HETATM   17  O2  UNL     1       7.660   7.223  13.477  1.00  0.00    -0.297 OA
HETATM   18  C24 UNL     1       5.926   7.125  11.777  1.00  0.00     0.018 C 
HETATM   19  C25 UNL     1       6.330   8.363  10.970  1.00  0.00     0.023 C 
HETATM   20  C26 UNL     1       6.639   5.897  11.167  1.00  0.00     0.023 C 
HETATM   21  C27 UNL     1       4.386   6.872  11.855  1.00  0.00     0.020 C 
HETATM   22  C28 UNL     1       3.702   6.524  10.533  1.00  0.00     0.090 C 
HETATM   23  C29 UNL     1       2.259   6.112  10.757  1.00  0.00     0.157 C 
HETATM   24  O3  UNL     1       1.652   5.523   9.864  1.00  0.00    -0.293 OA
ENDROOT
BRANCH   1  25
HETATM   25  C6  UNL     1      -3.209   6.657  14.062  1.00  0.00    -0.014 C 
HETATM   26  C7  UNL     1      -3.378   6.015  15.452  1.00  0.00     0.010 C 
BRANCH  25  27
HETATM   27  C5  UNL     1      -4.576   6.795  13.349  1.00  0.00     0.008 C 
BRANCH  27  28
HETATM   28  C4  UNL     1      -5.661   5.721  13.483  1.00  0.00     0.028 C 
BRANCH  28  29
HETATM   29  C3  UNL     1      -6.873   6.124  14.270  1.00  0.00    -0.013 C 
HETATM   30  C2  UNL     1      -8.156   6.093  13.857  1.00  0.00     0.008 C 
HETATM   31  C1  UNL     1      -8.626   5.689  12.493  1.00  0.00     0.055 C 
BRANCH  30  32
HETATM   32  C30 UNL     1      -9.181   6.523  14.844  1.00  0.00     0.171 C 
HETATM   33  O4  UNL     1      -8.988   6.850  16.001  1.00  0.00    -0.646 OA
BRANCH  32  34
HETATM   34  O5  UNL     1     -10.420   6.519  14.326  1.00  0.00    -0.773 OA
HETATM   35  H44 UNL     1     -10.979   6.814  15.075  1.00  0.00     0.167 HD
ENDBRANCH  32  34
ENDBRANCH  30  32
ENDBRANCH  28  29
ENDBRANCH  27  28
ENDBRANCH  25  27
ENDBRANCH   1  25
BRANCH   8  36
HETATM   36  O1  UNL     1       2.370   7.029  15.361  1.00  0.00    -0.391 OA
HETATM   37  H22 UNL     1       2.369   6.061  15.273  1.00  0.00     0.210 HD
ENDBRANCH   8  36
TORSDOF 7
ENDMDL
MODEL 8
REMARK minimizedAffinity -8.8772974
REMARK  7 active torsions:
REMARK  status: ('A' for Active; 'I' for Inactive)
REMARK    1  A    between atoms: C2_2  and  C30_33 
REMARK    2  A    between atoms: C3_3  and  C4_4 
REMARK    3  A    between atoms: C4_4  and  C5_5 
REMARK    4  A    between atoms: C5_5  and  C6_6 
REMARK    5  A    between atoms: C6_6  and  C8_8 
REMARK    6  A    between atoms: C15_15  and  O1_16 
REMARK    7  A    between atoms: C30_33  and  O5_35 
ROOT
HETATM    1  C8  UNL     1      -5.117   6.454  14.945  1.00  0.00    -0.002 C 
HETATM    2  C9  UNL     1      -5.534   5.318  13.984  1.00  0.00     0.007 C 
HETATM    3  C10 UNL     1      -4.359   5.124  12.996  1.00  0.00     0.015 C 
HETATM    4  C11 UNL     1      -3.165   5.875  13.627  1.00  0.00    -0.005 C 
HETATM    5  C12 UNL     1      -2.530   4.916  14.681  1.00  0.00     0.021 C 
HETATM    6  C13 UNL     1      -1.982   6.345  12.789  1.00  0.00     0.002 C 
HETATM    7  C14 UNL     1      -1.287   7.473  13.117  1.00  0.00    -0.032 C 
HETATM    8  C15 UNL     1      -1.682   8.312  14.334  1.00  0.00     0.149 C 
HETATM    9  C16 UNL     1      -2.961   7.906  15.102  1.00  0.00     0.047 C 
HETATM   10  C17 UNL     1      -3.930   7.133  14.207  1.00  0.00    -0.026 C 
HETATM   11  C18 UNL     1      -4.438   8.089  13.087  1.00  0.00     0.016 C 
HETATM   12  C19 UNL     1      -0.154   8.002  12.192  1.00  0.00    -0.012 C 
HETATM   13  C20 UNL     1      -0.888   8.755  11.049  1.00  0.00     0.021 C 
HETATM   14  C21 UNL     1       0.851   9.024  12.806  1.00  0.00     0.021 C 
HETATM   15  C22 UNL     1       2.097   8.373  13.386  1.00  0.00     0.080 C 
HETATM   16  C23 UNL     1       2.875   7.716  12.264  1.00  0.00     0.135 C 
HETATM   17  O2  UNL     1       4.104   7.790  12.230  1.00  0.00    -0.297 OA
HETATM   18  C24 UNL     1       2.073   6.949  11.193  1.00  0.00     0.018 C 
HETATM   19  C25 UNL     1       2.143   7.743   9.884  1.00  0.00     0.023 C 
HETATM   20  C26 UNL     1       2.784   5.595  10.975  1.00  0.00     0.023 C 
HETATM   21  C27 UNL     1       0.628   6.719  11.740  1.00  0.00     0.020 C 
HETATM   22  C28 UNL     1      -0.275   5.833  10.880  1.00  0.00     0.090 C 
HETATM   23  C29 UNL     1      -1.575   5.521  11.596  1.00  0.00     0.157 C 
HETATM   24  O3  UNL     1      -2.282   4.599  11.193  1.00  0.00    -0.293 OA
ENDROOT
BRANCH   1  25
HETATM   25  C6  UNL     1      -6.240   7.284  15.627  1.00  0.00    -0.014 C 
HETATM   26  C7  UNL     1      -7.068   6.372  16.551  1.00  0.00     0.010 C 
BRANCH  25  27
HETATM   27  C5  UNL     1      -7.160   8.231  14.819  1.00  0.00     0.008 C 
BRANCH  27  28
HETATM   28  C4  UNL     1      -8.553   8.619  15.327  1.00  0.00     0.028 C 
BRANCH  28  29
HETATM   29  C3  UNL     1      -9.688   7.803  14.783  1.00  0.00    -0.013 C 
HETATM   30  C2  UNL     1     -10.882   8.258  14.352  1.00  0.00     0.008 C 
HETATM   31  C1  UNL     1     -11.335   9.685  14.377  1.00  0.00     0.055 C 
BRANCH  30  32
HETATM   32  C30 UNL     1     -11.831   7.239  13.831  1.00  0.00     0.171 C 
HETATM   33  O4  UNL     1     -12.451   7.287  12.783  1.00  0.00    -0.646 OA
BRANCH  32  34
HETATM   34  O5  UNL     1     -11.963   6.193  14.663  1.00  0.00    -0.773 OA
HETATM   35  H44 UNL     1     -12.607   5.617  14.202  1.00  0.00     0.167 HD
ENDBRANCH  32  34
ENDBRANCH  30  32
ENDBRANCH  28  29
ENDBRANCH  27  28
ENDBRANCH  25  27
ENDBRANCH   1  25
BRANCH   8  36
HETATM   36  O1  UNL     1      -0.600   8.289  15.261  1.00  0.00    -0.391 OA
HETATM   37  H22 UNL     1      -0.502   7.374  15.574  1.00  0.00     0.210 HD
ENDBRANCH   8  36
TORSDOF 7
ENDMDL
MODEL 9
REMARK minimizedAffinity -8.78694153
REMARK  7 active torsions:
REMARK  status: ('A' for Active; 'I' for Inactive)
REMARK    1  A    between atoms: C2_2  and  C30_33 
REMARK    2  A    between atoms: C3_3  and  C4_4 
REMARK    3  A    between atoms: C4_4  and  C5_5 
REMARK    4  A    between atoms: C5_5  and  C6_6 
REMARK    5  A    between atoms: C6_6  and  C8_8 
REMARK    6  A    between atoms: C15_15  and  O1_16 
REMARK    7  A    between atoms: C30_33  and  O5_35 
ROOT
HETATM    1  C8  UNL     1      -4.461   5.648  13.202  1.00  0.00    -0.002 C 
HETATM    2  C9  UNL     1      -5.377   6.380  14.209  1.00  0.00     0.007 C 
HETATM    3  C10 UNL     1      -4.513   7.479  14.873  1.00  0.00     0.015 C 
HETATM    4  C11 UNL     1      -3.255   7.601  13.985  1.00  0.00    -0.005 C 
HETATM    5  C12 UNL     1      -3.632   8.524  12.785  1.00  0.00     0.021 C 
HETATM    6  C13 UNL     1      -1.955   8.194  14.517  1.00  0.00     0.002 C 
HETATM    7  C14 UNL     1      -0.743   7.769  14.055  1.00  0.00    -0.032 C 
HETATM    8  C15 UNL     1      -0.649   6.673  12.992  1.00  0.00     0.149 C 
HETATM    9  C16 UNL     1      -1.962   5.983  12.553  1.00  0.00     0.047 C 
HETATM   10  C17 UNL     1      -3.033   6.073  13.641  1.00  0.00    -0.026 C 
HETATM   11  C18 UNL     1      -2.556   5.249  14.873  1.00  0.00     0.016 C 
HETATM   12  C19 UNL     1       0.575   8.302  14.684  1.00  0.00    -0.012 C 
HETATM   13  C20 UNL     1       0.756   7.481  15.990  1.00  0.00     0.021 C 
HETATM   14  C21 UNL     1       1.888   8.106  13.867  1.00  0.00     0.021 C 
HETATM   15  C22 UNL     1       2.233   9.295  12.982  1.00  0.00     0.080 C 
HETATM   16  C23 UNL     1       2.520  10.494  13.863  1.00  0.00     0.135 C 
HETATM   17  O2  UNL     1       3.450  11.256  13.595  1.00  0.00    -0.297 OA
HETATM   18  C24 UNL     1       1.601  10.722  15.080  1.00  0.00     0.018 C 
HETATM   19  C25 UNL     1       2.408  10.432  16.350  1.00  0.00     0.023 C 
HETATM   20  C26 UNL     1       1.215  12.218  15.085  1.00  0.00     0.023 C 
HETATM   21  C27 UNL     1       0.327   9.836  14.901  1.00  0.00     0.020 C 
HETATM   22  C28 UNL     1      -0.780  10.046  15.935  1.00  0.00     0.090 C 
HETATM   23  C29 UNL     1      -2.035   9.283  15.554  1.00  0.00     0.157 C 
HETATM   24  O3  UNL     1      -3.102   9.564  16.097  1.00  0.00    -0.293 OA
ENDROOT
BRANCH   1  25
HETATM   25  C6  UNL     1      -4.803   4.177  12.836  1.00  0.00    -0.014 C 
HETATM   26  C7  UNL     1      -3.585   3.516  12.165  1.00  0.00     0.010 C 
BRANCH  25  27
HETATM   27  C5  UNL     1      -6.111   3.803  12.098  1.00  0.00     0.008 C 
BRANCH  27  28
HETATM   28  C4  UNL     1      -7.374   3.393  12.865  1.00  0.00     0.028 C 
BRANCH  28  29
HETATM   29  C3  UNL     1      -8.080   4.504  13.585  1.00  0.00    -0.013 C 
HETATM   30  C2  UNL     1      -8.723   5.552  13.030  1.00  0.00     0.008 C 
HETATM   31  C1  UNL     1      -8.818   5.842  11.564  1.00  0.00     0.055 C 
BRANCH  30  32
HETATM   32  C30 UNL     1      -9.368   6.506  13.969  1.00  0.00     0.171 C 
HETATM   33  O4  UNL     1      -8.834   7.437  14.545  1.00  0.00    -0.646 OA
BRANCH  32  34
HETATM   34  O5  UNL     1     -10.672   6.242  14.148  1.00  0.00    -0.773 OA
HETATM   35  H44 UNL     1     -10.959   6.933  14.779  1.00  0.00     0.167 HD
ENDBRANCH  32  34
ENDBRANCH  30  32
ENDBRANCH  28  29
ENDBRANCH  27  28
ENDBRANCH  25  27
ENDBRANCH   1  25
BRANCH   8  36
HETATM   36  O1  UNL     1      -0.048   7.231  11.827  1.00  0.00    -0.391 OA
HETATM   37  H22 UNL     1      -0.656   7.904  11.478  1.00  0.00     0.210 HD
ENDBRANCH   8  36
TORSDOF 7
ENDMDL
