MODEL 1
REMARK minimizedAffinity -8.72808266
REMARK  5 active torsions:
REMARK  status: ('A' for Active; 'I' for Inactive)
REMARK    1  A    between atoms: C2_2  and  C3_3 
REMARK    2  A    between atoms: C2_2  and  C25_27 
REMARK    3  A    between atoms: C3_3  and  C4_4 
REMARK    4  A    between atoms: C4_4  and  C5_5 
REMARK    5  A    between atoms: C15_15  and  O1_16 
ROOT
HETATM    1  C5  UNL     1      -5.619   6.110  15.737  1.00  0.00    -0.023 C 
HETATM    2  C6  UNL     1      -4.896   6.824  14.854  1.00  0.00    -0.075 C 
HETATM    3  C7  UNL     1      -5.468   7.572  13.683  1.00  0.00     0.035 C 
HETATM    4  C8  UNL     1      -4.248   7.951  12.854  1.00  0.00     0.013 C 
HETATM    5  C9  UNL     1      -3.139   8.167  13.894  1.00  0.00     0.033 C 
HETATM    6  C10 UNL     1      -1.707   8.273  13.317  1.00  0.00     0.070 C 
HETATM    7  C11 UNL     1      -1.611   9.301  12.154  1.00  0.00     0.039 C 
HETATM    8  C12 UNL     1      -0.617   8.891  11.069  1.00  0.00     0.009 C 
HETATM    9  C13 UNL     1       0.689   8.317  11.635  1.00  0.00    -0.001 C 
HETATM   10  C14 UNL     1       1.481   7.607  10.518  1.00  0.00     0.037 C 
HETATM   11  C15 UNL     1       1.158   6.120  10.439  1.00  0.00     0.118 C 
HETATM   12  C16 UNL     1       1.511   5.393  11.737  1.00  0.00     0.032 C 
HETATM   13  C17 UNL     1       1.516   6.311  12.962  1.00  0.00     0.015 C 
HETATM   14  C18 UNL     1       0.448   7.412  12.897  1.00  0.00    -0.009 C 
HETATM   15  C19 UNL     1       0.491   8.302  14.156  1.00  0.00     0.179 C 
HETATM   16  O2  UNL     1      -0.839   8.814  14.353  1.00  0.00    -0.379 OA
HETATM   17  C20 UNL     1      -1.025   6.937  12.965  1.00  0.00     0.032 C 
HETATM   18  C21 UNL     1      -1.262   5.843  14.023  1.00  0.00     0.009 C 
HETATM   19  C22 UNL     1      -2.734   5.682  14.366  1.00  0.00     0.014 C 
HETATM   20  C23 UNL     1      -3.371   6.988  14.884  1.00  0.00    -0.014 C 
HETATM   21  C24 UNL     1      -2.864   7.337  16.294  1.00  0.00     0.020 C 
ENDROOT
BRANCH   1  22
HETATM   22  C4  UNL     1      -7.119   5.955  15.744  1.00  0.00     0.031 C 
BRANCH  22  23
HETATM   23  C3  UNL     1      -7.541   4.682  14.990  1.00  0.00     0.037 C 
BRANCH  23  24
HETATM   24  C2  UNL     1      -7.822   4.814  13.498  1.00  0.00    -0.086 C 
HETATM   25  C1  UNL     1      -8.656   5.730  12.971  1.00  0.00     0.014 C 
BRANCH  24  26
HETATM   26  C25 UNL     1      -7.108   3.830  12.569  1.00  0.00     0.005 C 
HETATM   27  C26 UNL     1      -5.586   3.982  12.630  1.00  0.00     0.014 C 
HETATM   28  C27 UNL     1      -7.518   2.378  12.831  1.00  0.00     0.014 C 
ENDBRANCH  24  26
ENDBRANCH  23  24
ENDBRANCH  22  23
ENDBRANCH   1  22
BRANCH  11  29
HETATM   29  O1  UNL     1       1.856   5.531   9.347  1.00  0.00    -0.396 OA
HETATM   30  H21 UNL     1       2.810   5.595   9.526  1.00  0.00     0.210 HD
ENDBRANCH  11  29
TORSDOF 5
ENDMDL
MODEL 2
REMARK minimizedAffinity -8.59238529
REMARK  5 active torsions:
REMARK  status: ('A' for Active; 'I' for Inactive)
REMARK    1  A    between atoms: C2_2  and  C3_3 
REMARK    2  A    between atoms: C2_2  and  C25_27 
REMARK    3  A    between atoms: C3_3  and  C4_4 
REMARK    4  A    between atoms: C4_4  and  C5_5 
REMARK    5  A    between atoms: C15_15  and  O1_16 
ROOT
HETATM    1  C5  UNL     1      -2.178   5.434  12.854  1.00  0.00    -0.023 C 
HETATM    2  C6  UNL     1      -0.949   5.462  12.303  1.00  0.00    -0.075 C 
HETATM    3  C7  UNL     1      -0.309   4.313  11.576  1.00  0.00     0.035 C 
HETATM    4  C8  UNL     1       1.144   4.741  11.417  1.00  0.00     0.013 C 
HETATM    5  C9  UNL     1       1.074   6.267  11.267  1.00  0.00     0.033 C 
HETATM    6  C10 UNL     1       2.429   7.004  11.385  1.00  0.00     0.070 C 
HETATM    7  C11 UNL     1       3.521   6.387  10.466  1.00  0.00     0.039 C 
HETATM    8  C12 UNL     1       4.920   6.437  11.076  1.00  0.00     0.009 C 
HETATM    9  C13 UNL     1       5.228   7.773  11.768  1.00  0.00    -0.001 C 
HETATM   10  C14 UNL     1       6.484   7.632  12.652  1.00  0.00     0.037 C 
HETATM   11  C15 UNL     1       6.138   7.258  14.088  1.00  0.00     0.118 C 
HETATM   12  C16 UNL     1       5.266   8.321  14.757  1.00  0.00     0.032 C 
HETATM   13  C17 UNL     1       4.456   9.153  13.759  1.00  0.00     0.015 C 
HETATM   14  C18 UNL     1       3.986   8.347  12.539  1.00  0.00    -0.009 C 
HETATM   15  C19 UNL     1       3.170   9.230  11.573  1.00  0.00     0.179 C 
HETATM   16  O2  UNL     1       2.254   8.360  10.883  1.00  0.00    -0.379 OA
HETATM   17  C20 UNL     1       2.944   7.235  12.818  1.00  0.00     0.032 C 
HETATM   18  C21 UNL     1       1.835   7.673  13.793  1.00  0.00     0.009 C 
HETATM   19  C22 UNL     1       0.626   6.753  13.742  1.00  0.00     0.014 C 
HETATM   20  C23 UNL     1       0.008   6.660  12.331  1.00  0.00    -0.014 C 
HETATM   21  C24 UNL     1      -0.706   7.968  11.947  1.00  0.00     0.020 C 
ENDROOT
BRANCH   1  22
HETATM   22  C4  UNL     1      -3.145   4.279  12.817  1.00  0.00     0.031 C 
BRANCH  22  23
HETATM   23  C3  UNL     1      -4.599   4.780  12.878  1.00  0.00     0.037 C 
BRANCH  23  24
HETATM   24  C2  UNL     1      -5.674   3.879  12.283  1.00  0.00    -0.086 C 
HETATM   25  C1  UNL     1      -5.492   3.118  11.187  1.00  0.00     0.014 C 
BRANCH  24  26
HETATM   26  C25 UNL     1      -7.032   3.864  12.987  1.00  0.00     0.005 C 
HETATM   27  C26 UNL     1      -7.949   4.987  12.494  1.00  0.00     0.014 C 
HETATM   28  C27 UNL     1      -7.732   2.506  12.875  1.00  0.00     0.014 C 
ENDBRANCH  24  26
ENDBRANCH  23  24
ENDBRANCH  22  23
ENDBRANCH   1  22
BRANCH  11  29
HETATM   29  O1  UNL     1       7.333   7.067  14.838  1.00  0.00    -0.396 OA
HETATM   30  H21 UNL     1       7.802   7.917  14.882  1.00  0.00     0.210 HD
ENDBRANCH  11  29
TORSDOF 5
ENDMDL
MODEL 3
REMARK minimizedAffinity -8.52178574
REMARK  5 active torsions:
REMARK  status: ('A' for Active; 'I' for Inactive)
REMARK    1  A    between atoms: C2_2  and  C3_3 
REMARK    2  A    between atoms: C2_2  and  C25_27 
REMARK    3  A    between atoms: C3_3  and  C4_4 
REMARK    4  A    between atoms: C4_4  and  C5_5 
REMARK    5  A    between atoms: C15_15  and  O1_16 
ROOT
HETATM    1  C5  UNL     1      -2.161   5.176  13.085  1.00  0.00    -0.023 C 
HETATM    2  C6  UNL     1      -0.963   5.328  12.491  1.00  0.00    -0.075 C 
HETATM    3  C7  UNL     1      -0.307   4.303  11.609  1.00  0.00     0.035 C 
HETATM    4  C8  UNL     1       1.117   4.818  11.440  1.00  0.00     0.013 C 
HETATM    5  C9  UNL     1       0.971   6.346  11.472  1.00  0.00     0.033 C 
HETATM    6  C10 UNL     1       2.297   7.131  11.619  1.00  0.00     0.070 C 
HETATM    7  C11 UNL     1       3.370   6.678  10.589  1.00  0.00     0.039 C 
HETATM    8  C12 UNL     1       4.793   6.728  11.142  1.00  0.00     0.009 C 
HETATM    9  C13 UNL     1       5.074   7.989  11.971  1.00  0.00    -0.001 C 
HETATM   10  C14 UNL     1       6.375   7.810  12.780  1.00  0.00     0.037 C 
HETATM   11  C15 UNL     1       6.114   7.257  14.176  1.00  0.00     0.118 C 
HETATM   12  C16 UNL     1       5.228   8.192  15.000  1.00  0.00     0.032 C 
HETATM   13  C17 UNL     1       4.336   9.092  14.141  1.00  0.00     0.015 C 
HETATM   14  C18 UNL     1       3.845   8.408  12.856  1.00  0.00    -0.009 C 
HETATM   15  C19 UNL     1       2.946   9.354  12.034  1.00  0.00     0.179 C 
HETATM   16  O2  UNL     1       2.038   8.525  11.286  1.00  0.00    -0.379 OA
HETATM   17  C20 UNL     1       2.868   7.221  13.046  1.00  0.00     0.032 C 
HETATM   18  C21 UNL     1       1.788   7.489  14.111  1.00  0.00     0.009 C 
HETATM   19  C22 UNL     1       0.620   6.522  14.004  1.00  0.00     0.014 C 
HETATM   20  C23 UNL     1      -0.060   6.561  12.619  1.00  0.00    -0.014 C 
HETATM   21  C24 UNL     1      -0.849   7.867  12.420  1.00  0.00     0.020 C 
ENDROOT
BRANCH   1  22
HETATM   22  C4  UNL     1      -3.077   3.986  12.955  1.00  0.00     0.031 C 
BRANCH  22  23
HETATM   23  C3  UNL     1      -4.519   4.435  12.658  1.00  0.00     0.037 C 
BRANCH  23  24
HETATM   24  C2  UNL     1      -5.541   3.346  12.356  1.00  0.00    -0.086 C 
HETATM   25  C1  UNL     1      -6.759   3.283  12.926  1.00  0.00     0.014 C 
BRANCH  24  26
HETATM   26  C25 UNL     1      -5.130   2.271  11.348  1.00  0.00     0.005 C 
HETATM   27  C26 UNL     1      -3.840   1.558  11.761  1.00  0.00     0.014 C 
HETATM   28  C27 UNL     1      -6.249   1.258  11.087  1.00  0.00     0.014 C 
ENDBRANCH  24  26
ENDBRANCH  23  24
ENDBRANCH  22  23
ENDBRANCH   1  22
BRANCH  11  29
HETATM   29  O1  UNL     1       7.350   7.041  14.848  1.00  0.00    -0.396 OA
HETATM   30  H21 UNL     1       7.783   7.903  14.971  1.00  0.00     0.210 HD
ENDBRANCH  11  29
TORSDOF 5
ENDMDL
MODEL 4
REMARK minimizedAffinity -8.51359558
REMARK  5 active torsions:
REMARK  status: ('A' for Active; 'I' for Inactive)
REMARK    1  A    between atoms: C2_2  and  C3_3 
REMARK    2  A    between atoms: C2_2  and  C25_27 
REMARK    3  A    between atoms: C3_3  and  C4_4 
REMARK    4  A    between atoms: C4_4  and  C5_5 
REMARK    5  A    between atoms: C15_15  and  O1_16 
ROOT
HETATM    1  C5  UNL     1      -4.974   5.285  13.289  1.00  0.00    -0.023 C 
HETATM    2  C6  UNL     1      -3.779   5.879  13.110  1.00  0.00    -0.075 C 
HETATM    3  C7  UNL     1      -2.592   5.236  12.450  1.00  0.00     0.035 C 
HETATM    4  C8  UNL     1      -1.440   6.184  12.757  1.00  0.00     0.013 C 
HETATM    5  C9  UNL     1      -2.093   7.573  12.789  1.00  0.00     0.033 C 
HETATM    6  C10 UNL     1      -1.211   8.702  13.373  1.00  0.00     0.070 C 
HETATM    7  C11 UNL     1       0.201   8.747  12.723  1.00  0.00     0.039 C 
HETATM    8  C12 UNL     1       1.301   9.159  13.700  1.00  0.00     0.009 C 
HETATM    9  C13 UNL     1       0.889  10.321  14.615  1.00  0.00    -0.001 C 
HETATM   10  C14 UNL     1       1.883  10.447  15.788  1.00  0.00     0.037 C 
HETATM   11  C15 UNL     1       1.431   9.658  17.011  1.00  0.00     0.118 C 
HETATM   12  C16 UNL     1       0.085  10.153  17.541  1.00  0.00     0.032 C 
HETATM   13  C17 UNL     1      -0.770  10.840  16.472  1.00  0.00     0.015 C 
HETATM   14  C18 UNL     1      -0.609  10.217  15.077  1.00  0.00    -0.009 C 
HETATM   15  C19 UNL     1      -1.496  10.940  14.042  1.00  0.00     0.179 C 
HETATM   16  O2  UNL     1      -1.815   9.979  13.020  1.00  0.00    -0.379 OA
HETATM   17  C20 UNL     1      -1.141   8.772  14.910  1.00  0.00     0.032 C 
HETATM   18  C21 UNL     1      -2.507   8.547  15.586  1.00  0.00     0.009 C 
HETATM   19  C22 UNL     1      -3.199   7.290  15.083  1.00  0.00     0.014 C 
HETATM   20  C23 UNL     1      -3.421   7.302  13.556  1.00  0.00    -0.014 C 
HETATM   21  C24 UNL     1      -4.509   8.315  13.158  1.00  0.00     0.020 C 
ENDROOT
BRANCH   1  22
HETATM   22  C4  UNL     1      -5.358   3.900  12.837  1.00  0.00     0.031 C 
BRANCH  22  23
HETATM   23  C3  UNL     1      -6.882   3.701  12.916  1.00  0.00     0.037 C 
BRANCH  23  24
HETATM   24  C2  UNL     1      -7.743   4.950  13.057  1.00  0.00    -0.086 C 
HETATM   25  C1  UNL     1      -8.555   5.413  12.089  1.00  0.00     0.014 C 
BRANCH  24  26
HETATM   26  C25 UNL     1      -7.654   5.705  14.384  1.00  0.00     0.005 C 
HETATM   27  C26 UNL     1      -8.720   6.798  14.498  1.00  0.00     0.014 C 
HETATM   28  C27 UNL     1      -7.710   4.768  15.594  1.00  0.00     0.014 C 
ENDBRANCH  24  26
ENDBRANCH  23  24
ENDBRANCH  22  23
ENDBRANCH   1  22
BRANCH  11  29
HETATM   29  O1  UNL     1       2.418   9.746  18.034  1.00  0.00    -0.396 OA
HETATM   30  H21 UNL     1       2.481  10.675  18.315  1.00  0.00     0.210 HD
ENDBRANCH  11  29
TORSDOF 5
ENDMDL
MODEL 5
REMARK minimizedAffinity -8.47432804
REMARK  5 active torsions:
REMARK  status: ('A' for Active; 'I' for Inactive)
REMARK    1  A    between atoms: C2_2  and  C3_3 
REMARK    2  A    between atoms: C2_2  and  C25_27 
REMARK    3  A    between atoms: C3_3  and  C4_4 
REMARK    4  A    between atoms: C4_4  and  C5_5 
REMARK    5  A    between atoms: C15_15  and  O1_16 
ROOT
HETATM    1  C5  UNL     1      -3.878   4.337  12.803  1.00  0.00    -0.023 C 
HETATM    2  C6  UNL     1      -2.746   4.926  12.372  1.00  0.00    -0.075 C 
HETATM    3  C7  UNL     1      -1.917   4.446  11.214  1.00  0.00     0.035 C 
HETATM    4  C8  UNL     1      -0.629   5.251  11.323  1.00  0.00     0.013 C 
HETATM    5  C9  UNL     1      -1.075   6.600  11.904  1.00  0.00     0.033 C 
HETATM    6  C10 UNL     1       0.070   7.515  12.400  1.00  0.00     0.070 C 
HETATM    7  C11 UNL     1       1.190   7.691  11.337  1.00  0.00     0.039 C 
HETATM    8  C12 UNL     1       2.586   7.806  11.947  1.00  0.00     0.009 C 
HETATM    9  C13 UNL     1       2.626   8.701  13.194  1.00  0.00    -0.001 C 
HETATM   10  C14 UNL     1       3.954   8.490  13.951  1.00  0.00     0.037 C 
HETATM   11  C15 UNL     1       3.837   7.422  15.032  1.00  0.00     0.118 C 
HETATM   12  C16 UNL     1       2.799   7.797  16.090  1.00  0.00     0.032 C 
HETATM   13  C17 UNL     1       1.728   8.760  15.572  1.00  0.00     0.015 C 
HETATM   14  C18 UNL     1       1.357   8.518  14.102  1.00  0.00    -0.009 C 
HETATM   15  C19 UNL     1       0.271   9.508  13.634  1.00  0.00     0.179 C 
HETATM   16  O2  UNL     1      -0.468   8.855  12.586  1.00  0.00    -0.379 OA
HETATM   17  C20 UNL     1       0.640   7.180  13.791  1.00  0.00     0.032 C 
HETATM   18  C21 UNL     1      -0.449   6.823  14.819  1.00  0.00     0.009 C 
HETATM   19  C22 UNL     1      -1.403   5.758  14.301  1.00  0.00     0.014 C 
HETATM   20  C23 UNL     1      -2.105   6.174  12.991  1.00  0.00    -0.014 C 
HETATM   21  C24 UNL     1      -3.142   7.283  13.240  1.00  0.00     0.020 C 
ENDROOT
BRANCH   1  22
HETATM   22  C4  UNL     1      -4.541   3.127  12.196  1.00  0.00     0.031 C 
BRANCH  22  23
HETATM   23  C3  UNL     1      -5.945   3.476  11.674  1.00  0.00     0.037 C 
BRANCH  23  24
HETATM   24  C2  UNL     1      -7.134   3.051  12.528  1.00  0.00    -0.086 C 
HETATM   25  C1  UNL     1      -7.495   1.770  12.724  1.00  0.00     0.014 C 
BRANCH  24  26
HETATM   26  C25 UNL     1      -7.951   4.168  13.180  1.00  0.00     0.005 C 
HETATM   27  C26 UNL     1      -7.252   4.750  14.412  1.00  0.00     0.014 C 
HETATM   28  C27 UNL     1      -8.316   5.278  12.190  1.00  0.00     0.014 C 
ENDBRANCH  24  26
ENDBRANCH  23  24
ENDBRANCH  22  23
ENDBRANCH   1  22
BRANCH  11  29
HETATM   29  O1  UNL     1       5.105   7.216  15.645  1.00  0.00    -0.396 OA
HETATM   30  H21 UNL     1       5.360   8.037  16.099  1.00  0.00     0.210 HD
ENDBRANCH  11  29
TORSDOF 5
ENDMDL
MODEL 6
REMARK minimizedAffinity -8.45972157
REMARK  5 active torsions:
REMARK  status: ('A' for Active; 'I' for Inactive)
REMARK    1  A    between atoms: C2_2  and  C3_3 
REMARK    2  A    between atoms: C2_2  and  C25_27 
REMARK    3  A    between atoms: C3_3  and  C4_4 
REMARK    4  A    between atoms: C4_4  and  C5_5 
REMARK    5  A    between atoms: C15_15  and  O1_16 
ROOT
HETATM    1  C5  UNL     1      -5.234   4.765  13.288  1.00  0.00    -0.023 C 
HETATM    2  C6  UNL     1      -4.013   5.053  12.800  1.00  0.00    -0.075 C 
HETATM    3  C7  UNL     1      -3.238   4.178  11.857  1.00  0.00     0.035 C 
HETATM    4  C8  UNL     1      -1.843   4.788  11.847  1.00  0.00     0.013 C 
HETATM    5  C9  UNL     1      -2.088   6.291  12.041  1.00  0.00     0.033 C 
HETATM    6  C10 UNL     1      -0.828   7.128  12.369  1.00  0.00     0.070 C 
HETATM    7  C11 UNL     1       0.335   6.861  11.372  1.00  0.00     0.039 C 
HETATM    8  C12 UNL     1       1.714   6.926  12.026  1.00  0.00     0.009 C 
HETATM    9  C13 UNL     1       1.860   8.095  13.010  1.00  0.00    -0.001 C 
HETATM   10  C14 UNL     1       3.116   7.898  13.883  1.00  0.00     0.037 C 
HETATM   11  C15 UNL     1       2.804   7.171  15.186  1.00  0.00     0.118 C 
HETATM   12  C16 UNL     1       1.809   7.951  16.045  1.00  0.00     0.032 C 
HETATM   13  C17 UNL     1       0.916   8.894  15.233  1.00  0.00     0.015 C 
HETATM   14  C18 UNL     1       0.553   8.338  13.848  1.00  0.00    -0.009 C 
HETATM   15  C19 UNL     1      -0.352   9.321  13.077  1.00  0.00     0.179 C 
HETATM   16  O2  UNL     1      -1.154   8.534  12.178  1.00  0.00    -0.379 OA
HETATM   17  C20 UNL     1      -0.356   7.083  13.834  1.00  0.00     0.032 C 
HETATM   18  C21 UNL     1      -1.516   7.163  14.844  1.00  0.00     0.009 C 
HETATM   19  C22 UNL     1      -2.610   6.151  14.546  1.00  0.00     0.014 C 
HETATM   20  C23 UNL     1      -3.202   6.313  13.130  1.00  0.00    -0.014 C 
HETATM   21  C24 UNL     1      -4.059   7.586  13.024  1.00  0.00     0.020 C 
ENDROOT
BRANCH   1  22
HETATM   22  C4  UNL     1      -6.062   3.549  12.960  1.00  0.00     0.031 C 
BRANCH  22  23
HETATM   23  C3  UNL     1      -7.528   3.755  13.377  1.00  0.00     0.037 C 
BRANCH  23  24
HETATM   24  C2  UNL     1      -8.105   5.158  13.232  1.00  0.00    -0.086 C 
HETATM   25  C1  UNL     1      -8.648   5.631  12.095  1.00  0.00     0.014 C 
BRANCH  24  26
HETATM   26  C25 UNL     1      -8.042   6.063  14.464  1.00  0.00     0.005 C 
HETATM   27  C26 UNL     1      -9.272   6.968  14.578  1.00  0.00     0.014 C 
HETATM   28  C27 UNL     1      -7.831   5.271  15.758  1.00  0.00     0.014 C 
ENDBRANCH  24  26
ENDBRANCH  23  24
ENDBRANCH  22  23
ENDBRANCH   1  22
BRANCH  11  29
HETATM   29  O1  UNL     1       4.006   6.949  15.915  1.00  0.00    -0.396 OA
HETATM   30  H21 UNL     1       4.374   7.814  16.164  1.00  0.00     0.210 HD
ENDBRANCH  11  29
TORSDOF 5
ENDMDL
MODEL 7
REMARK minimizedAffinity -8.19649124
REMARK  5 active torsions:
REMARK  status: ('A' for Active; 'I' for Inactive)
REMARK    1  A    between atoms: C2_2  and  C3_3 
REMARK    2  A    between atoms: C2_2  and  C25_27 
REMARK    3  A    between atoms: C3_3  and  C4_4 
REMARK    4  A    between atoms: C4_4  and  C5_5 
REMARK    5  A    between atoms: C15_15  and  O1_16 
ROOT
HETATM    1  C5  UNL     1      -2.299   5.679  13.073  1.00  0.00    -0.023 C 
HETATM    2  C6  UNL     1      -1.137   5.477  12.423  1.00  0.00    -0.075 C 
HETATM    3  C7  UNL     1      -0.616   4.134  11.996  1.00  0.00     0.035 C 
HETATM    4  C8  UNL     1       0.824   4.410  11.584  1.00  0.00     0.013 C 
HETATM    5  C9  UNL     1       0.786   5.834  11.014  1.00  0.00     0.033 C 
HETATM    6  C10 UNL     1       2.169   6.491  10.789  1.00  0.00     0.070 C 
HETATM    7  C11 UNL     1       3.135   5.576   9.983  1.00  0.00     0.039 C 
HETATM    8  C12 UNL     1       4.593   5.710  10.419  1.00  0.00     0.009 C 
HETATM    9  C13 UNL     1       5.016   7.164  10.670  1.00  0.00    -0.001 C 
HETATM   10  C14 UNL     1       6.355   7.199  11.434  1.00  0.00     0.037 C 
HETATM   11  C15 UNL     1       6.155   7.263  12.944  1.00  0.00     0.118 C 
HETATM   12  C16 UNL     1       5.394   8.522  13.362  1.00  0.00     0.032 C 
HETATM   13  C17 UNL     1       4.508   9.090  12.250  1.00  0.00     0.015 C 
HETATM   14  C18 UNL     1       3.883   8.006  11.360  1.00  0.00    -0.009 C 
HETATM   15  C19 UNL     1       2.996   8.631  10.265  1.00  0.00     0.179 C 
HETATM   16  O2  UNL     1       1.984   7.661   9.941  1.00  0.00    -0.379 OA
HETATM   17  C20 UNL     1       2.843   7.082  12.041  1.00  0.00     0.032 C 
HETATM   18  C21 UNL     1       1.860   7.842  12.952  1.00  0.00     0.009 C 
HETATM   19  C22 UNL     1       0.624   7.020  13.279  1.00  0.00     0.014 C 
HETATM   20  C23 UNL     1      -0.146   6.575  12.018  1.00  0.00    -0.014 C 
HETATM   21  C24 UNL     1      -0.855   7.764  11.347  1.00  0.00     0.020 C 
ENDROOT
BRANCH   1  22
HETATM   22  C4  UNL     1      -3.302   4.621  13.458  1.00  0.00     0.031 C 
BRANCH  22  23
HETATM   23  C3  UNL     1      -4.516   4.647  12.513  1.00  0.00     0.037 C 
BRANCH  23  24
HETATM   24  C2  UNL     1      -5.853   5.074  13.106  1.00  0.00    -0.086 C 
HETATM   25  C1  UNL     1      -5.987   6.039  14.035  1.00  0.00     0.014 C 
BRANCH  24  26
HETATM   26  C25 UNL     1      -7.099   4.341  12.603  1.00  0.00     0.005 C 
HETATM   27  C26 UNL     1      -7.480   3.166  13.507  1.00  0.00     0.014 C 
HETATM   28  C27 UNL     1      -8.291   5.283  12.410  1.00  0.00     0.014 C 
ENDBRANCH  24  26
ENDBRANCH  23  24
ENDBRANCH  22  23
ENDBRANCH   1  22
BRANCH  11  29
HETATM   29  O1  UNL     1       7.417   7.217  13.600  1.00  0.00    -0.396 OA
HETATM   30  H21 UNL     1       7.915   8.015  13.356  1.00  0.00     0.210 HD
ENDBRANCH  11  29
TORSDOF 5
ENDMDL
MODEL 8
REMARK minimizedAffinity -8.1919508
REMARK  5 active torsions:
REMARK  status: ('A' for Active; 'I' for Inactive)
REMARK    1  A    between atoms: C2_2  and  C3_3 
REMARK    2  A    between atoms: C2_2  and  C25_27 
REMARK    3  A    between atoms: C3_3  and  C4_4 
REMARK    4  A    between atoms: C4_4  and  C5_5 
REMARK    5  A    between atoms: C15_15  and  O1_16 
ROOT
HETATM    1  C5  UNL     1      -6.795   5.927  14.399  1.00  0.00    -0.023 C 
HETATM    2  C6  UNL     1      -5.764   6.712  14.032  1.00  0.00    -0.075 C 
HETATM    3  C7  UNL     1      -5.896   8.004  13.277  1.00  0.00     0.035 C 
HETATM    4  C8  UNL     1      -4.470   8.337  12.861  1.00  0.00     0.013 C 
HETATM    5  C9  UNL     1      -3.605   7.786  14.004  1.00  0.00     0.033 C 
HETATM    6  C10 UNL     1      -2.087   7.718  13.709  1.00  0.00     0.070 C 
HETATM    7  C11 UNL     1      -1.530   9.065  13.166  1.00  0.00     0.039 C 
HETATM    8  C12 UNL     1      -0.416   8.883  12.137  1.00  0.00     0.009 C 
HETATM    9  C13 UNL     1       0.588   7.788  12.523  1.00  0.00    -0.001 C 
HETATM   10  C14 UNL     1       1.458   7.416  11.304  1.00  0.00     0.037 C 
HETATM   11  C15 UNL     1       0.874   6.250  10.515  1.00  0.00     0.118 C 
HETATM   12  C16 UNL     1       0.773   4.984  11.367  1.00  0.00     0.032 C 
HETATM   13  C17 UNL     1       0.681   5.270  12.868  1.00  0.00     0.015 C 
HETATM   14  C18 UNL     1      -0.107   6.548  13.193  1.00  0.00    -0.009 C 
HETATM   15  C19 UNL     1      -0.176   6.785  14.715  1.00  0.00     0.179 C 
HETATM   16  O2  UNL     1      -1.388   7.517  14.970  1.00  0.00    -0.379 OA
HETATM   17  C20 UNL     1      -1.621   6.518  12.865  1.00  0.00     0.032 C 
HETATM   18  C21 UNL     1      -2.302   5.197  13.269  1.00  0.00     0.009 C 
HETATM   19  C22 UNL     1      -3.816   5.323  13.327  1.00  0.00     0.014 C 
HETATM   20  C23 UNL     1      -4.284   6.418  14.309  1.00  0.00    -0.014 C 
HETATM   21  C24 UNL     1      -4.052   5.995  15.770  1.00  0.00     0.020 C 
ENDROOT
BRANCH   1  22
HETATM   22  C4  UNL     1      -8.257   6.207  14.162  1.00  0.00     0.031 C 
BRANCH  22  23
HETATM   23  C3  UNL     1      -8.806   7.185  15.215  1.00  0.00     0.037 C 
BRANCH  23  24
HETATM   24  C2  UNL     1     -10.208   7.739  14.990  1.00  0.00    -0.086 C 
HETATM   25  C1  UNL     1     -10.755   8.715  15.738  1.00  0.00     0.014 C 
BRANCH  24  26
HETATM   26  C25 UNL     1     -11.019   7.127  13.848  1.00  0.00     0.005 C 
HETATM   27  C26 UNL     1     -12.275   6.410  14.351  1.00  0.00     0.014 C 
HETATM   28  C27 UNL     1     -11.379   8.155  12.771  1.00  0.00     0.014 C 
ENDBRANCH  24  26
ENDBRANCH  23  24
ENDBRANCH  22  23
ENDBRANCH   1  22
BRANCH  11  29
HETATM   29  O1  UNL     1       1.672   5.999   9.364  1.00  0.00    -0.396 OA
HETATM   30  H21 UNL     1       2.553   5.715   9.661  1.00  0.00     0.210 HD
ENDBRANCH  11  29
TORSDOF 5
ENDMDL
MODEL 9
REMARK minimizedAffinity -8.18964386
REMARK  5 active torsions:
REMARK  status: ('A' for Active; 'I' for Inactive)
REMARK    1  A    between atoms: C2_2  and  C3_3 
REMARK    2  A    between atoms: C2_2  and  C25_27 
REMARK    3  A    between atoms: C3_3  and  C4_4 
REMARK    4  A    between atoms: C4_4  and  C5_5 
REMARK    5  A    between atoms: C15_15  and  O1_16 
ROOT
HETATM    1  C5  UNL     1      -6.005   5.679  13.825  1.00  0.00    -0.023 C 
HETATM    2  C6  UNL     1      -5.132   6.702  13.892  1.00  0.00    -0.075 C 
HETATM    3  C7  UNL     1      -5.404   8.096  13.400  1.00  0.00     0.035 C 
HETATM    4  C8  UNL     1      -4.040   8.771  13.431  1.00  0.00     0.013 C 
HETATM    5  C9  UNL     1      -3.323   8.119  14.621  1.00  0.00     0.033 C 
HETATM    6  C10 UNL     1      -1.803   8.401  14.710  1.00  0.00     0.070 C 
HETATM    7  C11 UNL     1      -1.475   9.917  14.603  1.00  0.00     0.039 C 
HETATM    8  C12 UNL     1      -0.164  10.199  13.872  1.00  0.00     0.009 C 
HETATM    9  C13 UNL     1       0.967   9.241  14.272  1.00  0.00    -0.001 C 
HETATM   10  C14 UNL     1       2.128   9.344  13.263  1.00  0.00     0.037 C 
HETATM   11  C15 UNL     1       2.005   8.323  12.137  1.00  0.00     0.118 C 
HETATM   12  C16 UNL     1       2.030   6.889  12.667  1.00  0.00     0.032 C 
HETATM   13  C17 UNL     1       1.569   6.774  14.123  1.00  0.00     0.015 C 
HETATM   14  C18 UNL     1       0.457   7.770  14.486  1.00  0.00    -0.009 C 
HETATM   15  C19 UNL     1       0.027   7.606  15.958  1.00  0.00     0.179 C 
HETATM   16  O2  UNL     1      -1.348   8.023  16.040  1.00  0.00    -0.379 OA
HETATM   17  C20 UNL     1      -0.909   7.550  13.789  1.00  0.00     0.032 C 
HETATM   18  C21 UNL     1      -1.332   6.070  13.738  1.00  0.00     0.009 C 
HETATM   19  C22 UNL     1      -2.813   5.904  13.438  1.00  0.00     0.014 C 
HETATM   20  C23 UNL     1      -3.713   6.619  14.468  1.00  0.00    -0.014 C 
HETATM   21  C24 UNL     1      -3.691   5.897  15.827  1.00  0.00     0.020 C 
ENDROOT
BRANCH   1  22
HETATM   22  C4  UNL     1      -7.412   5.741  13.288  1.00  0.00     0.031 C 
BRANCH  22  23
HETATM   23  C3  UNL     1      -7.616   4.710  12.164  1.00  0.00     0.037 C 
BRANCH  23  24
HETATM   24  C2  UNL     1      -7.082   3.303  12.403  1.00  0.00    -0.086 C 
HETATM   25  C1  UNL     1      -7.510   2.497  13.392  1.00  0.00     0.014 C 
BRANCH  24  26
HETATM   26  C25 UNL     1      -5.991   2.806  11.452  1.00  0.00     0.005 C 
HETATM   27  C26 UNL     1      -4.587   3.152  11.954  1.00  0.00     0.014 C 
HETATM   28  C27 UNL     1      -6.107   1.306  11.163  1.00  0.00     0.014 C 
ENDBRANCH  24  26
ENDBRANCH  23  24
ENDBRANCH  22  23
ENDBRANCH   1  22
BRANCH  11  29
HETATM   29  O1  UNL     1       3.057   8.512  11.197  1.00  0.00    -0.396 OA
HETATM   30  H21 UNL     1       3.900   8.326  11.644  1.00  0.00     0.210 HD
ENDBRANCH  11  29
TORSDOF 5
ENDMDL
