MODEL 1
REMARK minimizedAffinity -10.0999403
REMARK CNNscore 0.619789839
REMARK CNNaffinity 7.54283953
REMARK  10 active torsions:
REMARK  status: ('A' for Active; 'I' for Inactive)
REMARK    1  A    between atoms: C19_20  and  O2_21 
REMARK    2  A    between atoms: C19_20  and  C20_22 
REMARK    3  A    between atoms: C20_22  and  C21_24 
REMARK    4  A    between atoms: C21_24  and  O4_25 
REMARK    5  A    between atoms: O4_25  and  C22_26 
REMARK    6  A    between atoms: C22_26  and  C23_28 
REMARK    7  A    between atoms: C23_28  and  C24_29 
REMARK    8  A    between atoms: C24_29  and  C25_30 
REMARK       I    between atoms: C25_30  and  N1_32 
REMARK    9  A    between atoms: N1_32  and  C26_33 
REMARK   10  A    between atoms: C26_33  and  C27_34 
ROOT
HETATM    1  C1  UNL     1      -0.281  49.768 -20.937  1.00  0.00     0.020 C 
HETATM    2  C2  UNL     1      -0.979  51.128 -21.158  1.00  0.00    -0.016 C 
HETATM    3  C3  UNL     1      -0.208  51.917 -22.259  1.00  0.00     0.022 C 
HETATM    4  C4  UNL     1       1.134  52.463 -21.792  1.00  0.00     0.084 C 
HETATM    5  C5  UNL     1       0.949  53.324 -20.572  1.00  0.00     0.149 C 
HETATM    6  O1  UNL     1       1.653  54.301 -20.340  1.00  0.00    -0.293 OA
HETATM    7  C6  UNL     1      -0.082  52.915 -19.590  1.00  0.00     0.053 C 
HETATM    8  C7  UNL     1      -0.936  51.906 -19.835  1.00  0.00    -0.068 C 
HETATM    9  C8  UNL     1      -1.901  51.473 -18.757  1.00  0.00     0.035 C 
HETATM   10  C9  UNL     1      -3.329  51.371 -19.281  1.00  0.00     0.010 C 
HETATM   11  C10 UNL     1      -3.408  50.431 -20.491  1.00  0.00    -0.004 C 
HETATM   12  C11 UNL     1      -2.475  50.948 -21.627  1.00  0.00     0.002 C 
HETATM   13  C12 UNL     1      -2.630  50.107 -22.921  1.00  0.00     0.007 C 
HETATM   14  C13 UNL     1      -4.094  49.881 -23.354  1.00  0.00     0.013 C 
HETATM   15  C14 UNL     1      -4.972  49.341 -22.208  1.00  0.00    -0.002 C 
HETATM   16  C15 UNL     1      -4.524  47.899 -21.844  1.00  0.00     0.019 C 
HETATM   17  C16 UNL     1      -4.843  50.333 -21.029  1.00  0.00     0.002 C 
HETATM   18  C17 UNL     1      -5.956  49.913 -20.073  1.00  0.00     0.009 C 
HETATM   19  C18 UNL     1      -7.069  49.341 -20.978  1.00  0.00     0.047 C 
HETATM   20  C19 UNL     1      -6.515  49.383 -22.418  1.00  0.00     0.128 C 
ENDROOT
BRANCH  20  21
HETATM   21  O2  UNL     1      -6.926  50.647 -22.970  1.00  0.00    -0.381 OA
HETATM   22  H27 UNL     1      -6.549  50.700 -23.868  1.00  0.00     0.211 HD
ENDBRANCH  20  21
BRANCH  20  23
HETATM   23  C20 UNL     1      -7.049  48.340 -23.414  1.00  0.00     0.185 C 
HETATM   24  O3  UNL     1      -7.444  47.242 -22.996  1.00  0.00    -0.292 OA
BRANCH  23  25
HETATM   25  C21 UNL     1      -6.996  48.653 -24.906  1.00  0.00     0.260 C 
BRANCH  25  26
HETATM   26  O4  UNL     1      -5.864  48.067 -25.553  1.00  0.00    -0.314 OA
BRANCH  26  27
HETATM   27  C22 UNL     1      -6.114  47.650 -26.825  1.00  0.00     0.259 C 
HETATM   28  O5  UNL     1      -7.118  47.043 -27.180  1.00  0.00    -0.265 OA
BRANCH  27  29
HETATM   29  C23 UNL     1      -4.998  48.057 -27.743  1.00  0.00     0.120 C 
BRANCH  29  30
HETATM   30  C24 UNL     1      -3.813  48.577 -26.946  1.00  0.00     0.112 C 
BRANCH  30  31
HETATM   31  C25 UNL     1      -3.273  49.861 -27.536  1.00  0.00     0.218 C 
HETATM   32  O6  UNL     1      -3.509  50.232 -28.681  1.00  0.00    -0.274 OA
HETATM   33  N1  UNL     1      -2.496  50.573 -26.651  1.00  0.00    -0.357 N 
HETATM   34  H34 UNL     1      -2.409  50.255 -25.696  1.00  0.00     0.162 HD
BRANCH  33  35
HETATM   35  C26 UNL     1      -1.906  51.847 -27.004  1.00  0.00     0.162 C 
BRANCH  35  36
HETATM   36  C27 UNL     1      -0.410  51.766 -26.993  1.00  0.00    -0.025 A 
HETATM   37  C28 UNL     1       0.300  51.564 -25.804  1.00  0.00     0.011 A 
HETATM   38  C29 UNL     1       1.688  51.482 -25.828  1.00  0.00     0.018 A 
HETATM   39  C30 UNL     1       2.327  51.596 -27.051  1.00  0.00     0.087 A 
HETATM   40  N2  UNL     1       1.679  51.784 -28.221  1.00  0.00    -0.375 N 
HETATM   41  C31 UNL     1       0.331  51.870 -28.164  1.00  0.00     0.096 A 
ATOM     42  H2  UNL     1       2.182  51.856 -29.105  1.00  0.00     0.164 HD
ENDBRANCH  35  36
ENDBRANCH  33  35
ENDBRANCH  30  31
ENDBRANCH  29  30
ENDBRANCH  27  29
ENDBRANCH  26  27
ENDBRANCH  25  26
ENDBRANCH  23  25
ENDBRANCH  20  23
TORSDOF 10
ENDMDL
MODEL 2
REMARK minimizedAffinity -8.91078472
REMARK CNNscore 0.533458233
REMARK CNNaffinity 6.585361
REMARK  10 active torsions:
REMARK  status: ('A' for Active; 'I' for Inactive)
REMARK    1  A    between atoms: C19_20  and  O2_21 
REMARK    2  A    between atoms: C19_20  and  C20_22 
REMARK    3  A    between atoms: C20_22  and  C21_24 
REMARK    4  A    between atoms: C21_24  and  O4_25 
REMARK    5  A    between atoms: O4_25  and  C22_26 
REMARK    6  A    between atoms: C22_26  and  C23_28 
REMARK    7  A    between atoms: C23_28  and  C24_29 
REMARK    8  A    between atoms: C24_29  and  C25_30 
REMARK       I    between atoms: C25_30  and  N1_32 
REMARK    9  A    between atoms: N1_32  and  C26_33 
REMARK   10  A    between atoms: C26_33  and  C27_34 
ROOT
HETATM    1  C1  UNL     1      -0.753  50.354 -25.561  1.00  0.00     0.020 C 
HETATM    2  C2  UNL     1      -1.358  51.704 -25.117  1.00  0.00    -0.016 C 
HETATM    3  C3  UNL     1      -2.693  51.936 -25.886  1.00  0.00     0.022 C 
HETATM    4  C4  UNL     1      -2.498  52.285 -27.356  1.00  0.00     0.084 C 
HETATM    5  C5  UNL     1      -1.608  53.491 -27.490  1.00  0.00     0.149 C 
HETATM    6  O1  UNL     1      -1.738  54.312 -28.392  1.00  0.00    -0.293 OA
HETATM    7  C6  UNL     1      -0.492  53.634 -26.526  1.00  0.00     0.053 C 
HETATM    8  C7  UNL     1      -0.356  52.813 -25.469  1.00  0.00    -0.068 C 
HETATM    9  C8  UNL     1       0.854  52.948 -24.577  1.00  0.00     0.035 C 
HETATM   10  C9  UNL     1       0.469  53.012 -23.103  1.00  0.00     0.010 C 
HETATM   11  C10 UNL     1      -0.373  51.795 -22.698  1.00  0.00    -0.004 C 
HETATM   12  C11 UNL     1      -1.663  51.727 -23.569  1.00  0.00     0.002 C 
HETATM   13  C12 UNL     1      -2.611  50.593 -23.099  1.00  0.00     0.007 C 
HETATM   14  C13 UNL     1      -2.869  50.578 -21.577  1.00  0.00     0.013 C 
HETATM   15  C14 UNL     1      -1.565  50.614 -20.757  1.00  0.00    -0.002 C 
HETATM   16  C15 UNL     1      -0.785  49.286 -20.959  1.00  0.00     0.019 C 
HETATM   17  C16 UNL     1      -0.772  51.860 -21.217  1.00  0.00     0.002 C 
HETATM   18  C17 UNL     1       0.327  52.003 -20.167  1.00  0.00     0.009 C 
HETATM   19  C18 UNL     1      -0.286  51.447 -18.864  1.00  0.00     0.047 C 
HETATM   20  C19 UNL     1      -1.693  50.932 -19.237  1.00  0.00     0.128 C 
ENDROOT
BRANCH  20  21
HETATM   21  O2  UNL     1      -2.595  52.031 -19.015  1.00  0.00    -0.381 OA
HETATM   22  H27 UNL     1      -3.482  51.727 -19.283  1.00  0.00     0.211 HD
ENDBRANCH  20  21
BRANCH  20  23
HETATM   23  C20 UNL     1      -2.274  49.784 -18.395  1.00  0.00     0.185 C 
HETATM   24  O3  UNL     1      -2.145  48.615 -18.785  1.00  0.00    -0.292 OA
BRANCH  23  25
HETATM   25  C21 UNL     1      -3.073  50.123 -17.141  1.00  0.00     0.260 C 
BRANCH  25  26
HETATM   26  O4  UNL     1      -2.367  51.000 -16.258  1.00  0.00    -0.314 OA
BRANCH  26  27
HETATM   27  C22 UNL     1      -1.537  50.356 -15.393  1.00  0.00     0.259 C 
HETATM   28  O5  UNL     1      -0.632  49.597 -15.721  1.00  0.00    -0.265 OA
BRANCH  27  29
HETATM   29  C23 UNL     1      -1.866  50.721 -13.974  1.00  0.00     0.120 C 
BRANCH  29  30
HETATM   30  C24 UNL     1      -3.044  51.681 -13.930  1.00  0.00     0.112 C 
BRANCH  30  31
HETATM   31  C25 UNL     1      -3.445  51.995 -12.505  1.00  0.00     0.218 C 
HETATM   32  O6  UNL     1      -3.766  51.139 -11.687  1.00  0.00    -0.274 OA
HETATM   33  N1  UNL     1      -3.406  53.341 -12.221  1.00  0.00    -0.357 N 
HETATM   34  H34 UNL     1      -3.053  53.987 -12.913  1.00  0.00     0.162 HD
BRANCH  33  35
HETATM   35  C26 UNL     1      -3.724  53.855 -10.905  1.00  0.00     0.162 C 
BRANCH  35  36
HETATM   36  C27 UNL     1      -2.487  53.996 -10.072  1.00  0.00    -0.025 A 
HETATM   37  C28 UNL     1      -2.213  53.116  -9.020  1.00  0.00     0.011 A 
HETATM   38  C29 UNL     1      -1.049  53.266  -8.272  1.00  0.00     0.018 A 
HETATM   39  C30 UNL     1      -0.186  54.295  -8.610  1.00  0.00     0.087 A 
HETATM   40  N2  UNL     1      -0.409  55.160  -9.622  1.00  0.00    -0.375 N 
HETATM   41  C31 UNL     1      -1.553  54.995 -10.323  1.00  0.00     0.096 A 
ATOM     42  H2  UNL     1       0.253  55.902  -9.847  1.00  0.00     0.164 HD
ENDBRANCH  35  36
ENDBRANCH  33  35
ENDBRANCH  30  31
ENDBRANCH  29  30
ENDBRANCH  27  29
ENDBRANCH  26  27
ENDBRANCH  25  26
ENDBRANCH  23  25
ENDBRANCH  20  23
TORSDOF 10
ENDMDL
MODEL 3
REMARK minimizedAffinity -8.88711166
REMARK CNNscore 0.412419975
REMARK CNNaffinity 7.07061338
REMARK  10 active torsions:
REMARK  status: ('A' for Active; 'I' for Inactive)
REMARK    1  A    between atoms: C19_20  and  O2_21 
REMARK    2  A    between atoms: C19_20  and  C20_22 
REMARK    3  A    between atoms: C20_22  and  C21_24 
REMARK    4  A    between atoms: C21_24  and  O4_25 
REMARK    5  A    between atoms: O4_25  and  C22_26 
REMARK    6  A    between atoms: C22_26  and  C23_28 
REMARK    7  A    between atoms: C23_28  and  C24_29 
REMARK    8  A    between atoms: C24_29  and  C25_30 
REMARK       I    between atoms: C25_30  and  N1_32 
REMARK    9  A    between atoms: N1_32  and  C26_33 
REMARK   10  A    between atoms: C26_33  and  C27_34 
ROOT
HETATM    1  C1  UNL     1      -2.035  52.735 -24.481  1.00  0.00     0.020 C 
HETATM    2  C2  UNL     1      -1.089  51.524 -24.637  1.00  0.00    -0.016 C 
HETATM    3  C3  UNL     1       0.369  52.044 -24.816  1.00  0.00     0.022 C 
HETATM    4  C4  UNL     1       0.631  52.671 -26.179  1.00  0.00     0.084 C 
HETATM    5  C5  UNL     1       0.291  51.696 -27.274  1.00  0.00     0.149 C 
HETATM    6  O1  UNL     1       0.898  51.660 -28.339  1.00  0.00    -0.293 OA
HETATM    7  C6  UNL     1      -0.873  50.804 -27.065  1.00  0.00     0.053 C 
HETATM    8  C7  UNL     1      -1.519  50.743 -25.887  1.00  0.00    -0.068 C 
HETATM    9  C8  UNL     1      -2.757  49.887 -25.764  1.00  0.00     0.035 C 
HETATM   10  C9  UNL     1      -2.696  48.972 -24.546  1.00  0.00     0.010 C 
HETATM   11  C10 UNL     1      -2.462  49.777 -23.261  1.00  0.00    -0.004 C 
HETATM   12  C11 UNL     1      -1.132  50.581 -23.373  1.00  0.00     0.002 C 
HETATM   13  C12 UNL     1      -0.785  51.299 -22.043  1.00  0.00     0.007 C 
HETATM   14  C13 UNL     1      -0.878  50.395 -20.796  1.00  0.00     0.013 C 
HETATM   15  C14 UNL     1      -2.222  49.644 -20.710  1.00  0.00    -0.002 C 
HETATM   16  C15 UNL     1      -3.370  50.658 -20.452  1.00  0.00     0.019 C 
HETATM   17  C16 UNL     1      -2.389  48.860 -22.032  1.00  0.00     0.002 C 
HETATM   18  C17 UNL     1      -3.557  47.916 -21.753  1.00  0.00     0.009 C 
HETATM   19  C18 UNL     1      -3.479  47.617 -20.240  1.00  0.00     0.047 C 
HETATM   20  C19 UNL     1      -2.311  48.467 -19.694  1.00  0.00     0.128 C 
ENDROOT
BRANCH  20  21
HETATM   21  O2  UNL     1      -1.140  47.633 -19.765  1.00  0.00    -0.381 OA
HETATM   22  H27 UNL     1      -0.390  48.174 -19.457  1.00  0.00     0.211 HD
ENDBRANCH  20  21
BRANCH  20  23
HETATM   23  C20 UNL     1      -2.381  48.903 -18.221  1.00  0.00     0.185 C 
HETATM   24  O3  UNL     1      -3.466  48.868 -17.624  1.00  0.00    -0.292 OA
BRANCH  23  25
HETATM   25  C21 UNL     1      -1.123  49.453 -17.557  1.00  0.00     0.260 C 
BRANCH  25  26
HETATM   26  O4  UNL     1      -1.108  50.882 -17.501  1.00  0.00    -0.314 OA
BRANCH  26  27
HETATM   27  C22 UNL     1       0.140  51.414 -17.391  1.00  0.00     0.259 C 
HETATM   28  O5  UNL     1       0.584  52.315 -18.093  1.00  0.00    -0.265 OA
BRANCH  27  29
HETATM   29  C23 UNL     1       0.896  50.761 -16.271  1.00  0.00     0.120 C 
BRANCH  29  30
HETATM   30  C24 UNL     1       0.875  51.637 -15.029  1.00  0.00     0.112 C 
BRANCH  30  31
HETATM   31  C25 UNL     1       0.105  50.980 -13.903  1.00  0.00     0.218 C 
HETATM   32  O6  UNL     1       0.599  50.708 -12.814  1.00  0.00    -0.274 OA
HETATM   33  N1  UNL     1      -1.208  50.726 -14.228  1.00  0.00    -0.357 N 
HETATM   34  H34 UNL     1      -1.575  51.051 -15.111  1.00  0.00     0.162 HD
BRANCH  33  35
HETATM   35  C26 UNL     1      -2.127  50.129 -13.282  1.00  0.00     0.162 C 
BRANCH  35  36
HETATM   36  C27 UNL     1      -2.849  51.182 -12.498  1.00  0.00    -0.025 A 
HETATM   37  C28 UNL     1      -3.216  50.974 -11.165  1.00  0.00     0.011 A 
HETATM   38  C29 UNL     1      -3.875  51.976 -10.459  1.00  0.00     0.018 A 
HETATM   39  C30 UNL     1      -4.139  53.167 -11.114  1.00  0.00     0.087 A 
HETATM   40  N2  UNL     1      -3.794  53.412 -12.397  1.00  0.00    -0.375 N 
HETATM   41  C31 UNL     1      -3.165  52.414 -13.058  1.00  0.00     0.096 A 
ATOM     42  H2  UNL     1      -3.998  54.305 -12.844  1.00  0.00     0.164 HD
ENDBRANCH  35  36
ENDBRANCH  33  35
ENDBRANCH  30  31
ENDBRANCH  29  30
ENDBRANCH  27  29
ENDBRANCH  26  27
ENDBRANCH  25  26
ENDBRANCH  23  25
ENDBRANCH  20  23
TORSDOF 10
ENDMDL
MODEL 4
REMARK minimizedAffinity -8.60433197
REMARK CNNscore 0.402364284
REMARK CNNaffinity 6.34120989
REMARK  10 active torsions:
REMARK  status: ('A' for Active; 'I' for Inactive)
REMARK    1  A    between atoms: C19_20  and  O2_21 
REMARK    2  A    between atoms: C19_20  and  C20_22 
REMARK    3  A    between atoms: C20_22  and  C21_24 
REMARK    4  A    between atoms: C21_24  and  O4_25 
REMARK    5  A    between atoms: O4_25  and  C22_26 
REMARK    6  A    between atoms: C22_26  and  C23_28 
REMARK    7  A    between atoms: C23_28  and  C24_29 
REMARK    8  A    between atoms: C24_29  and  C25_30 
REMARK       I    between atoms: C25_30  and  N1_32 
REMARK    9  A    between atoms: N1_32  and  C26_33 
REMARK   10  A    between atoms: C26_33  and  C27_34 
ROOT
HETATM    1  C1  UNL     1      -0.405  49.625 -20.832  1.00  0.00     0.020 C 
HETATM    2  C2  UNL     1      -1.043  50.959 -21.281  1.00  0.00    -0.016 C 
HETATM    3  C3  UNL     1      -0.092  51.653 -22.302  1.00  0.00     0.022 C 
HETATM    4  C4  UNL     1       1.161  52.241 -21.668  1.00  0.00     0.084 C 
HETATM    5  C5  UNL     1       0.787  53.204 -20.573  1.00  0.00     0.149 C 
HETATM    6  O1  UNL     1       1.453  54.199 -20.312  1.00  0.00    -0.293 OA
HETATM    7  C6  UNL     1      -0.396  52.877 -19.744  1.00  0.00     0.053 C 
HETATM    8  C7  UNL     1      -1.209  51.847 -20.040  1.00  0.00    -0.068 C 
HETATM    9  C8  UNL     1      -2.343  51.505 -19.103  1.00  0.00     0.035 C 
HETATM   10  C9  UNL     1      -3.666  51.354 -19.844  1.00  0.00     0.010 C 
HETATM   11  C10 UNL     1      -3.556  50.314 -20.967  1.00  0.00    -0.004 C 
HETATM   12  C11 UNL     1      -2.442  50.734 -21.973  1.00  0.00     0.002 C 
HETATM   13  C12 UNL     1      -2.391  49.785 -23.198  1.00  0.00     0.007 C 
HETATM   14  C13 UNL     1      -3.767  49.518 -23.846  1.00  0.00     0.013 C 
HETATM   15  C14 UNL     1      -4.827  49.075 -22.820  1.00  0.00    -0.002 C 
HETATM   16  C15 UNL     1      -4.461  47.671 -22.265  1.00  0.00     0.019 C 
HETATM   17  C16 UNL     1      -4.883  50.165 -21.724  1.00  0.00     0.002 C 
HETATM   18  C17 UNL     1      -6.143  49.825 -20.932  1.00  0.00     0.009 C 
HETATM   19  C18 UNL     1      -7.098  49.174 -21.957  1.00  0.00     0.047 C 
HETATM   20  C19 UNL     1      -6.314  49.094 -23.284  1.00  0.00     0.128 C 
ENDROOT
BRANCH  20  21
HETATM   21  O2  UNL     1      -6.614  50.305 -24.001  1.00  0.00    -0.381 OA
HETATM   22  H27 UNL     1      -6.095  50.281 -24.826  1.00  0.00     0.211 HD
ENDBRANCH  20  21
BRANCH  20  23
HETATM   23  C20 UNL     1      -6.688  47.967 -24.262  1.00  0.00     0.185 C 
HETATM   24  O3  UNL     1      -7.399  47.031 -23.872  1.00  0.00    -0.292 OA
BRANCH  23  25
HETATM   25  C21 UNL     1      -6.099  47.990 -25.668  1.00  0.00     0.260 C 
BRANCH  25  26
HETATM   26  O4  UNL     1      -7.102  47.951 -26.687  1.00  0.00    -0.314 OA
BRANCH  26  27
HETATM   27  C22 UNL     1      -6.646  47.504 -27.889  1.00  0.00     0.259 C 
HETATM   28  O5  UNL     1      -5.682  47.965 -28.490  1.00  0.00    -0.265 OA
BRANCH  27  29
HETATM   29  C23 UNL     1      -7.474  46.348 -28.371  1.00  0.00     0.120 C 
BRANCH  29  30
HETATM   30  C24 UNL     1      -6.780  45.637 -29.522  1.00  0.00     0.112 C 
BRANCH  30  31
HETATM   31  C25 UNL     1      -6.805  46.474 -30.782  1.00  0.00     0.218 C 
HETATM   32  O6  UNL     1      -5.867  46.538 -31.571  1.00  0.00    -0.274 OA
HETATM   33  N1  UNL     1      -7.991  47.150 -30.954  1.00  0.00    -0.357 N 
HETATM   34  H34 UNL     1      -8.754  46.989 -30.313  1.00  0.00     0.162 HD
BRANCH  33  35
HETATM   35  C26 UNL     1      -8.235  47.985 -32.112  1.00  0.00     0.162 C 
BRANCH  35  36
HETATM   36  C27 UNL     1      -8.695  47.163 -33.277  1.00  0.00    -0.025 A 
HETATM   37  C28 UNL     1      -9.863  46.395 -33.211  1.00  0.00     0.011 A 
HETATM   38  C29 UNL     1     -10.271  45.652 -34.314  1.00  0.00     0.018 A 
HETATM   39  C30 UNL     1      -9.497  45.709 -35.460  1.00  0.00     0.087 A 
HETATM   40  N2  UNL     1      -8.368  46.444 -35.568  1.00  0.00    -0.375 N 
HETATM   41  C31 UNL     1      -7.992  47.146 -34.476  1.00  0.00     0.096 A 
ATOM     42  H2  UNL     1      -7.827  46.467 -36.431  1.00  0.00     0.164 HD
ENDBRANCH  35  36
ENDBRANCH  33  35
ENDBRANCH  30  31
ENDBRANCH  29  30
ENDBRANCH  27  29
ENDBRANCH  26  27
ENDBRANCH  25  26
ENDBRANCH  23  25
ENDBRANCH  20  23
TORSDOF 10
ENDMDL
MODEL 5
REMARK minimizedAffinity -7.83342409
REMARK CNNscore 0.395448387
REMARK CNNaffinity 7.09439039
REMARK  10 active torsions:
REMARK  status: ('A' for Active; 'I' for Inactive)
REMARK    1  A    between atoms: C19_20  and  O2_21 
REMARK    2  A    between atoms: C19_20  and  C20_22 
REMARK    3  A    between atoms: C20_22  and  C21_24 
REMARK    4  A    between atoms: C21_24  and  O4_25 
REMARK    5  A    between atoms: O4_25  and  C22_26 
REMARK    6  A    between atoms: C22_26  and  C23_28 
REMARK    7  A    between atoms: C23_28  and  C24_29 
REMARK    8  A    between atoms: C24_29  and  C25_30 
REMARK       I    between atoms: C25_30  and  N1_32 
REMARK    9  A    between atoms: N1_32  and  C26_33 
REMARK   10  A    between atoms: C26_33  and  C27_34 
ROOT
HETATM    1  C1  UNL     1      -4.570  51.850 -24.392  1.00  0.00     0.020 C 
HETATM    2  C2  UNL     1      -3.319  51.003 -24.716  1.00  0.00    -0.016 C 
HETATM    3  C3  UNL     1      -2.450  51.769 -25.759  1.00  0.00     0.022 C 
HETATM    4  C4  UNL     1      -3.046  51.779 -27.161  1.00  0.00     0.084 C 
HETATM    5  C5  UNL     1      -3.295  50.370 -27.629  1.00  0.00     0.149 C 
HETATM    6  O1  UNL     1      -3.197  50.038 -28.805  1.00  0.00    -0.293 OA
HETATM    7  C6  UNL     1      -3.747  49.380 -26.624  1.00  0.00     0.053 C 
HETATM    8  C7  UNL     1      -3.789  49.668 -25.311  1.00  0.00    -0.068 C 
HETATM    9  C8  UNL     1      -4.349  48.651 -24.346  1.00  0.00     0.035 C 
HETATM   10  C9  UNL     1      -3.419  48.420 -23.161  1.00  0.00     0.010 C 
HETATM   11  C10 UNL     1      -3.104  49.737 -22.440  1.00  0.00    -0.004 C 
HETATM   12  C11 UNL     1      -2.441  50.741 -23.431  1.00  0.00     0.002 C 
HETATM   13  C12 UNL     1      -1.979  52.034 -22.712  1.00  0.00     0.007 C 
HETATM   14  C13 UNL     1      -1.167  51.782 -21.424  1.00  0.00     0.013 C 
HETATM   15  C14 UNL     1      -1.874  50.810 -20.460  1.00  0.00    -0.002 C 
HETATM   16  C15 UNL     1      -3.160  51.476 -19.898  1.00  0.00     0.019 C 
HETATM   17  C16 UNL     1      -2.159  49.512 -21.251  1.00  0.00     0.002 C 
HETATM   18  C17 UNL     1      -2.563  48.507 -20.175  1.00  0.00     0.009 C 
HETATM   19  C18 UNL     1      -1.786  48.937 -18.912  1.00  0.00     0.047 C 
HETATM   20  C19 UNL     1      -1.023  50.224 -19.294  1.00  0.00     0.128 C 
ENDROOT
BRANCH  20  21
HETATM   21  O2  UNL     1       0.270  49.801 -19.762  1.00  0.00    -0.381 OA
HETATM   22  H27 UNL     1       0.747  50.604 -20.041  1.00  0.00     0.211 HD
ENDBRANCH  20  21
BRANCH  20  23
HETATM   23  C20 UNL     1      -0.714  51.225 -18.168  1.00  0.00     0.185 C 
HETATM   24  O3  UNL     1      -0.302  52.358 -18.454  1.00  0.00    -0.292 OA
BRANCH  23  25
HETATM   25  C21 UNL     1      -0.842  50.765 -16.720  1.00  0.00     0.260 C 
BRANCH  25  26
HETATM   26  O4  UNL     1       0.418  50.419 -16.138  1.00  0.00    -0.314 OA
BRANCH  26  27
HETATM   27  C22 UNL     1       0.534  50.773 -14.829  1.00  0.00     0.259 C 
HETATM   28  O5  UNL     1      -0.203  50.387 -13.929  1.00  0.00    -0.265 OA
BRANCH  27  29
HETATM   29  C23 UNL     1       1.709  51.687 -14.631  1.00  0.00     0.120 C 
BRANCH  29  30
HETATM   30  C24 UNL     1       2.746  51.036 -13.731  1.00  0.00     0.112 C 
BRANCH  30  31
HETATM   31  C25 UNL     1       2.678  51.587 -12.323  1.00  0.00     0.218 C 
HETATM   32  O6  UNL     1       3.205  51.043 -11.358  1.00  0.00    -0.274 OA
HETATM   33  N1  UNL     1       1.969  52.763 -12.241  1.00  0.00    -0.357 N 
HETATM   34  H34 UNL     1       1.631  53.202 -13.086  1.00  0.00     0.162 HD
BRANCH  33  35
HETATM   35  C26 UNL     1       1.808  53.473 -10.989  1.00  0.00     0.162 C 
BRANCH  35  36
HETATM   36  C27 UNL     1       0.361  53.734 -10.704  1.00  0.00    -0.025 A 
HETATM   37  C28 UNL     1      -0.123  55.034 -10.520  1.00  0.00     0.011 A 
HETATM   38  C29 UNL     1      -1.474  55.245 -10.268  1.00  0.00     0.018 A 
HETATM   39  C30 UNL     1      -2.307  54.140 -10.216  1.00  0.00     0.087 A 
HETATM   40  N2  UNL     1      -1.883  52.870 -10.396  1.00  0.00    -0.375 N 
HETATM   41  C31 UNL     1      -0.562  52.698 -10.628  1.00  0.00     0.096 A 
ATOM     42  H2  UNL     1      -2.527  52.081 -10.358  1.00  0.00     0.164 HD
ENDBRANCH  35  36
ENDBRANCH  33  35
ENDBRANCH  30  31
ENDBRANCH  29  30
ENDBRANCH  27  29
ENDBRANCH  26  27
ENDBRANCH  25  26
ENDBRANCH  23  25
ENDBRANCH  20  23
TORSDOF 10
ENDMDL
MODEL 6
REMARK minimizedAffinity -8.7591877
REMARK CNNscore 0.390865386
REMARK CNNaffinity 6.02906036
REMARK  10 active torsions:
REMARK  status: ('A' for Active; 'I' for Inactive)
REMARK    1  A    between atoms: C19_20  and  O2_21 
REMARK    2  A    between atoms: C19_20  and  C20_22 
REMARK    3  A    between atoms: C20_22  and  C21_24 
REMARK    4  A    between atoms: C21_24  and  O4_25 
REMARK    5  A    between atoms: O4_25  and  C22_26 
REMARK    6  A    between atoms: C22_26  and  C23_28 
REMARK    7  A    between atoms: C23_28  and  C24_29 
REMARK    8  A    between atoms: C24_29  and  C25_30 
REMARK       I    between atoms: C25_30  and  N1_32 
REMARK    9  A    between atoms: N1_32  and  C26_33 
REMARK   10  A    between atoms: C26_33  and  C27_34 
ROOT
HETATM    1  C1  UNL     1      -0.398  49.613 -20.940  1.00  0.00     0.020 C 
HETATM    2  C2  UNL     1      -1.009  50.978 -21.329  1.00  0.00    -0.016 C 
HETATM    3  C3  UNL     1      -0.062  51.680 -22.348  1.00  0.00     0.022 C 
HETATM    4  C4  UNL     1       1.220  52.213 -21.723  1.00  0.00     0.084 C 
HETATM    5  C5  UNL     1       0.896  53.148 -20.588  1.00  0.00     0.149 C 
HETATM    6  O1  UNL     1       1.595  54.116 -20.310  1.00  0.00    -0.293 OA
HETATM    7  C6  UNL     1      -0.277  52.825 -19.744  1.00  0.00     0.053 C 
HETATM    8  C7  UNL     1      -1.124  51.828 -20.055  1.00  0.00    -0.068 C 
HETATM    9  C8  UNL     1      -2.246  51.485 -19.106  1.00  0.00     0.035 C 
HETATM   10  C9  UNL     1      -3.589  51.394 -19.821  1.00  0.00     0.010 C 
HETATM   11  C10 UNL     1      -3.531  50.389 -20.980  1.00  0.00    -0.004 C 
HETATM   12  C11 UNL     1      -2.429  50.814 -21.997  1.00  0.00     0.002 C 
HETATM   13  C12 UNL     1      -2.430  49.905 -23.253  1.00  0.00     0.007 C 
HETATM   14  C13 UNL     1      -3.826  49.697 -23.879  1.00  0.00     0.013 C 
HETATM   15  C14 UNL     1      -4.876  49.248 -22.844  1.00  0.00    -0.002 C 
HETATM   16  C15 UNL     1      -4.536  47.817 -22.344  1.00  0.00     0.019 C 
HETATM   17  C16 UNL     1      -4.878  50.302 -21.712  1.00  0.00     0.002 C 
HETATM   18  C17 UNL     1      -6.130  49.969 -20.903  1.00  0.00     0.009 C 
HETATM   19  C18 UNL     1      -7.123  49.378 -21.927  1.00  0.00     0.047 C 
HETATM   20  C19 UNL     1      -6.371  49.323 -23.273  1.00  0.00     0.128 C 
ENDROOT
BRANCH  20  21
HETATM   21  O2  UNL     1      -6.654  50.565 -23.943  1.00  0.00    -0.381 OA
HETATM   22  H27 UNL     1      -6.153  50.555 -24.780  1.00  0.00     0.211 HD
ENDBRANCH  20  21
BRANCH  20  23
HETATM   23  C20 UNL     1      -6.797  48.240 -24.280  1.00  0.00     0.185 C 
HETATM   24  O3  UNL     1      -6.076  47.997 -25.257  1.00  0.00    -0.292 OA
BRANCH  23  25
HETATM   25  C21 UNL     1      -8.145  47.552 -24.091  1.00  0.00     0.260 C 
BRANCH  25  26
HETATM   26  O4  UNL     1      -9.079  47.876 -25.125  1.00  0.00    -0.314 OA
BRANCH  26  27
HETATM   27  C22 UNL     1      -9.835  46.820 -25.532  1.00  0.00     0.259 C 
HETATM   28  O5  UNL     1      -9.707  46.236 -26.602  1.00  0.00    -0.265 OA
BRANCH  27  29
HETATM   29  C23 UNL     1     -10.838  46.450 -24.477  1.00  0.00     0.120 C 
BRANCH  29  30
HETATM   30  C24 UNL     1     -12.204  46.210 -25.099  1.00  0.00     0.112 C 
BRANCH  30  31
HETATM   31  C25 UNL     1     -13.308  46.796 -24.246  1.00  0.00     0.218 C 
HETATM   32  O6  UNL     1     -13.132  47.223 -23.110  1.00  0.00    -0.274 OA
HETATM   33  N1  UNL     1     -14.529  46.804 -24.881  1.00  0.00    -0.357 N 
HETATM   34  H34 UNL     1     -14.591  46.515 -25.847  1.00  0.00     0.162 HD
BRANCH  33  35
HETATM   35  C26 UNL     1     -15.714  47.350 -24.253  1.00  0.00     0.162 C 
BRANCH  35  36
HETATM   36  C27 UNL     1     -16.948  46.655 -24.743  1.00  0.00    -0.025 A 
HETATM   37  C28 UNL     1     -18.221  47.038 -24.307  1.00  0.00     0.011 A 
HETATM   38  C29 UNL     1     -19.349  46.382 -24.789  1.00  0.00     0.018 A 
HETATM   39  C30 UNL     1     -19.165  45.362 -25.708  1.00  0.00     0.087 A 
HETATM   40  N2  UNL     1     -17.956  44.968 -26.161  1.00  0.00    -0.375 N 
HETATM   41  C31 UNL     1     -16.879  45.617 -25.664  1.00  0.00     0.096 A 
ATOM     42  H2  UNL     1     -17.859  44.217 -26.843  1.00  0.00     0.164 HD
ENDBRANCH  35  36
ENDBRANCH  33  35
ENDBRANCH  30  31
ENDBRANCH  29  30
ENDBRANCH  27  29
ENDBRANCH  26  27
ENDBRANCH  25  26
ENDBRANCH  23  25
ENDBRANCH  20  23
TORSDOF 10
ENDMDL
MODEL 7
REMARK minimizedAffinity -7.92332458
REMARK CNNscore 0.349851191
REMARK CNNaffinity 5.95837593
REMARK  10 active torsions:
REMARK  status: ('A' for Active; 'I' for Inactive)
REMARK    1  A    between atoms: C19_20  and  O2_21 
REMARK    2  A    between atoms: C19_20  and  C20_22 
REMARK    3  A    between atoms: C20_22  and  C21_24 
REMARK    4  A    between atoms: C21_24  and  O4_25 
REMARK    5  A    between atoms: O4_25  and  C22_26 
REMARK    6  A    between atoms: C22_26  and  C23_28 
REMARK    7  A    between atoms: C23_28  and  C24_29 
REMARK    8  A    between atoms: C24_29  and  C25_30 
REMARK       I    between atoms: C25_30  and  N1_32 
REMARK    9  A    between atoms: N1_32  and  C26_33 
REMARK   10  A    between atoms: C26_33  and  C27_34 
ROOT
HETATM    1  C1  UNL     1       4.943  68.888 -37.616  1.00  0.00     0.020 C 
HETATM    2  C2  UNL     1       4.684  67.585 -38.405  1.00  0.00    -0.016 C 
HETATM    3  C3  UNL     1       5.362  67.702 -39.804  1.00  0.00     0.022 C 
HETATM    4  C4  UNL     1       4.642  68.649 -40.754  1.00  0.00     0.084 C 
HETATM    5  C5  UNL     1       3.203  68.236 -40.909  1.00  0.00     0.149 C 
HETATM    6  O1  UNL     1       2.581  68.390 -41.954  1.00  0.00    -0.293 OA
HETATM    7  C6  UNL     1       2.511  67.693 -39.718  1.00  0.00     0.053 C 
HETATM    8  C7  UNL     1       3.167  67.425 -38.575  1.00  0.00    -0.068 C 
HETATM    9  C8  UNL     1       2.391  66.963 -37.365  1.00  0.00     0.035 C 
HETATM   10  C9  UNL     1       3.003  65.715 -36.740  1.00  0.00     0.010 C 
HETATM   11  C10 UNL     1       4.478  65.940 -36.385  1.00  0.00    -0.004 C 
HETATM   12  C11 UNL     1       5.280  66.326 -37.665  1.00  0.00     0.002 C 
HETATM   13  C12 UNL     1       6.800  66.426 -37.378  1.00  0.00     0.007 C 
HETATM   14  C13 UNL     1       7.377  65.221 -36.606  1.00  0.00     0.013 C 
HETATM   15  C14 UNL     1       6.572  64.896 -35.332  1.00  0.00    -0.002 C 
HETATM   16  C15 UNL     1       6.744  66.045 -34.301  1.00  0.00     0.019 C 
HETATM   17  C16 UNL     1       5.103  64.683 -35.765  1.00  0.00     0.002 C 
HETATM   18  C17 UNL     1       4.443  64.070 -34.531  1.00  0.00     0.009 C 
HETATM   19  C18 UNL     1       5.564  63.271 -33.832  1.00  0.00     0.047 C 
HETATM   20  C19 UNL     1       6.847  63.522 -34.652  1.00  0.00     0.128 C 
ENDROOT
BRANCH  20  21
HETATM   21  O2  UNL     1       6.913  62.467 -35.628  1.00  0.00    -0.381 OA
HETATM   22  H27 UNL     1       7.701  62.638 -36.176  1.00  0.00     0.211 HD
ENDBRANCH  20  21
BRANCH  20  23
HETATM   23  C20 UNL     1       8.191  63.439 -33.909  1.00  0.00     0.185 C 
HETATM   24  O3  UNL     1       8.625  64.438 -33.318  1.00  0.00    -0.292 OA
BRANCH  23  25
HETATM   25  C21 UNL     1       8.999  62.148 -33.993  1.00  0.00     0.260 C 
BRANCH  25  26
HETATM   26  O4  UNL     1       9.908  62.137 -35.097  1.00  0.00    -0.314 OA
BRANCH  26  27
HETATM   27  C22 UNL     1      11.040  62.862 -34.883  1.00  0.00     0.259 C 
HETATM   28  O5  UNL     1      11.645  62.922 -33.818  1.00  0.00    -0.265 OA
BRANCH  27  29
HETATM   29  C23 UNL     1      11.464  63.563 -36.141  1.00  0.00     0.120 C 
BRANCH  29  30
HETATM   30  C24 UNL     1      12.823  64.218 -35.956  1.00  0.00     0.112 C 
BRANCH  30  31
HETATM   31  C25 UNL     1      13.944  63.208 -36.078  1.00  0.00     0.218 C 
HETATM   32  O6  UNL     1      14.822  63.067 -35.235  1.00  0.00    -0.274 OA
HETATM   33  N1  UNL     1      13.869  62.461 -37.231  1.00  0.00    -0.357 N 
HETATM   34  H34 UNL     1      13.073  62.569 -37.844  1.00  0.00     0.162 HD
BRANCH  33  35
HETATM   35  C26 UNL     1      14.826  61.417 -37.530  1.00  0.00     0.162 C 
BRANCH  35  36
HETATM   36  C27 UNL     1      14.427  60.660 -38.760  1.00  0.00    -0.025 A 
HETATM   37  C28 UNL     1      15.342  60.405 -39.787  1.00  0.00     0.011 A 
HETATM   38  C29 UNL     1      14.945  59.689 -40.911  1.00  0.00     0.018 A 
HETATM   39  C30 UNL     1      13.637  59.239 -40.968  1.00  0.00     0.087 A 
HETATM   40  N2  UNL     1      12.725  59.456 -39.995  1.00  0.00    -0.375 N 
HETATM   41  C31 UNL     1      13.139  60.164 -38.921  1.00  0.00     0.096 A 
ATOM     42  H2  UNL     1      11.771  59.103 -40.068  1.00  0.00     0.164 HD
ENDBRANCH  35  36
ENDBRANCH  33  35
ENDBRANCH  30  31
ENDBRANCH  29  30
ENDBRANCH  27  29
ENDBRANCH  26  27
ENDBRANCH  25  26
ENDBRANCH  23  25
ENDBRANCH  20  23
TORSDOF 10
ENDMDL
MODEL 8
REMARK minimizedAffinity -8.1925621
REMARK CNNscore 0.341962993
REMARK CNNaffinity 6.07185745
REMARK  10 active torsions:
REMARK  status: ('A' for Active; 'I' for Inactive)
REMARK    1  A    between atoms: C19_20  and  O2_21 
REMARK    2  A    between atoms: C19_20  and  C20_22 
REMARK    3  A    between atoms: C20_22  and  C21_24 
REMARK    4  A    between atoms: C21_24  and  O4_25 
REMARK    5  A    between atoms: O4_25  and  C22_26 
REMARK    6  A    between atoms: C22_26  and  C23_28 
REMARK    7  A    between atoms: C23_28  and  C24_29 
REMARK    8  A    between atoms: C24_29  and  C25_30 
REMARK       I    between atoms: C25_30  and  N1_32 
REMARK    9  A    between atoms: N1_32  and  C26_33 
REMARK   10  A    between atoms: C26_33  and  C27_34 
ROOT
HETATM    1  C1  UNL     1       4.057  68.972 -37.687  1.00  0.00     0.020 C 
HETATM    2  C2  UNL     1       3.620  67.612 -38.276  1.00  0.00    -0.016 C 
HETATM    3  C3  UNL     1       3.898  67.616 -39.809  1.00  0.00     0.022 C 
HETATM    4  C4  UNL     1       2.934  68.489 -40.602  1.00  0.00     0.084 C 
HETATM    5  C5  UNL     1       1.513  68.071 -40.334  1.00  0.00     0.149 C 
HETATM    6  O1  UNL     1       0.632  68.144 -41.184  1.00  0.00    -0.293 OA
HETATM    7  C6  UNL     1       1.173  67.625 -38.963  1.00  0.00     0.053 C 
HETATM    8  C7  UNL     1       2.115  67.445 -38.021  1.00  0.00    -0.068 C 
HETATM    9  C8  UNL     1       1.698  67.082 -36.616  1.00  0.00     0.035 C 
HETATM   10  C9  UNL     1       2.476  65.885 -36.083  1.00  0.00     0.010 C 
HETATM   11  C10 UNL     1       3.989  66.132 -36.155  1.00  0.00    -0.004 C 
HETATM   12  C11 UNL     1       4.413  66.412 -37.628  1.00  0.00     0.002 C 
HETATM   13  C12 UNL     1       5.953  66.529 -37.767  1.00  0.00     0.007 C 
HETATM   14  C13 UNL     1       6.735  65.385 -37.087  1.00  0.00     0.013 C 
HETATM   15  C14 UNL     1       6.306  65.165 -35.623  1.00  0.00    -0.002 C 
HETATM   16  C15 UNL     1       6.727  66.390 -34.766  1.00  0.00     0.019 C 
HETATM   17  C16 UNL     1       4.778  64.924 -35.629  1.00  0.00     0.002 C 
HETATM   18  C17 UNL     1       4.482  64.412 -34.221  1.00  0.00     0.009 C 
HETATM   19  C18 UNL     1       5.763  63.666 -33.788  1.00  0.00     0.047 C 
HETATM   20  C19 UNL     1       6.776  63.847 -34.938  1.00  0.00     0.128 C 
ENDROOT
BRANCH  20  21
HETATM   21  O2  UNL     1       6.596  62.719 -35.813  1.00  0.00    -0.381 OA
HETATM   22  H27 UNL     1       7.207  62.843 -36.563  1.00  0.00     0.211 HD
ENDBRANCH  20  21
BRANCH  20  23
HETATM   23  C20 UNL     1       8.271  63.818 -34.577  1.00  0.00     0.185 C 
HETATM   24  O3  UNL     1       8.616  63.932 -33.393  1.00  0.00    -0.292 OA
BRANCH  23  25
HETATM   25  C21 UNL     1       9.297  63.736 -35.703  1.00  0.00     0.260 C 
BRANCH  25  26
HETATM   26  O4  UNL     1      10.093  62.550 -35.638  1.00  0.00    -0.314 OA
BRANCH  26  27
HETATM   27  C22 UNL     1      11.407  62.785 -35.373  1.00  0.00     0.259 C 
HETATM   28  O5  UNL     1      11.852  63.139 -34.287  1.00  0.00    -0.265 OA
BRANCH  27  29
HETATM   29  C23 UNL     1      12.246  62.527 -36.591  1.00  0.00     0.120 C 
BRANCH  29  30
HETATM   30  C24 UNL     1      13.725  62.575 -36.242  1.00  0.00     0.112 C 
BRANCH  30  31
HETATM   31  C25 UNL     1      14.485  61.448 -36.907  1.00  0.00     0.218 C 
HETATM   32  O6  UNL     1      13.994  60.708 -37.753  1.00  0.00    -0.274 OA
HETATM   33  N1  UNL     1      15.785  61.346 -36.469  1.00  0.00    -0.357 N 
HETATM   34  H34 UNL     1      16.153  62.039 -35.833  1.00  0.00     0.162 HD
BRANCH  33  35
HETATM   35  C26 UNL     1      16.696  60.354 -37.001  1.00  0.00     0.162 C 
BRANCH  35  36
HETATM   36  C27 UNL     1      17.172  59.431 -35.920  1.00  0.00    -0.025 A 
HETATM   37  C28 UNL     1      16.522  58.220 -35.658  1.00  0.00     0.011 A 
HETATM   38  C29 UNL     1      16.996  57.379 -34.657  1.00  0.00     0.018 A 
HETATM   39  C30 UNL     1      18.118  57.775 -33.950  1.00  0.00     0.087 A 
HETATM   40  N2  UNL     1      18.779  58.931 -34.177  1.00  0.00    -0.375 N 
HETATM   41  C31 UNL     1      18.288  59.732 -35.149  1.00  0.00     0.096 A 
ATOM     42  H2  UNL     1      19.608  59.187 -33.641  1.00  0.00     0.164 HD
ENDBRANCH  35  36
ENDBRANCH  33  35
ENDBRANCH  30  31
ENDBRANCH  29  30
ENDBRANCH  27  29
ENDBRANCH  26  27
ENDBRANCH  25  26
ENDBRANCH  23  25
ENDBRANCH  20  23
TORSDOF 10
ENDMDL
MODEL 9
REMARK minimizedAffinity -8.08320618
REMARK CNNscore 0.32105875
REMARK CNNaffinity 6.68125916
REMARK  10 active torsions:
REMARK  status: ('A' for Active; 'I' for Inactive)
REMARK    1  A    between atoms: C19_20  and  O2_21 
REMARK    2  A    between atoms: C19_20  and  C20_22 
REMARK    3  A    between atoms: C20_22  and  C21_24 
REMARK    4  A    between atoms: C21_24  and  O4_25 
REMARK    5  A    between atoms: O4_25  and  C22_26 
REMARK    6  A    between atoms: C22_26  and  C23_28 
REMARK    7  A    between atoms: C23_28  and  C24_29 
REMARK    8  A    between atoms: C24_29  and  C25_30 
REMARK       I    between atoms: C25_30  and  N1_32 
REMARK    9  A    between atoms: N1_32  and  C26_33 
REMARK   10  A    between atoms: C26_33  and  C27_34 
ROOT
HETATM    1  C1  UNL     1      -2.108  52.735 -24.310  1.00  0.00     0.020 C 
HETATM    2  C2  UNL     1      -1.086  51.578 -24.249  1.00  0.00    -0.016 C 
HETATM    3  C3  UNL     1       0.340  52.152 -24.507  1.00  0.00     0.022 C 
HETATM    4  C4  UNL     1       0.585  52.549 -25.957  1.00  0.00     0.084 C 
HETATM    5  C5  UNL     1       0.325  51.379 -26.868  1.00  0.00     0.149 C 
HETATM    6  O1  UNL     1       0.951  51.199 -27.906  1.00  0.00    -0.293 OA
HETATM    7  C6  UNL     1      -0.785  50.464 -26.513  1.00  0.00     0.053 C 
HETATM    8  C7  UNL     1      -1.445  50.566 -25.346  1.00  0.00    -0.068 C 
HETATM    9  C8  UNL     1      -2.629  49.667 -25.083  1.00  0.00     0.035 C 
HETATM   10  C9  UNL     1      -2.532  48.982 -23.725  1.00  0.00     0.010 C 
HETATM   11  C10 UNL     1      -2.370  50.011 -22.598  1.00  0.00    -0.004 C 
HETATM   12  C11 UNL     1      -1.090  50.868 -22.840  1.00  0.00     0.002 C 
HETATM   13  C12 UNL     1      -0.811  51.825 -21.653  1.00  0.00     0.007 C 
HETATM   14  C13 UNL     1      -0.869  51.146 -20.268  1.00  0.00     0.013 C 
HETATM   15  C14 UNL     1      -2.164  50.337 -20.061  1.00  0.00    -0.002 C 
HETATM   16  C15 UNL     1      -3.377  51.305 -19.990  1.00  0.00     0.019 C 
HETATM   17  C16 UNL     1      -2.260  49.327 -21.228  1.00  0.00     0.002 C 
HETATM   18  C17 UNL     1      -3.371  48.372 -20.796  1.00  0.00     0.009 C 
HETATM   19  C18 UNL     1      -3.300  48.345 -19.254  1.00  0.00     0.047 C 
HETATM   20  C19 UNL     1      -2.197  49.350 -18.857  1.00  0.00     0.128 C 
ENDROOT
BRANCH  20  21
HETATM   21  O2  UNL     1      -0.975  48.594 -18.775  1.00  0.00    -0.381 OA
HETATM   22  H27 UNL     1      -0.265  49.227 -18.561  1.00  0.00     0.211 HD
ENDBRANCH  20  21
BRANCH  20  23
HETATM   23  C20 UNL     1      -2.319  50.029 -17.482  1.00  0.00     0.185 C 
HETATM   24  O3  UNL     1      -2.787  51.174 -17.406  1.00  0.00    -0.292 OA
BRANCH  23  25
HETATM   25  C21 UNL     1      -1.777  49.305 -16.254  1.00  0.00     0.260 C 
BRANCH  25  26
HETATM   26  O4  UNL     1      -2.600  49.487 -15.098  1.00  0.00    -0.314 OA
BRANCH  26  27
HETATM   27  C22 UNL     1      -3.015  48.322 -14.531  1.00  0.00     0.259 C 
HETATM   28  O5  UNL     1      -3.547  47.397 -15.136  1.00  0.00    -0.265 OA
BRANCH  27  29
HETATM   29  C23 UNL     1      -2.712  48.312 -13.061  1.00  0.00     0.120 C 
BRANCH  29  30
HETATM   30  C24 UNL     1      -2.032  49.607 -12.647  1.00  0.00     0.112 C 
BRANCH  30  31
HETATM   31  C25 UNL     1      -2.952  50.470 -11.812  1.00  0.00     0.218 C 
HETATM   32  O6  UNL     1      -4.032  50.084 -11.377  1.00  0.00    -0.274 OA
HETATM   33  N1  UNL     1      -2.447  51.729 -11.585  1.00  0.00    -0.357 N 
HETATM   34  H34 UNL     1      -1.515  51.957 -11.900  1.00  0.00     0.162 HD
BRANCH  33  35
HETATM   35  C26 UNL     1      -3.155  52.705 -10.783  1.00  0.00     0.162 C 
BRANCH  35  36
HETATM   36  C27 UNL     1      -2.200  53.522  -9.967  1.00  0.00    -0.025 A 
HETATM   37  C28 UNL     1      -1.820  54.808 -10.365  1.00  0.00     0.011 A 
HETATM   38  C29 UNL     1      -0.940  55.548  -9.580  1.00  0.00     0.018 A 
HETATM   39  C30 UNL     1      -0.474  54.975  -8.409  1.00  0.00     0.087 A 
HETATM   40  N2  UNL     1      -0.823  53.741  -7.985  1.00  0.00    -0.375 N 
HETATM   41  C31 UNL     1      -1.670  53.044  -8.775  1.00  0.00     0.096 A 
ATOM     42  H2  UNL     1      -0.465  53.355  -7.113  1.00  0.00     0.164 HD
ENDBRANCH  35  36
ENDBRANCH  33  35
ENDBRANCH  30  31
ENDBRANCH  29  30
ENDBRANCH  27  29
ENDBRANCH  26  27
ENDBRANCH  25  26
ENDBRANCH  23  25
ENDBRANCH  20  23
TORSDOF 10
ENDMDL
