MODEL 1
REMARK minimizedAffinity -10.3120012
REMARK  4 active torsions:
REMARK  status: ('A' for Active; 'I' for Inactive)
REMARK    1  A    between atoms: C10_14  and  C11_15 
REMARK    2  A    between atoms: C11_15  and  C12_16 
REMARK    3  A    between atoms: C12_16  and  N3_17 
REMARK    4  A    between atoms: C15_20  and  C16_21 
ROOT
HETATM    1  N3  UNL     1      -2.048  50.776 -21.807  1.00  0.00     0.088 N 
HETATM    2  C13 UNL     1      -1.581  49.938 -22.909  1.00  0.00     0.273 C 
HETATM    3  C14 UNL     1      -2.612  49.884 -24.031  1.00  0.00     0.041 C 
HETATM    4  C15 UNL     1      -3.111  51.259 -24.488  1.00  0.00     0.042 C 
HETATM    5  C23 UNL     1      -3.362  52.218 -23.319  1.00  0.00     0.041 C 
HETATM    6  C24 UNL     1      -2.308  52.156 -22.217  1.00  0.00     0.273 C 
ENDROOT
BRANCH   1   7
HETATM    7  C12 UNL     1      -1.200  50.692 -20.606  1.00  0.00     0.277 C 
BRANCH   7   8
HETATM    8  C11 UNL     1      -1.450  51.741 -19.506  1.00  0.00     0.076 C 
BRANCH   8   9
HETATM    9  C10 UNL     1      -0.252  51.887 -18.599  1.00  0.00     0.034 A 
HETATM   10  C2  UNL     1       0.778  52.734 -18.767  1.00  0.00     0.018 A 
HETATM   11  C1  UNL     1       0.919  53.642 -19.962  1.00  0.00     0.069 C 
HETATM   12  N1  UNL     1       1.820  52.845 -17.884  1.00  0.00    -0.345 N 
HETATM   13  C3  UNL     1       1.830  52.097 -16.825  1.00  0.00     0.120 A 
ATOM     14  H1  UNL     1       2.577  53.506 -18.059  1.00  0.00     0.167 HD
HETATM   15  C4  UNL     1       2.972  52.210 -15.851  1.00  0.00    -0.017 A 
HETATM   16  N2  UNL     1       0.834  51.177 -16.526  1.00  0.00    -0.274 N 
HETATM   17  C5  UNL     1       4.053  53.197 -16.161  1.00  0.00     0.052 C 
HETATM   18  C6  UNL     1       2.973  51.431 -14.758  1.00  0.00     0.012 A 
HETATM   19  C7  UNL     1       1.910  50.499 -14.510  1.00  0.00     0.018 A 
HETATM   20  C8  UNL     1       0.896  50.399 -15.377  1.00  0.00     0.102 A 
HETATM   21  C9  UNL     1      -0.246  51.025 -17.383  1.00  0.00     0.261 A 
HETATM   22  O1  UNL     1      -1.174  50.235 -17.198  1.00  0.00    -0.267 OA
ENDBRANCH   8   9
ENDBRANCH   7   8
ENDBRANCH   1   7
BRANCH   4  23
HETATM   23  C16 UNL     1      -2.330  51.855 -25.635  1.00  0.00     0.050 A 
HETATM   24  N4  UNL     1      -2.971  52.763 -26.392  1.00  0.00    -0.264 N 
HETATM   25  O2  UNL     1      -2.083  53.166 -27.362  1.00  0.00    -0.237 OA
ATOM     26  H4  UNL     1      -3.930  53.091 -26.271  1.00  0.00     0.194 HD
HETATM   27  C17 UNL     1      -0.910  52.510 -27.204  1.00  0.00     0.114 A 
HETATM   28  C18 UNL     1       0.215  52.670 -28.009  1.00  0.00     0.082 A 
HETATM   29  C22 UNL     1      -1.000  51.653 -26.114  1.00  0.00     0.025 A 
HETATM   30  C19 UNL     1       1.317  51.894 -27.667  1.00  0.00     0.119 A 
HETATM   31  F1  UNL     1       2.435  51.995 -28.397  1.00  0.00    -0.206 F 
HETATM   32  C20 UNL     1       1.292  51.016 -26.589  1.00  0.00     0.043 A 
HETATM   33  C21 UNL     1       0.138  50.883 -25.800  1.00  0.00     0.019 A 
ENDBRANCH   4  23
TORSDOF 4
ENDMDL
MODEL 2
REMARK minimizedAffinity -10.1661949
REMARK  4 active torsions:
REMARK  status: ('A' for Active; 'I' for Inactive)
REMARK    1  A    between atoms: C10_14  and  C11_15 
REMARK    2  A    between atoms: C11_15  and  C12_16 
REMARK    3  A    between atoms: C12_16  and  N3_17 
REMARK    4  A    between atoms: C15_20  and  C16_21 
ROOT
HETATM    1  N3  UNL     1      -2.399  50.516 -26.873  1.00  0.00     0.088 N 
HETATM    2  C13 UNL     1      -1.060  50.306 -26.328  1.00  0.00     0.273 C 
HETATM    3  C14 UNL     1      -0.037  51.189 -27.034  1.00  0.00     0.041 C 
HETATM    4  C15 UNL     1      -0.433  52.668 -27.110  1.00  0.00     0.042 C 
HETATM    5  C23 UNL     1      -1.916  52.868 -27.443  1.00  0.00     0.041 C 
HETATM    6  C24 UNL     1      -2.857  51.898 -26.734  1.00  0.00     0.273 C 
ENDROOT
BRANCH   1   7
HETATM    7  C12 UNL     1      -3.389  49.539 -26.387  1.00  0.00     0.277 C 
BRANCH   7   8
HETATM    8  C11 UNL     1      -3.649  48.311 -27.280  1.00  0.00     0.076 C 
BRANCH   8   9
HETATM    9  C10 UNL     1      -5.111  48.180 -27.628  1.00  0.00     0.034 A 
HETATM   10  C2  UNL     1      -6.123  47.985 -26.765  1.00  0.00     0.018 A 
HETATM   11  C1  UNL     1      -5.924  47.798 -25.282  1.00  0.00     0.069 C 
HETATM   12  N1  UNL     1      -7.438  47.911 -27.142  1.00  0.00    -0.345 N 
HETATM   13  C3  UNL     1      -7.740  48.031 -28.397  1.00  0.00     0.120 A 
ATOM     14  H1  UNL     1      -8.169  47.764 -26.445  1.00  0.00     0.167 HD
HETATM   15  C4  UNL     1      -9.183  47.949 -28.822  1.00  0.00    -0.017 A 
HETATM   16  N2  UNL     1      -6.799  48.233 -29.397  1.00  0.00    -0.274 N 
HETATM   17  C5  UNL     1     -10.208  47.731 -27.754  1.00  0.00     0.052 C 
HETATM   18  C6  UNL     1      -9.485  48.074 -30.123  1.00  0.00     0.012 A 
HETATM   19  C7  UNL     1      -8.459  48.281 -31.106  1.00  0.00     0.018 A 
HETATM   20  C8  UNL     1      -7.179  48.353 -30.728  1.00  0.00     0.102 A 
HETATM   21  C9  UNL     1      -5.453  48.318 -29.073  1.00  0.00     0.261 A 
HETATM   22  O1  UNL     1      -4.550  48.496 -29.892  1.00  0.00    -0.267 OA
ENDBRANCH   8   9
ENDBRANCH   7   8
ENDBRANCH   1   7
BRANCH   4  23
HETATM   23  C16 UNL     1       0.073  53.508 -25.963  1.00  0.00     0.050 A 
HETATM   24  N4  UNL     1       0.331  54.801 -26.231  1.00  0.00    -0.264 N 
HETATM   25  O2  UNL     1       0.775  55.366 -25.058  1.00  0.00    -0.237 OA
ATOM     26  H4  UNL     1       0.220  55.271 -27.129  1.00  0.00     0.194 HD
HETATM   27  C17 UNL     1       0.792  54.430 -24.081  1.00  0.00     0.114 A 
HETATM   28  C18 UNL     1       1.187  54.651 -22.764  1.00  0.00     0.082 A 
HETATM   29  C22 UNL     1       0.353  53.215 -24.593  1.00  0.00     0.025 A 
HETATM   30  C19 UNL     1       1.125  53.546 -21.923  1.00  0.00     0.119 A 
HETATM   31  F1  UNL     1       1.490  53.684 -20.641  1.00  0.00    -0.206 F 
HETATM   32  C20 UNL     1       0.697  52.302 -22.373  1.00  0.00     0.043 A 
HETATM   33  C21 UNL     1       0.306  52.119 -23.709  1.00  0.00     0.019 A 
ENDBRANCH   4  23
TORSDOF 4
ENDMDL
MODEL 3
REMARK minimizedAffinity -9.86382961
REMARK  4 active torsions:
REMARK  status: ('A' for Active; 'I' for Inactive)
REMARK    1  A    between atoms: C10_14  and  C11_15 
REMARK    2  A    between atoms: C11_15  and  C12_16 
REMARK    3  A    between atoms: C12_16  and  N3_17 
REMARK    4  A    between atoms: C15_20  and  C16_21 
ROOT
HETATM    1  N3  UNL     1      -1.538  51.187 -27.352  1.00  0.00     0.088 N 
HETATM    2  C13 UNL     1      -0.552  50.502 -26.518  1.00  0.00     0.273 C 
HETATM    3  C14 UNL     1       0.754  51.286 -26.460  1.00  0.00     0.041 C 
HETATM    4  C15 UNL     1       0.581  52.764 -26.097  1.00  0.00     0.042 C 
HETATM    5  C23 UNL     1      -0.620  53.410 -26.797  1.00  0.00     0.041 C 
HETATM    6  C24 UNL     1      -1.863  52.526 -26.859  1.00  0.00     0.273 C 
ENDROOT
BRANCH   1   7
HETATM    7  C12 UNL     1      -2.738  50.378 -27.626  1.00  0.00     0.277 C 
BRANCH   7   8
HETATM    8  C11 UNL     1      -2.772  48.961 -27.022  1.00  0.00     0.076 C 
BRANCH   8   9
HETATM    9  C10 UNL     1      -4.187  48.506 -26.761  1.00  0.00     0.034 A 
HETATM   10  C2  UNL     1      -4.807  48.469 -25.569  1.00  0.00     0.018 A 
HETATM   11  C1  UNL     1      -4.131  48.829 -24.270  1.00  0.00     0.069 C 
HETATM   12  N1  UNL     1      -6.110  48.079 -25.403  1.00  0.00    -0.345 N 
HETATM   13  C3  UNL     1      -6.796  47.719 -26.443  1.00  0.00     0.120 A 
ATOM     14  H1  UNL     1      -6.534  48.071 -24.476  1.00  0.00     0.167 HD
HETATM   15  C4  UNL     1      -8.228  47.287 -26.271  1.00  0.00    -0.017 A 
HETATM   16  N2  UNL     1      -6.284  47.706 -27.733  1.00  0.00    -0.274 N 
HETATM   17  C5  UNL     1      -8.793  47.296 -24.886  1.00  0.00     0.052 C 
HETATM   18  C6  UNL     1      -8.929  46.916 -27.354  1.00  0.00     0.012 A 
HETATM   19  C7  UNL     1      -8.336  46.925 -28.661  1.00  0.00     0.018 A 
HETATM   20  C8  UNL     1      -7.064  47.309 -28.812  1.00  0.00     0.102 A 
HETATM   21  C9  UNL     1      -4.971  48.093 -27.960  1.00  0.00     0.261 A 
HETATM   22  O1  UNL     1      -4.434  48.113 -29.069  1.00  0.00    -0.267 OA
ENDBRANCH   8   9
ENDBRANCH   7   8
ENDBRANCH   1   7
BRANCH   4  23
HETATM   23  C16 UNL     1       0.682  53.059 -24.620  1.00  0.00     0.050 A 
HETATM   24  N4  UNL     1       1.434  54.117 -24.267  1.00  0.00    -0.264 N 
HETATM   25  O2  UNL     1       1.384  54.196 -22.895  1.00  0.00    -0.237 OA
ATOM     26  H4  UNL     1       1.941  54.741 -24.894  1.00  0.00     0.194 HD
HETATM   27  C17 UNL     1       0.613  53.196 -22.410  1.00  0.00     0.114 A 
HETATM   28  C18 UNL     1       0.343  52.970 -21.063  1.00  0.00     0.082 A 
HETATM   29  C22 UNL     1       0.130  52.428 -23.463  1.00  0.00     0.025 A 
HETATM   30  C19 UNL     1      -0.477  51.882 -20.785  1.00  0.00     0.119 A 
HETATM   31  F1  UNL     1      -0.780  51.604 -19.510  1.00  0.00    -0.206 F 
HETATM   32  C20 UNL     1      -0.991  51.074 -21.793  1.00  0.00     0.043 A 
HETATM   33  C21 UNL     1      -0.697  51.334 -23.141  1.00  0.00     0.019 A 
ENDBRANCH   4  23
TORSDOF 4
ENDMDL
MODEL 4
REMARK minimizedAffinity -9.67915058
REMARK  4 active torsions:
REMARK  status: ('A' for Active; 'I' for Inactive)
REMARK    1  A    between atoms: C10_14  and  C11_15 
REMARK    2  A    between atoms: C11_15  and  C12_16 
REMARK    3  A    between atoms: C12_16  and  N3_17 
REMARK    4  A    between atoms: C15_20  and  C16_21 
ROOT
HETATM    1  N3  UNL     1      -1.805  50.828 -21.638  1.00  0.00     0.088 N 
HETATM    2  C13 UNL     1      -1.314  49.991 -22.731  1.00  0.00     0.273 C 
HETATM    3  C14 UNL     1      -2.382  49.810 -23.804  1.00  0.00     0.041 C 
HETATM    4  C15 UNL     1      -3.014  51.121 -24.285  1.00  0.00     0.042 C 
HETATM    5  C23 UNL     1      -3.296  52.099 -23.139  1.00  0.00     0.041 C 
HETATM    6  C24 UNL     1      -2.197  52.166 -22.083  1.00  0.00     0.273 C 
ENDROOT
BRANCH   1   7
HETATM    7  C12 UNL     1      -0.904  50.859 -20.474  1.00  0.00     0.277 C 
BRANCH   7   8
HETATM    8  C11 UNL     1      -1.276  51.827 -19.334  1.00  0.00     0.076 C 
BRANCH   8   9
HETATM    9  C10 UNL     1      -0.430  51.588 -18.108  1.00  0.00     0.034 A 
HETATM   10  C2  UNL     1      -0.707  50.745 -17.098  1.00  0.00     0.018 A 
HETATM   11  C1  UNL     1      -1.980  49.940 -17.014  1.00  0.00     0.069 C 
HETATM   12  N1  UNL     1       0.124  50.546 -16.027  1.00  0.00    -0.345 N 
HETATM   13  C3  UNL     1       1.241  51.201 -15.967  1.00  0.00     0.120 A 
ATOM     14  H1  UNL     1      -0.134  49.892 -15.287  1.00  0.00     0.167 HD
HETATM   15  C4  UNL     1       2.160  50.990 -14.793  1.00  0.00    -0.017 A 
HETATM   16  N2  UNL     1       1.654  52.104 -16.937  1.00  0.00    -0.274 N 
HETATM   17  C5  UNL     1       1.727  50.019 -13.740  1.00  0.00     0.052 C 
HETATM   18  C6  UNL     1       3.314  51.672 -14.741  1.00  0.00     0.012 A 
HETATM   19  C7  UNL     1       3.679  52.594 -15.780  1.00  0.00     0.018 A 
HETATM   20  C8  UNL     1       2.862  52.780 -16.822  1.00  0.00     0.102 A 
HETATM   21  C9  UNL     1       0.854  52.343 -18.044  1.00  0.00     0.261 A 
HETATM   22  O1  UNL     1       1.139  53.126 -18.952  1.00  0.00    -0.267 OA
ENDBRANCH   8   9
ENDBRANCH   7   8
ENDBRANCH   1   7
BRANCH   4  23
HETATM   23  C16 UNL     1      -2.333  51.736 -25.485  1.00  0.00     0.050 A 
HETATM   24  N4  UNL     1      -3.066  52.594 -26.218  1.00  0.00    -0.264 N 
HETATM   25  O2  UNL     1      -2.258  53.025 -27.244  1.00  0.00    -0.237 OA
ATOM     26  H4  UNL     1      -4.032  52.871 -26.047  1.00  0.00     0.194 HD
HETATM   27  C17 UNL     1      -1.043  52.437 -27.143  1.00  0.00     0.114 A 
HETATM   28  C18 UNL     1       0.024  52.642 -28.014  1.00  0.00     0.082 A 
HETATM   29  C22 UNL     1      -1.023  51.598 -26.036  1.00  0.00     0.025 A 
HETATM   30  C19 UNL     1       1.184  51.935 -27.724  1.00  0.00     0.119 A 
HETATM   31  F1  UNL     1       2.252  52.082 -28.520  1.00  0.00    -0.206 F 
HETATM   32  C20 UNL     1       1.269  51.077 -26.633  1.00  0.00     0.043 A 
HETATM   33  C21 UNL     1       0.171  50.897 -25.776  1.00  0.00     0.019 A 
ENDBRANCH   4  23
TORSDOF 4
ENDMDL
MODEL 5
REMARK minimizedAffinity -9.59225178
REMARK  4 active torsions:
REMARK  status: ('A' for Active; 'I' for Inactive)
REMARK    1  A    between atoms: C10_14  and  C11_15 
REMARK    2  A    between atoms: C11_15  and  C12_16 
REMARK    3  A    between atoms: C12_16  and  N3_17 
REMARK    4  A    between atoms: C15_20  and  C16_21 
ROOT
HETATM    1  N3  UNL     1      -1.765  51.028 -27.420  1.00  0.00     0.088 N 
HETATM    2  C13 UNL     1      -0.786  50.351 -26.573  1.00  0.00     0.273 C 
HETATM    3  C14 UNL     1       0.543  51.098 -26.568  1.00  0.00     0.041 C 
HETATM    4  C15 UNL     1       0.418  52.596 -26.267  1.00  0.00     0.042 C 
HETATM    5  C23 UNL     1      -0.776  53.245 -26.976  1.00  0.00     0.041 C 
HETATM    6  C24 UNL     1      -2.044  52.396 -26.981  1.00  0.00     0.273 C 
ENDROOT
BRANCH   1   7
HETATM    7  C12 UNL     1      -2.992  50.244 -27.641  1.00  0.00     0.277 C 
BRANCH   7   8
HETATM    8  C11 UNL     1      -2.993  48.796 -27.116  1.00  0.00     0.076 C 
BRANCH   8   9
HETATM    9  C10 UNL     1      -4.266  48.479 -26.369  1.00  0.00     0.034 A 
HETATM   10  C2  UNL     1      -5.435  48.093 -26.911  1.00  0.00     0.018 A 
HETATM   11  C1  UNL     1      -5.663  47.981 -28.398  1.00  0.00     0.069 C 
HETATM   12  N1  UNL     1      -6.547  47.783 -26.174  1.00  0.00    -0.345 N 
HETATM   13  C3  UNL     1      -6.487  47.865 -24.881  1.00  0.00     0.120 A 
ATOM     14  H1  UNL     1      -7.409  47.493 -26.635  1.00  0.00     0.167 HD
HETATM   15  C4  UNL     1      -7.705  47.529 -24.062  1.00  0.00    -0.017 A 
HETATM   16  N2  UNL     1      -5.349  48.252 -24.189  1.00  0.00    -0.274 N 
HETATM   17  C5  UNL     1      -8.940  47.110 -24.796  1.00  0.00     0.052 C 
HETATM   18  C6  UNL     1      -7.634  47.617 -22.725  1.00  0.00     0.012 A 
HETATM   19  C7  UNL     1      -6.422  48.025 -22.072  1.00  0.00     0.018 A 
HETATM   20  C8  UNL     1      -5.341  48.324 -22.801  1.00  0.00     0.102 A 
HETATM   21  C9  UNL     1      -4.193  48.575 -24.884  1.00  0.00     0.261 A 
HETATM   22  O1  UNL     1      -3.138  48.927 -24.353  1.00  0.00    -0.267 OA
ENDBRANCH   8   9
ENDBRANCH   7   8
ENDBRANCH   1   7
BRANCH   4  23
HETATM   23  C16 UNL     1       0.551  52.950 -24.806  1.00  0.00     0.050 A 
HETATM   24  N4  UNL     1       1.265  54.053 -24.516  1.00  0.00    -0.264 N 
HETATM   25  O2  UNL     1       1.254  54.182 -23.147  1.00  0.00    -0.237 OA
ATOM     26  H4  UNL     1       1.724  54.674 -25.182  1.00  0.00     0.194 HD
HETATM   27  C17 UNL     1       0.545  53.167 -22.601  1.00  0.00     0.114 A 
HETATM   28  C18 UNL     1       0.327  52.981 -21.238  1.00  0.00     0.082 A 
HETATM   29  C22 UNL     1       0.065  52.340 -23.609  1.00  0.00     0.025 A 
HETATM   30  C19 UNL     1      -0.433  51.870 -20.895  1.00  0.00     0.119 A 
HETATM   31  F1  UNL     1      -0.684  51.627 -19.601  1.00  0.00    -0.206 F 
HETATM   32  C20 UNL     1      -0.942  51.001 -21.855  1.00  0.00     0.043 A 
HETATM   33  C21 UNL     1      -0.701  51.223 -23.221  1.00  0.00     0.019 A 
ENDBRANCH   4  23
TORSDOF 4
ENDMDL
MODEL 6
REMARK minimizedAffinity -9.570014
REMARK  4 active torsions:
REMARK  status: ('A' for Active; 'I' for Inactive)
REMARK    1  A    between atoms: C10_14  and  C11_15 
REMARK    2  A    between atoms: C11_15  and  C12_16 
REMARK    3  A    between atoms: C12_16  and  N3_17 
REMARK    4  A    between atoms: C15_20  and  C16_21 
ROOT
HETATM    1  N3  UNL     1      -1.941  51.289 -26.464  1.00  0.00     0.088 N 
HETATM    2  C13 UNL     1      -0.736  50.660 -25.927  1.00  0.00     0.273 C 
HETATM    3  C14 UNL     1       0.119  51.673 -25.174  1.00  0.00     0.041 C 
HETATM    4  C15 UNL     1      -0.651  52.491 -24.131  1.00  0.00     0.042 C 
HETATM    5  C23 UNL     1      -2.031  52.936 -24.628  1.00  0.00     0.041 C 
HETATM    6  C24 UNL     1      -2.786  51.874 -25.423  1.00  0.00     0.273 C 
ENDROOT
BRANCH   1   7
HETATM    7  C12 UNL     1      -2.695  50.420 -27.383  1.00  0.00     0.277 C 
BRANCH   7   8
HETATM    8  C11 UNL     1      -2.758  48.922 -27.028  1.00  0.00     0.076 C 
BRANCH   8   9
HETATM    9  C10 UNL     1      -4.180  48.463 -26.816  1.00  0.00     0.034 A 
HETATM   10  C2  UNL     1      -4.829  48.390 -25.640  1.00  0.00     0.018 A 
HETATM   11  C1  UNL     1      -4.182  48.706 -24.314  1.00  0.00     0.069 C 
HETATM   12  N1  UNL     1      -6.136  48.000 -25.518  1.00  0.00    -0.345 N 
HETATM   13  C3  UNL     1      -6.798  47.676 -26.585  1.00  0.00     0.120 A 
ATOM     14  H1  UNL     1      -6.582  47.964 -24.601  1.00  0.00     0.167 HD
HETATM   15  C4  UNL     1      -8.235  47.244 -26.461  1.00  0.00    -0.017 A 
HETATM   16  N2  UNL     1      -6.255  47.703 -27.862  1.00  0.00    -0.274 N 
HETATM   17  C5  UNL     1      -8.833  47.210 -25.090  1.00  0.00     0.052 C 
HETATM   18  C6  UNL     1      -8.911  46.910 -27.571  1.00  0.00     0.012 A 
HETATM   19  C7  UNL     1      -8.286  46.960 -28.863  1.00  0.00     0.018 A 
HETATM   20  C8  UNL     1      -7.010  47.344 -28.972  1.00  0.00     0.102 A 
HETATM   21  C9  UNL     1      -4.937  48.093 -28.045  1.00  0.00     0.261 A 
HETATM   22  O1  UNL     1      -4.373  48.146 -29.140  1.00  0.00    -0.267 OA
ENDBRANCH   8   9
ENDBRANCH   7   8
ENDBRANCH   1   7
BRANCH   4  23
HETATM   23  C16 UNL     1      -0.643  51.896 -22.744  1.00  0.00     0.050 A 
HETATM   24  N4  UNL     1      -1.256  50.708 -22.594  1.00  0.00    -0.264 N 
HETATM   25  O2  UNL     1      -1.128  50.361 -21.270  1.00  0.00    -0.237 OA
ATOM     26  H4  UNL     1      -1.726  50.169 -23.322  1.00  0.00     0.194 HD
HETATM   27  C17 UNL     1      -0.445  51.327 -20.612  1.00  0.00     0.114 A 
HETATM   28  C18 UNL     1      -0.131  51.307 -19.255  1.00  0.00     0.082 A 
HETATM   29  C22 UNL     1      -0.103  52.341 -21.498  1.00  0.00     0.025 A 
HETATM   30  C19 UNL     1       0.580  52.404 -18.784  1.00  0.00     0.119 A 
HETATM   31  F1  UNL     1       0.917  52.454 -17.488  1.00  0.00    -0.206 F 
HETATM   32  C20 UNL     1       0.951  53.453 -19.619  1.00  0.00     0.043 A 
HETATM   33  C21 UNL     1       0.617  53.437 -20.982  1.00  0.00     0.019 A 
ENDBRANCH   4  23
TORSDOF 4
ENDMDL
MODEL 7
REMARK minimizedAffinity -9.43341637
REMARK  4 active torsions:
REMARK  status: ('A' for Active; 'I' for Inactive)
REMARK    1  A    between atoms: C10_14  and  C11_15 
REMARK    2  A    between atoms: C11_15  and  C12_16 
REMARK    3  A    between atoms: C12_16  and  N3_17 
REMARK    4  A    between atoms: C15_20  and  C16_21 
ROOT
HETATM    1  N3  UNL     1      -3.036  50.652 -25.664  1.00  0.00     0.088 N 
HETATM    2  C13 UNL     1      -1.747  50.310 -25.065  1.00  0.00     0.273 C 
HETATM    3  C14 UNL     1      -0.594  50.830 -25.915  1.00  0.00     0.041 C 
HETATM    4  C15 UNL     1      -0.710  52.312 -26.290  1.00  0.00     0.042 C 
HETATM    5  C23 UNL     1      -2.137  52.714 -26.681  1.00  0.00     0.041 C 
HETATM    6  C24 UNL     1      -3.227  52.095 -25.809  1.00  0.00     0.273 C 
ENDROOT
BRANCH   1   7
HETATM    7  C12 UNL     1      -4.179  49.993 -25.011  1.00  0.00     0.277 C 
BRANCH   7   8
HETATM    8  C11 UNL     1      -4.297  48.468 -25.193  1.00  0.00     0.076 C 
BRANCH   8   9
HETATM    9  C10 UNL     1      -5.437  48.107 -26.114  1.00  0.00     0.034 A 
HETATM   10  C2  UNL     1      -5.398  48.073 -27.457  1.00  0.00     0.018 A 
HETATM   11  C1  UNL     1      -4.186  48.469 -28.263  1.00  0.00     0.069 C 
HETATM   12  N1  UNL     1      -6.460  47.699 -28.238  1.00  0.00    -0.345 N 
HETATM   13  C3  UNL     1      -7.573  47.360 -27.665  1.00  0.00     0.120 A 
ATOM     14  H1  UNL     1      -6.377  47.689 -29.254  1.00  0.00     0.167 HD
HETATM   15  C4  UNL     1      -8.747  46.950 -28.513  1.00  0.00    -0.017 A 
HETATM   16  N2  UNL     1      -7.755  47.351 -26.289  1.00  0.00    -0.274 N 
HETATM   17  C5  UNL     1      -8.563  46.955 -29.999  1.00  0.00     0.052 C 
HETATM   18  C6  UNL     1      -9.894  46.601 -27.911  1.00  0.00     0.012 A 
HETATM   19  C7  UNL     1     -10.014  46.614 -26.480  1.00  0.00     0.018 A 
HETATM   20  C8  UNL     1      -8.971  46.979 -25.727  1.00  0.00     0.102 A 
HETATM   21  C9  UNL     1      -6.713  47.717 -25.450  1.00  0.00     0.261 A 
HETATM   22  O1  UNL     1      -6.785  47.738 -24.220  1.00  0.00    -0.267 OA
ENDBRANCH   8   9
ENDBRANCH   7   8
ENDBRANCH   1   7
BRANCH   4  23
HETATM   23  C16 UNL     1      -0.033  53.254 -25.323  1.00  0.00     0.050 A 
HETATM   24  N4  UNL     1       0.329  54.456 -25.808  1.00  0.00    -0.264 N 
HETATM   25  O2  UNL     1       0.918  55.138 -24.769  1.00  0.00    -0.237 OA
ATOM     26  H4  UNL     1       0.193  54.795 -26.760  1.00  0.00     0.194 HD
HETATM   27  C17 UNL     1       0.921  54.363 -23.660  1.00  0.00     0.114 A 
HETATM   28  C18 UNL     1       1.439  54.733 -22.422  1.00  0.00     0.082 A 
HETATM   29  C22 UNL     1       0.325  53.141 -23.945  1.00  0.00     0.025 A 
HETATM   30  C19 UNL     1       1.336  53.781 -21.415  1.00  0.00     0.119 A 
HETATM   31  F1  UNL     1       1.814  54.068 -20.196  1.00  0.00    -0.206 F 
HETATM   32  C20 UNL     1       0.753  52.538 -21.635  1.00  0.00     0.043 A 
HETATM   33  C21 UNL     1       0.240  52.201 -22.898  1.00  0.00     0.019 A 
ENDBRANCH   4  23
TORSDOF 4
ENDMDL
MODEL 8
REMARK minimizedAffinity -9.42522812
REMARK  4 active torsions:
REMARK  status: ('A' for Active; 'I' for Inactive)
REMARK    1  A    between atoms: C10_14  and  C11_15 
REMARK    2  A    between atoms: C11_15  and  C12_16 
REMARK    3  A    between atoms: C12_16  and  N3_17 
REMARK    4  A    between atoms: C15_20  and  C16_21 
ROOT
HETATM    1  N3  UNL     1      -3.697  49.741 -23.100  1.00  0.00     0.088 N 
HETATM    2  C13 UNL     1      -4.092  50.964 -22.405  1.00  0.00     0.273 C 
HETATM    3  C14 UNL     1      -4.000  50.789 -20.894  1.00  0.00     0.041 C 
HETATM    4  C15 UNL     1      -2.659  50.226 -20.410  1.00  0.00     0.042 C 
HETATM    5  C23 UNL     1      -2.133  49.098 -21.303  1.00  0.00     0.041 C 
HETATM    6  C24 UNL     1      -2.324  49.337 -22.798  1.00  0.00     0.273 C 
ENDROOT
BRANCH   1   7
HETATM    7  C12 UNL     1      -3.973  49.773 -24.546  1.00  0.00     0.277 C 
BRANCH   7   8
HETATM    8  C11 UNL     1      -3.789  48.452 -25.317  1.00  0.00     0.076 C 
BRANCH   8   9
HETATM    9  C10 UNL     1      -4.933  48.203 -26.269  1.00  0.00     0.034 A 
HETATM   10  C2  UNL     1      -6.207  47.935 -25.934  1.00  0.00     0.018 A 
HETATM   11  C1  UNL     1      -6.674  47.776 -24.509  1.00  0.00     0.069 C 
HETATM   12  N1  UNL     1      -7.211  47.756 -26.849  1.00  0.00    -0.345 N 
HETATM   13  C3  UNL     1      -6.933  47.842 -28.113  1.00  0.00     0.120 A 
ATOM     14  H1  UNL     1      -8.163  47.556 -26.541  1.00  0.00     0.167 HD
HETATM   15  C4  UNL     1      -8.028  47.644 -29.126  1.00  0.00    -0.017 A 
HETATM   16  N2  UNL     1      -5.662  48.111 -28.602  1.00  0.00    -0.274 N 
HETATM   17  C5  UNL     1      -9.403  47.354 -28.612  1.00  0.00     0.052 C 
HETATM   18  C6  UNL     1      -7.730  47.735 -30.431  1.00  0.00     0.012 A 
HETATM   19  C7  UNL     1      -6.392  48.015 -30.869  1.00  0.00     0.018 A 
HETATM   20  C8  UNL     1      -5.419  48.191 -29.967  1.00  0.00     0.102 A 
HETATM   21  C9  UNL     1      -4.608  48.304 -27.720  1.00  0.00     0.261 A 
HETATM   22  O1  UNL     1      -3.450  48.547 -28.064  1.00  0.00    -0.267 OA
ENDBRANCH   8   9
ENDBRANCH   7   8
ENDBRANCH   1   7
BRANCH   4  23
HETATM   23  C16 UNL     1      -1.636  51.277 -20.053  1.00  0.00     0.050 A 
HETATM   24  N4  UNL     1      -1.541  51.609 -18.753  1.00  0.00    -0.264 N 
HETATM   25  O2  UNL     1      -0.561  52.570 -18.661  1.00  0.00    -0.237 OA
ATOM     26  H4  UNL     1      -2.089  51.224 -17.984  1.00  0.00     0.194 HD
HETATM   27  C17 UNL     1      -0.060  52.827 -19.892  1.00  0.00     0.114 A 
HETATM   28  C18 UNL     1       0.948  53.745 -20.173  1.00  0.00     0.082 A 
HETATM   29  C22 UNL     1      -0.705  52.032 -20.831  1.00  0.00     0.025 A 
HETATM   30  C19 UNL     1       1.311  53.851 -21.511  1.00  0.00     0.119 A 
HETATM   31  F1  UNL     1       2.275  54.715 -21.857  1.00  0.00    -0.206 F 
HETATM   32  C20 UNL     1       0.704  53.085 -22.500  1.00  0.00     0.043 A 
HETATM   33  C21 UNL     1      -0.309  52.168 -22.176  1.00  0.00     0.019 A 
ENDBRANCH   4  23
TORSDOF 4
ENDMDL
MODEL 9
REMARK minimizedAffinity -9.39607143
REMARK  4 active torsions:
REMARK  status: ('A' for Active; 'I' for Inactive)
REMARK    1  A    between atoms: C10_14  and  C11_15 
REMARK    2  A    between atoms: C11_15  and  C12_16 
REMARK    3  A    between atoms: C12_16  and  N3_17 
REMARK    4  A    between atoms: C15_20  and  C16_21 
ROOT
HETATM    1  N3  UNL     1       0.106  51.462 -18.733  1.00  0.00     0.088 N 
HETATM    2  C13 UNL     1      -0.604  50.547 -17.842  1.00  0.00     0.273 C 
HETATM    3  C14 UNL     1       0.315  50.038 -16.737  1.00  0.00     0.041 C 
HETATM    4  C15 UNL     1       1.069  51.144 -15.991  1.00  0.00     0.042 C 
HETATM    5  C23 UNL     1       1.599  52.235 -16.927  1.00  0.00     0.041 C 
HETATM    6  C24 UNL     1       0.631  52.636 -18.038  1.00  0.00     0.273 C 
ENDROOT
BRANCH   1   7
HETATM    7  C12 UNL     1      -0.659  51.814 -19.941  1.00  0.00     0.277 C 
BRANCH   7   8
HETATM    8  C11 UNL     1       0.126  52.470 -21.093  1.00  0.00     0.076 C 
BRANCH   8   9
HETATM    9  C10 UNL     1      -0.296  51.920 -22.434  1.00  0.00     0.034 A 
HETATM   10  C2  UNL     1      -1.087  50.854 -22.646  1.00  0.00     0.018 A 
HETATM   11  C1  UNL     1      -1.630  49.989 -21.536  1.00  0.00     0.069 C 
HETATM   12  N1  UNL     1      -1.465  50.426 -23.892  1.00  0.00    -0.345 N 
HETATM   13  C3  UNL     1      -1.042  51.071 -24.934  1.00  0.00     0.120 A 
ATOM     14  H1  UNL     1      -2.069  49.611 -23.997  1.00  0.00     0.167 HD
HETATM   15  C4  UNL     1      -1.449  50.607 -26.307  1.00  0.00    -0.017 A 
HETATM   16  N2  UNL     1      -0.218  52.187 -24.863  1.00  0.00    -0.274 N 
HETATM   17  C5  UNL     1      -2.337  49.406 -26.397  1.00  0.00     0.052 C 
HETATM   18  C6  UNL     1      -1.006  51.282 -27.378  1.00  0.00     0.012 A 
HETATM   19  C7  UNL     1      -0.154  52.429 -27.233  1.00  0.00     0.018 A 
HETATM   20  C8  UNL     1       0.207  52.840 -26.013  1.00  0.00     0.102 A 
HETATM   21  C9  UNL     1       0.193  52.666 -23.628  1.00  0.00     0.261 A 
HETATM   22  O1  UNL     1       0.922  53.647 -23.470  1.00  0.00    -0.267 OA
ENDBRANCH   8   9
ENDBRANCH   7   8
ENDBRANCH   1   7
BRANCH   4  23
HETATM   23  C16 UNL     1       0.362  51.658 -14.760  1.00  0.00     0.050 A 
HETATM   24  N4  UNL     1       1.012  52.587 -14.036  1.00  0.00    -0.264 N 
HETATM   25  O2  UNL     1       0.194  52.906 -12.977  1.00  0.00    -0.237 OA
ATOM     26  H4  UNL     1       1.933  52.980 -14.234  1.00  0.00     0.194 HD
HETATM   27  C17 UNL     1      -0.945  52.179 -13.048  1.00  0.00     0.114 A 
HETATM   28  C18 UNL     1      -1.998  52.244 -12.140  1.00  0.00     0.082 A 
HETATM   29  C22 UNL     1      -0.902  51.357 -14.168  1.00  0.00     0.025 A 
HETATM   30  C19 UNL     1      -3.075  51.407 -12.404  1.00  0.00     0.119 A 
HETATM   31  F1  UNL     1      -4.125  51.416 -11.571  1.00  0.00    -0.206 F 
HETATM   32  C20 UNL     1      -3.096  50.560 -13.506  1.00  0.00     0.043 A 
HETATM   33  C21 UNL     1      -2.014  50.523 -14.401  1.00  0.00     0.019 A 
ENDBRANCH   4  23
TORSDOF 4
ENDMDL
