MODEL 1
REMARK minimizedAffinity -9.071208
REMARK  4 active torsions:
REMARK  status: ('A' for Active; 'I' for Inactive)
REMARK    1  A    between atoms: C4_4  and  C5_5 
REMARK    2  A    between atoms: C22_22  and  C23_23 
REMARK    3  A    between atoms: C23_23  and  O2_25 
REMARK    4  A    between atoms: C28_30  and  O3_31 
ROOT
HETATM    1  C5  UNL     1      -0.627   6.651  13.522  1.00  0.00     0.032 C 
HETATM    2  C6  UNL     1      -2.183   6.627  13.422  1.00  0.00     0.014 C 
HETATM    3  C7  UNL     1      -2.851   5.246  13.567  1.00  0.00     0.007 C 
HETATM    4  C8  UNL     1      -4.374   5.312  13.452  1.00  0.00     0.007 C 
HETATM    5  C9  UNL     1      -5.002   6.394  14.351  1.00  0.00     0.007 C 
HETATM    6  C10 UNL     1      -6.564   6.364  14.384  1.00  0.00    -0.018 C 
HETATM    7  C11 UNL     1      -7.225   6.551  12.999  1.00  0.00     0.020 C 
HETATM    8  C12 UNL     1      -7.228   5.142  14.993  1.00  0.00    -0.020 C 
HETATM    9  C13 UNL     1      -8.259   5.484  15.789  1.00  0.00    -0.021 C 
HETATM   10  C14 UNL     1      -8.388   6.986  15.966  1.00  0.00    -0.026 C 
HETATM   11  C15 UNL     1      -9.545   7.587  15.166  1.00  0.00     0.019 C 
HETATM   12  C16 UNL     1      -8.579   7.337  17.450  1.00  0.00     0.019 C 
HETATM   13  C17 UNL     1      -6.975   7.380  15.485  1.00  0.00     0.009 C 
HETATM   14  C18 UNL     1      -6.626   8.810  15.115  1.00  0.00     0.007 C 
HETATM   15  C19 UNL     1      -5.089   8.918  15.004  1.00  0.00     0.011 C 
HETATM   16  C20 UNL     1      -4.386   7.842  14.091  1.00  0.00    -0.021 C 
HETATM   17  C21 UNL     1      -4.629   8.321  12.629  1.00  0.00     0.017 C 
HETATM   18  C22 UNL     1      -2.797   7.746  14.361  1.00  0.00     0.057 C 
HETATM   19  C24 UNL     1      -2.023   9.095  14.108  1.00  0.00     0.023 C 
HETATM   20  C25 UNL     1      -1.119   9.109  12.875  1.00  0.00     0.022 C 
HETATM   21  C26 UNL     1      -0.084   7.956  12.851  1.00  0.00     0.060 C 
HETATM   22  C27 UNL     1       1.255   8.361  13.464  1.00  0.00     0.081 C 
HETATM   23  C28 UNL     1       1.974   9.012  12.309  1.00  0.00     0.267 C 
HETATM   24  O4  UNL     1       1.552   8.312  11.152  1.00  0.00    -0.289 OA
HETATM   25  C29 UNL     1       0.320   7.777  11.391  1.00  0.00     0.270 C 
HETATM   26  O5  UNL     1      -0.368   7.263  10.522  1.00  0.00    -0.264 OA
ENDROOT
BRANCH   1  27
HETATM   27  C4  UNL     1       0.041   5.390  13.004  1.00  0.00    -0.018 C 
HETATM   28  C2  UNL     1      -0.362   4.574  12.009  1.00  0.00    -0.091 C 
HETATM   29  C1  UNL     1       0.472   3.375  11.629  1.00  0.00     0.042 C 
HETATM   30  C3  UNL     1      -1.606   4.733  11.180  1.00  0.00     0.042 C 
ENDBRANCH   1  27
BRANCH  23  31
HETATM   31  O3  UNL     1       3.376   8.940  12.456  1.00  0.00    -0.371 OA
HETATM   32  H42 UNL     1       3.600   7.997  12.529  1.00  0.00     0.212 HD
ENDBRANCH  23  31
BRANCH  18  33
HETATM   33  C23 UNL     1      -2.548   7.476  15.875  1.00  0.00     0.149 C 
HETATM   34  O1  UNL     1      -1.749   8.068  16.587  1.00  0.00    -0.649 OA
BRANCH  33  35
HETATM   35  O2  UNL     1      -3.278   6.500  16.429  1.00  0.00    -0.776 OA
HETATM   36  H34 UNL     1      -3.006   6.504  17.372  1.00  0.00     0.167 HD
ENDBRANCH  33  35
ENDBRANCH  18  33
TORSDOF 4
ENDMDL
MODEL 2
REMARK minimizedAffinity -8.80230427
REMARK  4 active torsions:
REMARK  status: ('A' for Active; 'I' for Inactive)
REMARK    1  A    between atoms: C4_4  and  C5_5 
REMARK    2  A    between atoms: C22_22  and  C23_23 
REMARK    3  A    between atoms: C23_23  and  O2_25 
REMARK    4  A    between atoms: C28_30  and  O3_31 
ROOT
HETATM    1  C5  UNL     1      -0.844   6.558  11.783  1.00  0.00     0.032 C 
HETATM    2  C6  UNL     1      -0.769   7.437  13.068  1.00  0.00     0.014 C 
HETATM    3  C7  UNL     1       0.161   8.663  12.998  1.00  0.00     0.007 C 
HETATM    4  C8  UNL     1       0.178   9.467  14.299  1.00  0.00     0.007 C 
HETATM    5  C9  UNL     1      -1.231   9.796  14.825  1.00  0.00     0.007 C 
HETATM    6  C10 UNL     1      -1.241  10.763  16.053  1.00  0.00    -0.018 C 
HETATM    7  C11 UNL     1      -0.463  10.229  17.279  1.00  0.00     0.020 C 
HETATM    8  C12 UNL     1      -0.738  12.178  15.835  1.00  0.00    -0.020 C 
HETATM    9  C13 UNL     1      -1.529  13.083  16.440  1.00  0.00    -0.021 C 
HETATM   10  C14 UNL     1      -2.769  12.459  17.054  1.00  0.00    -0.026 C 
HETATM   11  C15 UNL     1      -2.693  12.347  18.577  1.00  0.00     0.019 C 
HETATM   12  C16 UNL     1      -4.020  13.271  16.680  1.00  0.00     0.019 C 
HETATM   13  C17 UNL     1      -2.735  11.119  16.289  1.00  0.00     0.009 C 
HETATM   14  C18 UNL     1      -3.554   9.922  16.735  1.00  0.00     0.007 C 
HETATM   15  C19 UNL     1      -3.551   8.882  15.593  1.00  0.00     0.011 C 
HETATM   16  C20 UNL     1      -2.135   8.496  15.015  1.00  0.00    -0.021 C 
HETATM   17  C21 UNL     1      -1.522   7.510  16.053  1.00  0.00     0.017 C 
HETATM   18  C22 UNL     1      -2.234   7.763  13.580  1.00  0.00     0.057 C 
HETATM   19  C24 UNL     1      -3.067   6.426  13.601  1.00  0.00     0.023 C 
HETATM   20  C25 UNL     1      -2.251   5.144  13.432  1.00  0.00     0.022 C 
HETATM   21  C26 UNL     1      -1.368   5.133  12.160  1.00  0.00     0.060 C 
HETATM   22  C27 UNL     1      -2.069   4.484  10.967  1.00  0.00     0.081 C 
HETATM   23  C28 UNL     1      -1.782   3.016  11.163  1.00  0.00     0.267 C 
HETATM   24  O4  UNL     1      -0.493   2.953  11.746  1.00  0.00    -0.289 OA
HETATM   25  C29 UNL     1      -0.260   4.116  12.419  1.00  0.00     0.270 C 
HETATM   26  O5  UNL     1       0.697   4.283  13.159  1.00  0.00    -0.264 OA
ENDROOT
BRANCH   1  27
HETATM   27  C4  UNL     1       0.447   6.528  10.984  1.00  0.00    -0.018 C 
HETATM   28  C2  UNL     1       0.780   7.253   9.897  1.00  0.00    -0.091 C 
HETATM   29  C1  UNL     1       2.139   7.088   9.264  1.00  0.00     0.042 C 
HETATM   30  C3  UNL     1      -0.087   8.273   9.212  1.00  0.00     0.042 C 
ENDBRANCH   1  27
BRANCH  23  31
HETATM   31  O3  UNL     1      -1.817   2.307   9.943  1.00  0.00    -0.371 OA
HETATM   32  H42 UNL     1      -1.161   2.724   9.361  1.00  0.00     0.212 HD
ENDBRANCH  23  31
BRANCH  18  33
HETATM   33  C23 UNL     1      -3.037   8.663  12.596  1.00  0.00     0.149 C 
HETATM   34  O1  UNL     1      -4.253   8.790  12.569  1.00  0.00    -0.649 OA
BRANCH  33  35
HETATM   35  O2  UNL     1      -2.316   9.349  11.700  1.00  0.00    -0.776 OA
HETATM   36  H34 UNL     1      -2.984   9.869  11.203  1.00  0.00     0.167 HD
ENDBRANCH  33  35
ENDBRANCH  18  33
TORSDOF 4
ENDMDL
MODEL 3
REMARK minimizedAffinity -8.80088711
REMARK  4 active torsions:
REMARK  status: ('A' for Active; 'I' for Inactive)
REMARK    1  A    between atoms: C4_4  and  C5_5 
REMARK    2  A    between atoms: C22_22  and  C23_23 
REMARK    3  A    between atoms: C23_23  and  O2_25 
REMARK    4  A    between atoms: C28_30  and  O3_31 
ROOT
HETATM    1  C5  UNL     1       1.788   7.345  10.916  1.00  0.00     0.032 C 
HETATM    2  C6  UNL     1       0.559   7.835  11.740  1.00  0.00     0.014 C 
HETATM    3  C7  UNL     1      -0.594   8.460  10.931  1.00  0.00     0.007 C 
HETATM    4  C8  UNL     1      -1.756   8.917  11.814  1.00  0.00     0.007 C 
HETATM    5  C9  UNL     1      -2.221   7.836  12.808  1.00  0.00     0.007 C 
HETATM    6  C10 UNL     1      -3.515   8.215  13.598  1.00  0.00    -0.018 C 
HETATM    7  C11 UNL     1      -3.386   9.509  14.434  1.00  0.00     0.020 C 
HETATM    8  C12 UNL     1      -4.800   8.367  12.804  1.00  0.00    -0.020 C 
HETATM    9  C13 UNL     1      -5.841   7.790  13.432  1.00  0.00    -0.021 C 
HETATM   10  C14 UNL     1      -5.426   7.036  14.682  1.00  0.00    -0.026 C 
HETATM   11  C15 UNL     1      -5.784   7.771  15.974  1.00  0.00     0.019 C 
HETATM   12  C16 UNL     1      -6.076   5.642  14.709  1.00  0.00     0.019 C 
HETATM   13  C17 UNL     1      -3.916   6.931  14.376  1.00  0.00     0.009 C 
HETATM   14  C18 UNL     1      -2.906   6.562  15.447  1.00  0.00     0.007 C 
HETATM   15  C19 UNL     1      -1.568   6.226  14.754  1.00  0.00     0.011 C 
HETATM   16  C20 UNL     1      -1.034   7.297  13.727  1.00  0.00    -0.021 C 
HETATM   17  C21 UNL     1      -0.416   8.430  14.600  1.00  0.00     0.017 C 
HETATM   18  C22 UNL     1       0.102   6.701  12.748  1.00  0.00     0.057 C 
HETATM   19  C24 UNL     1       1.375   6.157  13.502  1.00  0.00     0.023 C 
HETATM   20  C25 UNL     1       2.641   6.997  13.335  1.00  0.00     0.022 C 
HETATM   21  C26 UNL     1       3.034   7.243  11.857  1.00  0.00     0.060 C 
HETATM   22  C27 UNL     1       4.021   6.200  11.333  1.00  0.00     0.081 C 
HETATM   23  C28 UNL     1       5.357   6.750  11.766  1.00  0.00     0.267 C 
HETATM   24  O4  UNL     1       5.231   8.159  11.697  1.00  0.00    -0.289 OA
HETATM   25  C29 UNL     1       3.916   8.488  11.852  1.00  0.00     0.270 C 
HETATM   26  O5  UNL     1       3.525   9.635  12.005  1.00  0.00    -0.264 OA
ENDROOT
BRANCH   1  27
HETATM   27  C4  UNL     1       2.052   8.160   9.662  1.00  0.00    -0.018 C 
HETATM   28  C2  UNL     1       2.370   7.722   8.427  1.00  0.00    -0.091 C 
HETATM   29  C1  UNL     1       2.566   8.708   7.302  1.00  0.00     0.042 C 
HETATM   30  C3  UNL     1       2.551   6.288   8.014  1.00  0.00     0.042 C 
ENDBRANCH   1  27
BRANCH  23  31
HETATM   31  O3  UNL     1       6.404   6.299  10.934  1.00  0.00    -0.371 OA
HETATM   32  H42 UNL     1       6.180   6.576  10.030  1.00  0.00     0.212 HD
ENDBRANCH  23  31
BRANCH  18  33
HETATM   33  C23 UNL     1      -0.450   5.434  12.030  1.00  0.00     0.149 C 
HETATM   34  O1  UNL     1      -1.322   4.690  12.456  1.00  0.00    -0.649 OA
BRANCH  33  35
HETATM   35  O2  UNL     1       0.097   5.142  10.843  1.00  0.00    -0.776 OA
HETATM   36  H34 UNL     1      -0.394   4.347  10.542  1.00  0.00     0.167 HD
ENDBRANCH  33  35
ENDBRANCH  18  33
TORSDOF 4
ENDMDL
MODEL 4
REMARK minimizedAffinity -8.66782951
REMARK  4 active torsions:
REMARK  status: ('A' for Active; 'I' for Inactive)
REMARK    1  A    between atoms: C4_4  and  C5_5 
REMARK    2  A    between atoms: C22_22  and  C23_23 
REMARK    3  A    between atoms: C23_23  and  O2_25 
REMARK    4  A    between atoms: C28_30  and  O3_31 
ROOT
HETATM    1  C5  UNL     1      -5.816   6.393  14.074  1.00  0.00     0.032 C 
HETATM    2  C6  UNL     1      -4.329   6.516  14.524  1.00  0.00     0.014 C 
HETATM    3  C7  UNL     1      -3.365   5.444  13.981  1.00  0.00     0.007 C 
HETATM    4  C8  UNL     1      -1.930   5.636  14.473  1.00  0.00     0.007 C 
HETATM    5  C9  UNL     1      -1.414   7.074  14.286  1.00  0.00     0.007 C 
HETATM    6  C10 UNL     1       0.103   7.253  14.619  1.00  0.00    -0.018 C 
HETATM    7  C11 UNL     1       0.478   6.870  16.070  1.00  0.00     0.020 C 
HETATM    8  C12 UNL     1       1.103   6.531  13.734  1.00  0.00    -0.020 C 
HETATM    9  C13 UNL     1       2.150   7.318  13.426  1.00  0.00    -0.021 C 
HETATM   10  C14 UNL     1       1.980   8.740  13.928  1.00  0.00    -0.026 C 
HETATM   11  C15 UNL     1       2.837   9.049  15.157  1.00  0.00     0.019 C 
HETATM   12  C16 UNL     1       2.327   9.747  12.818  1.00  0.00     0.019 C 
HETATM   13  C17 UNL     1       0.457   8.699  14.175  1.00  0.00     0.009 C 
HETATM   14  C18 UNL     1      -0.246   9.752  15.013  1.00  0.00     0.007 C 
HETATM   15  C19 UNL     1      -1.768   9.610  14.788  1.00  0.00     0.011 C 
HETATM   16  C20 UNL     1      -2.360   8.160  14.971  1.00  0.00    -0.021 C 
HETATM   17  C21 UNL     1      -2.464   7.950  16.511  1.00  0.00     0.017 C 
HETATM   18  C22 UNL     1      -3.826   8.005  14.314  1.00  0.00     0.057 C 
HETATM   19  C24 UNL     1      -4.903   8.987  14.914  1.00  0.00     0.023 C 
HETATM   20  C25 UNL     1      -5.975   8.331  15.784  1.00  0.00     0.022 C 
HETATM   21  C26 UNL     1      -6.728   7.176  15.077  1.00  0.00     0.060 C 
HETATM   22  C27 UNL     1      -8.007   7.648  14.387  1.00  0.00     0.081 C 
HETATM   23  C28 UNL     1      -9.024   7.612  15.500  1.00  0.00     0.267 C 
HETATM   24  O4  UNL     1      -8.653   6.521  16.323  1.00  0.00    -0.289 OA
HETATM   25  C29 UNL     1      -7.313   6.307  16.185  1.00  0.00     0.270 C 
HETATM   26  O5  UNL     1      -6.679   5.543  16.898  1.00  0.00    -0.264 OA
ENDROOT
BRANCH   1  27
HETATM   27  C4  UNL     1      -6.272   4.964  13.843  1.00  0.00    -0.018 C 
HETATM   28  C2  UNL     1      -7.250   4.514  13.029  1.00  0.00    -0.091 C 
HETATM   29  C1  UNL     1      -7.527   3.035  12.925  1.00  0.00     0.042 C 
HETATM   30  C3  UNL     1      -8.136   5.359  12.157  1.00  0.00     0.042 C 
ENDBRANCH   1  27
BRANCH  23  31
HETATM   31  O3  UNL     1     -10.336   7.445  15.006  1.00  0.00    -0.371 OA
HETATM   32  H42 UNL     1     -10.337   6.618  14.495  1.00  0.00     0.212 HD
ENDBRANCH  23  31
BRANCH  18  33
HETATM   33  C23 UNL     1      -3.766   8.422  12.815  1.00  0.00     0.149 C 
HETATM   34  O1  UNL     1      -4.711   8.794  12.135  1.00  0.00    -0.649 OA
BRANCH  33  35
HETATM   35  O2  UNL     1      -2.563   8.355  12.231  1.00  0.00    -0.776 OA
HETATM   36  H34 UNL     1      -2.720   8.680  11.319  1.00  0.00     0.167 HD
ENDBRANCH  33  35
ENDBRANCH  18  33
TORSDOF 4
ENDMDL
MODEL 5
REMARK minimizedAffinity -8.49978638
REMARK  4 active torsions:
REMARK  status: ('A' for Active; 'I' for Inactive)
REMARK    1  A    between atoms: C4_4  and  C5_5 
REMARK    2  A    between atoms: C22_22  and  C23_23 
REMARK    3  A    between atoms: C23_23  and  O2_25 
REMARK    4  A    between atoms: C28_30  and  O3_31 
ROOT
HETATM    1  C5  UNL     1       0.287   6.715  12.462  1.00  0.00     0.032 C 
HETATM    2  C6  UNL     1      -0.126   7.919  13.363  1.00  0.00     0.014 C 
HETATM    3  C7  UNL     1      -1.474   7.787  14.097  1.00  0.00     0.007 C 
HETATM    4  C8  UNL     1      -1.804   9.010  14.953  1.00  0.00     0.007 C 
HETATM    5  C9  UNL     1      -0.644   9.433  15.874  1.00  0.00     0.007 C 
HETATM    6  C10 UNL     1      -1.016  10.569  16.882  1.00  0.00    -0.018 C 
HETATM    7  C11 UNL     1      -1.498  11.874  16.207  1.00  0.00     0.020 C 
HETATM    8  C12 UNL     1      -2.052  10.250  17.944  1.00  0.00    -0.020 C 
HETATM    9  C13 UNL     1      -1.690  10.732  19.148  1.00  0.00    -0.021 C 
HETATM   10  C14 UNL     1      -0.298  11.336  19.142  1.00  0.00    -0.026 C 
HETATM   11  C15 UNL     1      -0.307  12.866  19.165  1.00  0.00     0.019 C 
HETATM   12  C16 UNL     1       0.513  10.830  20.346  1.00  0.00     0.019 C 
HETATM   13  C17 UNL     1       0.207  10.697  17.832  1.00  0.00     0.009 C 
HETATM   14  C18 UNL     1       1.446  11.206  17.118  1.00  0.00     0.007 C 
HETATM   15  C19 UNL     1       1.854  10.163  16.054  1.00  0.00     0.011 C 
HETATM   16  C20 UNL     1       0.712   9.693  15.075  1.00  0.00    -0.021 C 
HETATM   17  C21 UNL     1       0.561  10.845  14.036  1.00  0.00     0.017 C 
HETATM   18  C22 UNL     1       1.085   8.327  14.301  1.00  0.00     0.057 C 
HETATM   19  C24 UNL     1       2.390   8.425  13.422  1.00  0.00     0.023 C 
HETATM   20  C25 UNL     1       2.163   8.412  11.911  1.00  0.00     0.022 C 
HETATM   21  C26 UNL     1       1.348   7.191  11.416  1.00  0.00     0.060 C 
HETATM   22  C27 UNL     1       2.241   6.028  10.986  1.00  0.00     0.081 C 
HETATM   23  C28 UNL     1       2.576   6.368   9.556  1.00  0.00     0.267 C 
HETATM   24  O4  UNL     1       1.429   7.018   9.038  1.00  0.00    -0.289 OA
HETATM   25  C29 UNL     1       0.750   7.595  10.071  1.00  0.00     0.270 C 
HETATM   26  O5  UNL     1      -0.185   8.365   9.912  1.00  0.00    -0.264 OA
ENDROOT
BRANCH   1  27
HETATM   27  C4  UNL     1      -0.888   5.988  11.834  1.00  0.00    -0.018 C 
HETATM   28  C2  UNL     1      -1.070   4.660  11.681  1.00  0.00    -0.091 C 
HETATM   29  C1  UNL     1      -2.336   4.138  11.047  1.00  0.00     0.042 C 
HETATM   30  C3  UNL     1      -0.113   3.580  12.102  1.00  0.00     0.042 C 
ENDBRANCH   1  27
BRANCH  23  31
HETATM   31  O3  UNL     1       2.884   5.216   8.801  1.00  0.00    -0.371 OA
HETATM   32  H42 UNL     1       2.109   4.632   8.856  1.00  0.00     0.212 HD
ENDBRANCH  23  31
BRANCH  18  33
HETATM   33  C23 UNL     1       1.445   7.227  15.344  1.00  0.00     0.149 C 
HETATM   34  O1  UNL     1       1.017   7.154  16.487  1.00  0.00    -0.649 OA
BRANCH  33  35
HETATM   35  O2  UNL     1       2.307   6.286  14.937  1.00  0.00    -0.776 OA
HETATM   36  H34 UNL     1       2.381   5.680  15.705  1.00  0.00     0.167 HD
ENDBRANCH  33  35
ENDBRANCH  18  33
TORSDOF 4
ENDMDL
MODEL 6
REMARK minimizedAffinity -8.37976074
REMARK  4 active torsions:
REMARK  status: ('A' for Active; 'I' for Inactive)
REMARK    1  A    between atoms: C4_4  and  C5_5 
REMARK    2  A    between atoms: C22_22  and  C23_23 
REMARK    3  A    between atoms: C23_23  and  O2_25 
REMARK    4  A    between atoms: C28_30  and  O3_31 
ROOT
HETATM    1  C5  UNL     1      -1.651  10.145  14.924  1.00  0.00     0.032 C 
HETATM    2  C6  UNL     1      -2.791   9.088  15.032  1.00  0.00     0.014 C 
HETATM    3  C7  UNL     1      -4.205   9.574  14.658  1.00  0.00     0.007 C 
HETATM    4  C8  UNL     1      -5.262   8.477  14.795  1.00  0.00     0.007 C 
HETATM    5  C9  UNL     1      -4.863   7.162  14.101  1.00  0.00     0.007 C 
HETATM    6  C10 UNL     1      -5.997   6.087  14.077  1.00  0.00    -0.018 C 
HETATM    7  C11 UNL     1      -6.499   5.672  15.479  1.00  0.00     0.020 C 
HETATM    8  C12 UNL     1      -7.245   6.404  13.273  1.00  0.00    -0.020 C 
HETATM    9  C13 UNL     1      -7.656   5.341  12.557  1.00  0.00    -0.021 C 
HETATM   10  C14 UNL     1      -6.693   4.172  12.642  1.00  0.00    -0.026 C 
HETATM   11  C15 UNL     1      -7.197   3.043  13.543  1.00  0.00     0.019 C 
HETATM   12  C16 UNL     1      -6.418   3.599  11.241  1.00  0.00     0.019 C 
HETATM   13  C17 UNL     1      -5.465   4.943  13.170  1.00  0.00     0.009 C 
HETATM   14  C18 UNL     1      -4.271   4.229  13.777  1.00  0.00     0.007 C 
HETATM   15  C19 UNL     1      -3.110   5.241  13.893  1.00  0.00     0.011 C 
HETATM   16  C20 UNL     1      -3.453   6.607  14.601  1.00  0.00    -0.021 C 
HETATM   17  C21 UNL     1      -3.463   6.289  16.126  1.00  0.00     0.017 C 
HETATM   18  C22 UNL     1      -2.352   7.749  14.304  1.00  0.00     0.057 C 
HETATM   19  C24 UNL     1      -0.897   7.374  14.779  1.00  0.00     0.023 C 
HETATM   20  C25 UNL     1      -0.382   8.155  15.988  1.00  0.00     0.022 C 
HETATM   21  C26 UNL     1      -0.439   9.692  15.805  1.00  0.00     0.060 C 
HETATM   22  C27 UNL     1       0.868  10.265  15.259  1.00  0.00     0.081 C 
HETATM   23  C28 UNL     1       1.699  10.457  16.502  1.00  0.00     0.267 C 
HETATM   24  O4  UNL     1       0.783  10.804  17.525  1.00  0.00    -0.289 OA
HETATM   25  C29 UNL     1      -0.440  10.289  17.209  1.00  0.00     0.270 C 
HETATM   26  O5  UNL     1      -1.385  10.282  17.983  1.00  0.00    -0.264 OA
ENDROOT
BRANCH   1  27
HETATM   27  C4  UNL     1      -2.101  11.566  15.212  1.00  0.00    -0.018 C 
HETATM   28  C2  UNL     1      -3.046  11.989  16.076  1.00  0.00    -0.091 C 
HETATM   29  C1  UNL     1      -3.323  13.464  16.232  1.00  0.00     0.042 C 
HETATM   30  C3  UNL     1      -3.894  11.117  16.960  1.00  0.00     0.042 C 
ENDBRANCH   1  27
BRANCH  23  31
HETATM   31  O3  UNL     1       2.670  11.469  16.333  1.00  0.00    -0.371 OA
HETATM   32  H42 UNL     1       2.188  12.279  16.097  1.00  0.00     0.212 HD
ENDBRANCH  23  31
BRANCH  18  33
HETATM   33  C23 UNL     1      -2.187   7.919  12.765  1.00  0.00     0.149 C 
HETATM   34  O1  UNL     1      -1.356   7.357  12.066  1.00  0.00    -0.649 OA
BRANCH  33  35
HETATM   35  O2  UNL     1      -3.037   8.765  12.169  1.00  0.00    -0.776 OA
HETATM   36  H34 UNL     1      -2.801   8.712  11.218  1.00  0.00     0.167 HD
ENDBRANCH  33  35
ENDBRANCH  18  33
TORSDOF 4
ENDMDL
MODEL 7
REMARK minimizedAffinity -8.2888298
REMARK  4 active torsions:
REMARK  status: ('A' for Active; 'I' for Inactive)
REMARK    1  A    between atoms: C4_4  and  C5_5 
REMARK    2  A    between atoms: C22_22  and  C23_23 
REMARK    3  A    between atoms: C23_23  and  O2_25 
REMARK    4  A    between atoms: C28_30  and  O3_31 
ROOT
HETATM    1  C5  UNL     1      -3.338   7.856  14.646  1.00  0.00     0.032 C 
HETATM    2  C6  UNL     1      -2.421   7.746  13.389  1.00  0.00     0.014 C 
HETATM    3  C7  UNL     1      -1.695   9.037  12.965  1.00  0.00     0.007 C 
HETATM    4  C8  UNL     1      -0.822   8.842  11.724  1.00  0.00     0.007 C 
HETATM    5  C9  UNL     1       0.109   7.620  11.825  1.00  0.00     0.007 C 
HETATM    6  C10 UNL     1       1.132   7.501  10.649  1.00  0.00    -0.018 C 
HETATM    7  C11 UNL     1       0.475   7.399   9.253  1.00  0.00     0.020 C 
HETATM    8  C12 UNL     1       2.186   8.586  10.527  1.00  0.00    -0.020 C 
HETATM    9  C13 UNL     1       3.398   8.069  10.250  1.00  0.00    -0.021 C 
HETATM   10  C14 UNL     1       3.405   6.552  10.271  1.00  0.00    -0.026 C 
HETATM   11  C15 UNL     1       3.450   5.932   8.873  1.00  0.00     0.019 C 
HETATM   12  C16 UNL     1       4.605   6.031  11.080  1.00  0.00     0.019 C 
HETATM   13  C17 UNL     1       2.088   6.342  11.046  1.00  0.00     0.009 C 
HETATM   14  C18 UNL     1       1.385   4.997  11.082  1.00  0.00     0.007 C 
HETATM   15  C19 UNL     1       0.308   5.043  12.188  1.00  0.00     0.011 C 
HETATM   16  C20 UNL     1      -0.682   6.270  12.136  1.00  0.00    -0.021 C 
HETATM   17  C21 UNL     1      -1.704   5.925  11.012  1.00  0.00     0.017 C 
HETATM   18  C22 UNL     1      -1.473   6.483  13.527  1.00  0.00     0.057 C 
HETATM   19  C24 UNL     1      -2.346   5.246  13.963  1.00  0.00     0.023 C 
HETATM   20  C25 UNL     1      -3.858   5.444  13.863  1.00  0.00     0.022 C 
HETATM   21  C26 UNL     1      -4.374   6.684  14.636  1.00  0.00     0.060 C 
HETATM   22  C27 UNL     1      -4.817   6.344  16.058  1.00  0.00     0.081 C 
HETATM   23  C28 UNL     1      -6.241   5.886  15.869  1.00  0.00     0.267 C 
HETATM   24  O4  UNL     1      -6.754   6.660  14.799  1.00  0.00    -0.289 OA
HETATM   25  C29 UNL     1      -5.715   7.051  14.006  1.00  0.00     0.270 C 
HETATM   26  O5  UNL     1      -5.866   7.586  12.919  1.00  0.00    -0.264 OA
ENDROOT
BRANCH   1  27
HETATM   27  C4  UNL     1      -3.981   9.221  14.819  1.00  0.00    -0.018 C 
HETATM   28  C2  UNL     1      -3.809  10.110  15.818  1.00  0.00    -0.091 C 
HETATM   29  C1  UNL     1      -4.530  11.435  15.785  1.00  0.00     0.042 C 
HETATM   30  C3  UNL     1      -2.923   9.933  17.020  1.00  0.00     0.042 C 
ENDBRANCH   1  27
BRANCH  23  31
HETATM   31  O3  UNL     1      -7.012   6.072  17.037  1.00  0.00    -0.371 OA
HETATM   32  H42 UNL     1      -6.967   7.018  17.252  1.00  0.00     0.212 HD
ENDBRANCH  23  31
BRANCH  18  33
HETATM   33  C23 UNL     1      -0.446   6.616  14.689  1.00  0.00     0.149 C 
HETATM   34  O1  UNL     1       0.396   7.496  14.805  1.00  0.00    -0.649 OA
BRANCH  33  35
HETATM   35  O2  UNL     1      -0.498   5.671  15.635  1.00  0.00    -0.776 OA
HETATM   36  H34 UNL     1       0.189   5.940  16.282  1.00  0.00     0.167 HD
ENDBRANCH  33  35
ENDBRANCH  18  33
TORSDOF 4
ENDMDL
MODEL 8
REMARK minimizedAffinity -8.26822472
REMARK  4 active torsions:
REMARK  status: ('A' for Active; 'I' for Inactive)
REMARK    1  A    between atoms: C4_4  and  C5_5 
REMARK    2  A    between atoms: C22_22  and  C23_23 
REMARK    3  A    between atoms: C23_23  and  O2_25 
REMARK    4  A    between atoms: C28_30  and  O3_31 
ROOT
HETATM    1  C5  UNL     1      -0.450   9.512  14.575  1.00  0.00     0.032 C 
HETATM    2  C6  UNL     1      -1.653   8.575  14.896  1.00  0.00     0.014 C 
HETATM    3  C7  UNL     1      -2.846   9.226  15.622  1.00  0.00     0.007 C 
HETATM    4  C8  UNL     1      -3.980   8.237  15.900  1.00  0.00     0.007 C 
HETATM    5  C9  UNL     1      -4.388   7.421  14.660  1.00  0.00     0.007 C 
HETATM    6  C10 UNL     1      -5.656   6.533  14.874  1.00  0.00    -0.018 C 
HETATM    7  C11 UNL     1      -5.513   5.498  16.014  1.00  0.00     0.020 C 
HETATM    8  C12 UNL     1      -6.973   7.243  15.129  1.00  0.00    -0.020 C 
HETATM    9  C13 UNL     1      -7.980   6.682  14.434  1.00  0.00    -0.021 C 
HETATM   10  C14 UNL     1      -7.505   5.592  13.491  1.00  0.00    -0.026 C 
HETATM   11  C15 UNL     1      -7.823   4.183  13.993  1.00  0.00     0.019 C 
HETATM   12  C16 UNL     1      -8.133   5.774  12.099  1.00  0.00     0.019 C 
HETATM   13  C17 UNL     1      -6.007   5.966  13.471  1.00  0.00     0.009 C 
HETATM   14  C18 UNL     1      -4.951   5.008  12.950  1.00  0.00     0.007 C 
HETATM   15  C19 UNL     1      -3.635   5.796  12.762  1.00  0.00     0.011 C 
HETATM   16  C20 UNL     1      -3.159   6.649  14.000  1.00  0.00    -0.021 C 
HETATM   17  C21 UNL     1      -2.523   5.622  14.985  1.00  0.00     0.017 C 
HETATM   18  C22 UNL     1      -2.053   7.754  13.600  1.00  0.00     0.057 C 
HETATM   19  C24 UNL     1      -0.743   7.148  12.966  1.00  0.00     0.023 C 
HETATM   20  C25 UNL     1       0.503   7.218  13.848  1.00  0.00     0.022 C 
HETATM   21  C26 UNL     1       0.834   8.648  14.344  1.00  0.00     0.060 C 
HETATM   22  C27 UNL     1       1.814   9.374  13.424  1.00  0.00     0.081 C 
HETATM   23  C28 UNL     1       3.158   8.904  13.923  1.00  0.00     0.267 C 
HETATM   24  O4  UNL     1       3.008   8.732  15.321  1.00  0.00    -0.289 OA
HETATM   25  C29 UNL     1       1.695   8.477  15.591  1.00  0.00     0.270 C 
HETATM   26  O5  UNL     1       1.294   8.120  16.688  1.00  0.00    -0.264 OA
ENDROOT
BRANCH   1  27
HETATM   27  C4  UNL     1      -0.248  10.622  15.593  1.00  0.00    -0.018 C 
HETATM   28  C2  UNL     1      -0.677  11.899  15.540  1.00  0.00    -0.091 C 
HETATM   29  C1  UNL     1      -0.389  12.842  16.681  1.00  0.00     0.042 C 
HETATM   30  C3  UNL     1      -1.463  12.524  14.421  1.00  0.00     0.042 C 
ENDBRANCH   1  27
BRANCH  23  31
HETATM   31  O3  UNL     1       4.178   9.837  13.638  1.00  0.00    -0.371 OA
HETATM   32  H42 UNL     1       3.915  10.674  14.057  1.00  0.00     0.212 HD
ENDBRANCH  23  31
BRANCH  18  33
HETATM   33  C23 UNL     1      -2.614   8.653  12.458  1.00  0.00     0.149 C 
HETATM   34  O1  UNL     1      -3.780   8.994  12.321  1.00  0.00    -0.649 OA
BRANCH  33  35
HETATM   35  O2  UNL     1      -1.726   9.076  11.549  1.00  0.00    -0.776 OA
HETATM   36  H34 UNL     1      -2.253   9.642  10.945  1.00  0.00     0.167 HD
ENDBRANCH  33  35
ENDBRANCH  18  33
TORSDOF 4
ENDMDL
MODEL 9
REMARK minimizedAffinity -8.01156044
REMARK  4 active torsions:
REMARK  status: ('A' for Active; 'I' for Inactive)
REMARK    1  A    between atoms: C4_4  and  C5_5 
REMARK    2  A    between atoms: C22_22  and  C23_23 
REMARK    3  A    between atoms: C23_23  and  O2_25 
REMARK    4  A    between atoms: C28_30  and  O3_31 
ROOT
HETATM    1  C5  UNL     1      -2.784   7.600  15.519  1.00  0.00     0.032 C 
HETATM    2  C6  UNL     1      -1.619   7.955  14.545  1.00  0.00     0.014 C 
HETATM    3  C7  UNL     1      -0.248   8.221  15.196  1.00  0.00     0.007 C 
HETATM    4  C8  UNL     1       0.835   8.564  14.172  1.00  0.00     0.007 C 
HETATM    5  C9  UNL     1       0.897   7.568  12.999  1.00  0.00     0.007 C 
HETATM    6  C10 UNL     1       2.105   7.796  12.035  1.00  0.00    -0.018 C 
HETATM    7  C11 UNL     1       2.131   9.198  11.381  1.00  0.00     0.020 C 
HETATM    8  C12 UNL     1       3.499   7.580  12.595  1.00  0.00    -0.020 C 
HETATM    9  C13 UNL     1       4.281   6.908  11.731  1.00  0.00    -0.021 C 
HETATM   10  C14 UNL     1       3.525   6.436  10.503  1.00  0.00    -0.026 C 
HETATM   11  C15 UNL     1       3.831   7.265   9.254  1.00  0.00     0.019 C 
HETATM   12  C16 UNL     1       3.847   4.962  10.207  1.00  0.00     0.019 C 
HETATM   13  C17 UNL     1       2.094   6.585  11.062  1.00  0.00     0.009 C 
HETATM   14  C18 UNL     1       0.876   6.577  10.157  1.00  0.00     0.007 C 
HETATM   15  C19 UNL     1      -0.381   6.412  11.040  1.00  0.00     0.011 C 
HETATM   16  C20 UNL     1      -0.506   7.407  12.256  1.00  0.00    -0.021 C 
HETATM   17  C21 UNL     1      -0.991   8.752  11.638  1.00  0.00     0.017 C 
HETATM   18  C22 UNL     1      -1.579   6.910  13.354  1.00  0.00     0.057 C 
HETATM   19  C24 UNL     1      -3.040   6.739  12.788  1.00  0.00     0.023 C 
HETATM   20  C25 UNL     1      -4.054   7.776  13.270  1.00  0.00     0.022 C 
HETATM   21  C26 UNL     1      -4.152   7.878  14.812  1.00  0.00     0.060 C 
HETATM   22  C27 UNL     1      -5.248   6.983  15.389  1.00  0.00     0.081 C 
HETATM   23  C28 UNL     1      -6.484   7.839  15.267  1.00  0.00     0.267 C 
HETATM   24  O4  UNL     1      -6.047   9.172  15.464  1.00  0.00    -0.289 OA
HETATM   25  C29 UNL     1      -4.732   9.257  15.112  1.00  0.00     0.270 C 
HETATM   26  O5  UNL     1      -4.131  10.316  15.015  1.00  0.00    -0.264 OA
ENDROOT
BRANCH   1  27
HETATM   27  C4  UNL     1      -2.669   8.262  16.880  1.00  0.00    -0.018 C 
HETATM   28  C2  UNL     1      -2.190   9.486  17.182  1.00  0.00    -0.091 C 
HETATM   29  C1  UNL     1      -2.191   9.967  18.612  1.00  0.00     0.042 C 
HETATM   30  C3  UNL     1      -1.638  10.488  16.206  1.00  0.00     0.042 C 
ENDBRANCH   1  27
BRANCH  23  31
HETATM   31  O3  UNL     1      -7.463   7.486  16.220  1.00  0.00    -0.371 OA
HETATM   32  H42 UNL     1      -7.048   7.581  17.094  1.00  0.00     0.212 HD
ENDBRANCH  23  31
BRANCH  18  33
HETATM   33  C23 UNL     1      -1.211   5.470  13.818  1.00  0.00     0.149 C 
HETATM   34  O1  UNL     1      -1.285   4.456  13.139  1.00  0.00    -0.649 OA
BRANCH  33  35
HETATM   35  O2  UNL     1      -0.782   5.348  15.081  1.00  0.00    -0.776 OA
HETATM   36  H34 UNL     1      -0.574   4.393  15.172  1.00  0.00     0.167 HD
ENDBRANCH  33  35
ENDBRANCH  18  33
TORSDOF 4
ENDMDL
