MODEL 1
REMARK minimizedAffinity -9.73065472
REMARK CNNscore 0.614696741
REMARK CNNaffinity 7.15462637
REMARK  7 active torsions:
REMARK  status: ('A' for Active; 'I' for Inactive)
REMARK    1  A    between atoms: C2_2  and  C30_32 
REMARK    2  A    between atoms: C3_3  and  C4_4 
REMARK    3  A    between atoms: C4_4  and  O1_5 
REMARK    4  A    between atoms: C4_4  and  C5_6 
REMARK    5  A    between atoms: C5_6  and  C6_7 
REMARK    6  A    between atoms: C6_7  and  C8_9 
REMARK    7  A    between atoms: C30_32  and  O3_33 
ROOT
HETATM    1  C8  UNL     1      -3.862   6.102  13.915  1.00  0.00    -0.002 C 
HETATM    2  C9  UNL     1      -3.611   4.957  12.925  1.00  0.00     0.006 C 
HETATM    3  C10 UNL     1      -2.171   4.570  13.193  1.00  0.00     0.011 C 
HETATM    4  C11 UNL     1      -1.409   5.911  13.243  1.00  0.00    -0.032 C 
HETATM    5  C12 UNL     1      -0.106   5.680  14.034  1.00  0.00     0.016 C 
HETATM    6  C13 UNL     1      -1.083   6.458  11.796  1.00  0.00     0.004 C 
HETATM    7  C14 UNL     1      -0.335   5.534  10.822  1.00  0.00     0.007 C 
HETATM    8  C15 UNL     1       1.183   5.514  10.892  1.00  0.00     0.007 C 
HETATM    9  C16 UNL     1       1.910   6.796  11.339  1.00  0.00     0.010 C 
HETATM   10  C17 UNL     1       3.166   7.147  10.469  1.00  0.00     0.018 C 
HETATM   11  C18 UNL     1       2.821   7.458   9.002  1.00  0.00     0.023 C 
HETATM   12  C19 UNL     1       4.201   6.009  10.534  1.00  0.00     0.023 C 
HETATM   13  C20 UNL     1       3.850   8.397  11.043  1.00  0.00     0.135 C 
HETATM   14  O2  UNL     1       4.846   8.899  10.516  1.00  0.00    -0.297 OA
HETATM   15  C21 UNL     1       3.322   8.944  12.343  1.00  0.00     0.080 C 
HETATM   16  C22 UNL     1       1.821   9.171  12.273  1.00  0.00     0.018 C 
HETATM   17  C23 UNL     1       1.054   8.036  11.584  1.00  0.00    -0.026 A 
HETATM   18  C24 UNL     1       0.016   8.478  10.572  1.00  0.00     0.021 A 
HETATM   19  C25 UNL     1      -0.451   7.854  11.871  1.00  0.00    -0.027 A 
HETATM   20  C26 UNL     1      -1.133   8.774  12.872  1.00  0.00     0.011 C 
HETATM   21  C27 UNL     1      -2.524   8.266  13.247  1.00  0.00     0.011 C 
HETATM   22  C28 UNL     1      -2.475   6.888  13.963  1.00  0.00    -0.032 C 
HETATM   23  C29 UNL     1      -2.134   7.128  15.457  1.00  0.00     0.016 C 
ENDROOT
BRANCH   1  24
HETATM   24  C6  UNL     1      -5.187   6.888  13.638  1.00  0.00    -0.011 C 
HETATM   25  C7  UNL     1      -4.893   8.290  13.091  1.00  0.00     0.010 C 
BRANCH  24  26
HETATM   26  C5  UNL     1      -6.063   6.995  14.922  1.00  0.00     0.040 C 
BRANCH  26  27
HETATM   27  C4  UNL     1      -7.351   6.151  14.920  1.00  0.00     0.141 C 
BRANCH  27  28
HETATM   28  C3  UNL     1      -7.094   4.796  14.309  1.00  0.00     0.009 C 
HETATM   29  C2  UNL     1      -7.504   4.320  13.114  1.00  0.00    -0.062 C 
HETATM   30  C1  UNL     1      -8.333   5.085  12.115  1.00  0.00     0.045 C 
BRANCH  29  31
HETATM   31  C30 UNL     1      -7.147   2.922  12.684  1.00  0.00     0.198 C 
BRANCH  31  32
HETATM   32  O3  UNL     1      -8.320   2.124  12.712  1.00  0.00    -0.397 OA
HETATM   33  H48 UNL     1      -8.063   1.236  12.409  1.00  0.00     0.209 HD
ENDBRANCH  31  32
ENDBRANCH  29  31
ENDBRANCH  27  28
BRANCH  27  34
HETATM   34  O1  UNL     1      -8.347   6.821  14.151  1.00  0.00    -0.392 OA
HETATM   35  H6  UNL     1      -8.627   6.233  13.426  1.00  0.00     0.210 HD
ENDBRANCH  27  34
ENDBRANCH  26  27
ENDBRANCH  24  26
ENDBRANCH   1  24
TORSDOF 7
ENDMDL
MODEL 2
REMARK minimizedAffinity -6.71798563
REMARK CNNscore 0.423368305
REMARK CNNaffinity 6.86820364
REMARK  7 active torsions:
REMARK  status: ('A' for Active; 'I' for Inactive)
REMARK    1  A    between atoms: C2_2  and  C30_32 
REMARK    2  A    between atoms: C3_3  and  C4_4 
REMARK    3  A    between atoms: C4_4  and  O1_5 
REMARK    4  A    between atoms: C4_4  and  C5_6 
REMARK    5  A    between atoms: C5_6  and  C6_7 
REMARK    6  A    between atoms: C6_7  and  C8_9 
REMARK    7  A    between atoms: C30_32  and  O3_33 
ROOT
HETATM    1  C8  UNL     1     -10.509   7.989  14.890  1.00  0.00    -0.002 C 
HETATM    2  C9  UNL     1     -10.620   7.032  13.696  1.00  0.00     0.006 C 
HETATM    3  C10 UNL     1      -9.798   5.835  14.128  1.00  0.00     0.011 C 
HETATM    4  C11 UNL     1      -8.494   6.439  14.690  1.00  0.00    -0.032 C 
HETATM    5  C12 UNL     1      -7.860   5.395  15.631  1.00  0.00     0.016 C 
HETATM    6  C13 UNL     1      -7.481   6.829  13.541  1.00  0.00     0.004 C 
HETATM    7  C14 UNL     1      -7.090   5.747  12.521  1.00  0.00     0.007 C 
HETATM    8  C15 UNL     1      -5.945   4.816  12.883  1.00  0.00     0.007 C 
HETATM    9  C16 UNL     1      -4.828   5.353  13.795  1.00  0.00     0.010 C 
HETATM   10  C17 UNL     1      -3.383   4.971  13.320  1.00  0.00     0.018 C 
HETATM   11  C18 UNL     1      -3.013   5.575  11.955  1.00  0.00     0.023 C 
HETATM   12  C19 UNL     1      -3.219   3.441  13.278  1.00  0.00     0.023 C 
HETATM   13  C20 UNL     1      -2.357   5.495  14.336  1.00  0.00     0.135 C 
HETATM   14  O2  UNL     1      -1.143   5.353  14.173  1.00  0.00    -0.297 OA
HETATM   15  C21 UNL     1      -2.885   6.111  15.604  1.00  0.00     0.080 C 
HETATM   16  C22 UNL     1      -3.905   7.197  15.303  1.00  0.00     0.018 C 
HETATM   17  C23 UNL     1      -4.897   6.826  14.193  1.00  0.00    -0.026 A 
HETATM   18  C24 UNL     1      -5.139   7.902  13.155  1.00  0.00     0.021 A 
HETATM   19  C25 UNL     1      -6.256   7.551  14.116  1.00  0.00    -0.027 A 
HETATM   20  C26 UNL     1      -6.606   8.588  15.174  1.00  0.00     0.011 C 
HETATM   21  C27 UNL     1      -8.082   8.978  15.113  1.00  0.00     0.011 C 
HETATM   22  C28 UNL     1      -9.021   7.780  15.423  1.00  0.00    -0.032 C 
HETATM   23  C29 UNL     1      -9.104   7.612  16.963  1.00  0.00     0.016 C 
ENDROOT
BRANCH   1  24
HETATM   24  C6  UNL     1     -11.023   9.435  14.580  1.00  0.00    -0.011 C 
HETATM   25  C7  UNL     1     -11.454   9.566  13.114  1.00  0.00     0.010 C 
BRANCH  24  26
HETATM   26  C5  UNL     1      -9.941  10.506  14.909  1.00  0.00     0.040 C 
BRANCH  26  27
HETATM   27  C4  UNL     1     -10.332  11.538  15.984  1.00  0.00     0.141 C 
BRANCH  27  28
HETATM   28  C3  UNL     1      -9.211  12.522  16.204  1.00  0.00     0.009 C 
HETATM   29  C2  UNL     1      -9.000  13.334  17.262  1.00  0.00    -0.062 C 
HETATM   30  C1  UNL     1      -9.882  13.417  18.481  1.00  0.00     0.045 C 
BRANCH  29  31
HETATM   31  C30 UNL     1      -7.813  14.261  17.291  1.00  0.00     0.198 C 
BRANCH  31  32
HETATM   32  O3  UNL     1      -7.170  14.136  18.550  1.00  0.00    -0.397 OA
HETATM   33  H48 UNL     1      -6.397  14.727  18.530  1.00  0.00     0.209 HD
ENDBRANCH  31  32
ENDBRANCH  29  31
ENDBRANCH  27  28
BRANCH  27  34
HETATM   34  O1  UNL     1     -10.596  10.859  17.209  1.00  0.00    -0.392 OA
HETATM   35  H6  UNL     1      -9.995  11.208  17.893  1.00  0.00     0.210 HD
ENDBRANCH  27  34
ENDBRANCH  26  27
ENDBRANCH  24  26
ENDBRANCH   1  24
TORSDOF 7
ENDMDL
MODEL 3
REMARK minimizedAffinity -6.67686415
REMARK CNNscore 0.417884111
REMARK CNNaffinity 6.12791824
REMARK  7 active torsions:
REMARK  status: ('A' for Active; 'I' for Inactive)
REMARK    1  A    between atoms: C2_2  and  C30_32 
REMARK    2  A    between atoms: C3_3  and  C4_4 
REMARK    3  A    between atoms: C4_4  and  O1_5 
REMARK    4  A    between atoms: C4_4  and  C5_6 
REMARK    5  A    between atoms: C5_6  and  C6_7 
REMARK    6  A    between atoms: C6_7  and  C8_9 
REMARK    7  A    between atoms: C30_32  and  O3_33 
ROOT
HETATM    1  C8  UNL     1      -5.843 -10.742   1.157  1.00  0.00    -0.002 C 
HETATM    2  C9  UNL     1      -6.660  -9.606   1.787  1.00  0.00     0.006 C 
HETATM    3  C10 UNL     1      -8.071  -9.880   1.306  1.00  0.00     0.011 C 
HETATM    4  C11 UNL     1      -7.921 -10.163  -0.203  1.00  0.00    -0.032 C 
HETATM    5  C12 UNL     1      -9.155 -10.971  -0.654  1.00  0.00     0.016 C 
HETATM    6  C13 UNL     1      -7.801  -8.829  -1.044  1.00  0.00     0.004 C 
HETATM    7  C14 UNL     1      -8.897  -7.765  -0.877  1.00  0.00     0.007 C 
HETATM    8  C15 UNL     1     -10.150  -7.902  -1.727  1.00  0.00     0.007 C 
HETATM    9  C16 UNL     1     -10.025  -8.566  -3.110  1.00  0.00     0.010 C 
HETATM   10  C17 UNL     1     -10.804  -7.817  -4.245  1.00  0.00     0.018 C 
HETATM   11  C18 UNL     1     -10.274  -6.398  -4.511  1.00  0.00     0.023 C 
HETATM   12  C19 UNL     1     -12.308  -7.761  -3.918  1.00  0.00     0.023 C 
HETATM   13  C20 UNL     1     -10.669  -8.600  -5.559  1.00  0.00     0.135 C 
HETATM   14  O2  UNL     1     -11.166  -8.200  -6.615  1.00  0.00    -0.297 OA
HETATM   15  C21 UNL     1      -9.986  -9.941  -5.503  1.00  0.00     0.080 C 
HETATM   16  C22 UNL     1      -8.628  -9.837  -4.829  1.00  0.00     0.018 C 
HETATM   17  C23 UNL     1      -8.623  -8.952  -3.576  1.00  0.00    -0.026 A 
HETATM   18  C24 UNL     1      -7.474  -7.970  -3.481  1.00  0.00     0.021 A 
HETATM   19  C25 UNL     1      -7.515  -9.140  -2.519  1.00  0.00    -0.027 A 
HETATM   20  C26 UNL     1      -6.476 -10.233  -2.717  1.00  0.00     0.011 C 
HETATM   21  C27 UNL     1      -5.653 -10.464  -1.452  1.00  0.00     0.011 C 
HETATM   22  C28 UNL     1      -6.522 -10.970  -0.267  1.00  0.00    -0.032 C 
HETATM   23  C29 UNL     1      -6.734 -12.497  -0.437  1.00  0.00     0.016 C 
ENDROOT
BRANCH   1  24
HETATM   24  C6  UNL     1      -4.296 -10.524   1.250  1.00  0.00    -0.011 C 
HETATM   25  C7  UNL     1      -3.537 -11.830   0.980  1.00  0.00     0.010 C 
BRANCH  24  26
HETATM   26  C5  UNL     1      -3.884  -9.952   2.639  1.00  0.00     0.040 C 
BRANCH  26  27
HETATM   27  C4  UNL     1      -3.624 -11.000   3.738  1.00  0.00     0.141 C 
BRANCH  27  28
HETATM   28  C3  UNL     1      -4.276 -10.582   5.031  1.00  0.00     0.009 C 
HETATM   29  C2  UNL     1      -3.865  -9.652   5.919  1.00  0.00    -0.062 C 
HETATM   30  C1  UNL     1      -2.621  -8.813   5.782  1.00  0.00     0.045 C 
BRANCH  29  31
HETATM   31  C30 UNL     1      -4.661  -9.383   7.170  1.00  0.00     0.198 C 
BRANCH  31  32
HETATM   32  O3  UNL     1      -5.623  -8.378   6.888  1.00  0.00    -0.397 OA
HETATM   33  H48 UNL     1      -6.135  -8.242   7.705  1.00  0.00     0.209 HD
ENDBRANCH  31  32
ENDBRANCH  29  31
ENDBRANCH  27  28
BRANCH  27  34
HETATM   34  O1  UNL     1      -2.219 -11.117   3.947  1.00  0.00    -0.392 OA
HETATM   35  H6  UNL     1      -2.027 -10.911   4.881  1.00  0.00     0.210 HD
ENDBRANCH  27  34
ENDBRANCH  26  27
ENDBRANCH  24  26
ENDBRANCH   1  24
TORSDOF 7
ENDMDL
MODEL 4
REMARK minimizedAffinity -6.9301815
REMARK CNNscore 0.414359808
REMARK CNNaffinity 5.04469347
REMARK  7 active torsions:
REMARK  status: ('A' for Active; 'I' for Inactive)
REMARK    1  A    between atoms: C2_2  and  C30_32 
REMARK    2  A    between atoms: C3_3  and  C4_4 
REMARK    3  A    between atoms: C4_4  and  O1_5 
REMARK    4  A    between atoms: C4_4  and  C5_6 
REMARK    5  A    between atoms: C5_6  and  C6_7 
REMARK    6  A    between atoms: C6_7  and  C8_9 
REMARK    7  A    between atoms: C30_32  and  O3_33 
ROOT
HETATM    1  C8  UNL     1     -11.251 -10.575  13.551  1.00  0.00    -0.002 C 
HETATM    2  C9  UNL     1     -11.998 -10.439  12.218  1.00  0.00     0.006 C 
HETATM    3  C10 UNL     1     -11.223 -11.349  11.287  1.00  0.00     0.011 C 
HETATM    4  C11 UNL     1      -9.742 -10.997  11.538  1.00  0.00    -0.032 C 
HETATM    5  C12 UNL     1      -8.890 -12.198  11.083  1.00  0.00     0.016 C 
HETATM    6  C13 UNL     1      -9.307  -9.690  10.762  1.00  0.00     0.004 C 
HETATM    7  C14 UNL     1      -9.547  -9.633   9.245  1.00  0.00     0.007 C 
HETATM    8  C15 UNL     1      -8.485 -10.233   8.339  1.00  0.00     0.007 C 
HETATM    9  C16 UNL     1      -7.021 -10.213   8.817  1.00  0.00     0.010 C 
HETATM   10  C17 UNL     1      -5.999  -9.789   7.707  1.00  0.00     0.018 C 
HETATM   11  C18 UNL     1      -6.204  -8.347   7.210  1.00  0.00     0.023 C 
HETATM   12  C19 UNL     1      -6.060 -10.765   6.518  1.00  0.00     0.023 C 
HETATM   13  C20 UNL     1      -4.572  -9.871   8.270  1.00  0.00     0.135 C 
HETATM   14  O2  UNL     1      -3.585  -9.554   7.602  1.00  0.00    -0.297 OA
HETATM   15  C21 UNL     1      -4.401 -10.450   9.649  1.00  0.00     0.080 C 
HETATM   16  C22 UNL     1      -5.306  -9.755  10.653  1.00  0.00     0.018 C 
HETATM   17  C23 UNL     1      -6.725  -9.495  10.132  1.00  0.00    -0.026 A 
HETATM   18  C24 UNL     1      -7.269  -8.108  10.401  1.00  0.00     0.021 A 
HETATM   19  C25 UNL     1      -7.876  -9.285  11.137  1.00  0.00    -0.027 A 
HETATM   20  C26 UNL     1      -7.588  -9.388  12.628  1.00  0.00     0.011 C 
HETATM   21  C27 UNL     1      -8.876  -9.447  13.447  1.00  0.00     0.011 C 
HETATM   22  C28 UNL     1      -9.719 -10.713  13.129  1.00  0.00    -0.032 C 
HETATM   23  C29 UNL     1      -9.128 -11.904  13.928  1.00  0.00     0.016 C 
ENDROOT
BRANCH   1  24
HETATM   24  C6  UNL     1     -11.666  -9.502  14.612  1.00  0.00    -0.011 C 
HETATM   25  C7  UNL     1     -11.530  -8.083  14.044  1.00  0.00     0.010 C 
BRANCH  24  26
HETATM   26  C5  UNL     1     -10.821  -9.632  15.914  1.00  0.00     0.040 C 
BRANCH  26  27
HETATM   27  C4  UNL     1     -10.960  -8.469  16.915  1.00  0.00     0.141 C 
BRANCH  27  28
HETATM   28  C3  UNL     1     -10.000  -8.644  18.064  1.00  0.00     0.009 C 
HETATM   29  C2  UNL     1      -9.954  -9.635  18.980  1.00  0.00    -0.062 C 
HETATM   30  C1  UNL     1     -10.895 -10.811  19.032  1.00  0.00     0.045 C 
BRANCH  29  31
HETATM   31  C30 UNL     1      -8.911  -9.626  20.067  1.00  0.00     0.198 C 
BRANCH  31  32
HETATM   32  O3  UNL     1      -8.761  -8.296  20.540  1.00  0.00    -0.397 OA
HETATM   33  H48 UNL     1      -8.100  -8.325  21.254  1.00  0.00     0.209 HD
ENDBRANCH  31  32
ENDBRANCH  29  31
ENDBRANCH  27  28
BRANCH  27  34
HETATM   34  O1  UNL     1     -12.290  -8.450  17.426  1.00  0.00    -0.392 OA
HETATM   35  H6  UNL     1     -12.252  -8.541  18.395  1.00  0.00     0.210 HD
ENDBRANCH  27  34
ENDBRANCH  26  27
ENDBRANCH  24  26
ENDBRANCH   1  24
TORSDOF 7
ENDMDL
MODEL 5
REMARK minimizedAffinity -7.28783417
REMARK CNNscore 0.376801461
REMARK CNNaffinity 6.76398849
REMARK  7 active torsions:
REMARK  status: ('A' for Active; 'I' for Inactive)
REMARK    1  A    between atoms: C2_2  and  C30_32 
REMARK    2  A    between atoms: C3_3  and  C4_4 
REMARK    3  A    between atoms: C4_4  and  O1_5 
REMARK    4  A    between atoms: C4_4  and  C5_6 
REMARK    5  A    between atoms: C5_6  and  C6_7 
REMARK    6  A    between atoms: C6_7  and  C8_9 
REMARK    7  A    between atoms: C30_32  and  O3_33 
ROOT
HETATM    1  C8  UNL     1      -9.694   6.911  14.749  1.00  0.00    -0.002 C 
HETATM    2  C9  UNL     1      -9.280   5.893  13.678  1.00  0.00     0.006 C 
HETATM    3  C10 UNL     1      -8.130   5.150  14.326  1.00  0.00     0.011 C 
HETATM    4  C11 UNL     1      -7.235   6.258  14.920  1.00  0.00    -0.032 C 
HETATM    5  C12 UNL     1      -6.380   5.623  16.035  1.00  0.00     0.016 C 
HETATM    6  C13 UNL     1      -6.305   6.917  13.823  1.00  0.00     0.004 C 
HETATM    7  C14 UNL     1      -5.408   5.994  12.984  1.00  0.00     0.007 C 
HETATM    8  C15 UNL     1      -4.052   5.615  13.556  1.00  0.00     0.007 C 
HETATM    9  C16 UNL     1      -3.348   6.617  14.489  1.00  0.00     0.010 C 
HETATM   10  C17 UNL     1      -1.818   6.790  14.192  1.00  0.00     0.018 C 
HETATM   11  C18 UNL     1      -1.532   7.378  12.800  1.00  0.00     0.023 C 
HETATM   12  C19 UNL     1      -1.083   5.447  14.355  1.00  0.00     0.023 C 
HETATM   13  C20 UNL     1      -1.206   7.753  15.220  1.00  0.00     0.135 C 
HETATM   14  O2  UNL     1      -0.018   8.083  15.183  1.00  0.00    -0.297 OA
HETATM   15  C21 UNL     1      -2.085   8.216  16.351  1.00  0.00     0.080 C 
HETATM   16  C22 UNL     1      -3.392   8.791  15.830  1.00  0.00     0.018 C 
HETATM   17  C23 UNL     1      -4.019   7.973  14.693  1.00  0.00    -0.026 A 
HETATM   18  C24 UNL     1      -4.514   8.782  13.512  1.00  0.00     0.021 A 
HETATM   19  C25 UNL     1      -5.530   8.103  14.409  1.00  0.00    -0.027 A 
HETATM   20  C26 UNL     1      -6.378   9.004  15.294  1.00  0.00     0.011 C 
HETATM   21  C27 UNL     1      -7.870   8.782  15.058  1.00  0.00     0.011 C 
HETATM   22  C28 UNL     1      -8.319   7.342  15.431  1.00  0.00    -0.032 C 
HETATM   23  C29 UNL     1      -8.528   7.281  16.967  1.00  0.00     0.016 C 
ENDROOT
BRANCH   1  24
HETATM   24  C6  UNL     1     -10.672   8.013  14.218  1.00  0.00    -0.011 C 
HETATM   25  C7  UNL     1     -10.786   7.960  12.689  1.00  0.00     0.010 C 
BRANCH  24  26
HETATM   26  C5  UNL     1     -10.222   9.436  14.665  1.00  0.00     0.040 C 
BRANCH  26  27
HETATM   27  C4  UNL     1     -11.339  10.494  14.734  1.00  0.00     0.141 C 
BRANCH  27  28
HETATM   28  C3  UNL     1     -10.830  11.831  14.254  1.00  0.00     0.009 C 
HETATM   29  C2  UNL     1      -9.878  12.615  14.802  1.00  0.00    -0.062 C 
HETATM   30  C1  UNL     1      -9.103  12.291  16.053  1.00  0.00     0.045 C 
BRANCH  29  31
HETATM   31  C30 UNL     1      -9.514  13.933  14.169  1.00  0.00     0.198 C 
BRANCH  31  32
HETATM   32  O3  UNL     1     -10.512  14.271  13.219  1.00  0.00    -0.397 OA
HETATM   33  H48 UNL     1     -10.263  15.134  12.844  1.00  0.00     0.209 HD
ENDBRANCH  31  32
ENDBRANCH  29  31
ENDBRANCH  27  28
BRANCH  27  34
HETATM   34  O1  UNL     1     -11.774  10.625  16.084  1.00  0.00    -0.392 OA
HETATM   35  H6  UNL     1     -11.649  11.551  16.362  1.00  0.00     0.210 HD
ENDBRANCH  27  34
ENDBRANCH  26  27
ENDBRANCH  24  26
ENDBRANCH   1  24
TORSDOF 7
ENDMDL
MODEL 6
REMARK minimizedAffinity -8.85923576
REMARK CNNscore 0.341904372
REMARK CNNaffinity 6.59542894
REMARK  7 active torsions:
REMARK  status: ('A' for Active; 'I' for Inactive)
REMARK    1  A    between atoms: C2_2  and  C30_32 
REMARK    2  A    between atoms: C3_3  and  C4_4 
REMARK    3  A    between atoms: C4_4  and  O1_5 
REMARK    4  A    between atoms: C4_4  and  C5_6 
REMARK    5  A    between atoms: C5_6  and  C6_7 
REMARK    6  A    between atoms: C6_7  and  C8_9 
REMARK    7  A    between atoms: C30_32  and  O3_33 
ROOT
HETATM    1  C8  UNL     1      -3.027   5.007  13.102  1.00  0.00    -0.002 C 
HETATM    2  C9  UNL     1      -2.415   4.023  12.096  1.00  0.00     0.006 C 
HETATM    3  C10 UNL     1      -0.973   3.913  12.546  1.00  0.00     0.011 C 
HETATM    4  C11 UNL     1      -0.524   5.370  12.779  1.00  0.00    -0.032 C 
HETATM    5  C12 UNL     1       0.686   5.342  13.735  1.00  0.00     0.016 C 
HETATM    6  C13 UNL     1      -0.137   6.092  11.426  1.00  0.00     0.004 C 
HETATM    7  C14 UNL     1       0.908   5.422  10.520  1.00  0.00     0.007 C 
HETATM    8  C15 UNL     1       2.374   5.702  10.806  1.00  0.00     0.007 C 
HETATM    9  C16 UNL     1       2.751   7.062  11.422  1.00  0.00     0.010 C 
HETATM   10  C17 UNL     1       4.005   7.731  10.762  1.00  0.00     0.018 C 
HETATM   11  C18 UNL     1       3.795   8.087   9.280  1.00  0.00     0.023 C 
HETATM   12  C19 UNL     1       5.240   6.824  10.912  1.00  0.00     0.023 C 
HETATM   13  C20 UNL     1       4.330   9.040  11.496  1.00  0.00     0.135 C 
HETATM   14  O2  UNL     1       5.257   9.775  11.146  1.00  0.00    -0.297 OA
HETATM   15  C21 UNL     1       3.536   9.360  12.735  1.00  0.00     0.080 C 
HETATM   16  C22 UNL     1       2.043   9.284  12.464  1.00  0.00     0.018 C 
HETATM   17  C23 UNL     1       1.627   8.080  11.610  1.00  0.00    -0.026 A 
HETATM   18  C24 UNL     1       0.659   8.386  10.486  1.00  0.00     0.021 A 
HETATM   19  C25 UNL     1       0.171   7.574  11.668  1.00  0.00    -0.027 A 
HETATM   20  C26 UNL     1      -0.814   8.252  12.610  1.00  0.00     0.011 C 
HETATM   21  C27 UNL     1      -2.102   7.444  12.753  1.00  0.00     0.011 C 
HETATM   22  C28 UNL     1      -1.856   6.049  13.391  1.00  0.00    -0.032 C 
HETATM   23  C29 UNL     1      -1.768   6.228  14.930  1.00  0.00     0.016 C 
ENDROOT
BRANCH   1  24
HETATM   24  C6  UNL     1      -4.442   5.530  12.682  1.00  0.00    -0.011 C 
HETATM   25  C7  UNL     1      -4.823   6.788  13.473  1.00  0.00     0.010 C 
BRANCH  24  26
HETATM   26  C5  UNL     1      -5.533   4.435  12.874  1.00  0.00     0.040 C 
BRANCH  26  27
HETATM   27  C4  UNL     1      -6.982   4.950  12.961  1.00  0.00     0.141 C 
BRANCH  27  28
HETATM   28  C3  UNL     1      -7.305   5.386  14.368  1.00  0.00     0.009 C 
HETATM   29  C2  UNL     1      -8.305   6.187  14.792  1.00  0.00    -0.062 C 
HETATM   30  C1  UNL     1      -9.339   6.827  13.903  1.00  0.00     0.045 C 
BRANCH  29  31
HETATM   31  C30 UNL     1      -8.456   6.513  16.255  1.00  0.00     0.198 C 
BRANCH  31  32
HETATM   32  O3  UNL     1      -7.166   6.559  16.845  1.00  0.00    -0.397 OA
HETATM   33  H48 UNL     1      -7.294   6.793  17.781  1.00  0.00     0.209 HD
ENDBRANCH  31  32
ENDBRANCH  29  31
ENDBRANCH  27  28
BRANCH  27  34
HETATM   34  O1  UNL     1      -7.873   3.901  12.588  1.00  0.00    -0.392 OA
HETATM   35  H6  UNL     1      -8.481   3.732  13.331  1.00  0.00     0.210 HD
ENDBRANCH  27  34
ENDBRANCH  26  27
ENDBRANCH  24  26
ENDBRANCH   1  24
TORSDOF 7
ENDMDL
MODEL 7
REMARK minimizedAffinity -6.66377211
REMARK CNNscore 0.321279466
REMARK CNNaffinity 6.27999926
REMARK  7 active torsions:
REMARK  status: ('A' for Active; 'I' for Inactive)
REMARK    1  A    between atoms: C2_2  and  C30_32 
REMARK    2  A    between atoms: C3_3  and  C4_4 
REMARK    3  A    between atoms: C4_4  and  O1_5 
REMARK    4  A    between atoms: C4_4  and  C5_6 
REMARK    5  A    between atoms: C5_6  and  C6_7 
REMARK    6  A    between atoms: C6_7  and  C8_9 
REMARK    7  A    between atoms: C30_32  and  O3_33 
ROOT
HETATM    1  C8  UNL     1      -0.973  13.164  19.100  1.00  0.00    -0.002 C 
HETATM    2  C9  UNL     1      -2.395  13.601  18.725  1.00  0.00     0.006 C 
HETATM    3  C10 UNL     1      -3.201  12.325  18.860  1.00  0.00     0.011 C 
HETATM    4  C11 UNL     1      -2.359  11.253  18.136  1.00  0.00    -0.032 C 
HETATM    5  C12 UNL     1      -2.789   9.875  18.677  1.00  0.00     0.016 C 
HETATM    6  C13 UNL     1      -2.552  11.312  16.568  1.00  0.00     0.004 C 
HETATM    7  C14 UNL     1      -3.982  11.235  16.010  1.00  0.00     0.007 C 
HETATM    8  C15 UNL     1      -4.581   9.856  15.788  1.00  0.00     0.007 C 
HETATM    9  C16 UNL     1      -3.631   8.695  15.442  1.00  0.00     0.010 C 
HETATM   10  C17 UNL     1      -4.153   7.775  14.285  1.00  0.00     0.018 C 
HETATM   11  C18 UNL     1      -4.284   8.506  12.938  1.00  0.00     0.023 C 
HETATM   12  C19 UNL     1      -5.502   7.140  14.670  1.00  0.00     0.023 C 
HETATM   13  C20 UNL     1      -3.167   6.616  14.072  1.00  0.00     0.135 C 
HETATM   14  O2  UNL     1      -3.334   5.768  13.192  1.00  0.00    -0.297 OA
HETATM   15  C21 UNL     1      -2.025   6.486  15.045  1.00  0.00     0.080 C 
HETATM   16  C22 UNL     1      -1.258   7.792  15.168  1.00  0.00     0.018 C 
HETATM   17  C23 UNL     1      -2.156   9.034  15.244  1.00  0.00    -0.026 A 
HETATM   18  C24 UNL     1      -1.734  10.192  14.363  1.00  0.00     0.021 A 
HETATM   19  C25 UNL     1      -1.603  10.332  15.866  1.00  0.00    -0.027 A 
HETATM   20  C26 UNL     1      -0.192  10.341  16.437  1.00  0.00     0.011 C 
HETATM   21  C27 UNL     1       0.072  11.598  17.263  1.00  0.00     0.011 C 
HETATM   22  C28 UNL     1      -0.848  11.688  18.511  1.00  0.00    -0.032 C 
HETATM   23  C29 UNL     1      -0.243  10.797  19.627  1.00  0.00     0.016 C 
ENDROOT
BRANCH   1  24
HETATM   24  C6  UNL     1       0.120  14.230  18.751  1.00  0.00    -0.011 C 
HETATM   25  C7  UNL     1       0.052  14.627  17.271  1.00  0.00     0.010 C 
BRANCH  24  26
HETATM   26  C5  UNL     1       1.549  13.713  19.094  1.00  0.00     0.040 C 
BRANCH  26  27
HETATM   27  C4  UNL     1       2.039  14.012  20.523  1.00  0.00     0.141 C 
BRANCH  27  28
HETATM   28  C3  UNL     1       2.306  12.729  21.269  1.00  0.00     0.009 C 
HETATM   29  C2  UNL     1       3.051  12.541  22.379  1.00  0.00    -0.062 C 
HETATM   30  C1  UNL     1       3.790  13.624  23.121  1.00  0.00     0.045 C 
BRANCH  29  31
HETATM   31  C30 UNL     1       3.203  11.165  22.975  1.00  0.00     0.198 C 
BRANCH  31  32
HETATM   32  O3  UNL     1       3.885  10.340  22.043  1.00  0.00    -0.397 OA
HETATM   33  H48 UNL     1       3.988   9.468  22.462  1.00  0.00     0.209 HD
ENDBRANCH  31  32
ENDBRANCH  29  31
ENDBRANCH  27  28
BRANCH  27  34
HETATM   34  O1  UNL     1       1.033  14.747  21.217  1.00  0.00    -0.392 OA
HETATM   35  H6  UNL     1       0.775  14.245  22.012  1.00  0.00     0.210 HD
ENDBRANCH  27  34
ENDBRANCH  26  27
ENDBRANCH  24  26
ENDBRANCH   1  24
TORSDOF 7
ENDMDL
MODEL 8
REMARK minimizedAffinity -7.9759388
REMARK CNNscore 0.305350661
REMARK CNNaffinity 6.62073278
REMARK  7 active torsions:
REMARK  status: ('A' for Active; 'I' for Inactive)
REMARK    1  A    between atoms: C2_2  and  C30_32 
REMARK    2  A    between atoms: C3_3  and  C4_4 
REMARK    3  A    between atoms: C4_4  and  O1_5 
REMARK    4  A    between atoms: C4_4  and  C5_6 
REMARK    5  A    between atoms: C5_6  and  C6_7 
REMARK    6  A    between atoms: C6_7  and  C8_9 
REMARK    7  A    between atoms: C30_32  and  O3_33 
ROOT
HETATM    1  C8  UNL     1      -8.795   6.614  14.879  1.00  0.00    -0.002 C 
HETATM    2  C9  UNL     1      -8.449   5.590  13.790  1.00  0.00     0.006 C 
HETATM    3  C10 UNL     1      -7.213   4.903  14.334  1.00  0.00     0.011 C 
HETATM    4  C11 UNL     1      -6.307   6.054  14.819  1.00  0.00    -0.032 C 
HETATM    5  C12 UNL     1      -5.324   5.473  15.855  1.00  0.00     0.016 C 
HETATM    6  C13 UNL     1      -5.515   6.724  13.626  1.00  0.00     0.004 C 
HETATM    7  C14 UNL     1      -4.669   5.818  12.718  1.00  0.00     0.007 C 
HETATM    8  C15 UNL     1      -3.250   5.500  13.161  1.00  0.00     0.007 C 
HETATM    9  C16 UNL     1      -2.497   6.545  14.003  1.00  0.00     0.010 C 
HETATM   10  C17 UNL     1      -1.012   6.768  13.555  1.00  0.00     0.018 C 
HETATM   11  C18 UNL     1      -0.885   7.338  12.132  1.00  0.00     0.023 C 
HETATM   12  C19 UNL     1      -0.214   5.456  13.667  1.00  0.00     0.023 C 
HETATM   13  C20 UNL     1      -0.339   7.773  14.502  1.00  0.00     0.135 C 
HETATM   14  O2  UNL     1       0.826   8.144  14.343  1.00  0.00    -0.297 OA
HETATM   15  C21 UNL     1      -1.121   8.226  15.706  1.00  0.00     0.080 C 
HETATM   16  C22 UNL     1      -2.494   8.742  15.306  1.00  0.00     0.018 C 
HETATM   17  C23 UNL     1      -3.197   7.880  14.250  1.00  0.00    -0.026 A 
HETATM   18  C24 UNL     1      -3.835   8.646  13.110  1.00  0.00     0.021 A 
HETATM   19  C25 UNL     1      -4.732   7.950  14.113  1.00  0.00    -0.027 A 
HETATM   20  C26 UNL     1      -5.523   8.836  15.063  1.00  0.00     0.011 C 
HETATM   21  C27 UNL     1      -7.022   8.555  14.977  1.00  0.00     0.011 C 
HETATM   22  C28 UNL     1      -7.377   7.108  15.416  1.00  0.00    -0.032 C 
HETATM   23  C29 UNL     1      -7.434   7.071  16.966  1.00  0.00     0.016 C 
ENDROOT
BRANCH   1  24
HETATM   24  C6  UNL     1      -9.861   7.669  14.429  1.00  0.00    -0.011 C 
HETATM   25  C7  UNL     1     -10.478   8.382  15.639  1.00  0.00     0.010 C 
BRANCH  24  26
HETATM   26  C5  UNL     1     -10.985   7.012  13.574  1.00  0.00     0.040 C 
BRANCH  26  27
HETATM   27  C4  UNL     1     -11.939   7.991  12.866  1.00  0.00     0.141 C 
BRANCH  27  28
HETATM   28  C3  UNL     1     -11.974   9.313  13.591  1.00  0.00     0.009 C 
HETATM   29  C2  UNL     1     -12.703  10.412  13.303  1.00  0.00    -0.062 C 
HETATM   30  C1  UNL     1     -13.669  10.535  12.153  1.00  0.00     0.045 C 
BRANCH  29  31
HETATM   31  C30 UNL     1     -12.590  11.650  14.154  1.00  0.00     0.198 C 
BRANCH  31  32
HETATM   32  O3  UNL     1     -11.256  12.130  14.081  1.00  0.00    -0.397 OA
HETATM   33  H48 UNL     1     -11.219  12.940  14.620  1.00  0.00     0.209 HD
ENDBRANCH  31  32
ENDBRANCH  29  31
ENDBRANCH  27  28
BRANCH  27  34
HETATM   34  O1  UNL     1     -13.253   7.438  12.855  1.00  0.00    -0.392 OA
HETATM   35  H6  UNL     1     -13.854   8.057  13.309  1.00  0.00     0.210 HD
ENDBRANCH  27  34
ENDBRANCH  26  27
ENDBRANCH  24  26
ENDBRANCH   1  24
TORSDOF 7
ENDMDL
MODEL 9
REMARK minimizedAffinity -6.37081146
REMARK CNNscore 0.302762002
REMARK CNNaffinity 5.36341095
REMARK  7 active torsions:
REMARK  status: ('A' for Active; 'I' for Inactive)
REMARK    1  A    between atoms: C2_2  and  C30_32 
REMARK    2  A    between atoms: C3_3  and  C4_4 
REMARK    3  A    between atoms: C4_4  and  O1_5 
REMARK    4  A    between atoms: C4_4  and  C5_6 
REMARK    5  A    between atoms: C5_6  and  C6_7 
REMARK    6  A    between atoms: C6_7  and  C8_9 
REMARK    7  A    between atoms: C30_32  and  O3_33 
ROOT
HETATM    1  C8  UNL     1     -14.627  -4.853   9.511  1.00  0.00    -0.002 C 
HETATM    2  C9  UNL     1     -14.559  -3.365   9.141  1.00  0.00     0.006 C 
HETATM    3  C10 UNL     1     -13.791  -2.752  10.294  1.00  0.00     0.011 C 
HETATM    4  C11 UNL     1     -14.446  -3.344  11.559  1.00  0.00    -0.032 C 
HETATM    5  C12 UNL     1     -13.426  -3.235  12.711  1.00  0.00     0.016 C 
HETATM    6  C13 UNL     1     -15.784  -2.591  11.937  1.00  0.00     0.004 C 
HETATM    7  C14 UNL     1     -15.733  -1.065  12.111  1.00  0.00     0.007 C 
HETATM    8  C15 UNL     1     -15.329  -0.521  13.471  1.00  0.00     0.007 C 
HETATM    9  C16 UNL     1     -15.664  -1.357  14.720  1.00  0.00     0.010 C 
HETATM   10  C17 UNL     1     -16.245  -0.515  15.908  1.00  0.00     0.018 C 
HETATM   11  C18 UNL     1     -17.595   0.146  15.581  1.00  0.00     0.023 C 
HETATM   12  C19 UNL     1     -15.232   0.556  16.353  1.00  0.00     0.023 C 
HETATM   13  C20 UNL     1     -16.476  -1.432  17.118  1.00  0.00     0.135 C 
HETATM   14  O2  UNL     1     -16.961  -1.015  18.172  1.00  0.00    -0.297 OA
HETATM   15  C21 UNL     1     -15.995  -2.855  17.014  1.00  0.00     0.080 C 
HETATM   16  C22 UNL     1     -16.529  -3.524  15.758  1.00  0.00     0.018 C 
HETATM   17  C23 UNL     1     -16.475  -2.633  14.510  1.00  0.00    -0.026 A 
HETATM   18  C24 UNL     1     -17.732  -2.627  13.666  1.00  0.00     0.021 A 
HETATM   19  C25 UNL     1     -16.485  -3.285  13.112  1.00  0.00    -0.027 A 
HETATM   20  C26 UNL     1     -16.498  -4.802  12.999  1.00  0.00     0.011 C 
HETATM   21  C27 UNL     1     -16.209  -5.263  11.572  1.00  0.00     0.011 C 
HETATM   22  C28 UNL     1     -14.788  -4.854  11.097  1.00  0.00    -0.032 C 
HETATM   23  C29 UNL     1     -13.773  -5.883  11.661  1.00  0.00     0.016 C 
ENDROOT
BRANCH   1  24
HETATM   24  C6  UNL     1     -15.633  -5.669   8.632  1.00  0.00    -0.011 C 
HETATM   25  C7  UNL     1     -15.633  -7.152   9.024  1.00  0.00     0.010 C 
BRANCH  24  26
HETATM   26  C5  UNL     1     -15.309  -5.525   7.115  1.00  0.00     0.040 C 
BRANCH  26  27
HETATM   27  C4  UNL     1     -14.020  -6.223   6.641  1.00  0.00     0.141 C 
BRANCH  27  28
HETATM   28  C3  UNL     1     -13.413  -5.479   5.479  1.00  0.00     0.009 C 
HETATM   29  C2  UNL     1     -12.453  -5.892   4.624  1.00  0.00    -0.062 C 
HETATM   30  C1  UNL     1     -11.774  -7.236   4.669  1.00  0.00     0.045 C 
BRANCH  29  31
HETATM   31  C30 UNL     1     -11.971  -4.989   3.519  1.00  0.00     0.198 C 
BRANCH  31  32
HETATM   32  O3  UNL     1     -13.098  -4.395   2.894  1.00  0.00    -0.397 OA
HETATM   33  H48 UNL     1     -12.756  -3.802   2.203  1.00  0.00     0.209 HD
ENDBRANCH  31  32
ENDBRANCH  29  31
ENDBRANCH  27  28
BRANCH  27  34
HETATM   34  O1  UNL     1     -14.334  -7.549   6.226  1.00  0.00    -0.392 OA
HETATM   35  H6  UNL     1     -14.067  -7.654   5.294  1.00  0.00     0.210 HD
ENDBRANCH  27  34
ENDBRANCH  26  27
ENDBRANCH  24  26
ENDBRANCH   1  24
TORSDOF 7
ENDMDL
