MODEL 1
REMARK minimizedAffinity -8.68084717
REMARK CNNscore 0.54832691
REMARK CNNaffinity 6.49344444
REMARK  6 active torsions:
REMARK  status: ('A' for Active; 'I' for Inactive)
REMARK    1  A    between atoms: C2_2  and  C30_31 
REMARK    2  A    between atoms: C3_3  and  C4_4 
REMARK    3  A    between atoms: C4_4  and  C5_5 
REMARK    4  A    between atoms: C5_5  and  C6_6 
REMARK    5  A    between atoms: C6_6  and  C8_8 
REMARK    6  A    between atoms: C30_31  and  O3_33 
ROOT
HETATM    1  C8  UNL     1       1.106  10.313  17.578  1.00  0.00    -0.002 C 
HETATM    2  C9  UNL     1       2.614  10.670  17.586  1.00  0.00     0.007 C 
HETATM    3  C10 UNL     1       3.197  10.154  16.253  1.00  0.00     0.015 C 
HETATM    4  C11 UNL     1       2.101   9.234  15.661  1.00  0.00    -0.013 C 
HETATM    5  C12 UNL     1       2.306   7.840  16.326  1.00  0.00     0.021 C 
HETATM    6  C13 UNL     1       2.075   8.997  14.163  1.00  0.00    -0.070 C 
HETATM    7  C14 UNL     1       3.103   9.252  13.343  1.00  0.00    -0.022 C 
HETATM    8  C15 UNL     1       2.976   9.035  11.871  1.00  0.00     0.034 C 
HETATM    9  C16 UNL     1       2.293   7.682  11.552  1.00  0.00     0.013 C 
HETATM   10  C17 UNL     1       2.168   7.430  10.002  1.00  0.00     0.018 C 
HETATM   11  C18 UNL     1       2.004   5.932   9.675  1.00  0.00     0.023 C 
HETATM   12  C19 UNL     1       3.429   7.899   9.239  1.00  0.00     0.023 C 
HETATM   13  C20 UNL     1       0.959   8.178   9.429  1.00  0.00     0.135 C 
HETATM   14  O1  UNL     1       0.900   8.511   8.243  1.00  0.00    -0.297 OA
HETATM   15  C21 UNL     1      -0.179   8.518  10.361  1.00  0.00     0.080 C 
HETATM   16  C22 UNL     1      -0.298   7.484  11.467  1.00  0.00     0.017 C 
HETATM   17  C23 UNL     1       0.950   7.460  12.394  1.00  0.00    -0.031 C 
HETATM   18  C24 UNL     1       1.033   6.051  13.040  1.00  0.00     0.016 C 
HETATM   19  C25 UNL     1       0.754   8.563  13.535  1.00  0.00     0.024 C 
HETATM   20  C26 UNL     1      -0.364   8.244  14.575  1.00  0.00     0.010 C 
HETATM   21  C27 UNL     1      -0.435   9.127  15.843  1.00  0.00     0.011 C 
HETATM   22  C28 UNL     1       0.804  10.008  16.078  1.00  0.00    -0.029 C 
HETATM   23  C29 UNL     1       0.591  11.333  15.289  1.00  0.00     0.016 C 
ENDROOT
BRANCH   1  24
HETATM   24  C6  UNL     1       0.155  11.273  18.357  1.00  0.00    -0.014 C 
HETATM   25  C7  UNL     1      -1.225  10.596  18.466  1.00  0.00     0.010 C 
BRANCH  24  26
HETATM   26  C5  UNL     1       0.652  11.687  19.765  1.00  0.00     0.008 C 
BRANCH  26  27
HETATM   27  C4  UNL     1       1.089  10.526  20.674  1.00  0.00     0.028 C 
BRANCH  27  28
HETATM   28  C3  UNL     1       2.434  10.693  21.323  1.00  0.00    -0.013 C 
HETATM   29  C2  UNL     1       3.014   9.916  22.262  1.00  0.00     0.008 C 
HETATM   30  C1  UNL     1       4.373  10.256  22.811  1.00  0.00     0.055 C 
BRANCH  29  31
HETATM   31  C30 UNL     1       2.343   8.711  22.819  1.00  0.00     0.171 C 
HETATM   32  O2  UNL     1       1.825   7.796  22.205  1.00  0.00    -0.646 OA
BRANCH  31  33
HETATM   33  O3  UNL     1       2.349   8.707  24.165  1.00  0.00    -0.773 OA
HETATM   34  H46 UNL     1       1.877   7.879  24.388  1.00  0.00     0.167 HD
ENDBRANCH  31  33
ENDBRANCH  29  31
ENDBRANCH  27  28
ENDBRANCH  26  27
ENDBRANCH  24  26
ENDBRANCH   1  24
TORSDOF 6
ENDMDL
MODEL 2
REMARK minimizedAffinity -9.45187473
REMARK CNNscore 0.421585023
REMARK CNNaffinity 7.13651466
REMARK  6 active torsions:
REMARK  status: ('A' for Active; 'I' for Inactive)
REMARK    1  A    between atoms: C2_2  and  C30_31 
REMARK    2  A    between atoms: C3_3  and  C4_4 
REMARK    3  A    between atoms: C4_4  and  C5_5 
REMARK    4  A    between atoms: C5_5  and  C6_6 
REMARK    5  A    between atoms: C6_6  and  C8_8 
REMARK    6  A    between atoms: C30_31  and  O3_33 
ROOT
HETATM    1  C8  UNL     1      -5.094   7.374  15.166  1.00  0.00    -0.002 C 
HETATM    2  C9  UNL     1      -5.357   8.778  14.567  1.00  0.00     0.007 C 
HETATM    3  C10 UNL     1      -4.098   9.157  13.759  1.00  0.00     0.015 C 
HETATM    4  C11 UNL     1      -3.024   8.122  14.174  1.00  0.00    -0.013 C 
HETATM    5  C12 UNL     1      -2.385   8.670  15.486  1.00  0.00     0.021 C 
HETATM    6  C13 UNL     1      -1.878   7.834  13.224  1.00  0.00    -0.070 C 
HETATM    7  C14 UNL     1      -1.533   8.626  12.199  1.00  0.00    -0.022 C 
HETATM    8  C15 UNL     1      -0.420   8.243  11.280  1.00  0.00     0.034 C 
HETATM    9  C16 UNL     1       0.813   7.730  12.064  1.00  0.00     0.013 C 
HETATM   10  C17 UNL     1       2.004   7.339  11.109  1.00  0.00     0.018 C 
HETATM   11  C18 UNL     1       3.358   7.349  11.846  1.00  0.00     0.023 C 
HETATM   12  C19 UNL     1       2.149   8.334   9.934  1.00  0.00     0.023 C 
HETATM   13  C20 UNL     1       1.789   5.939  10.524  1.00  0.00     0.135 C 
HETATM   14  O1  UNL     1       2.299   5.593   9.455  1.00  0.00    -0.297 OA
HETATM   15  C21 UNL     1       0.918   4.971  11.287  1.00  0.00     0.080 C 
HETATM   16  C22 UNL     1       0.994   5.237  12.781  1.00  0.00     0.017 C 
HETATM   17  C23 UNL     1       0.427   6.634  13.164  1.00  0.00    -0.031 C 
HETATM   18  C24 UNL     1       1.089   7.061  14.501  1.00  0.00     0.016 C 
HETATM   19  C25 UNL     1      -1.153   6.499  13.366  1.00  0.00     0.024 C 
HETATM   20  C26 UNL     1      -1.590   5.674  14.616  1.00  0.00     0.010 C 
HETATM   21  C27 UNL     1      -3.084   5.721  15.017  1.00  0.00     0.011 C 
HETATM   22  C28 UNL     1      -3.897   6.829  14.326  1.00  0.00    -0.029 C 
HETATM   23  C29 UNL     1      -4.403   6.260  12.969  1.00  0.00     0.016 C 
ENDROOT
BRANCH   1  24
HETATM   24  C6  UNL     1      -6.339   6.459  15.381  1.00  0.00    -0.014 C 
HETATM   25  C7  UNL     1      -7.100   6.968  16.621  1.00  0.00     0.010 C 
BRANCH  24  26
HETATM   26  C5  UNL     1      -7.303   6.370  14.171  1.00  0.00     0.008 C 
BRANCH  26  27
HETATM   27  C4  UNL     1      -7.504   4.958  13.595  1.00  0.00     0.028 C 
BRANCH  27  28
HETATM   28  C3  UNL     1      -6.319   4.390  12.865  1.00  0.00    -0.013 C 
HETATM   29  C2  UNL     1      -6.189   3.173  12.296  1.00  0.00     0.008 C 
HETATM   30  C1  UNL     1      -4.907   2.773  11.618  1.00  0.00     0.055 C 
BRANCH  29  31
HETATM   31  C30 UNL     1      -7.280   2.163  12.328  1.00  0.00     0.171 C 
HETATM   32  O2  UNL     1      -8.390   2.279  12.816  1.00  0.00    -0.646 OA
BRANCH  31  33
HETATM   33  O3  UNL     1      -6.920   1.013  11.728  1.00  0.00    -0.773 OA
HETATM   34  H46 UNL     1      -7.715   0.450  11.830  1.00  0.00     0.167 HD
ENDBRANCH  31  33
ENDBRANCH  29  31
ENDBRANCH  27  28
ENDBRANCH  26  27
ENDBRANCH  24  26
ENDBRANCH   1  24
TORSDOF 6
ENDMDL
MODEL 3
REMARK minimizedAffinity -7.00484371
REMARK CNNscore 0.420642972
REMARK CNNaffinity 6.39956665
REMARK  6 active torsions:
REMARK  status: ('A' for Active; 'I' for Inactive)
REMARK    1  A    between atoms: C2_2  and  C30_31 
REMARK    2  A    between atoms: C3_3  and  C4_4 
REMARK    3  A    between atoms: C4_4  and  C5_5 
REMARK    4  A    between atoms: C5_5  and  C6_6 
REMARK    5  A    between atoms: C6_6  and  C8_8 
REMARK    6  A    between atoms: C30_31  and  O3_33 
ROOT
HETATM    1  C8  UNL     1      -1.279   9.660  16.718  1.00  0.00    -0.002 C 
HETATM    2  C9  UNL     1       0.055  10.248  17.244  1.00  0.00     0.007 C 
HETATM    3  C10 UNL     1       1.127   9.930  16.179  1.00  0.00     0.015 C 
HETATM    4  C11 UNL     1       0.467   8.898  15.234  1.00  0.00    -0.013 C 
HETATM    5  C12 UNL     1       0.677   7.507  15.905  1.00  0.00     0.021 C 
HETATM    6  C13 UNL     1       0.980   8.773  13.813  1.00  0.00    -0.070 C 
HETATM    7  C14 UNL     1       2.163   9.246  13.395  1.00  0.00    -0.022 C 
HETATM    8  C15 UNL     1       2.571   9.123  11.964  1.00  0.00     0.034 C 
HETATM    9  C16 UNL     1       2.277   7.707  11.409  1.00  0.00     0.013 C 
HETATM   10  C17 UNL     1       2.720   7.556   9.904  1.00  0.00     0.018 C 
HETATM   11  C18 UNL     1       2.936   6.080   9.515  1.00  0.00     0.023 C 
HETATM   12  C19 UNL     1       4.061   8.273   9.624  1.00  0.00     0.023 C 
HETATM   13  C20 UNL     1       1.660   8.146   8.968  1.00  0.00     0.135 C 
HETATM   14  O1  UNL     1       1.941   8.553   7.838  1.00  0.00    -0.297 OA
HETATM   15  C21 UNL     1       0.236   8.232   9.463  1.00  0.00     0.080 C 
HETATM   16  C22 UNL     1      -0.063   7.112  10.445  1.00  0.00     0.017 C 
HETATM   17  C23 UNL     1       0.791   7.215  11.741  1.00  0.00    -0.031 C 
HETATM   18  C24 UNL     1       0.898   5.792  12.351  1.00  0.00     0.016 C 
HETATM   19  C25 UNL     1       0.039   8.184  12.765  1.00  0.00     0.024 C 
HETATM   20  C26 UNL     1      -1.287   7.616  13.357  1.00  0.00     0.010 C 
HETATM   21  C27 UNL     1      -1.927   8.380  14.541  1.00  0.00     0.011 C 
HETATM   22  C28 UNL     1      -1.009   9.425  15.199  1.00  0.00    -0.029 C 
HETATM   23  C29 UNL     1      -1.173  10.755  14.408  1.00  0.00     0.016 C 
ENDROOT
BRANCH   1  24
HETATM   24  C6  UNL     1      -2.586  10.397  17.143  1.00  0.00    -0.014 C 
HETATM   25  C7  UNL     1      -3.103   9.747  18.441  1.00  0.00     0.010 C 
BRANCH  24  26
HETATM   26  C5  UNL     1      -2.439  11.927  17.343  1.00  0.00     0.008 C 
BRANCH  26  27
HETATM   27  C4  UNL     1      -2.659  12.424  18.782  1.00  0.00     0.028 C 
BRANCH  27  28
HETATM   28  C3  UNL     1      -4.096  12.607  19.184  1.00  0.00    -0.013 C 
HETATM   29  C2  UNL     1      -4.710  13.727  19.617  1.00  0.00     0.008 C 
HETATM   30  C1  UNL     1      -6.166  13.712  19.994  1.00  0.00     0.055 C 
BRANCH  29  31
HETATM   31  C30 UNL     1      -3.987  15.018  19.769  1.00  0.00     0.171 C 
HETATM   32  O2  UNL     1      -3.814  15.880  18.926  1.00  0.00    -0.646 OA
BRANCH  31  33
HETATM   33  O3  UNL     1      -3.494  15.177  21.012  1.00  0.00    -0.773 OA
HETATM   34  H46 UNL     1      -3.046  16.046  20.965  1.00  0.00     0.167 HD
ENDBRANCH  31  33
ENDBRANCH  29  31
ENDBRANCH  27  28
ENDBRANCH  26  27
ENDBRANCH  24  26
ENDBRANCH   1  24
TORSDOF 6
ENDMDL
MODEL 4
REMARK minimizedAffinity -7.60403061
REMARK CNNscore 0.414521933
REMARK CNNaffinity 6.96695662
REMARK  6 active torsions:
REMARK  status: ('A' for Active; 'I' for Inactive)
REMARK    1  A    between atoms: C2_2  and  C30_31 
REMARK    2  A    between atoms: C3_3  and  C4_4 
REMARK    3  A    between atoms: C4_4  and  C5_5 
REMARK    4  A    between atoms: C5_5  and  C6_6 
REMARK    5  A    between atoms: C6_6  and  C8_8 
REMARK    6  A    between atoms: C30_31  and  O3_33 
ROOT
HETATM    1  C8  UNL     1      -8.322   6.641  14.537  1.00  0.00    -0.002 C 
HETATM    2  C9  UNL     1      -8.208   5.223  13.926  1.00  0.00     0.007 C 
HETATM    3  C10 UNL     1      -6.710   4.984  13.640  1.00  0.00     0.015 C 
HETATM    4  C11 UNL     1      -6.043   6.374  13.786  1.00  0.00    -0.013 C 
HETATM    5  C12 UNL     1      -6.225   7.082  12.410  1.00  0.00     0.021 C 
HETATM    6  C13 UNL     1      -4.565   6.446  14.117  1.00  0.00    -0.070 C 
HETATM    7  C14 UNL     1      -3.712   5.421  13.978  1.00  0.00    -0.022 C 
HETATM    8  C15 UNL     1      -2.280   5.564  14.374  1.00  0.00     0.034 C 
HETATM    9  C16 UNL     1      -1.679   6.899  13.867  1.00  0.00     0.013 C 
HETATM   10  C17 UNL     1      -0.162   7.056  14.261  1.00  0.00     0.018 C 
HETATM   11  C18 UNL     1       0.568   8.061  13.348  1.00  0.00     0.023 C 
HETATM   12  C19 UNL     1       0.608   5.721  14.129  1.00  0.00     0.023 C 
HETATM   13  C20 UNL     1      -0.027   7.541  15.709  1.00  0.00     0.135 C 
HETATM   14  O1  UNL     1       0.983   7.319  16.381  1.00  0.00    -0.297 OA
HETATM   15  C21 UNL     1      -1.178   8.305  16.317  1.00  0.00     0.080 C 
HETATM   16  C22 UNL     1      -1.932   9.085  15.252  1.00  0.00     0.017 C 
HETATM   17  C23 UNL     1      -2.610   8.156  14.205  1.00  0.00    -0.031 C 
HETATM   18  C24 UNL     1      -2.786   8.970  12.895  1.00  0.00     0.016 C 
HETATM   19  C25 UNL     1      -4.043   7.724  14.766  1.00  0.00     0.024 C 
HETATM   20  C26 UNL     1      -5.097   8.872  14.836  1.00  0.00     0.010 C 
HETATM   21  C27 UNL     1      -6.566   8.478  15.119  1.00  0.00     0.011 C 
HETATM   22  C28 UNL     1      -6.863   6.975  14.979  1.00  0.00    -0.029 C 
HETATM   23  C29 UNL     1      -6.546   6.306  16.348  1.00  0.00     0.016 C 
ENDROOT
BRANCH   1  24
HETATM   24  C6  UNL     1      -9.486   6.877  15.549  1.00  0.00    -0.014 C 
HETATM   25  C7  UNL     1      -8.936   7.701  16.730  1.00  0.00     0.010 C 
BRANCH  24  26
HETATM   26  C5  UNL     1     -10.737   7.574  14.958  1.00  0.00     0.008 C 
BRANCH  26  27
HETATM   27  C4  UNL     1     -11.469   6.785  13.859  1.00  0.00     0.028 C 
BRANCH  27  28
HETATM   28  C3  UNL     1     -12.800   6.214  14.258  1.00  0.00    -0.013 C 
HETATM   29  C2  UNL     1     -14.030   6.580  13.840  1.00  0.00     0.008 C 
HETATM   30  C1  UNL     1     -15.260   5.897  14.371  1.00  0.00     0.055 C 
BRANCH  29  31
HETATM   31  C30 UNL     1     -14.239   7.682  12.863  1.00  0.00     0.171 C 
HETATM   32  O2  UNL     1     -15.294   8.087  12.410  1.00  0.00    -0.646 OA
BRANCH  31  33
HETATM   33  O3  UNL     1     -13.077   8.245  12.481  1.00  0.00    -0.773 OA
HETATM   34  H46 UNL     1     -13.360   8.933  11.845  1.00  0.00     0.167 HD
ENDBRANCH  31  33
ENDBRANCH  29  31
ENDBRANCH  27  28
ENDBRANCH  26  27
ENDBRANCH  24  26
ENDBRANCH   1  24
TORSDOF 6
ENDMDL
MODEL 5
REMARK minimizedAffinity -7.08138847
REMARK CNNscore 0.395943671
REMARK CNNaffinity 5.93235779
REMARK  6 active torsions:
REMARK  status: ('A' for Active; 'I' for Inactive)
REMARK    1  A    between atoms: C2_2  and  C30_31 
REMARK    2  A    between atoms: C3_3  and  C4_4 
REMARK    3  A    between atoms: C4_4  and  C5_5 
REMARK    4  A    between atoms: C5_5  and  C6_6 
REMARK    5  A    between atoms: C6_6  and  C8_8 
REMARK    6  A    between atoms: C30_31  and  O3_33 
ROOT
HETATM    1  C8  UNL     1       3.341  11.301  19.908  1.00  0.00    -0.002 C 
HETATM    2  C9  UNL     1       4.086  12.156  18.853  1.00  0.00     0.007 C 
HETATM    3  C10 UNL     1       3.005  12.758  17.930  1.00  0.00     0.015 C 
HETATM    4  C11 UNL     1       1.707  11.985  18.267  1.00  0.00    -0.013 C 
HETATM    5  C12 UNL     1       1.752  10.680  17.416  1.00  0.00     0.021 C 
HETATM    6  C13 UNL     1       0.369  12.639  17.983  1.00  0.00    -0.070 C 
HETATM    7  C14 UNL     1       0.204  13.693  17.171  1.00  0.00    -0.022 C 
HETATM    8  C15 UNL     1      -1.144  14.307  16.984  1.00  0.00     0.034 C 
HETATM    9  C16 UNL     1      -2.236  13.229  16.775  1.00  0.00     0.013 C 
HETATM   10  C17 UNL     1      -3.662  13.863  16.557  1.00  0.00     0.018 C 
HETATM   11  C18 UNL     1      -4.619  12.892  15.838  1.00  0.00     0.023 C 
HETATM   12  C19 UNL     1      -3.599  15.133  15.677  1.00  0.00     0.023 C 
HETATM   13  C20 UNL     1      -4.293  14.247  17.901  1.00  0.00     0.135 C 
HETATM   14  O1  UNL     1      -5.151  15.128  17.991  1.00  0.00    -0.297 OA
HETATM   15  C21 UNL     1      -3.833  13.519  19.141  1.00  0.00     0.080 C 
HETATM   16  C22 UNL     1      -3.402  12.101  18.806  1.00  0.00     0.017 C 
HETATM   17  C23 UNL     1      -2.163  12.063  17.867  1.00  0.00    -0.031 C 
HETATM   18  C24 UNL     1      -2.188  10.710  17.107  1.00  0.00     0.016 C 
HETATM   19  C25 UNL     1      -0.844  12.148  18.767  1.00  0.00     0.024 C 
HETATM   20  C26 UNL     1      -0.561  10.890  19.644  1.00  0.00     0.010 C 
HETATM   21  C27 UNL     1       0.820  10.795  20.335  1.00  0.00     0.011 C 
HETATM   22  C28 UNL     1       1.864  11.798  19.816  1.00  0.00    -0.029 C 
HETATM   23  C29 UNL     1       1.686  13.117  20.621  1.00  0.00     0.016 C 
ENDROOT
BRANCH   1  24
HETATM   24  C6  UNL     1       4.008  11.185  21.314  1.00  0.00    -0.014 C 
HETATM   25  C7  UNL     1       4.015   9.698  21.720  1.00  0.00     0.010 C 
BRANCH  24  26
HETATM   26  C5  UNL     1       5.442  11.763  21.408  1.00  0.00     0.008 C 
BRANCH  26  27
HETATM   27  C4  UNL     1       6.038  11.810  22.825  1.00  0.00     0.028 C 
BRANCH  27  28
HETATM   28  C3  UNL     1       6.644  13.127  23.222  1.00  0.00    -0.013 C 
HETATM   29  C2  UNL     1       7.943  13.490  23.212  1.00  0.00     0.008 C 
HETATM   30  C1  UNL     1       8.363  14.861  23.668  1.00  0.00     0.055 C 
BRANCH  29  31
HETATM   31  C30 UNL     1       9.022  12.562  22.781  1.00  0.00     0.171 C 
HETATM   32  O2  UNL     1       9.912  12.775  21.977  1.00  0.00    -0.646 OA
BRANCH  31  33
HETATM   33  O3  UNL     1       8.934  11.367  23.394  1.00  0.00    -0.773 OA
HETATM   34  H46 UNL     1       9.685  10.866  23.016  1.00  0.00     0.167 HD
ENDBRANCH  31  33
ENDBRANCH  29  31
ENDBRANCH  27  28
ENDBRANCH  26  27
ENDBRANCH  24  26
ENDBRANCH   1  24
TORSDOF 6
ENDMDL
MODEL 6
REMARK minimizedAffinity -8.48192215
REMARK CNNscore 0.371353626
REMARK CNNaffinity 5.76583099
REMARK  6 active torsions:
REMARK  status: ('A' for Active; 'I' for Inactive)
REMARK    1  A    between atoms: C2_2  and  C30_31 
REMARK    2  A    between atoms: C3_3  and  C4_4 
REMARK    3  A    between atoms: C4_4  and  C5_5 
REMARK    4  A    between atoms: C5_5  and  C6_6 
REMARK    5  A    between atoms: C6_6  and  C8_8 
REMARK    6  A    between atoms: C30_31  and  O3_33 
ROOT
HETATM    1  C8  UNL     1       7.886   8.766  13.850  1.00  0.00    -0.002 C 
HETATM    2  C9  UNL     1       7.391  10.101  14.462  1.00  0.00     0.007 C 
HETATM    3  C10 UNL     1       5.949  10.312  13.953  1.00  0.00     0.015 C 
HETATM    4  C11 UNL     1       5.765   9.278  12.815  1.00  0.00    -0.013 C 
HETATM    5  C12 UNL     1       6.349   9.944  11.533  1.00  0.00     0.021 C 
HETATM    6  C13 UNL     1       4.364   8.818  12.463  1.00  0.00    -0.070 C 
HETATM    7  C14 UNL     1       3.246   9.462  12.827  1.00  0.00    -0.022 C 
HETATM    8  C15 UNL     1       1.902   8.913  12.479  1.00  0.00     0.034 C 
HETATM    9  C16 UNL     1       1.848   8.431  11.008  1.00  0.00     0.013 C 
HETATM   10  C17 UNL     1       0.430   7.866  10.620  1.00  0.00     0.018 C 
HETATM   11  C18 UNL     1       0.199   7.891   9.096  1.00  0.00     0.023 C 
HETATM   12  C19 UNL     1      -0.713   8.704  11.239  1.00  0.00     0.023 C 
HETATM   13  C20 UNL     1       0.275   6.419  11.102  1.00  0.00     0.135 C 
HETATM   14  O1  UNL     1      -0.831   5.921  11.327  1.00  0.00    -0.297 OA
HETATM   15  C21 UNL     1       1.524   5.597  11.310  1.00  0.00     0.080 C 
HETATM   16  C22 UNL     1       2.624   6.036  10.359  1.00  0.00     0.017 C 
HETATM   17  C23 UNL     1       3.089   7.497  10.623  1.00  0.00    -0.031 C 
HETATM   18  C24 UNL     1       3.694   8.046   9.303  1.00  0.00     0.016 C 
HETATM   19  C25 UNL     1       4.213   7.472  11.759  1.00  0.00     0.024 C 
HETATM   20  C26 UNL     1       5.568   6.828  11.333  1.00  0.00     0.010 C 
HETATM   21  C27 UNL     1       6.774   7.002  12.286  1.00  0.00     0.011 C 
HETATM   22  C28 UNL     1       6.574   8.061  13.383  1.00  0.00    -0.029 C 
HETATM   23  C29 UNL     1       5.878   7.362  14.587  1.00  0.00     0.016 C 
ENDROOT
BRANCH   1  24
HETATM   24  C6  UNL     1       8.919   7.952  14.688  1.00  0.00    -0.014 C 
HETATM   25  C7  UNL     1      10.313   8.159  14.065  1.00  0.00     0.010 C 
BRANCH  24  26
HETATM   26  C5  UNL     1       8.959   8.302  16.197  1.00  0.00     0.008 C 
BRANCH  26  27
HETATM   27  C4  UNL     1       9.667   9.622  16.545  1.00  0.00     0.028 C 
BRANCH  27  28
HETATM   28  C3  UNL     1       9.203  10.284  17.812  1.00  0.00    -0.013 C 
HETATM   29  C2  UNL     1       9.931  10.974  18.714  1.00  0.00     0.008 C 
HETATM   30  C1  UNL     1       9.286  11.555  19.943  1.00  0.00     0.055 C 
BRANCH  29  31
HETATM   31  C30 UNL     1      11.396  11.176  18.561  1.00  0.00     0.171 C 
HETATM   32  O2  UNL     1      11.968  12.066  17.956  1.00  0.00    -0.646 OA
BRANCH  31  33
HETATM   33  O3  UNL     1      12.106  10.221  19.191  1.00  0.00    -0.773 OA
HETATM   34  H46 UNL     1      13.033  10.470  19.002  1.00  0.00     0.167 HD
ENDBRANCH  31  33
ENDBRANCH  29  31
ENDBRANCH  27  28
ENDBRANCH  26  27
ENDBRANCH  24  26
ENDBRANCH   1  24
TORSDOF 6
ENDMDL
MODEL 7
REMARK minimizedAffinity -6.88314867
REMARK CNNscore 0.334706485
REMARK CNNaffinity 5.41157293
REMARK  6 active torsions:
REMARK  status: ('A' for Active; 'I' for Inactive)
REMARK    1  A    between atoms: C2_2  and  C30_31 
REMARK    2  A    between atoms: C3_3  and  C4_4 
REMARK    3  A    between atoms: C4_4  and  C5_5 
REMARK    4  A    between atoms: C5_5  and  C6_6 
REMARK    5  A    between atoms: C6_6  and  C8_8 
REMARK    6  A    between atoms: C30_31  and  O3_33 
ROOT
HETATM    1  C8  UNL     1     -17.298   2.830  14.884  1.00  0.00    -0.002 C 
HETATM    2  C9  UNL     1     -17.474   2.533  16.395  1.00  0.00     0.007 C 
HETATM    3  C10 UNL     1     -17.139   1.039  16.592  1.00  0.00     0.015 C 
HETATM    4  C11 UNL     1     -17.097   0.440  15.166  1.00  0.00    -0.013 C 
HETATM    5  C12 UNL     1     -18.573   0.093  14.804  1.00  0.00     0.021 C 
HETATM    6  C13 UNL     1     -16.286  -0.818  14.922  1.00  0.00    -0.070 C 
HETATM    7  C14 UNL     1     -15.863  -1.640  15.892  1.00  0.00    -0.022 C 
HETATM    8  C15 UNL     1     -15.026  -2.833  15.568  1.00  0.00     0.034 C 
HETATM    9  C16 UNL     1     -15.585  -3.606  14.348  1.00  0.00     0.013 C 
HETATM   10  C17 UNL     1     -14.722  -4.880  14.005  1.00  0.00     0.018 C 
HETATM   11  C18 UNL     1     -15.524  -5.913  13.190  1.00  0.00     0.023 C 
HETATM   12  C19 UNL     1     -14.250  -5.615  15.281  1.00  0.00     0.023 C 
HETATM   13  C20 UNL     1     -13.482  -4.489  13.194  1.00  0.00     0.135 C 
HETATM   14  O1  UNL     1     -12.461  -5.181  13.190  1.00  0.00    -0.297 OA
HETATM   15  C21 UNL     1     -13.527  -3.213  12.389  1.00  0.00     0.080 C 
HETATM   16  C22 UNL     1     -14.943  -2.916  11.925  1.00  0.00     0.017 C 
HETATM   17  C23 UNL     1     -15.911  -2.645  13.111  1.00  0.00    -0.031 C 
HETATM   18  C24 UNL     1     -17.350  -2.975  12.631  1.00  0.00     0.016 C 
HETATM   19  C25 UNL     1     -15.816  -1.096  13.497  1.00  0.00     0.024 C 
HETATM   20  C26 UNL     1     -16.402  -0.115  12.436  1.00  0.00     0.010 C 
HETATM   21  C27 UNL     1     -16.579   1.365  12.852  1.00  0.00     0.011 C 
HETATM   22  C28 UNL     1     -16.456   1.624  14.363  1.00  0.00    -0.029 C 
HETATM   23  C29 UNL     1     -14.947   1.842  14.678  1.00  0.00     0.016 C 
ENDROOT
BRANCH   1  24
HETATM   24  C6  UNL     1     -16.857   4.276  14.502  1.00  0.00    -0.014 C 
HETATM   25  C7  UNL     1     -15.336   4.387  14.719  1.00  0.00     0.010 C 
BRANCH  24  26
HETATM   26  C5  UNL     1     -17.216   4.710  13.058  1.00  0.00     0.008 C 
BRANCH  26  27
HETATM   27  C4  UNL     1     -17.647   6.178  12.903  1.00  0.00     0.028 C 
BRANCH  27  28
HETATM   28  C3  UNL     1     -16.909   7.158  13.770  1.00  0.00    -0.013 C 
HETATM   29  C2  UNL     1     -16.039   8.119  13.397  1.00  0.00     0.008 C 
HETATM   30  C1  UNL     1     -15.379   9.001  14.422  1.00  0.00     0.055 C 
BRANCH  29  31
HETATM   31  C30 UNL     1     -15.669   8.344  11.974  1.00  0.00     0.171 C 
HETATM   32  O2  UNL     1     -15.804   7.576  11.038  1.00  0.00    -0.646 OA
BRANCH  31  33
HETATM   33  O3  UNL     1     -15.124   9.559  11.780  1.00  0.00    -0.773 OA
HETATM   34  H46 UNL     1     -14.926   9.565  10.821  1.00  0.00     0.167 HD
ENDBRANCH  31  33
ENDBRANCH  29  31
ENDBRANCH  27  28
ENDBRANCH  26  27
ENDBRANCH  24  26
ENDBRANCH   1  24
TORSDOF 6
ENDMDL
MODEL 8
REMARK minimizedAffinity -7.28442907
REMARK CNNscore 0.321151555
REMARK CNNaffinity 5.61445427
REMARK  6 active torsions:
REMARK  status: ('A' for Active; 'I' for Inactive)
REMARK    1  A    between atoms: C2_2  and  C30_31 
REMARK    2  A    between atoms: C3_3  and  C4_4 
REMARK    3  A    between atoms: C4_4  and  C5_5 
REMARK    4  A    between atoms: C5_5  and  C6_6 
REMARK    5  A    between atoms: C6_6  and  C8_8 
REMARK    6  A    between atoms: C30_31  and  O3_33 
ROOT
HETATM    1  C8  UNL     1       5.809   8.430  12.612  1.00  0.00    -0.002 C 
HETATM    2  C9  UNL     1       7.008   7.493  12.321  1.00  0.00     0.007 C 
HETATM    3  C10 UNL     1       8.135   7.903  13.292  1.00  0.00     0.015 C 
HETATM    4  C11 UNL     1       7.686   9.260  13.885  1.00  0.00    -0.013 C 
HETATM    5  C12 UNL     1       8.131  10.345  12.859  1.00  0.00     0.021 C 
HETATM    6  C13 UNL     1       8.234   9.689  15.232  1.00  0.00    -0.070 C 
HETATM    7  C14 UNL     1       9.319   9.152  15.809  1.00  0.00    -0.022 C 
HETATM    8  C15 UNL     1       9.764   9.600  17.162  1.00  0.00     0.034 C 
HETATM    9  C16 UNL     1       9.738  11.144  17.287  1.00  0.00     0.013 C 
HETATM   10  C17 UNL     1      10.223  11.633  18.704  1.00  0.00     0.018 C 
HETATM   11  C18 UNL     1      10.705  13.097  18.671  1.00  0.00     0.023 C 
HETATM   12  C19 UNL     1      11.418  10.800  19.222  1.00  0.00     0.023 C 
HETATM   13  C20 UNL     1       9.088  11.528  19.729  1.00  0.00     0.135 C 
HETATM   14  O1  UNL     1       9.309  11.413  20.937  1.00  0.00    -0.297 OA
HETATM   15  C21 UNL     1       7.665  11.558  19.226  1.00  0.00     0.080 C 
HETATM   16  C22 UNL     1       7.557  12.389  17.959  1.00  0.00     0.017 C 
HETATM   17  C23 UNL     1       8.359  11.776  16.776  1.00  0.00    -0.031 C 
HETATM   18  C24 UNL     1       8.709  12.927  15.796  1.00  0.00     0.016 C 
HETATM   19  C25 UNL     1       7.430  10.705  16.038  1.00  0.00     0.024 C 
HETATM   20  C26 UNL     1       6.218  11.307  15.263  1.00  0.00     0.010 C 
HETATM   21  C27 UNL     1       5.434  10.365  14.318  1.00  0.00     0.011 C 
HETATM   22  C28 UNL     1       6.140   9.033  14.013  1.00  0.00    -0.029 C 
HETATM   23  C29 UNL     1       5.752   8.030  15.139  1.00  0.00     0.016 C 
ENDROOT
BRANCH   1  24
HETATM   24  C6  UNL     1       4.385   7.845  12.363  1.00  0.00    -0.014 C 
HETATM   25  C7  UNL     1       3.398   8.568  13.301  1.00  0.00     0.010 C 
BRANCH  24  26
HETATM   26  C5  UNL     1       3.885   7.938  10.899  1.00  0.00     0.008 C 
BRANCH  26  27
HETATM   27  C4  UNL     1       2.827   6.895  10.501  1.00  0.00     0.028 C 
BRANCH  27  28
HETATM   28  C3  UNL     1       1.500   7.459  10.079  1.00  0.00    -0.013 C 
HETATM   29  C2  UNL     1       1.146   7.962   8.878  1.00  0.00     0.008 C 
HETATM   30  C1  UNL     1      -0.240   8.503   8.647  1.00  0.00     0.055 C 
BRANCH  29  31
HETATM   31  C30 UNL     1       2.097   8.034   7.737  1.00  0.00     0.171 C 
HETATM   32  O2  UNL     1       2.993   8.840   7.563  1.00  0.00    -0.646 OA
BRANCH  31  33
HETATM   33  O3  UNL     1       1.875   7.062   6.833  1.00  0.00    -0.773 OA
HETATM   34  H46 UNL     1       2.553   7.233   6.149  1.00  0.00     0.167 HD
ENDBRANCH  31  33
ENDBRANCH  29  31
ENDBRANCH  27  28
ENDBRANCH  26  27
ENDBRANCH  24  26
ENDBRANCH   1  24
TORSDOF 6
ENDMDL
MODEL 9
REMARK minimizedAffinity -8.48752785
REMARK CNNscore 0.285098791
REMARK CNNaffinity 6.96931028
REMARK  6 active torsions:
REMARK  status: ('A' for Active; 'I' for Inactive)
REMARK    1  A    between atoms: C2_2  and  C30_31 
REMARK    2  A    between atoms: C3_3  and  C4_4 
REMARK    3  A    between atoms: C4_4  and  C5_5 
REMARK    4  A    between atoms: C5_5  and  C6_6 
REMARK    5  A    between atoms: C6_6  and  C8_8 
REMARK    6  A    between atoms: C30_31  and  O3_33 
ROOT
HETATM    1  C8  UNL     1      -4.707   6.016  14.513  1.00  0.00    -0.002 C 
HETATM    2  C9  UNL     1      -5.279   4.733  13.862  1.00  0.00     0.007 C 
HETATM    3  C10 UNL     1      -6.813   4.907  13.817  1.00  0.00     0.015 C 
HETATM    4  C11 UNL     1      -7.109   6.123  14.728  1.00  0.00    -0.013 C 
HETATM    5  C12 UNL     1      -7.184   5.562  16.180  1.00  0.00     0.021 C 
HETATM    6  C13 UNL     1      -8.385   6.912  14.504  1.00  0.00    -0.070 C 
HETATM    7  C14 UNL     1      -9.434   6.463  13.801  1.00  0.00    -0.022 C 
HETATM    8  C15 UNL     1     -10.634   7.326  13.587  1.00  0.00     0.034 C 
HETATM    9  C16 UNL     1     -11.065   8.034  14.896  1.00  0.00     0.013 C 
HETATM   10  C17 UNL     1     -12.342   8.935  14.691  1.00  0.00     0.018 C 
HETATM   11  C18 UNL     1     -13.077   9.199  16.019  1.00  0.00     0.023 C 
HETATM   12  C19 UNL     1     -13.375   8.263  13.756  1.00  0.00     0.023 C 
HETATM   13  C20 UNL     1     -11.956  10.287  14.081  1.00  0.00     0.135 C 
HETATM   14  O1  UNL     1     -12.757  10.961  13.429  1.00  0.00    -0.297 OA
HETATM   15  C21 UNL     1     -10.548  10.790  14.289  1.00  0.00     0.080 C 
HETATM   16  C22 UNL     1      -9.985  10.290  15.608  1.00  0.00     0.017 C 
HETATM   17  C23 UNL     1      -9.838   8.742  15.642  1.00  0.00    -0.031 C 
HETATM   18  C24 UNL     1      -9.878   8.296  17.128  1.00  0.00     0.016 C 
HETATM   19  C25 UNL     1      -8.426   8.354  15.002  1.00  0.00     0.024 C 
HETATM   20  C26 UNL     1      -7.183   8.764  15.849  1.00  0.00     0.010 C 
HETATM   21  C27 UNL     1      -5.808   8.196  15.424  1.00  0.00     0.011 C 
HETATM   22  C28 UNL     1      -5.879   7.041  14.411  1.00  0.00    -0.029 C 
HETATM   23  C29 UNL     1      -5.925   7.670  12.988  1.00  0.00     0.016 C 
ENDROOT
BRANCH   1  24
HETATM   24  C6  UNL     1      -3.281   6.457  14.058  1.00  0.00    -0.014 C 
HETATM   25  C7  UNL     1      -2.569   7.097  15.266  1.00  0.00     0.010 C 
BRANCH  24  26
HETATM   26  C5  UNL     1      -2.403   5.325  13.468  1.00  0.00     0.008 C 
BRANCH  26  27
HETATM   27  C4  UNL     1      -2.808   4.847  12.063  1.00  0.00     0.028 C 
BRANCH  27  28
HETATM   28  C3  UNL     1      -3.402   3.468  12.002  1.00  0.00    -0.013 C 
HETATM   29  C2  UNL     1      -2.812   2.316  11.621  1.00  0.00     0.008 C 
HETATM   30  C1  UNL     1      -3.582   1.023  11.609  1.00  0.00     0.055 C 
BRANCH  29  31
HETATM   31  C30 UNL     1      -1.395   2.262  11.174  1.00  0.00     0.171 C 
HETATM   32  O2  UNL     1      -0.398   2.534  11.819  1.00  0.00    -0.646 OA
BRANCH  31  33
HETATM   33  O3  UNL     1      -1.285   1.859   9.894  1.00  0.00    -0.773 OA
HETATM   34  H46 UNL     1      -0.320   1.878   9.736  1.00  0.00     0.167 HD
ENDBRANCH  31  33
ENDBRANCH  29  31
ENDBRANCH  27  28
ENDBRANCH  26  27
ENDBRANCH  24  26
ENDBRANCH   1  24
TORSDOF 6
ENDMDL
