MODEL 1
REMARK minimizedAffinity -7.71353579
REMARK CNNscore 0.702342212
REMARK CNNaffinity 6.37334633
REMARK  14 active torsions:
REMARK  status: ('A' for Active; 'I' for Inactive)
REMARK    1  A    between atoms: C3_3  and  O1_4 
REMARK    2  A    between atoms: O1_4  and  C4_5 
REMARK    3  A    between atoms: C5_7  and  C6_8 
REMARK    4  A    between atoms: C6_8  and  O3_9 
REMARK    5  A    between atoms: C7_10  and  O4_11 
REMARK    6  A    between atoms: C9_13  and  O5_14 
REMARK    7  A    between atoms: C10_15  and  O6_16 
REMARK    8  A    between atoms: C20_26  and  C21_27 
REMARK    9  A    between atoms: C21_27  and  O8_29 
REMARK   10  A    between atoms: C22_30  and  O9_31 
REMARK   11  A    between atoms: C24_33  and  C25_34 
REMARK   12  A    between atoms: C25_34  and  C27_36 
REMARK   13  A    between atoms: C27_36  and  C28_37 
REMARK   14  A    between atoms: C28_37  and  C29_38 
ROOT
HETATM    1  C1  UNL     1     -11.499  47.763 -26.023  1.00  0.00     0.017 C 
HETATM    2  C2  UNL     1     -12.514  47.565 -26.885  1.00  0.00    -0.055 C 
HETATM    3  C3  UNL     1     -12.418  47.839 -28.381  1.00  0.00     0.153 C 
HETATM    4  C11 UNL     1     -12.825  46.602 -29.196  1.00  0.00     0.037 C 
HETATM    5  C12 UNL     1     -14.135  45.954 -28.730  1.00  0.00     0.017 C 
HETATM    6  C13 UNL     1     -14.180  45.663 -27.199  1.00  0.00    -0.013 C 
HETATM    7  C14 UNL     1     -13.114  44.588 -26.845  1.00  0.00     0.021 C 
HETATM    8  C15 UNL     1     -15.548  45.086 -26.750  1.00  0.00    -0.067 C 
HETATM    9  C16 UNL     1     -16.163  45.483 -25.602  1.00  0.00    -0.054 C 
HETATM   10  C17 UNL     1     -15.629  46.603 -24.737  1.00  0.00     0.036 C 
HETATM   11  C18 UNL     1     -14.158  46.926 -24.975  1.00  0.00     0.014 C 
HETATM   12  C19 UNL     1     -13.885  47.024 -26.480  1.00  0.00     0.029 C 
HETATM   13  C20 UNL     1     -17.487  44.837 -25.161  1.00  0.00     0.102 C 
HETATM   14  C22 UNL     1     -17.826  44.700 -23.652  1.00  0.00     0.142 C 
HETATM   15  C23 UNL     1     -18.862  43.551 -23.586  1.00  0.00     0.039 C 
HETATM   16  C24 UNL     1     -18.913  42.879 -24.993  1.00  0.00     0.001 C 
HETATM   17  C33 UNL     1     -17.558  43.327 -25.628  1.00  0.00    -0.016 C 
HETATM   18  C34 UNL     1     -16.409  42.430 -25.069  1.00  0.00     0.017 C 
HETATM   19  C35 UNL     1     -17.454  43.316 -27.159  1.00  0.00     0.015 C 
HETATM   20  C36 UNL     1     -16.156  44.000 -27.646  1.00  0.00     0.036 C 
ENDROOT
BRANCH   3  21
HETATM   21  O1  UNL     1     -11.066  48.170 -28.704  1.00  0.00    -0.349 OA
BRANCH  21  22
HETATM   22  C4  UNL     1     -10.121  47.112 -28.479  1.00  0.00     0.292 C 
HETATM   23  O2  UNL     1     -10.184  46.194 -29.571  1.00  0.00    -0.348 OA
HETATM   24  C5  UNL     1      -8.980  45.490 -29.886  1.00  0.00     0.179 C 
HETATM   25  C7  UNL     1      -7.794  46.443 -30.193  1.00  0.00     0.183 C 
HETATM   26  C9  UNL     1      -8.071  47.869 -29.687  1.00  0.00     0.183 C 
HETATM   27  C10 UNL     1      -8.745  47.808 -28.320  1.00  0.00     0.204 C 
BRANCH  24  28
HETATM   28  C6  UNL     1      -8.643  44.462 -28.793  1.00  0.00     0.198 C 
BRANCH  28  29
HETATM   29  O3  UNL     1      -7.237  44.303 -28.665  1.00  0.00    -0.398 OA
HETATM   30  H8  UNL     1      -7.086  43.674 -27.926  1.00  0.00     0.209 HD
ENDBRANCH  28  29
ENDBRANCH  24  28
BRANCH  25  31
HETATM   31  O4  UNL     1      -7.540  46.559 -31.610  1.00  0.00    -0.385 OA
HETATM   32  C8  UNL     1      -7.934  47.826 -32.126  1.00  0.00     0.202 C 
ENDBRANCH  25  31
BRANCH  26  33
HETATM   33  O5  UNL     1      -6.820  48.566 -29.625  1.00  0.00    -0.390 OA
HETATM   34  H14 UNL     1      -6.490  48.600 -30.541  1.00  0.00     0.210 HD
ENDBRANCH  26  33
BRANCH  27  35
HETATM   35  O6  UNL     1      -8.905  49.109 -27.733  1.00  0.00    -0.388 OA
HETATM   36  H16 UNL     1      -9.784  49.421 -28.034  1.00  0.00     0.210 HD
ENDBRANCH  27  35
ENDBRANCH  21  22
ENDBRANCH   3  21
BRANCH  13  37
HETATM   37  C21 UNL     1     -18.574  45.738 -25.840  1.00  0.00     0.156 C 
HETATM   38  O7  UNL     1     -19.263  46.602 -25.311  1.00  0.00    -0.649 OA
BRANCH  37  39
HETATM   39  O8  UNL     1     -18.746  45.534 -27.162  1.00  0.00    -0.775 OA
HETATM   40  H29 UNL     1     -19.457  46.168 -27.400  1.00  0.00     0.167 HD
ENDBRANCH  37  39
ENDBRANCH  13  37
BRANCH  14  41
HETATM   41  O9  UNL     1     -16.692  44.338 -22.852  1.00  0.00    -0.394 OA
HETATM   42  H31 UNL     1     -16.996  44.253 -21.931  1.00  0.00     0.210 HD
ENDBRANCH  14  41
BRANCH  16  43
HETATM   43  C25 UNL     1     -19.258  41.362 -24.905  1.00  0.00    -0.013 C 
HETATM   44  C26 UNL     1     -20.128  40.890 -26.077  1.00  0.00     0.010 C 
BRANCH  43  45
HETATM   45  C27 UNL     1     -20.001  41.009 -23.584  1.00  0.00     0.008 C 
BRANCH  45  46
HETATM   46  C28 UNL     1     -21.526  40.966 -23.752  1.00  0.00     0.028 C 
BRANCH  46  47
HETATM   47  C29 UNL     1     -22.205  40.825 -22.417  1.00  0.00    -0.025 C 
HETATM   48  C30 UNL     1     -22.937  39.786 -21.965  1.00  0.00    -0.091 C 
HETATM   49  C31 UNL     1     -23.209  38.519 -22.730  1.00  0.00     0.042 C 
HETATM   50  C32 UNL     1     -23.562  39.824 -20.596  1.00  0.00     0.042 C 
ENDBRANCH  46  47
ENDBRANCH  45  46
ENDBRANCH  43  45
ENDBRANCH  16  43
TORSDOF 14
ENDMDL
MODEL 2
REMARK minimizedAffinity -7.95230055
REMARK CNNscore 0.444746822
REMARK CNNaffinity 6.01565123
REMARK  14 active torsions:
REMARK  status: ('A' for Active; 'I' for Inactive)
REMARK    1  A    between atoms: C3_3  and  O1_4 
REMARK    2  A    between atoms: O1_4  and  C4_5 
REMARK    3  A    between atoms: C5_7  and  C6_8 
REMARK    4  A    between atoms: C6_8  and  O3_9 
REMARK    5  A    between atoms: C7_10  and  O4_11 
REMARK    6  A    between atoms: C9_13  and  O5_14 
REMARK    7  A    between atoms: C10_15  and  O6_16 
REMARK    8  A    between atoms: C20_26  and  C21_27 
REMARK    9  A    between atoms: C21_27  and  O8_29 
REMARK   10  A    between atoms: C22_30  and  O9_31 
REMARK   11  A    between atoms: C24_33  and  C25_34 
REMARK   12  A    between atoms: C25_34  and  C27_36 
REMARK   13  A    between atoms: C27_36  and  C28_37 
REMARK   14  A    between atoms: C28_37  and  C29_38 
ROOT
HETATM    1  C1  UNL     1     -11.977  47.242 -25.892  1.00  0.00     0.017 C 
HETATM    2  C2  UNL     1     -13.090  47.067 -26.628  1.00  0.00    -0.055 C 
HETATM    3  C3  UNL     1     -13.101  47.050 -28.152  1.00  0.00     0.153 C 
HETATM    4  C11 UNL     1     -13.769  45.773 -28.685  1.00  0.00     0.037 C 
HETATM    5  C12 UNL     1     -15.110  45.447 -28.016  1.00  0.00     0.017 C 
HETATM    6  C13 UNL     1     -15.048  45.446 -26.458  1.00  0.00    -0.013 C 
HETATM    7  C14 UNL     1     -14.128  44.288 -25.978  1.00  0.00     0.021 C 
HETATM    8  C15 UNL     1     -16.437  45.195 -25.815  1.00  0.00    -0.067 C 
HETATM    9  C16 UNL     1     -16.869  45.887 -24.725  1.00  0.00    -0.054 C 
HETATM   10  C17 UNL     1     -16.089  47.039 -24.130  1.00  0.00     0.036 C 
HETATM   11  C18 UNL     1     -14.617  47.063 -24.524  1.00  0.00     0.014 C 
HETATM   12  C19 UNL     1     -14.480  46.843 -26.035  1.00  0.00     0.029 C 
HETATM   13  C20 UNL     1     -18.226  45.562 -24.079  1.00  0.00     0.102 C 
HETATM   14  C22 UNL     1     -18.432  45.755 -22.552  1.00  0.00     0.142 C 
HETATM   15  C23 UNL     1     -19.619  44.827 -22.197  1.00  0.00     0.039 C 
HETATM   16  C24 UNL     1     -19.910  43.933 -23.442  1.00  0.00     0.001 C 
HETATM   17  C33 UNL     1     -18.571  44.026 -24.242  1.00  0.00    -0.016 C 
HETATM   18  C34 UNL     1     -17.522  43.064 -23.600  1.00  0.00     0.017 C 
HETATM   19  C35 UNL     1     -18.620  43.725 -25.746  1.00  0.00     0.015 C 
HETATM   20  C36 UNL     1     -17.288  44.084 -26.442  1.00  0.00     0.036 C 
ENDROOT
BRANCH   3  21
HETATM   21  O1  UNL     1     -11.752  47.086 -28.624  1.00  0.00    -0.349 OA
BRANCH  21  22
HETATM   22  C4  UNL     1     -11.504  46.283 -29.788  1.00  0.00     0.292 C 
HETATM   23  O2  UNL     1     -11.412  47.136 -30.930  1.00  0.00    -0.348 OA
HETATM   24  C5  UNL     1     -10.573  46.688 -31.998  1.00  0.00     0.179 C 
HETATM   25  C7  UNL     1      -9.115  46.423 -31.541  1.00  0.00     0.183 C 
HETATM   26  C9  UNL     1      -9.017  46.299 -30.011  1.00  0.00     0.183 C 
HETATM   27  C10 UNL     1     -10.203  45.497 -29.483  1.00  0.00     0.204 C 
BRANCH  24  28
HETATM   28  C6  UNL     1     -11.196  45.478 -32.715  1.00  0.00     0.198 C 
BRANCH  28  29
HETATM   29  O3  UNL     1     -12.053  45.901 -33.767  1.00  0.00    -0.398 OA
HETATM   30  H8  UNL     1     -12.381  45.090 -34.212  1.00  0.00     0.209 HD
ENDBRANCH  28  29
ENDBRANCH  24  28
BRANCH  25  31
HETATM   31  O4  UNL     1      -8.221  47.495 -31.917  1.00  0.00    -0.385 OA
HETATM   32  C8  UNL     1      -8.539  48.716 -31.259  1.00  0.00     0.202 C 
ENDBRANCH  25  31
BRANCH  26  33
HETATM   33  O5  UNL     1      -7.772  45.661 -29.698  1.00  0.00    -0.390 OA
HETATM   34  H14 UNL     1      -7.077  46.261 -30.025  1.00  0.00     0.210 HD
ENDBRANCH  26  33
BRANCH  27  35
HETATM   35  O6  UNL     1     -10.096  45.228 -28.076  1.00  0.00    -0.388 OA
HETATM   36  H16 UNL     1     -10.545  45.980 -27.636  1.00  0.00     0.210 HD
ENDBRANCH  27  35
ENDBRANCH  21  22
ENDBRANCH   3  21
BRANCH  13  37
HETATM   37  C21 UNL     1     -19.225  46.497 -24.842  1.00  0.00     0.156 C 
HETATM   38  O7  UNL     1     -20.235  46.169 -25.453  1.00  0.00    -0.649 OA
BRANCH  37  39
HETATM   39  O8  UNL     1     -18.930  47.813 -24.796  1.00  0.00    -0.775 OA
HETATM   40  H29 UNL     1     -19.647  48.225 -25.326  1.00  0.00     0.167 HD
ENDBRANCH  37  39
ENDBRANCH  13  37
BRANCH  14  41
HETATM   41  O9  UNL     1     -17.293  45.357 -21.777  1.00  0.00    -0.394 OA
HETATM   42  H31 UNL     1     -17.515  45.489 -20.838  1.00  0.00     0.210 HD
ENDBRANCH  14  41
BRANCH  16  43
HETATM   43  C25 UNL     1     -20.471  42.535 -23.042  1.00  0.00    -0.013 C 
HETATM   44  C26 UNL     1     -21.186  41.835 -24.204  1.00  0.00     0.010 C 
BRANCH  43  45
HETATM   45  C27 UNL     1     -21.468  42.627 -21.850  1.00  0.00     0.008 C 
BRANCH  45  46
HETATM   46  C28 UNL     1     -21.033  41.784 -20.644  1.00  0.00     0.028 C 
BRANCH  46  47
HETATM   47  C29 UNL     1     -20.921  42.638 -19.411  1.00  0.00    -0.025 C 
HETATM   48  C30 UNL     1     -19.802  43.128 -18.840  1.00  0.00    -0.091 C 
HETATM   49  C31 UNL     1     -18.404  42.922 -19.356  1.00  0.00     0.042 C 
HETATM   50  C32 UNL     1     -19.879  43.958 -17.585  1.00  0.00     0.042 C 
ENDBRANCH  46  47
ENDBRANCH  45  46
ENDBRANCH  43  45
ENDBRANCH  16  43
TORSDOF 14
ENDMDL
MODEL 3
REMARK minimizedAffinity -7.98789644
REMARK CNNscore 0.341782629
REMARK CNNaffinity 6.76620102
REMARK  14 active torsions:
REMARK  status: ('A' for Active; 'I' for Inactive)
REMARK    1  A    between atoms: C3_3  and  O1_4 
REMARK    2  A    between atoms: O1_4  and  C4_5 
REMARK    3  A    between atoms: C5_7  and  C6_8 
REMARK    4  A    between atoms: C6_8  and  O3_9 
REMARK    5  A    between atoms: C7_10  and  O4_11 
REMARK    6  A    between atoms: C9_13  and  O5_14 
REMARK    7  A    between atoms: C10_15  and  O6_16 
REMARK    8  A    between atoms: C20_26  and  C21_27 
REMARK    9  A    between atoms: C21_27  and  O8_29 
REMARK   10  A    between atoms: C22_30  and  O9_31 
REMARK   11  A    between atoms: C24_33  and  C25_34 
REMARK   12  A    between atoms: C25_34  and  C27_36 
REMARK   13  A    between atoms: C27_36  and  C28_37 
REMARK   14  A    between atoms: C28_37  and  C29_38 
ROOT
HETATM    1  C1  UNL     1      -1.183  50.315 -21.885  1.00  0.00     0.017 C 
HETATM    2  C2  UNL     1      -2.389  50.033 -22.414  1.00  0.00    -0.055 C 
HETATM    3  C3  UNL     1      -2.694  50.102 -23.905  1.00  0.00     0.153 C 
HETATM    4  C11 UNL     1      -3.293  48.779 -24.408  1.00  0.00     0.037 C 
HETATM    5  C12 UNL     1      -4.428  48.238 -23.530  1.00  0.00     0.017 C 
HETATM    6  C13 UNL     1      -4.064  48.156 -22.016  1.00  0.00    -0.013 C 
HETATM    7  C14 UNL     1      -2.935  47.107 -21.811  1.00  0.00     0.021 C 
HETATM    8  C15 UNL     1      -5.261  47.684 -21.149  1.00  0.00    -0.067 C 
HETATM    9  C16 UNL     1      -5.554  48.248 -19.945  1.00  0.00    -0.054 C 
HETATM   10  C17 UNL     1      -4.819  49.459 -19.413  1.00  0.00     0.036 C 
HETATM   11  C18 UNL     1      -3.465  49.704 -20.070  1.00  0.00     0.014 C 
HETATM   12  C19 UNL     1      -3.599  49.591 -21.593  1.00  0.00     0.029 C 
HETATM   13  C20 UNL     1      -6.709  47.707 -19.088  1.00  0.00     0.102 C 
HETATM   14  C22 UNL     1      -6.636  47.782 -17.538  1.00  0.00     0.142 C 
HETATM   15  C23 UNL     1      -7.610  46.684 -17.046  1.00  0.00     0.039 C 
HETATM   16  C24 UNL     1      -8.026  45.831 -18.284  1.00  0.00     0.001 C 
HETATM   17  C33 UNL     1      -6.890  46.150 -19.309  1.00  0.00    -0.016 C 
HETATM   18  C34 UNL     1      -5.627  45.303 -18.954  1.00  0.00     0.017 C 
HETATM   19  C35 UNL     1      -7.194  45.931 -20.797  1.00  0.00     0.015 C 
HETATM   20  C36 UNL     1      -6.077  46.506 -21.697  1.00  0.00     0.036 C 
ENDROOT
BRANCH   3  21
HETATM   21  O1  UNL     1      -1.477  50.346 -24.615  1.00  0.00    -0.349 OA
BRANCH  21  22
HETATM   22  C4  UNL     1      -1.226  51.728 -24.914  1.00  0.00     0.292 C 
HETATM   23  O2  UNL     1       0.101  52.058 -24.504  1.00  0.00    -0.348 OA
HETATM   24  C5  UNL     1       0.762  53.090 -25.242  1.00  0.00     0.179 C 
HETATM   25  C7  UNL     1       0.845  52.777 -26.760  1.00  0.00     0.183 C 
HETATM   26  C9  UNL     1      -0.144  51.671 -27.163  1.00  0.00     0.183 C 
HETATM   27  C10 UNL     1      -1.470  51.877 -26.437  1.00  0.00     0.204 C 
BRANCH  24  28
HETATM   28  C6  UNL     1       0.128  54.461 -24.956  1.00  0.00     0.198 C 
BRANCH  28  29
HETATM   29  O3  UNL     1       0.223  55.308 -26.092  1.00  0.00    -0.398 OA
HETATM   30  H8  UNL     1      -0.237  56.146 -25.865  1.00  0.00     0.209 HD
ENDBRANCH  28  29
ENDBRANCH  24  28
BRANCH  25  31
HETATM   31  O4  UNL     1       2.155  52.309 -27.150  1.00  0.00    -0.385 OA
HETATM   32  C8  UNL     1       2.565  51.170 -26.402  1.00  0.00     0.202 C 
ENDBRANCH  25  31
BRANCH  26  33
HETATM   33  O5  UNL     1      -0.312  51.725 -28.586  1.00  0.00    -0.390 OA
HETATM   34  H14 UNL     1       0.567  51.535 -28.963  1.00  0.00     0.210 HD
ENDBRANCH  26  33
BRANCH  27  35
HETATM   35  O6  UNL     1      -2.481  50.956 -26.876  1.00  0.00    -0.388 OA
HETATM   36  H16 UNL     1      -2.398  50.181 -26.283  1.00  0.00     0.210 HD
ENDBRANCH  27  35
ENDBRANCH  21  22
ENDBRANCH   3  21
BRANCH  13  37
HETATM   37  C21 UNL     1      -7.944  48.540 -19.573  1.00  0.00     0.156 C 
HETATM   38  O7  UNL     1      -8.594  48.382 -20.600  1.00  0.00    -0.649 OA
BRANCH  37  39
HETATM   39  O8  UNL     1      -8.329  49.532 -18.744  1.00  0.00    -0.775 OA
HETATM   40  H29 UNL     1      -9.092  49.937 -19.212  1.00  0.00     0.167 HD
ENDBRANCH  37  39
ENDBRANCH  13  37
BRANCH  14  41
HETATM   41  O9  UNL     1      -5.329  47.498 -17.023  1.00  0.00    -0.394 OA
HETATM   42  H31 UNL     1      -5.378  47.546 -16.051  1.00  0.00     0.210 HD
ENDBRANCH  14  41
BRANCH  16  43
HETATM   43  C25 UNL     1      -8.325  44.350 -17.903  1.00  0.00    -0.013 C 
HETATM   44  C26 UNL     1      -8.813  44.204 -16.456  1.00  0.00     0.010 C 
BRANCH  43  45
HETATM   45  C27 UNL     1      -7.075  43.440 -18.081  1.00  0.00     0.008 C 
BRANCH  45  46
HETATM   46  C28 UNL     1      -7.386  42.148 -18.850  1.00  0.00     0.028 C 
BRANCH  46  47
HETATM   47  C29 UNL     1      -7.548  42.428 -20.318  1.00  0.00    -0.025 C 
HETATM   48  C30 UNL     1      -7.033  41.738 -21.356  1.00  0.00    -0.091 C 
HETATM   49  C31 UNL     1      -6.183  40.502 -21.240  1.00  0.00     0.042 C 
HETATM   50  C32 UNL     1      -7.287  42.178 -22.775  1.00  0.00     0.042 C 
ENDBRANCH  46  47
ENDBRANCH  45  46
ENDBRANCH  43  45
ENDBRANCH  16  43
TORSDOF 14
ENDMDL
MODEL 4
REMARK minimizedAffinity -7.58687735
REMARK CNNscore 0.335633695
REMARK CNNaffinity 6.53469801
REMARK  14 active torsions:
REMARK  status: ('A' for Active; 'I' for Inactive)
REMARK    1  A    between atoms: C3_3  and  O1_4 
REMARK    2  A    between atoms: O1_4  and  C4_5 
REMARK    3  A    between atoms: C5_7  and  C6_8 
REMARK    4  A    between atoms: C6_8  and  O3_9 
REMARK    5  A    between atoms: C7_10  and  O4_11 
REMARK    6  A    between atoms: C9_13  and  O5_14 
REMARK    7  A    between atoms: C10_15  and  O6_16 
REMARK    8  A    between atoms: C20_26  and  C21_27 
REMARK    9  A    between atoms: C21_27  and  O8_29 
REMARK   10  A    between atoms: C22_30  and  O9_31 
REMARK   11  A    between atoms: C24_33  and  C25_34 
REMARK   12  A    between atoms: C25_34  and  C27_36 
REMARK   13  A    between atoms: C27_36  and  C28_37 
REMARK   14  A    between atoms: C28_37  and  C29_38 
ROOT
HETATM    1  C1  UNL     1      -1.336  50.476 -22.064  1.00  0.00     0.017 C 
HETATM    2  C2  UNL     1      -2.537  50.112 -22.551  1.00  0.00    -0.055 C 
HETATM    3  C3  UNL     1      -2.885  50.119 -24.035  1.00  0.00     0.153 C 
HETATM    4  C11 UNL     1      -3.421  48.751 -24.482  1.00  0.00     0.037 C 
HETATM    5  C12 UNL     1      -4.501  48.173 -23.558  1.00  0.00     0.017 C 
HETATM    6  C13 UNL     1      -4.093  48.157 -22.053  1.00  0.00    -0.013 C 
HETATM    7  C14 UNL     1      -2.901  47.179 -21.850  1.00  0.00     0.021 C 
HETATM    8  C15 UNL     1      -5.238  47.645 -21.140  1.00  0.00    -0.067 C 
HETATM    9  C16 UNL     1      -5.530  48.228 -19.945  1.00  0.00    -0.054 C 
HETATM   10  C17 UNL     1      -4.851  49.493 -19.468  1.00  0.00     0.036 C 
HETATM   11  C18 UNL     1      -3.531  49.794 -20.170  1.00  0.00     0.014 C 
HETATM   12  C19 UNL     1      -3.699  49.628 -21.684  1.00  0.00     0.029 C 
HETATM   13  C20 UNL     1      -6.631  47.649 -19.041  1.00  0.00     0.102 C 
HETATM   14  C22 UNL     1      -6.521  47.775 -17.496  1.00  0.00     0.142 C 
HETATM   15  C23 UNL     1      -7.418  46.640 -16.946  1.00  0.00     0.039 C 
HETATM   16  C24 UNL     1      -7.818  45.728 -18.148  1.00  0.00     0.001 C 
HETATM   17  C33 UNL     1      -6.728  46.079 -19.212  1.00  0.00    -0.016 C 
HETATM   18  C34 UNL     1      -5.411  45.315 -18.868  1.00  0.00     0.017 C 
HETATM   19  C35 UNL     1      -7.059  45.799 -20.684  1.00  0.00     0.015 C 
HETATM   20  C36 UNL     1      -6.000  46.408 -21.631  1.00  0.00     0.036 C 
ENDROOT
BRANCH   3  21
HETATM   21  O1  UNL     1      -1.703  50.409 -24.784  1.00  0.00    -0.349 OA
BRANCH  21  22
HETATM   22  C4  UNL     1      -1.281  51.781 -24.729  1.00  0.00     0.292 C 
HETATM   23  O2  UNL     1       0.112  51.851 -25.035  1.00  0.00    -0.348 OA
HETATM   24  C5  UNL     1       0.572  53.055 -25.653  1.00  0.00     0.179 C 
HETATM   25  C7  UNL     1      -0.175  53.370 -26.976  1.00  0.00     0.183 C 
HETATM   26  C9  UNL     1      -1.484  52.570 -27.089  1.00  0.00     0.183 C 
HETATM   27  C10 UNL     1      -2.186  52.537 -25.734  1.00  0.00     0.204 C 
BRANCH  24  28
HETATM   28  C6  UNL     1       0.537  54.229 -24.661  1.00  0.00     0.198 C 
BRANCH  28  29
HETATM   29  O3  UNL     1       0.297  55.455 -25.338  1.00  0.00    -0.398 OA
HETATM   30  H8  UNL     1       0.239  56.156 -24.651  1.00  0.00     0.209 HD
ENDBRANCH  28  29
ENDBRANCH  24  28
BRANCH  25  31
HETATM   31  O4  UNL     1       0.609  53.030 -28.141  1.00  0.00    -0.385 OA
HETATM   32  C8  UNL     1       1.122  51.704 -28.075  1.00  0.00     0.202 C 
ENDBRANCH  25  31
BRANCH  26  33
HETATM   33  O5  UNL     1      -2.300  53.195 -28.088  1.00  0.00    -0.390 OA
HETATM   34  H14 UNL     1      -1.798  53.126 -28.921  1.00  0.00     0.210 HD
ENDBRANCH  26  33
BRANCH  27  35
HETATM   35  O6  UNL     1      -3.481  51.921 -25.807  1.00  0.00    -0.388 OA
HETATM   36  H16 UNL     1      -3.324  50.971 -25.629  1.00  0.00     0.210 HD
ENDBRANCH  27  35
ENDBRANCH  21  22
ENDBRANCH   3  21
BRANCH  13  37
HETATM   37  C21 UNL     1      -7.922  48.398 -19.515  1.00  0.00     0.156 C 
HETATM   38  O7  UNL     1      -8.568  48.197 -20.536  1.00  0.00    -0.649 OA
BRANCH  37  39
HETATM   39  O8  UNL     1      -8.367  49.360 -18.680  1.00  0.00    -0.775 OA
HETATM   40  H29 UNL     1      -9.160  49.712 -19.142  1.00  0.00     0.167 HD
ENDBRANCH  37  39
ENDBRANCH  13  37
BRANCH  14  41
HETATM   41  O9  UNL     1      -5.186  47.580 -17.010  1.00  0.00    -0.394 OA
HETATM   42  H31 UNL     1      -5.213  47.654 -16.039  1.00  0.00     0.210 HD
ENDBRANCH  14  41
BRANCH  16  43
HETATM   43  C25 UNL     1      -8.022  44.245 -17.716  1.00  0.00    -0.013 C 
HETATM   44  C26 UNL     1      -9.188  43.575 -18.453  1.00  0.00     0.010 C 
BRANCH  43  45
HETATM   45  C27 UNL     1      -8.282  44.114 -16.187  1.00  0.00     0.008 C 
BRANCH  45  46
HETATM   46  C28 UNL     1      -9.767  43.917 -15.852  1.00  0.00     0.028 C 
BRANCH  46  47
HETATM   47  C29 UNL     1      -9.926  43.060 -14.626  1.00  0.00    -0.025 C 
HETATM   48  C30 UNL     1      -9.978  43.456 -13.338  1.00  0.00    -0.091 C 
HETATM   49  C31 UNL     1      -9.902  44.883 -12.866  1.00  0.00     0.042 C 
HETATM   50  C32 UNL     1     -10.125  42.448 -12.228  1.00  0.00     0.042 C 
ENDBRANCH  46  47
ENDBRANCH  45  46
ENDBRANCH  43  45
ENDBRANCH  16  43
TORSDOF 14
ENDMDL
MODEL 5
REMARK minimizedAffinity -8.48779678
REMARK CNNscore 0.321803749
REMARK CNNaffinity 6.01506996
REMARK  14 active torsions:
REMARK  status: ('A' for Active; 'I' for Inactive)
REMARK    1  A    between atoms: C3_3  and  O1_4 
REMARK    2  A    between atoms: O1_4  and  C4_5 
REMARK    3  A    between atoms: C5_7  and  C6_8 
REMARK    4  A    between atoms: C6_8  and  O3_9 
REMARK    5  A    between atoms: C7_10  and  O4_11 
REMARK    6  A    between atoms: C9_13  and  O5_14 
REMARK    7  A    between atoms: C10_15  and  O6_16 
REMARK    8  A    between atoms: C20_26  and  C21_27 
REMARK    9  A    between atoms: C21_27  and  O8_29 
REMARK   10  A    between atoms: C22_30  and  O9_31 
REMARK   11  A    between atoms: C24_33  and  C25_34 
REMARK   12  A    between atoms: C25_34  and  C27_36 
REMARK   13  A    between atoms: C27_36  and  C28_37 
REMARK   14  A    between atoms: C28_37  and  C29_38 
ROOT
HETATM    1  C1  UNL     1      -7.487  46.157 -27.774  1.00  0.00     0.017 C 
HETATM    2  C2  UNL     1      -8.589  46.893 -28.012  1.00  0.00    -0.055 C 
HETATM    3  C3  UNL     1      -8.602  48.132 -28.899  1.00  0.00     0.153 C 
HETATM    4  C11 UNL     1      -9.676  48.019 -29.991  1.00  0.00     0.037 C 
HETATM    5  C12 UNL     1     -11.048  47.570 -29.470  1.00  0.00     0.017 C 
HETATM    6  C13 UNL     1     -10.994  46.283 -28.593  1.00  0.00    -0.013 C 
HETATM    7  C14 UNL     1     -10.543  45.079 -29.468  1.00  0.00     0.021 C 
HETATM    8  C15 UNL     1     -12.383  45.906 -28.016  1.00  0.00    -0.067 C 
HETATM    9  C16 UNL     1     -12.546  45.476 -26.735  1.00  0.00    -0.054 C 
HETATM   10  C17 UNL     1     -11.411  45.449 -25.734  1.00  0.00     0.036 C 
HETATM   11  C18 UNL     1     -10.024  45.483 -26.365  1.00  0.00     0.014 C 
HETATM   12  C19 UNL     1      -9.970  46.572 -27.442  1.00  0.00     0.029 C 
HETATM   13  C20 UNL     1     -13.932  45.051 -26.222  1.00  0.00     0.102 C 
HETATM   14  C22 UNL     1     -14.060  43.947 -25.137  1.00  0.00     0.142 C 
HETATM   15  C23 UNL     1     -15.499  43.401 -25.302  1.00  0.00     0.039 C 
HETATM   16  C24 UNL     1     -16.084  43.998 -26.619  1.00  0.00     0.001 C 
HETATM   17  C33 UNL     1     -14.796  44.428 -27.393  1.00  0.00    -0.016 C 
HETATM   18  C34 UNL     1     -14.155  43.172 -28.062  1.00  0.00     0.017 C 
HETATM   19  C35 UNL     1     -14.945  45.507 -28.475  1.00  0.00     0.015 C 
HETATM   20  C36 UNL     1     -13.570  45.996 -28.983  1.00  0.00     0.036 C 
ENDROOT
BRANCH   3  21
HETATM   21  O1  UNL     1      -7.326  48.262 -29.530  1.00  0.00    -0.349 OA
BRANCH  21  22
HETATM   22  C4  UNL     1      -6.916  47.116 -30.291  1.00  0.00     0.292 C 
HETATM   23  O2  UNL     1      -7.765  46.987 -31.431  1.00  0.00    -0.348 OA
HETATM   24  C5  UNL     1      -7.191  46.384 -32.594  1.00  0.00     0.179 C 
HETATM   25  C7  UNL     1      -5.921  47.127 -33.086  1.00  0.00     0.183 C 
HETATM   26  C9  UNL     1      -5.352  48.053 -31.997  1.00  0.00     0.183 C 
HETATM   27  C10 UNL     1      -5.425  47.358 -30.641  1.00  0.00     0.204 C 
BRANCH  24  28
HETATM   28  C6  UNL     1      -6.947  44.882 -32.369  1.00  0.00     0.198 C 
BRANCH  28  29
HETATM   29  O3  UNL     1      -5.739  44.469 -32.993  1.00  0.00    -0.398 OA
HETATM   30  H8  UNL     1      -5.615  43.519 -32.776  1.00  0.00     0.209 HD
ENDBRANCH  28  29
ENDBRANCH  24  28
BRANCH  25  31
HETATM   31  O4  UNL     1      -6.189  47.967 -34.231  1.00  0.00    -0.385 OA
HETATM   32  C8  UNL     1      -5.002  48.309 -34.937  1.00  0.00     0.202 C 
ENDBRANCH  25  31
BRANCH  26  33
HETATM   33  O5  UNL     1      -4.000  48.372 -32.351  1.00  0.00    -0.390 OA
HETATM   34  H14 UNL     1      -4.054  48.853 -33.197  1.00  0.00     0.210 HD
ENDBRANCH  26  33
BRANCH  27  35
HETATM   35  O6  UNL     1      -4.783  48.117 -29.605  1.00  0.00    -0.388 OA
HETATM   36  H16 UNL     1      -5.486  48.688 -29.231  1.00  0.00     0.210 HD
ENDBRANCH  27  35
ENDBRANCH  21  22
ENDBRANCH   3  21
BRANCH  13  37
HETATM   37  C21 UNL     1     -14.535  46.382 -25.659  1.00  0.00     0.156 C 
HETATM   38  O7  UNL     1     -14.087  47.515 -25.781  1.00  0.00    -0.649 OA
BRANCH  37  39
HETATM   39  O8  UNL     1     -15.691  46.244 -24.976  1.00  0.00    -0.775 OA
HETATM   40  H29 UNL     1     -15.902  47.163 -24.700  1.00  0.00     0.167 HD
ENDBRANCH  37  39
ENDBRANCH  13  37
BRANCH  14  41
HETATM   41  O9  UNL     1     -13.137  42.866 -25.323  1.00  0.00    -0.394 OA
HETATM   42  H31 UNL     1     -13.300  42.215 -24.617  1.00  0.00     0.210 HD
ENDBRANCH  14  41
BRANCH  16  43
HETATM   43  C25 UNL     1     -17.102  43.034 -27.298  1.00  0.00    -0.013 C 
HETATM   44  C26 UNL     1     -17.461  43.469 -28.725  1.00  0.00     0.010 C 
BRANCH  43  45
HETATM   45  C27 UNL     1     -18.425  42.917 -26.486  1.00  0.00     0.008 C 
BRANCH  45  46
HETATM   46  C28 UNL     1     -19.415  44.048 -26.796  1.00  0.00     0.028 C 
BRANCH  46  47
HETATM   47  C29 UNL     1     -19.045  45.299 -26.047  1.00  0.00    -0.025 C 
HETATM   48  C30 UNL     1     -19.439  45.673 -24.812  1.00  0.00    -0.091 C 
HETATM   49  C31 UNL     1     -20.340  44.874 -23.910  1.00  0.00     0.042 C 
HETATM   50  C32 UNL     1     -18.980  46.980 -24.221  1.00  0.00     0.042 C 
ENDBRANCH  46  47
ENDBRANCH  45  46
ENDBRANCH  43  45
ENDBRANCH  16  43
TORSDOF 14
ENDMDL
MODEL 6
REMARK minimizedAffinity -7.69505596
REMARK CNNscore 0.237325713
REMARK CNNaffinity 5.71873236
REMARK  14 active torsions:
REMARK  status: ('A' for Active; 'I' for Inactive)
REMARK    1  A    between atoms: C3_3  and  O1_4 
REMARK    2  A    between atoms: O1_4  and  C4_5 
REMARK    3  A    between atoms: C5_7  and  C6_8 
REMARK    4  A    between atoms: C6_8  and  O3_9 
REMARK    5  A    between atoms: C7_10  and  O4_11 
REMARK    6  A    between atoms: C9_13  and  O5_14 
REMARK    7  A    between atoms: C10_15  and  O6_16 
REMARK    8  A    between atoms: C20_26  and  C21_27 
REMARK    9  A    between atoms: C21_27  and  O8_29 
REMARK   10  A    between atoms: C22_30  and  O9_31 
REMARK   11  A    between atoms: C24_33  and  C25_34 
REMARK   12  A    between atoms: C25_34  and  C27_36 
REMARK   13  A    between atoms: C27_36  and  C28_37 
REMARK   14  A    between atoms: C28_37  and  C29_38 
ROOT
HETATM    1  C1  UNL     1      -8.973  45.933 -35.267  1.00  0.00     0.017 C 
HETATM    2  C2  UNL     1      -9.687  45.290 -34.324  1.00  0.00    -0.055 C 
HETATM    3  C3  UNL     1     -10.411  43.971 -34.566  1.00  0.00     0.153 C 
HETATM    4  C11 UNL     1      -9.997  42.916 -33.530  1.00  0.00     0.037 C 
HETATM    5  C12 UNL     1     -10.022  43.422 -32.082  1.00  0.00     0.017 C 
HETATM    6  C13 UNL     1      -9.244  44.757 -31.873  1.00  0.00    -0.013 C 
HETATM    7  C14 UNL     1      -7.729  44.520 -32.133  1.00  0.00     0.021 C 
HETATM    8  C15 UNL     1      -9.359  45.283 -30.418  1.00  0.00    -0.067 C 
HETATM    9  C16 UNL     1      -9.551  46.600 -30.134  1.00  0.00    -0.054 C 
HETATM   10  C17 UNL     1      -9.791  47.638 -31.207  1.00  0.00     0.036 C 
HETATM   11  C18 UNL     1      -9.348  47.207 -32.601  1.00  0.00     0.014 C 
HETATM   12  C19 UNL     1      -9.847  45.786 -32.888  1.00  0.00     0.029 C 
HETATM   13  C20 UNL     1      -9.594  47.088 -28.676  1.00  0.00     0.102 C 
HETATM   14  C22 UNL     1      -9.097  48.513 -28.312  1.00  0.00     0.142 C 
HETATM   15  C23 UNL     1      -8.749  48.434 -26.806  1.00  0.00     0.039 C 
HETATM   16  C24 UNL     1      -8.799  46.933 -26.387  1.00  0.00     0.001 C 
HETATM   17  C33 UNL     1      -8.662  46.197 -27.759  1.00  0.00    -0.016 C 
HETATM   18  C34 UNL     1      -7.161  46.188 -28.189  1.00  0.00     0.017 C 
HETATM   19  C35 UNL     1      -9.180  44.754 -27.845  1.00  0.00     0.015 C 
HETATM   20  C36 UNL     1      -9.196  44.242 -29.302  1.00  0.00     0.036 C 
ENDROOT
BRANCH   3  21
HETATM   21  O1  UNL     1     -10.069  43.488 -35.867  1.00  0.00    -0.349 OA
BRANCH  21  22
HETATM   22  C4  UNL     1     -10.744  42.282 -36.254  1.00  0.00     0.292 C 
HETATM   23  O2  UNL     1     -12.153  42.512 -36.236  1.00  0.00    -0.348 OA
HETATM   24  C5  UNL     1     -12.940  41.744 -37.151  1.00  0.00     0.179 C 
HETATM   25  C7  UNL     1     -12.492  41.930 -38.624  1.00  0.00     0.183 C 
HETATM   26  C9  UNL     1     -11.085  42.544 -38.713  1.00  0.00     0.183 C 
HETATM   27  C10 UNL     1     -10.184  41.919 -37.652  1.00  0.00     0.204 C 
BRANCH  24  28
HETATM   28  C6  UNL     1     -12.984  40.266 -36.729  1.00  0.00     0.198 C 
BRANCH  28  29
HETATM   29  O3  UNL     1     -13.225  40.145 -35.334  1.00  0.00    -0.398 OA
HETATM   30  H8  UNL     1     -13.289  39.185 -35.136  1.00  0.00     0.209 HD
ENDBRANCH  28  29
ENDBRANCH  24  28
BRANCH  25  31
HETATM   31  O4  UNL     1     -13.368  42.820 -39.352  1.00  0.00    -0.385 OA
HETATM   32  C8  UNL     1     -14.222  42.120 -40.250  1.00  0.00     0.202 C 
ENDBRANCH  25  31
BRANCH  26  33
HETATM   33  O5  UNL     1     -10.582  42.307 -40.035  1.00  0.00    -0.390 OA
HETATM   34  H14 UNL     1     -11.186  42.779 -40.637  1.00  0.00     0.210 HD
ENDBRANCH  26  33
BRANCH  27  35
HETATM   35  O6  UNL     1      -8.819  42.351 -37.774  1.00  0.00    -0.388 OA
HETATM   36  H16 UNL     1      -8.751  43.149 -37.210  1.00  0.00     0.210 HD
ENDBRANCH  27  35
ENDBRANCH  21  22
ENDBRANCH   3  21
BRANCH  13  37
HETATM   37  C21 UNL     1     -11.111  46.974 -28.300  1.00  0.00     0.156 C 
HETATM   38  O7  UNL     1     -11.723  45.967 -27.967  1.00  0.00    -0.649 OA
BRANCH  37  39
HETATM   39  O8  UNL     1     -11.800  48.134 -28.338  1.00  0.00    -0.775 OA
HETATM   40  H29 UNL     1     -12.711  47.864 -28.088  1.00  0.00     0.167 HD
ENDBRANCH  37  39
ENDBRANCH  13  37
BRANCH  14  41
HETATM   41  O9  UNL     1      -7.919  48.898 -29.034  1.00  0.00    -0.394 OA
HETATM   42  H31 UNL     1      -7.666  49.789 -28.731  1.00  0.00     0.210 HD
ENDBRANCH  14  41
BRANCH  16  43
HETATM   43  C25 UNL     1      -7.797  46.611 -25.238  1.00  0.00    -0.013 C 
HETATM   44  C26 UNL     1      -8.305  45.501 -24.310  1.00  0.00     0.010 C 
BRANCH  43  45
HETATM   45  C27 UNL     1      -7.489  47.863 -24.365  1.00  0.00     0.008 C 
BRANCH  45  46
HETATM   46  C28 UNL     1      -5.985  48.131 -24.220  1.00  0.00     0.028 C 
BRANCH  46  47
HETATM   47  C29 UNL     1      -5.320  48.177 -25.568  1.00  0.00    -0.025 C 
HETATM   48  C30 UNL     1      -4.025  48.429 -25.846  1.00  0.00    -0.091 C 
HETATM   49  C31 UNL     1      -2.956  48.704 -24.822  1.00  0.00     0.042 C 
HETATM   50  C32 UNL     1      -3.533  48.452 -27.269  1.00  0.00     0.042 C 
ENDBRANCH  46  47
ENDBRANCH  45  46
ENDBRANCH  43  45
ENDBRANCH  16  43
TORSDOF 14
ENDMDL
MODEL 7
REMARK minimizedAffinity -8.6786747
REMARK CNNscore 0.234855086
REMARK CNNaffinity 6.09933901
REMARK  14 active torsions:
REMARK  status: ('A' for Active; 'I' for Inactive)
REMARK    1  A    between atoms: C3_3  and  O1_4 
REMARK    2  A    between atoms: O1_4  and  C4_5 
REMARK    3  A    between atoms: C5_7  and  C6_8 
REMARK    4  A    between atoms: C6_8  and  O3_9 
REMARK    5  A    between atoms: C7_10  and  O4_11 
REMARK    6  A    between atoms: C9_13  and  O5_14 
REMARK    7  A    between atoms: C10_15  and  O6_16 
REMARK    8  A    between atoms: C20_26  and  C21_27 
REMARK    9  A    between atoms: C21_27  and  O8_29 
REMARK   10  A    between atoms: C22_30  and  O9_31 
REMARK   11  A    between atoms: C24_33  and  C25_34 
REMARK   12  A    between atoms: C25_34  and  C27_36 
REMARK   13  A    between atoms: C27_36  and  C28_37 
REMARK   14  A    between atoms: C28_37  and  C29_38 
ROOT
HETATM    1  C1  UNL     1      -4.989  48.482 -25.523  1.00  0.00     0.017 C 
HETATM    2  C2  UNL     1      -4.602  48.684 -24.249  1.00  0.00    -0.055 C 
HETATM    3  C3  UNL     1      -3.479  49.633 -23.848  1.00  0.00     0.153 C 
HETATM    4  C11 UNL     1      -3.960  50.643 -22.794  1.00  0.00     0.037 C 
HETATM    5  C12 UNL     1      -4.730  50.007 -21.630  1.00  0.00     0.017 C 
HETATM    6  C13 UNL     1      -5.889  49.068 -22.084  1.00  0.00    -0.013 C 
HETATM    7  C14 UNL     1      -6.980  49.906 -22.808  1.00  0.00     0.021 C 
HETATM    8  C15 UNL     1      -6.591  48.379 -20.885  1.00  0.00    -0.067 C 
HETATM    9  C16 UNL     1      -6.959  47.069 -20.913  1.00  0.00    -0.054 C 
HETATM   10  C17 UNL     1      -6.603  46.147 -22.059  1.00  0.00     0.036 C 
HETATM   11  C18 UNL     1      -6.234  46.872 -23.348  1.00  0.00     0.014 C 
HETATM   12  C19 UNL     1      -5.249  48.006 -23.043  1.00  0.00     0.029 C 
HETATM   13  C20 UNL     1      -7.711  46.442 -19.727  1.00  0.00     0.102 C 
HETATM   14  C22 UNL     1      -8.729  45.293 -19.966  1.00  0.00     0.142 C 
HETATM   15  C23 UNL     1      -9.659  45.331 -18.729  1.00  0.00     0.039 C 
HETATM   16  C24 UNL     1      -9.340  46.636 -17.937  1.00  0.00     0.001 C 
HETATM   17  C33 UNL     1      -8.627  47.516 -19.014  1.00  0.00    -0.016 C 
HETATM   18  C34 UNL     1      -9.703  48.159 -19.944  1.00  0.00     0.017 C 
HETATM   19  C35 UNL     1      -7.709  48.642 -18.516  1.00  0.00     0.015 C 
HETATM   20  C36 UNL     1      -6.898  49.268 -19.673  1.00  0.00     0.036 C 
ENDROOT
BRANCH   3  21
HETATM   21  O1  UNL     1      -3.049  50.355 -25.004  1.00  0.00    -0.349 OA
BRANCH  21  22
HETATM   22  C4  UNL     1      -2.004  51.308 -24.760  1.00  0.00     0.292 C 
HETATM   23  O2  UNL     1      -0.747  50.712 -25.081  1.00  0.00    -0.348 OA
HETATM   24  C5  UNL     1       0.286  51.594 -25.528  1.00  0.00     0.179 C 
HETATM   25  C7  UNL     1      -0.131  52.416 -26.775  1.00  0.00     0.183 C 
HETATM   26  C9  UNL     1      -1.656  52.403 -26.977  1.00  0.00     0.183 C 
HETATM   27  C10 UNL     1      -2.354  52.544 -25.627  1.00  0.00     0.204 C 
BRANCH  24  28
HETATM   28  C6  UNL     1       0.786  52.481 -24.376  1.00  0.00     0.198 C 
BRANCH  28  29
HETATM   29  O3  UNL     1       0.933  53.828 -24.804  1.00  0.00    -0.398 OA
HETATM   30  H8  UNL     1       1.208  54.350 -24.018  1.00  0.00     0.209 HD
ENDBRANCH  28  29
ENDBRANCH  24  28
BRANCH  25  31
HETATM   31  O4  UNL     1       0.442  51.889 -27.993  1.00  0.00    -0.385 OA
HETATM   32  C8  UNL     1       1.862  51.813 -27.931  1.00  0.00     0.202 C 
ENDBRANCH  25  31
BRANCH  26  33
HETATM   33  O5  UNL     1      -1.995  53.481 -27.858  1.00  0.00    -0.390 OA
HETATM   34  H14 UNL     1      -1.549  53.283 -28.703  1.00  0.00     0.210 HD
ENDBRANCH  26  33
BRANCH  27  35
HETATM   35  O6  UNL     1      -3.777  52.676 -25.762  1.00  0.00    -0.388 OA
HETATM   36  H16 UNL     1      -4.125  51.761 -25.726  1.00  0.00     0.210 HD
ENDBRANCH  27  35
ENDBRANCH  21  22
ENDBRANCH   3  21
BRANCH  13  37
HETATM   37  C21 UNL     1      -6.561  45.911 -18.806  1.00  0.00     0.156 C 
HETATM   38  O7  UNL     1      -5.423  46.352 -18.704  1.00  0.00    -0.649 OA
BRANCH  37  39
HETATM   39  O8  UNL     1      -6.886  44.854 -18.033  1.00  0.00    -0.775 OA
HETATM   40  H29 UNL     1      -6.054  44.664 -17.546  1.00  0.00     0.167 HD
ENDBRANCH  37  39
ENDBRANCH  13  37
BRANCH  14  41
HETATM   41  O9  UNL     1      -9.525  45.483 -21.143  1.00  0.00    -0.394 OA
HETATM   42  H31 UNL     1     -10.145  44.734 -21.204  1.00  0.00     0.210 HD
ENDBRANCH  14  41
BRANCH  16  43
HETATM   43  C25 UNL     1     -10.591  47.192 -17.194  1.00  0.00    -0.013 C 
HETATM   44  C26 UNL     1     -10.703  46.666 -15.757  1.00  0.00     0.010 C 
BRANCH  43  45
HETATM   45  C27 UNL     1     -11.914  46.842 -17.937  1.00  0.00     0.008 C 
BRANCH  45  46
HETATM   46  C28 UNL     1     -13.140  47.531 -17.324  1.00  0.00     0.028 C 
BRANCH  46  47
HETATM   47  C29 UNL     1     -14.391  47.154 -18.070  1.00  0.00    -0.025 C 
HETATM   48  C30 UNL     1     -15.460  47.929 -18.342  1.00  0.00    -0.091 C 
HETATM   49  C31 UNL     1     -15.604  49.376 -17.951  1.00  0.00     0.042 C 
HETATM   50  C32 UNL     1     -16.642  47.375 -19.093  1.00  0.00     0.042 C 
ENDBRANCH  46  47
ENDBRANCH  45  46
ENDBRANCH  43  45
ENDBRANCH  16  43
TORSDOF 14
ENDMDL
MODEL 8
REMARK minimizedAffinity -8.81738091
REMARK CNNscore 0.223532081
REMARK CNNaffinity 6.61953115
REMARK  14 active torsions:
REMARK  status: ('A' for Active; 'I' for Inactive)
REMARK    1  A    between atoms: C3_3  and  O1_4 
REMARK    2  A    between atoms: O1_4  and  C4_5 
REMARK    3  A    between atoms: C5_7  and  C6_8 
REMARK    4  A    between atoms: C6_8  and  O3_9 
REMARK    5  A    between atoms: C7_10  and  O4_11 
REMARK    6  A    between atoms: C9_13  and  O5_14 
REMARK    7  A    between atoms: C10_15  and  O6_16 
REMARK    8  A    between atoms: C20_26  and  C21_27 
REMARK    9  A    between atoms: C21_27  and  O8_29 
REMARK   10  A    between atoms: C22_30  and  O9_31 
REMARK   11  A    between atoms: C24_33  and  C25_34 
REMARK   12  A    between atoms: C25_34  and  C27_36 
REMARK   13  A    between atoms: C27_36  and  C28_37 
REMARK   14  A    between atoms: C28_37  and  C29_38 
ROOT
HETATM    1  C1  UNL     1      -3.058  49.354 -21.146  1.00  0.00     0.017 C 
HETATM    2  C2  UNL     1      -1.834  49.631 -20.658  1.00  0.00    -0.055 C 
HETATM    3  C3  UNL     1      -0.702  50.211 -21.497  1.00  0.00     0.153 C 
HETATM    4  C11 UNL     1      -0.136  51.486 -20.854  1.00  0.00     0.037 C 
HETATM    5  C12 UNL     1       0.163  51.347 -19.356  1.00  0.00     0.017 C 
HETATM    6  C13 UNL     1      -1.031  50.778 -18.530  1.00  0.00    -0.013 C 
HETATM    7  C14 UNL     1      -2.209  51.792 -18.558  1.00  0.00     0.021 C 
HETATM    8  C15 UNL     1      -0.667  50.573 -17.036  1.00  0.00    -0.067 C 
HETATM    9  C16 UNL     1      -1.058  49.472 -16.338  1.00  0.00    -0.054 C 
HETATM   10  C17 UNL     1      -1.768  48.304 -16.987  1.00  0.00     0.036 C 
HETATM   11  C18 UNL     1      -2.415  48.637 -18.327  1.00  0.00     0.014 C 
HETATM   12  C19 UNL     1      -1.427  49.419 -19.201  1.00  0.00     0.029 C 
HETATM   13  C20 UNL     1      -0.732  49.338 -14.841  1.00  0.00     0.102 C 
HETATM   14  C22 UNL     1      -1.692  48.565 -13.896  1.00  0.00     0.142 C 
HETATM   15  C23 UNL     1      -1.380  49.117 -12.484  1.00  0.00     0.039 C 
HETATM   16  C24 UNL     1      -0.452  50.359 -12.655  1.00  0.00     0.001 C 
HETATM   17  C33 UNL     1      -0.699  50.759 -14.145  1.00  0.00    -0.016 C 
HETATM   18  C34 UNL     1      -2.040  51.552 -14.248  1.00  0.00     0.017 C 
HETATM   19  C35 UNL     1       0.386  51.587 -14.847  1.00  0.00     0.015 C 
HETATM   20  C36 UNL     1       0.120  51.705 -16.364  1.00  0.00     0.036 C 
ENDROOT
BRANCH   3  21
HETATM   21  O1  UNL     1      -1.210  50.544 -22.791  1.00  0.00    -0.349 OA
BRANCH  21  22
HETATM   22  C4  UNL     1      -0.855  51.855 -23.255  1.00  0.00     0.292 C 
HETATM   23  O2  UNL     1       0.209  51.742 -24.200  1.00  0.00    -0.348 OA
HETATM   24  C5  UNL     1       0.274  52.746 -25.216  1.00  0.00     0.179 C 
HETATM   25  C7  UNL     1      -1.033  52.840 -26.047  1.00  0.00     0.183 C 
HETATM   26  C9  UNL     1      -2.206  52.147 -25.334  1.00  0.00     0.183 C 
HETATM   27  C10 UNL     1      -2.157  52.459 -23.841  1.00  0.00     0.204 C 
BRANCH  24  28
HETATM   28  C6  UNL     1       0.693  54.101 -24.621  1.00  0.00     0.198 C 
BRANCH  28  29
HETATM   29  O3  UNL     1       0.328  55.167 -25.487  1.00  0.00    -0.398 OA
HETATM   30  H8  UNL     1       0.578  56.002 -25.034  1.00  0.00     0.209 HD
ENDBRANCH  28  29
ENDBRANCH  24  28
BRANCH  25  31
HETATM   31  O4  UNL     1      -0.907  52.197 -27.335  1.00  0.00    -0.385 OA
HETATM   32  C8  UNL     1       0.246  52.635 -28.045  1.00  0.00     0.202 C 
ENDBRANCH  25  31
BRANCH  26  33
HETATM   33  O5  UNL     1      -3.424  52.616 -25.928  1.00  0.00    -0.390 OA
HETATM   34  H14 UNL     1      -3.391  52.332 -26.860  1.00  0.00     0.210 HD
ENDBRANCH  26  33
BRANCH  27  35
HETATM   35  O6  UNL     1      -3.304  51.953 -23.141  1.00  0.00    -0.388 OA
HETATM   36  H16 UNL     1      -3.053  51.051 -22.853  1.00  0.00     0.210 HD
ENDBRANCH  27  35
ENDBRANCH  21  22
ENDBRANCH   3  21
BRANCH  13  37
HETATM   37  C21 UNL     1       0.662  48.623 -14.835  1.00  0.00     0.156 C 
HETATM   38  O7  UNL     1       1.611  48.844 -14.092  1.00  0.00    -0.649 OA
BRANCH  37  39
HETATM   39  O8  UNL     1       0.808  47.643 -15.751  1.00  0.00    -0.775 OA
HETATM   40  H29 UNL     1       1.727  47.328 -15.603  1.00  0.00     0.167 HD
ENDBRANCH  37  39
ENDBRANCH  13  37
BRANCH  14  41
HETATM   41  O9  UNL     1      -3.076  48.803 -14.185  1.00  0.00    -0.394 OA
HETATM   42  H31 UNL     1      -3.603  48.301 -13.537  1.00  0.00     0.210 HD
ENDBRANCH  14  41
BRANCH  16  43
HETATM   43  C25 UNL     1      -0.670  51.413 -11.529  1.00  0.00    -0.013 C 
HETATM   44  C26 UNL     1      -2.149  51.769 -11.336  1.00  0.00     0.010 C 
BRANCH  43  45
HETATM   45  C27 UNL     1       0.108  52.732 -11.808  1.00  0.00     0.008 C 
BRANCH  45  46
HETATM   46  C28 UNL     1       0.895  53.228 -10.586  1.00  0.00     0.028 C 
BRANCH  46  47
HETATM   47  C29 UNL     1       1.534  54.559 -10.870  1.00  0.00    -0.025 C 
HETATM   48  C30 UNL     1       2.814  54.926 -10.658  1.00  0.00    -0.091 C 
HETATM   49  C31 UNL     1       3.889  54.037 -10.093  1.00  0.00     0.042 C 
HETATM   50  C32 UNL     1       3.280  56.320 -10.988  1.00  0.00     0.042 C 
ENDBRANCH  46  47
ENDBRANCH  45  46
ENDBRANCH  43  45
ENDBRANCH  16  43
TORSDOF 14
ENDMDL
MODEL 9
REMARK minimizedAffinity -9.32050514
REMARK CNNscore 0.179787412
REMARK CNNaffinity 6.73885727
REMARK  14 active torsions:
REMARK  status: ('A' for Active; 'I' for Inactive)
REMARK    1  A    between atoms: C3_3  and  O1_4 
REMARK    2  A    between atoms: O1_4  and  C4_5 
REMARK    3  A    between atoms: C5_7  and  C6_8 
REMARK    4  A    between atoms: C6_8  and  O3_9 
REMARK    5  A    between atoms: C7_10  and  O4_11 
REMARK    6  A    between atoms: C9_13  and  O5_14 
REMARK    7  A    between atoms: C10_15  and  O6_16 
REMARK    8  A    between atoms: C20_26  and  C21_27 
REMARK    9  A    between atoms: C21_27  and  O8_29 
REMARK   10  A    between atoms: C22_30  and  O9_31 
REMARK   11  A    between atoms: C24_33  and  C25_34 
REMARK   12  A    between atoms: C25_34  and  C27_36 
REMARK   13  A    between atoms: C27_36  and  C28_37 
REMARK   14  A    between atoms: C28_37  and  C29_38 
ROOT
HETATM    1  C1  UNL     1      -2.998  48.431 -16.484  1.00  0.00     0.017 C 
HETATM    2  C2  UNL     1      -2.911  49.586 -17.171  1.00  0.00    -0.055 C 
HETATM    3  C3  UNL     1      -2.208  50.832 -16.643  1.00  0.00     0.153 C 
HETATM    4  C11 UNL     1      -1.156  51.337 -17.642  1.00  0.00     0.037 C 
HETATM    5  C12 UNL     1      -1.664  51.432 -19.086  1.00  0.00     0.017 C 
HETATM    6  C13 UNL     1      -2.348  50.127 -19.596  1.00  0.00    -0.013 C 
HETATM    7  C14 UNL     1      -1.295  48.986 -19.672  1.00  0.00     0.021 C 
HETATM    8  C15 UNL     1      -2.923  50.286 -21.028  1.00  0.00    -0.067 C 
HETATM    9  C16 UNL     1      -4.136  49.783 -21.385  1.00  0.00    -0.054 C 
HETATM   10  C17 UNL     1      -5.076  49.139 -20.388  1.00  0.00     0.036 C 
HETATM   11  C18 UNL     1      -4.399  48.682 -19.101  1.00  0.00     0.014 C 
HETATM   12  C19 UNL     1      -3.485  49.793 -18.572  1.00  0.00     0.029 C 
HETATM   13  C20 UNL     1      -4.640  49.906 -22.832  1.00  0.00     0.102 C 
HETATM   14  C22 UNL     1      -5.563  48.812 -23.436  1.00  0.00     0.142 C 
HETATM   15  C23 UNL     1      -5.381  48.948 -24.967  1.00  0.00     0.039 C 
HETATM   16  C24 UNL     1      -4.186  49.918 -25.218  1.00  0.00     0.001 C 
HETATM   17  C33 UNL     1      -3.429  49.878 -23.851  1.00  0.00    -0.016 C 
HETATM   18  C34 UNL     1      -2.564  48.580 -23.781  1.00  0.00     0.017 C 
HETATM   19  C35 UNL     1      -2.517  51.065 -23.510  1.00  0.00     0.015 C 
HETATM   20  C36 UNL     1      -2.027  51.003 -22.046  1.00  0.00     0.036 C 
ENDROOT
BRANCH   3  21
HETATM   21  O1  UNL     1      -1.550  50.506 -15.417  1.00  0.00    -0.349 OA
BRANCH  21  22
HETATM   22  C4  UNL     1      -1.845  51.392 -14.326  1.00  0.00     0.292 C 
HETATM   23  O2  UNL     1      -3.172  51.136 -13.866  1.00  0.00    -0.348 OA
HETATM   24  C5  UNL     1      -3.432  51.392 -12.483  1.00  0.00     0.179 C 
HETATM   25  C7  UNL     1      -2.489  50.596 -11.542  1.00  0.00     0.183 C 
HETATM   26  C9  UNL     1      -1.258  50.063 -12.295  1.00  0.00     0.183 C 
HETATM   27  C10 UNL     1      -0.748  51.126 -13.264  1.00  0.00     0.204 C 
BRANCH  24  28
HETATM   28  C6  UNL     1      -3.418  52.902 -12.193  1.00  0.00     0.198 C 
BRANCH  28  29
HETATM   29  O3  UNL     1      -4.241  53.601 -13.116  1.00  0.00    -0.398 OA
HETATM   30  H8  UNL     1      -4.229  54.547 -12.852  1.00  0.00     0.209 HD
ENDBRANCH  28  29
ENDBRANCH  24  28
BRANCH  25  31
HETATM   31  O4  UNL     1      -3.140  49.442 -10.966  1.00  0.00    -0.385 OA
HETATM   32  C8  UNL     1      -4.498  49.329 -11.377  1.00  0.00     0.202 C 
ENDBRANCH  25  31
BRANCH  26  33
HETATM   33  O5  UNL     1      -0.262  49.716 -11.325  1.00  0.00    -0.390 OA
HETATM   34  H14 UNL     1      -0.653  49.003 -10.787  1.00  0.00     0.210 HD
ENDBRANCH  26  33
BRANCH  27  35
HETATM   35  O6  UNL     1       0.482  50.740 -13.897  1.00  0.00    -0.388 OA
HETATM   36  H16 UNL     1       0.214  50.274 -14.716  1.00  0.00     0.210 HD
ENDBRANCH  27  35
ENDBRANCH  21  22
ENDBRANCH   3  21
BRANCH  13  37
HETATM   37  C21 UNL     1      -5.409  51.270 -22.834  1.00  0.00     0.156 C 
HETATM   38  O7  UNL     1      -4.929  52.397 -22.856  1.00  0.00    -0.649 OA
BRANCH  37  39
HETATM   39  O8  UNL     1      -6.755  51.170 -22.827  1.00  0.00    -0.775 OA
HETATM   40  H29 UNL     1      -7.052  52.107 -22.821  1.00  0.00     0.167 HD
ENDBRANCH  37  39
ENDBRANCH  13  37
BRANCH  14  41
HETATM   41  O9  UNL     1      -5.189  47.484 -23.046  1.00  0.00    -0.394 OA
HETATM   42  H31 UNL     1      -5.803  46.866 -23.483  1.00  0.00     0.210 HD
ENDBRANCH  14  41
BRANCH  16  43
HETATM   43  C25 UNL     1      -3.420  49.577 -26.531  1.00  0.00    -0.013 C 
HETATM   44  C26 UNL     1      -3.765  48.181 -27.066  1.00  0.00     0.010 C 
BRANCH  43  45
HETATM   45  C27 UNL     1      -1.877  49.650 -26.342  1.00  0.00     0.008 C 
BRANCH  45  46
HETATM   46  C28 UNL     1      -1.279  50.972 -26.843  1.00  0.00     0.028 C 
BRANCH  46  47
HETATM   47  C29 UNL     1       0.221  50.883 -26.916  1.00  0.00    -0.025 C 
HETATM   48  C30 UNL     1       1.129  51.560 -26.184  1.00  0.00    -0.091 C 
HETATM   49  C31 UNL     1       0.803  52.556 -25.104  1.00  0.00     0.042 C 
HETATM   50  C32 UNL     1       2.605  51.355 -26.407  1.00  0.00     0.042 C 
ENDBRANCH  46  47
ENDBRANCH  45  46
ENDBRANCH  43  45
ENDBRANCH  16  43
TORSDOF 14
ENDMDL
