MODEL 1
REMARK minimizedAffinity -8.03732872
REMARK  6 active torsions:
REMARK  status: ('A' for Active; 'I' for Inactive)
REMARK    1  A    between atoms: C9_10  and  C10_11 
REMARK    2  A    between atoms: C11_13  and  O3_14 
REMARK    3  A    between atoms: C12_15  and  C13_16 
REMARK    4  A    between atoms: C14_18  and  O5_19 
REMARK    5  A    between atoms: C16_21  and  C17_22 
REMARK    6  A    between atoms: C17_22  and  C18_23 
ROOT
HETATM    1  C1  UNL     1      -4.814   7.903  13.881  1.00  0.00     0.043 C 
HETATM    2  C2  UNL     1      -3.308   8.046  13.945  1.00  0.00    -0.087 C 
HETATM    3  C3  UNL     1      -2.740   9.212  13.570  1.00  0.00    -0.024 C 
HETATM    4  C4  UNL     1      -1.317   9.718  13.511  1.00  0.00     0.030 C 
HETATM    5  C5  UNL     1      -0.270   9.095  14.430  1.00  0.00     0.042 C 
HETATM    6  C6  UNL     1       0.788   8.117  13.816  1.00  0.00     0.069 C 
HETATM    7  C7  UNL     1       1.237   7.206  14.996  1.00  0.00     0.047 C 
HETATM    8  O1  UNL     1       1.939   9.004  13.560  1.00  0.00    -0.338 OA
HETATM    9  C8  UNL     1       2.992   8.361  12.960  1.00  0.00     0.095 A 
HETATM   10  C9  UNL     1       4.280   8.477  13.487  1.00  0.00     0.070 A 
HETATM   11  C11 UNL     1       5.324   7.739  12.917  1.00  0.00     0.097 A 
HETATM   12  C12 UNL     1       5.061   6.896  11.831  1.00  0.00     0.069 A 
HETATM   13  C14 UNL     1       3.760   6.820  11.289  1.00  0.00     0.091 A 
HETATM   14  C15 UNL     1       2.723   7.596  11.817  1.00  0.00     0.015 A 
HETATM   15  C16 UNL     1       1.299   7.745  11.318  1.00  0.00     0.032 C 
HETATM   16  C21 UNL     1       0.333   7.325  12.477  1.00  0.00     0.034 C 
HETATM   17  C22 UNL     1       0.263   5.816  12.695  1.00  0.00     0.006 A 
HETATM   18  C23 UNL     1      -1.023   5.176  13.222  1.00  0.00    -0.001 A 
HETATM   19  C24 UNL     1      -2.388   5.822  13.229  1.00  0.00     0.010 C 
HETATM   20  C25 UNL     1      -2.609   6.779  14.398  1.00  0.00     0.034 C 
HETATM   21  C26 UNL     1      -0.447   4.711  11.892  1.00  0.00    -0.039 A 
HETATM   22  C27 UNL     1       0.223   3.352  11.883  1.00  0.00     0.015 C 
HETATM   23  C28 UNL     1      -1.233   4.957  10.629  1.00  0.00     0.015 C 
ENDROOT
BRANCH  15  24
HETATM   24  C17 UNL     1       0.934   7.220   9.919  1.00  0.00     0.014 C 
BRANCH  24  25
HETATM   25  C18 UNL     1       0.756   8.301   8.824  1.00  0.00    -0.022 C 
HETATM   26  C19 UNL     1      -0.677   8.839   8.763  1.00  0.00     0.009 C 
HETATM   27  C20 UNL     1       1.139   7.714   7.463  1.00  0.00     0.009 C 
ENDBRANCH  24  25
ENDBRANCH  15  24
BRANCH  13  28
HETATM   28  O5  UNL     1       3.481   5.969  10.254  1.00  0.00    -0.359 OA
HETATM   29  H15 UNL     1       4.308   5.507   9.983  1.00  0.00     0.217 HD
ENDBRANCH  13  28
BRANCH  10  30
HETATM   30  C10 UNL     1       4.513   9.350  14.652  1.00  0.00     0.275 C 
HETATM   31  O2  UNL     1       5.226   8.969  15.577  1.00  0.00    -0.301 OA
ENDBRANCH  10  30
BRANCH  12  32
HETATM   32  C13 UNL     1       6.163   6.091  11.263  1.00  0.00     0.275 C 
HETATM   33  O4  UNL     1       7.074   6.631  10.638  1.00  0.00    -0.301 OA
ENDBRANCH  12  32
BRANCH  11  34
HETATM   34  O3  UNL     1       6.604   7.803  13.409  1.00  0.00    -0.359 OA
HETATM   35  H13 UNL     1       6.620   8.429  14.172  1.00  0.00     0.217 HD
ENDBRANCH  11  34
TORSDOF 6
ENDMDL
MODEL 2
REMARK minimizedAffinity -6.97266817
REMARK  6 active torsions:
REMARK  status: ('A' for Active; 'I' for Inactive)
REMARK    1  A    between atoms: C9_10  and  C10_11 
REMARK    2  A    between atoms: C11_13  and  O3_14 
REMARK    3  A    between atoms: C12_15  and  C13_16 
REMARK    4  A    between atoms: C14_18  and  O5_19 
REMARK    5  A    between atoms: C16_21  and  C17_22 
REMARK    6  A    between atoms: C17_22  and  C18_23 
ROOT
HETATM    1  C1  UNL     1       6.981   6.953  10.781  1.00  0.00     0.043 C 
HETATM    2  C2  UNL     1       5.994   7.498  11.791  1.00  0.00    -0.087 C 
HETATM    3  C3  UNL     1       6.027   7.038  13.060  1.00  0.00    -0.024 C 
HETATM    4  C4  UNL     1       5.237   7.343  14.312  1.00  0.00     0.030 C 
HETATM    5  C5  UNL     1       4.563   8.705  14.449  1.00  0.00     0.042 C 
HETATM    6  C6  UNL     1       3.008   8.799  14.280  1.00  0.00     0.069 C 
HETATM    7  C7  UNL     1       2.733  10.265  13.835  1.00  0.00     0.047 C 
HETATM    8  O1  UNL     1       2.527   8.727  15.673  1.00  0.00    -0.338 OA
HETATM    9  C8  UNL     1       1.158   8.739  15.771  1.00  0.00     0.095 A 
HETATM   10  C9  UNL     1       0.522   9.629  16.639  1.00  0.00     0.070 A 
HETATM   11  C11 UNL     1      -0.876   9.691  16.656  1.00  0.00     0.097 A 
HETATM   12  C12 UNL     1      -1.614   8.862  15.803  1.00  0.00     0.069 A 
HETATM   13  C14 UNL     1      -0.955   7.943  14.959  1.00  0.00     0.091 A 
HETATM   14  C15 UNL     1       0.440   7.836  14.976  1.00  0.00     0.015 A 
HETATM   15  C16 UNL     1       1.326   6.848  14.241  1.00  0.00     0.032 C 
HETATM   16  C21 UNL     1       2.323   7.663  13.350  1.00  0.00     0.034 C 
HETATM   17  C22 UNL     1       1.679   8.254  12.099  1.00  0.00     0.006 A 
HETATM   18  C23 UNL     1       2.509   8.452  10.829  1.00  0.00    -0.001 A 
HETATM   19  C24 UNL     1       3.839   7.800  10.537  1.00  0.00     0.010 C 
HETATM   20  C25 UNL     1       5.025   8.501  11.196  1.00  0.00     0.034 C 
HETATM   21  C26 UNL     1       1.253   7.594  10.774  1.00  0.00    -0.039 A 
HETATM   22  C27 UNL     1       0.050   8.199  10.080  1.00  0.00     0.015 C 
HETATM   23  C28 UNL     1       1.386   6.120  10.483  1.00  0.00     0.015 C 
ENDROOT
BRANCH  15  24
HETATM   24  C17 UNL     1       0.688   5.616  13.578  1.00  0.00     0.014 C 
BRANCH  24  25
HETATM   25  C18 UNL     1      -0.189   5.905  12.334  1.00  0.00    -0.022 C 
HETATM   26  C19 UNL     1      -1.648   6.192  12.703  1.00  0.00     0.009 C 
HETATM   27  C20 UNL     1      -0.131   4.707  11.381  1.00  0.00     0.009 C 
ENDBRANCH  24  25
ENDBRANCH  15  24
BRANCH  13  28
HETATM   28  O5  UNL     1      -1.663   7.156  14.091  1.00  0.00    -0.359 OA
HETATM   29  H15 UNL     1      -2.625   7.333  14.206  1.00  0.00     0.217 HD
ENDBRANCH  13  28
BRANCH  10  30
HETATM   30  C10 UNL     1       1.334  10.509  17.500  1.00  0.00     0.275 C 
HETATM   31  O2  UNL     1       1.751  10.101  18.581  1.00  0.00    -0.301 OA
ENDBRANCH  10  30
BRANCH  12  32
HETATM   32  C13 UNL     1      -3.089   8.965  15.801  1.00  0.00     0.275 C 
HETATM   33  O4  UNL     1      -3.719   8.880  14.749  1.00  0.00    -0.301 OA
ENDBRANCH  12  32
BRANCH  11  34
HETATM   34  O3  UNL     1      -1.549  10.562  17.477  1.00  0.00    -0.359 OA
HETATM   35  H13 UNL     1      -0.890  11.075  18.002  1.00  0.00     0.217 HD
ENDBRANCH  11  34
TORSDOF 6
ENDMDL
MODEL 3
REMARK minimizedAffinity -6.88324928
REMARK  6 active torsions:
REMARK  status: ('A' for Active; 'I' for Inactive)
REMARK    1  A    between atoms: C9_10  and  C10_11 
REMARK    2  A    between atoms: C11_13  and  O3_14 
REMARK    3  A    between atoms: C12_15  and  C13_16 
REMARK    4  A    between atoms: C14_18  and  O5_19 
REMARK    5  A    between atoms: C16_21  and  C17_22 
REMARK    6  A    between atoms: C17_22  and  C18_23 
ROOT
HETATM    1  C1  UNL     1      -0.613  12.273  16.791  1.00  0.00     0.043 C 
HETATM    2  C2  UNL     1      -1.568  11.170  16.385  1.00  0.00    -0.087 C 
HETATM    3  C3  UNL     1      -1.805  10.155  17.243  1.00  0.00    -0.024 C 
HETATM    4  C4  UNL     1      -2.677   8.922  17.199  1.00  0.00     0.030 C 
HETATM    5  C5  UNL     1      -3.909   8.917  16.298  1.00  0.00     0.042 C 
HETATM    6  C6  UNL     1      -3.870   8.089  14.969  1.00  0.00     0.069 C 
HETATM    7  C7  UNL     1      -4.910   8.771  14.033  1.00  0.00     0.047 C 
HETATM    8  O1  UNL     1      -4.494   6.813  15.365  1.00  0.00    -0.338 OA
HETATM    9  C8  UNL     1      -4.521   5.889  14.351  1.00  0.00     0.095 A 
HETATM   10  C9  UNL     1      -5.712   5.234  14.027  1.00  0.00     0.070 A 
HETATM   11  C11 UNL     1      -5.741   4.366  12.930  1.00  0.00     0.097 A 
HETATM   12  C12 UNL     1      -4.580   4.170  12.173  1.00  0.00     0.069 A 
HETATM   13  C14 UNL     1      -3.377   4.812  12.537  1.00  0.00     0.091 A 
HETATM   14  C15 UNL     1      -3.325   5.638  13.665  1.00  0.00     0.015 A 
HETATM   15  C16 UNL     1      -2.123   6.323  14.286  1.00  0.00     0.032 C 
HETATM   16  C21 UNL     1      -2.405   7.863  14.314  1.00  0.00     0.034 C 
HETATM   17  C22 UNL     1      -2.276   8.531  12.947  1.00  0.00     0.006 A 
HETATM   18  C23 UNL     1      -1.831   9.992  12.847  1.00  0.00    -0.001 A 
HETATM   19  C24 UNL     1      -1.152  10.781  13.939  1.00  0.00     0.010 C 
HETATM   20  C25 UNL     1      -2.116  11.344  14.982  1.00  0.00     0.034 C 
HETATM   21  C26 UNL     1      -1.032   8.916  12.125  1.00  0.00    -0.039 A 
HETATM   22  C27 UNL     1      -1.181   8.859  10.618  1.00  0.00     0.015 C 
HETATM   23  C28 UNL     1       0.386   8.643  12.559  1.00  0.00     0.015 C 
ENDROOT
BRANCH  15  24
HETATM   24  C17 UNL     1      -0.710   5.909  13.842  1.00  0.00     0.014 C 
BRANCH  24  25
HETATM   25  C18 UNL     1       0.405   6.096  14.902  1.00  0.00    -0.022 C 
HETATM   26  C19 UNL     1       0.061   7.184  15.924  1.00  0.00     0.009 C 
HETATM   27  C20 UNL     1       1.718   6.454  14.199  1.00  0.00     0.009 C 
ENDBRANCH  24  25
ENDBRANCH  15  24
BRANCH  13  28
HETATM   28  O5  UNL     1      -2.246   4.661  11.782  1.00  0.00    -0.359 OA
HETATM   29  H15 UNL     1      -2.434   4.044  11.037  1.00  0.00     0.217 HD
ENDBRANCH  13  28
BRANCH  10  30
HETATM   30  C10 UNL     1      -6.923   5.490  14.829  1.00  0.00     0.275 C 
HETATM   31  O2  UNL     1      -6.840   5.620  16.048  1.00  0.00    -0.301 OA
ENDBRANCH  10  30
BRANCH  12  32
HETATM   32  C13 UNL     1      -4.634   3.282  10.992  1.00  0.00     0.275 C 
HETATM   33  O4  UNL     1      -5.613   2.566  10.793  1.00  0.00    -0.301 OA
ENDBRANCH  12  32
BRANCH  11  34
HETATM   34  O3  UNL     1      -6.890   3.712  12.559  1.00  0.00    -0.359 OA
HETATM   35  H13 UNL     1      -7.613   3.962  13.183  1.00  0.00     0.217 HD
ENDBRANCH  11  34
TORSDOF 6
ENDMDL
MODEL 4
REMARK minimizedAffinity -6.80242634
REMARK  6 active torsions:
REMARK  status: ('A' for Active; 'I' for Inactive)
REMARK    1  A    between atoms: C9_10  and  C10_11 
REMARK    2  A    between atoms: C11_13  and  O3_14 
REMARK    3  A    between atoms: C12_15  and  C13_16 
REMARK    4  A    between atoms: C14_18  and  O5_19 
REMARK    5  A    between atoms: C16_21  and  C17_22 
REMARK    6  A    between atoms: C17_22  and  C18_23 
ROOT
HETATM    1  C1  UNL     1       2.615   6.226   7.973  1.00  0.00     0.043 C 
HETATM    2  C2  UNL     1       2.244   6.718   9.357  1.00  0.00    -0.087 C 
HETATM    3  C3  UNL     1       1.306   7.681   9.484  1.00  0.00    -0.024 C 
HETATM    4  C4  UNL     1       0.683   8.393  10.663  1.00  0.00     0.030 C 
HETATM    5  C5  UNL     1       0.663   7.699  12.022  1.00  0.00     0.042 C 
HETATM    6  C6  UNL     1       1.650   8.191  13.135  1.00  0.00     0.069 C 
HETATM    7  C7  UNL     1       1.851   6.966  14.073  1.00  0.00     0.047 C 
HETATM    8  O1  UNL     1       0.820   9.132  13.910  1.00  0.00    -0.338 OA
HETATM    9  C8  UNL     1       1.506   9.742  14.930  1.00  0.00     0.095 A 
HETATM   10  C9  UNL     1       0.979   9.753  16.224  1.00  0.00     0.070 A 
HETATM   11  C11 UNL     1       1.736  10.296  17.269  1.00  0.00     0.097 A 
HETATM   12  C12 UNL     1       3.008  10.816  17.001  1.00  0.00     0.069 A 
HETATM   13  C14 UNL     1       3.508  10.829  15.682  1.00  0.00     0.091 A 
HETATM   14  C15 UNL     1       2.735  10.339  14.624  1.00  0.00     0.015 A 
HETATM   15  C16 UNL     1       3.035  10.364  13.137  1.00  0.00     0.032 C 
HETATM   16  C21 UNL     1       3.019   8.887  12.616  1.00  0.00     0.034 C 
HETATM   17  C22 UNL     1       4.257   8.087  13.011  1.00  0.00     0.006 A 
HETATM   18  C23 UNL     1       4.767   6.965  12.104  1.00  0.00    -0.001 A 
HETATM   19  C24 UNL     1       4.392   6.766  10.655  1.00  0.00     0.010 C 
HETATM   20  C25 UNL     1       3.052   6.061  10.458  1.00  0.00     0.034 C 
HETATM   21  C26 UNL     1       5.696   8.116  12.462  1.00  0.00    -0.039 A 
HETATM   22  C27 UNL     1       6.799   7.813  13.456  1.00  0.00     0.015 C 
HETATM   23  C28 UNL     1       6.165   9.044  11.370  1.00  0.00     0.015 C 
ENDROOT
BRANCH  15  24
HETATM   24  C17 UNL     1       4.184  11.244  12.617  1.00  0.00     0.014 C 
BRANCH  24  25
HETATM   25  C18 UNL     1       5.611  10.767  12.985  1.00  0.00    -0.022 C 
HETATM   26  C19 UNL     1       6.114  11.386  14.293  1.00  0.00     0.009 C 
HETATM   27  C20 UNL     1       6.575  11.125  11.849  1.00  0.00     0.009 C 
ENDBRANCH  24  25
ENDBRANCH  15  24
BRANCH  13  28
HETATM   28  O5  UNL     1       4.766  11.298  15.414  1.00  0.00    -0.359 OA
HETATM   29  H15 UNL     1       5.176  11.620  16.249  1.00  0.00     0.217 HD
ENDBRANCH  13  28
BRANCH  10  30
HETATM   30  C10 UNL     1      -0.350   9.166  16.473  1.00  0.00     0.275 C 
HETATM   31  O2  UNL     1      -1.285   9.883  16.824  1.00  0.00    -0.301 OA
ENDBRANCH  10  30
BRANCH  12  32
HETATM   32  C13 UNL     1       3.815  11.350  18.119  1.00  0.00     0.275 C 
HETATM   33  O4  UNL     1       3.934  10.713  19.164  1.00  0.00    -0.301 OA
ENDBRANCH  12  32
BRANCH  11  34
HETATM   34  O3  UNL     1       1.273  10.315  18.561  1.00  0.00    -0.359 OA
HETATM   35  H13 UNL     1       0.375   9.907  18.581  1.00  0.00     0.217 HD
ENDBRANCH  11  34
TORSDOF 6
ENDMDL
MODEL 5
REMARK minimizedAffinity -6.76747656
REMARK  6 active torsions:
REMARK  status: ('A' for Active; 'I' for Inactive)
REMARK    1  A    between atoms: C9_10  and  C10_11 
REMARK    2  A    between atoms: C11_13  and  O3_14 
REMARK    3  A    between atoms: C12_15  and  C13_16 
REMARK    4  A    between atoms: C14_18  and  O5_19 
REMARK    5  A    between atoms: C16_21  and  C17_22 
REMARK    6  A    between atoms: C17_22  and  C18_23 
ROOT
HETATM    1  C1  UNL     1      12.814  -8.898   2.741  1.00  0.00     0.043 C 
HETATM    2  C2  UNL     1      13.743  -8.705   3.921  1.00  0.00    -0.087 C 
HETATM    3  C3  UNL     1      13.439  -9.288   5.101  1.00  0.00    -0.024 C 
HETATM    4  C4  UNL     1      14.108  -9.333   6.455  1.00  0.00     0.030 C 
HETATM    5  C5  UNL     1      15.617  -9.122   6.544  1.00  0.00     0.042 C 
HETATM    6  C6  UNL     1      16.158  -7.759   7.094  1.00  0.00     0.069 C 
HETATM    7  C7  UNL     1      17.579  -7.604   6.477  1.00  0.00     0.047 C 
HETATM    8  O1  UNL     1      16.392  -8.056   8.520  1.00  0.00    -0.338 OA
HETATM    9  C8  UNL     1      16.829  -6.968   9.233  1.00  0.00     0.095 A 
HETATM   10  C9  UNL     1      17.962  -7.065  10.043  1.00  0.00     0.070 A 
HETATM   11  C11 UNL     1      18.446  -5.921  10.688  1.00  0.00     0.097 A 
HETATM   12  C12 UNL     1      17.789  -4.698  10.508  1.00  0.00     0.069 A 
HETATM   13  C14 UNL     1      16.624  -4.626   9.715  1.00  0.00     0.091 A 
HETATM   14  C15 UNL     1      16.102  -5.775   9.112  1.00  0.00     0.015 A 
HETATM   15  C16 UNL     1      14.817  -5.935   8.323  1.00  0.00     0.032 C 
HETATM   16  C21 UNL     1      15.186  -6.477   6.901  1.00  0.00     0.034 C 
HETATM   17  C22 UNL     1      15.799  -5.420   5.986  1.00  0.00     0.006 A 
HETATM   18  C23 UNL     1      15.592  -5.503   4.472  1.00  0.00    -0.001 A 
HETATM   19  C24 UNL     1      14.540  -6.329   3.773  1.00  0.00     0.010 C 
HETATM   20  C25 UNL     1      14.918  -7.800   3.611  1.00  0.00     0.034 C 
HETATM   21  C26 UNL     1      15.155  -4.251   5.219  1.00  0.00    -0.039 A 
HETATM   22  C27 UNL     1      16.014  -3.017   5.033  1.00  0.00     0.015 C 
HETATM   23  C28 UNL     1      13.687  -3.909   5.277  1.00  0.00     0.015 C 
ENDROOT
BRANCH  15  24
HETATM   24  C17 UNL     1      13.769  -4.809   8.359  1.00  0.00     0.014 C 
BRANCH  24  25
HETATM   25  C18 UNL     1      12.291  -5.269   8.288  1.00  0.00    -0.022 C 
HETATM   26  C19 UNL     1      11.878  -6.094   9.511  1.00  0.00     0.009 C 
HETATM   27  C20 UNL     1      12.078  -6.098   7.018  1.00  0.00     0.009 C 
ENDBRANCH  24  25
ENDBRANCH  15  24
BRANCH  13  28
HETATM   28  O5  UNL     1      15.997  -3.429   9.498  1.00  0.00    -0.359 OA
HETATM   29  H15 UNL     1      16.468  -2.722   9.996  1.00  0.00     0.217 HD
ENDBRANCH  13  28
BRANCH  10  30
HETATM   30  C10 UNL     1      18.645  -8.364  10.183  1.00  0.00     0.275 C 
HETATM   31  O2  UNL     1      18.893  -8.815  11.299  1.00  0.00    -0.301 OA
ENDBRANCH  10  30
BRANCH  12  32
HETATM   32  C13 UNL     1      18.333  -3.489  11.162  1.00  0.00     0.275 C 
HETATM   33  O4  UNL     1      19.521  -3.194  11.042  1.00  0.00    -0.301 OA
ENDBRANCH  12  32
BRANCH  11  34
HETATM   34  O3  UNL     1      19.566  -5.960  11.481  1.00  0.00    -0.359 OA
HETATM   35  H13 UNL     1      19.911  -6.884  11.496  1.00  0.00     0.217 HD
ENDBRANCH  11  34
TORSDOF 6
ENDMDL
MODEL 6
REMARK minimizedAffinity -6.75856018
REMARK  6 active torsions:
REMARK  status: ('A' for Active; 'I' for Inactive)
REMARK    1  A    between atoms: C9_10  and  C10_11 
REMARK    2  A    between atoms: C11_13  and  O3_14 
REMARK    3  A    between atoms: C12_15  and  C13_16 
REMARK    4  A    between atoms: C14_18  and  O5_19 
REMARK    5  A    between atoms: C16_21  and  C17_22 
REMARK    6  A    between atoms: C17_22  and  C18_23 
ROOT
HETATM    1  C1  UNL     1       3.534  10.232  13.794  1.00  0.00     0.043 C 
HETATM    2  C2  UNL     1       2.631   9.082  13.401  1.00  0.00    -0.087 C 
HETATM    3  C3  UNL     1       2.236   8.964  12.115  1.00  0.00    -0.024 C 
HETATM    4  C4  UNL     1       1.375   7.974  11.365  1.00  0.00     0.030 C 
HETATM    5  C5  UNL     1       1.232   6.555  11.910  1.00  0.00     0.042 C 
HETATM    6  C6  UNL     1      -0.112   6.143  12.601  1.00  0.00     0.069 C 
HETATM    7  C7  UNL     1       0.263   4.979  13.564  1.00  0.00     0.047 C 
HETATM    8  O1  UNL     1      -0.858   5.503  11.501  1.00  0.00    -0.338 OA
HETATM    9  C8  UNL     1      -2.118   5.100  11.868  1.00  0.00     0.095 A 
HETATM   10  C9  UNL     1      -2.547   3.798  11.598  1.00  0.00     0.070 A 
HETATM   11  C11 UNL     1      -3.798   3.378  12.063  1.00  0.00     0.097 A 
HETATM   12  C12 UNL     1      -4.598   4.266  12.792  1.00  0.00     0.069 A 
HETATM   13  C14 UNL     1      -4.163   5.588  13.023  1.00  0.00     0.091 A 
HETATM   14  C15 UNL     1      -2.939   6.034  12.514  1.00  0.00     0.015 A 
HETATM   15  C16 UNL     1      -2.345   7.428  12.552  1.00  0.00     0.032 C 
HETATM   16  C21 UNL     1      -0.961   7.346  13.280  1.00  0.00     0.034 C 
HETATM   17  C22 UNL     1      -1.077   7.185  14.794  1.00  0.00     0.006 A 
HETATM   18  C23 UNL     1       0.008   7.755  15.711  1.00  0.00    -0.001 A 
HETATM   19  C24 UNL     1       1.038   8.787  15.319  1.00  0.00     0.010 C 
HETATM   20  C25 UNL     1       2.238   8.206  14.574  1.00  0.00     0.034 C 
HETATM   21  C26 UNL     1      -1.435   8.203  15.893  1.00  0.00    -0.039 A 
HETATM   22  C27 UNL     1      -2.167   7.655  17.101  1.00  0.00     0.015 C 
HETATM   23  C28 UNL     1      -1.793   9.643  15.626  1.00  0.00     0.015 C 
ENDROOT
BRANCH  15  24
HETATM   24  C17 UNL     1      -3.239   8.615  12.948  1.00  0.00     0.014 C 
BRANCH  24  25
HETATM   25  C18 UNL     1      -4.509   8.254  13.759  1.00  0.00    -0.022 C 
HETATM   26  C19 UNL     1      -5.778   8.287  12.903  1.00  0.00     0.009 C 
HETATM   27  C20 UNL     1      -4.659   9.231  14.930  1.00  0.00     0.009 C 
ENDBRANCH  24  25
ENDBRANCH  15  24
BRANCH  13  28
HETATM   28  O5  UNL     1      -4.918   6.454  13.769  1.00  0.00    -0.359 OA
HETATM   29  H15 UNL     1      -5.751   6.005  14.041  1.00  0.00     0.217 HD
ENDBRANCH  13  28
BRANCH  10  30
HETATM   30  C10 UNL     1      -1.663   2.881  10.855  1.00  0.00     0.275 C 
HETATM   31  O2  UNL     1      -1.615   1.691  11.156  1.00  0.00    -0.301 OA
ENDBRANCH  10  30
BRANCH  12  32
HETATM   32  C13 UNL     1      -5.900   3.798  13.312  1.00  0.00     0.275 C 
HETATM   33  O4  UNL     1      -6.749   3.339  12.550  1.00  0.00    -0.301 OA
ENDBRANCH  12  32
BRANCH  11  34
HETATM   34  O3  UNL     1      -4.259   2.104  11.841  1.00  0.00    -0.359 OA
HETATM   35  H13 UNL     1      -3.579   1.606  11.326  1.00  0.00     0.217 HD
ENDBRANCH  11  34
TORSDOF 6
ENDMDL
MODEL 7
REMARK minimizedAffinity -6.70240116
REMARK  6 active torsions:
REMARK  status: ('A' for Active; 'I' for Inactive)
REMARK    1  A    between atoms: C9_10  and  C10_11 
REMARK    2  A    between atoms: C11_13  and  O3_14 
REMARK    3  A    between atoms: C12_15  and  C13_16 
REMARK    4  A    between atoms: C14_18  and  O5_19 
REMARK    5  A    between atoms: C16_21  and  C17_22 
REMARK    6  A    between atoms: C17_22  and  C18_23 
ROOT
HETATM    1  C1  UNL     1      -4.725  14.241  18.873  1.00  0.00     0.043 C 
HETATM    2  C2  UNL     1      -3.994  13.074  18.242  1.00  0.00    -0.087 C 
HETATM    3  C3  UNL     1      -3.930  11.900  18.906  1.00  0.00    -0.024 C 
HETATM    4  C4  UNL     1      -3.320  10.551  18.601  1.00  0.00     0.030 C 
HETATM    5  C5  UNL     1      -3.109  10.145  17.145  1.00  0.00     0.042 C 
HETATM    6  C6  UNL     1      -1.656  10.158  16.561  1.00  0.00     0.069 C 
HETATM    7  C7  UNL     1      -1.834  10.344  15.026  1.00  0.00     0.047 C 
HETATM    8  O1  UNL     1      -1.228   8.756  16.727  1.00  0.00    -0.338 OA
HETATM    9  C8  UNL     1       0.065   8.536  16.323  1.00  0.00     0.095 A 
HETATM   10  C9  UNL     1       0.360   7.488  15.449  1.00  0.00     0.070 A 
HETATM   11  C11 UNL     1       1.668   7.337  14.974  1.00  0.00     0.097 A 
HETATM   12  C12 UNL     1       2.658   8.239  15.380  1.00  0.00     0.069 A 
HETATM   13  C14 UNL     1       2.349   9.270  16.293  1.00  0.00     0.091 A 
HETATM   14  C15 UNL     1       1.057   9.394  16.815  1.00  0.00     0.015 A 
HETATM   15  C16 UNL     1       0.550  10.349  17.878  1.00  0.00     0.032 C 
HETATM   16  C21 UNL     1      -0.617  11.189  17.258  1.00  0.00     0.034 C 
HETATM   17  C22 UNL     1      -0.143  12.271  16.291  1.00  0.00     0.006 A 
HETATM   18  C23 UNL     1      -0.946  13.564  16.133  1.00  0.00    -0.001 A 
HETATM   19  C24 UNL     1      -1.996  14.070  17.093  1.00  0.00     0.010 C 
HETATM   20  C25 UNL     1      -3.365  13.418  16.907  1.00  0.00     0.034 C 
HETATM   21  C26 UNL     1       0.515  13.639  16.550  1.00  0.00    -0.039 A 
HETATM   22  C27 UNL     1       1.496  14.121  15.501  1.00  0.00     0.015 C 
HETATM   23  C28 UNL     1       0.858  14.165  17.922  1.00  0.00     0.015 C 
ENDROOT
BRANCH  15  24
HETATM   24  C17 UNL     1       1.564  11.136  18.726  1.00  0.00     0.014 C 
BRANCH  24  25
HETATM   25  C18 UNL     1       1.305  11.131  20.254  1.00  0.00    -0.022 C 
HETATM   26  C19 UNL     1       1.604  12.486  20.902  1.00  0.00     0.009 C 
HETATM   27  C20 UNL     1       2.168  10.049  20.911  1.00  0.00     0.009 C 
ENDBRANCH  24  25
ENDBRANCH  15  24
BRANCH  13  28
HETATM   28  O5  UNL     1       3.298  10.184  16.665  1.00  0.00    -0.359 OA
HETATM   29  H15 UNL     1       4.153   9.958  16.231  1.00  0.00     0.217 HD
ENDBRANCH  13  28
BRANCH  10  30
HETATM   30  C10 UNL     1      -0.716   6.576  15.018  1.00  0.00     0.275 C 
HETATM   31  O2  UNL     1      -0.995   6.470  13.826  1.00  0.00    -0.301 OA
ENDBRANCH  10  30
BRANCH  12  32
HETATM   32  C13 UNL     1       4.027   8.094  14.840  1.00  0.00     0.275 C 
HETATM   33  O4  UNL     1       4.983   7.938  15.596  1.00  0.00    -0.301 OA
ENDBRANCH  12  32
BRANCH  11  34
HETATM   34  O3  UNL     1       2.006   6.334  14.099  1.00  0.00    -0.359 OA
HETATM   35  H13 UNL     1       1.201   5.796  13.907  1.00  0.00     0.217 HD
ENDBRANCH  11  34
TORSDOF 6
ENDMDL
MODEL 8
REMARK minimizedAffinity -6.57008886
REMARK  6 active torsions:
REMARK  status: ('A' for Active; 'I' for Inactive)
REMARK    1  A    between atoms: C9_10  and  C10_11 
REMARK    2  A    between atoms: C11_13  and  O3_14 
REMARK    3  A    between atoms: C12_15  and  C13_16 
REMARK    4  A    between atoms: C14_18  and  O5_19 
REMARK    5  A    between atoms: C16_21  and  C17_22 
REMARK    6  A    between atoms: C17_22  and  C18_23 
ROOT
HETATM    1  C1  UNL     1      18.534  -8.168  11.365  1.00  0.00     0.043 C 
HETATM    2  C2  UNL     1      18.153  -7.189  10.275  1.00  0.00    -0.087 C 
HETATM    3  C3  UNL     1      17.468  -6.072  10.602  1.00  0.00    -0.024 C 
HETATM    4  C4  UNL     1      16.941  -4.893   9.817  1.00  0.00     0.030 C 
HETATM    5  C5  UNL     1      17.613  -4.520   8.498  1.00  0.00     0.042 C 
HETATM    6  C6  UNL     1      16.878  -4.855   7.156  1.00  0.00     0.069 C 
HETATM    7  C7  UNL     1      18.006  -4.969   6.090  1.00  0.00     0.047 C 
HETATM    8  O1  UNL     1      16.185  -3.591   6.843  1.00  0.00    -0.338 OA
HETATM    9  C8  UNL     1      15.415  -3.665   5.709  1.00  0.00     0.095 A 
HETATM   10  C9  UNL     1      15.539  -2.697   4.710  1.00  0.00     0.070 A 
HETATM   11  C11 UNL     1      14.815  -2.840   3.521  1.00  0.00     0.097 A 
HETATM   12  C12 UNL     1      13.981  -3.952   3.351  1.00  0.00     0.069 A 
HETATM   13  C14 UNL     1      13.841  -4.901   4.386  1.00  0.00     0.091 A 
HETATM   14  C15 UNL     1      14.518  -4.735   5.599  1.00  0.00     0.015 A 
HETATM   15  C16 UNL     1      14.419  -5.567   6.863  1.00  0.00     0.032 C 
HETATM   16  C21 UNL     1      15.850  -6.108   7.200  1.00  0.00     0.034 C 
HETATM   17  C22 UNL     1      16.298  -7.253   6.295  1.00  0.00     0.006 A 
HETATM   18  C23 UNL     1      17.250  -8.325   6.829  1.00  0.00    -0.001 A 
HETATM   19  C24 UNL     1      17.542  -8.594   8.286  1.00  0.00     0.010 C 
HETATM   20  C25 UNL     1      18.574  -7.644   8.892  1.00  0.00     0.034 C 
HETATM   21  C26 UNL     1      15.895  -8.739   6.273  1.00  0.00    -0.039 A 
HETATM   22  C27 UNL     1      15.898  -9.414   4.916  1.00  0.00     0.015 C 
HETATM   23  C28 UNL     1      14.879  -9.353   7.203  1.00  0.00     0.015 C 
ENDROOT
BRANCH  15  24
HETATM   24  C17 UNL     1      13.270  -6.579   7.009  1.00  0.00     0.014 C 
BRANCH  24  25
HETATM   25  C18 UNL     1      12.171  -6.200   8.033  1.00  0.00    -0.022 C 
HETATM   26  C19 UNL     1      10.943  -5.574   7.366  1.00  0.00     0.009 C 
HETATM   27  C20 UNL     1      12.750  -5.220   9.059  1.00  0.00     0.009 C 
ENDBRANCH  24  25
ENDBRANCH  15  24
BRANCH  13  28
HETATM   28  O5  UNL     1      13.061  -6.012   4.216  1.00  0.00    -0.359 OA
HETATM   29  H15 UNL     1      12.641  -5.980   3.326  1.00  0.00     0.217 HD
ENDBRANCH  13  28
BRANCH  10  30
HETATM   30  C10 UNL     1      16.452  -1.557   4.913  1.00  0.00     0.275 C 
HETATM   31  O2  UNL     1      16.155  -0.661   5.700  1.00  0.00    -0.301 OA
ENDBRANCH  10  30
BRANCH  12  32
HETATM   32  C13 UNL     1      13.253  -4.114   2.075  1.00  0.00     0.275 C 
HETATM   33  O4  UNL     1      13.866  -4.241   1.017  1.00  0.00    -0.301 OA
ENDBRANCH  12  32
BRANCH  11  34
HETATM   34  O3  UNL     1      14.915  -1.927   2.501  1.00  0.00    -0.359 OA
HETATM   35  H13 UNL     1      15.543  -1.216   2.773  1.00  0.00     0.217 HD
ENDBRANCH  11  34
TORSDOF 6
ENDMDL
MODEL 9
REMARK minimizedAffinity -6.45562458
REMARK  6 active torsions:
REMARK  status: ('A' for Active; 'I' for Inactive)
REMARK    1  A    between atoms: C9_10  and  C10_11 
REMARK    2  A    between atoms: C11_13  and  O3_14 
REMARK    3  A    between atoms: C12_15  and  C13_16 
REMARK    4  A    between atoms: C14_18  and  O5_19 
REMARK    5  A    between atoms: C16_21  and  C17_22 
REMARK    6  A    between atoms: C17_22  and  C18_23 
ROOT
HETATM    1  C1  UNL     1      -0.219  12.887  16.548  1.00  0.00     0.043 C 
HETATM    2  C2  UNL     1       1.224  12.644  16.937  1.00  0.00    -0.087 C 
HETATM    3  C3  UNL     1       1.670  11.375  17.053  1.00  0.00    -0.024 C 
HETATM    4  C4  UNL     1       3.006  10.757  17.397  1.00  0.00     0.030 C 
HETATM    5  C5  UNL     1       4.281  11.558  17.145  1.00  0.00     0.042 C 
HETATM    6  C6  UNL     1       5.036  12.179  18.368  1.00  0.00     0.069 C 
HETATM    7  C7  UNL     1       5.826  13.389  17.789  1.00  0.00     0.047 C 
HETATM    8  O1  UNL     1       6.062  11.162  18.666  1.00  0.00    -0.338 OA
HETATM    9  C8  UNL     1       6.829  11.474  19.760  1.00  0.00     0.095 A 
HETATM   10  C9  UNL     1       8.222  11.429  19.679  1.00  0.00     0.070 A 
HETATM   11  C11 UNL     1       8.988  11.841  20.776  1.00  0.00     0.097 A 
HETATM   12  C12 UNL     1       8.346  12.293  21.935  1.00  0.00     0.069 A 
HETATM   13  C14 UNL     1       6.936  12.296  22.012  1.00  0.00     0.091 A 
HETATM   14  C15 UNL     1       6.165  11.834  20.941  1.00  0.00     0.015 A 
HETATM   15  C16 UNL     1       4.661  11.650  20.862  1.00  0.00     0.032 C 
HETATM   16  C21 UNL     1       4.130  12.515  19.669  1.00  0.00     0.034 C 
HETATM   17  C22 UNL     1       4.088  14.011  19.972  1.00  0.00     0.006 A 
HETATM   18  C23 UNL     1       3.034  14.899  19.307  1.00  0.00    -0.001 A 
HETATM   19  C24 UNL     1       1.774  14.413  18.632  1.00  0.00     0.010 C 
HETATM   20  C25 UNL     1       1.992  13.924  17.201  1.00  0.00     0.034 C 
HETATM   21  C26 UNL     1       3.112  14.841  20.826  1.00  0.00    -0.039 A 
HETATM   22  C27 UNL     1       3.695  16.055  21.520  1.00  0.00     0.015 C 
HETATM   23  C28 UNL     1       1.955  14.257  21.596  1.00  0.00     0.015 C 
ENDROOT
BRANCH  15  24
HETATM   24  C17 UNL     1       3.829  11.708  22.154  1.00  0.00     0.014 C 
BRANCH  24  25
HETATM   25  C18 UNL     1       2.842  10.533  22.366  1.00  0.00    -0.022 C 
HETATM   26  C19 UNL     1       3.560   9.215  22.669  1.00  0.00     0.009 C 
HETATM   27  C20 UNL     1       1.976  10.365  21.114  1.00  0.00     0.009 C 
ENDBRANCH  24  25
ENDBRANCH  15  24
BRANCH  13  28
HETATM   28  O5  UNL     1       6.297  12.774  23.123  1.00  0.00    -0.359 OA
HETATM   29  H15 UNL     1       6.967  13.045  23.791  1.00  0.00     0.217 HD
ENDBRANCH  13  28
BRANCH  10  30
HETATM   30  C10 UNL     1       8.863  10.978  18.430  1.00  0.00     0.275 C 
HETATM   31  O2  UNL     1       8.723   9.818  18.048  1.00  0.00    -0.301 OA
ENDBRANCH  10  30
BRANCH  12  32
HETATM   32  C13 UNL     1       9.165  12.764  23.072  1.00  0.00     0.275 C 
HETATM   33  O4  UNL     1       8.872  13.799  23.666  1.00  0.00    -0.301 OA
ENDBRANCH  12  32
BRANCH  11  34
HETATM   34  O3  UNL     1      10.360  11.834  20.741  1.00  0.00    -0.359 OA
HETATM   35  H13 UNL     1      10.653  11.500  19.859  1.00  0.00     0.217 HD
ENDBRANCH  11  34
TORSDOF 6
ENDMDL
