MODEL 1
REMARK minimizedAffinity -7.46039152
REMARK CNNscore 0.553753197
REMARK CNNaffinity 6.05051184
REMARK  6 active torsions:
REMARK  status: ('A' for Active; 'I' for Inactive)
REMARK    1  A    between atoms: C2_2  and  C30_31 
REMARK    2  A    between atoms: C3_3  and  C4_4 
REMARK    3  A    between atoms: C4_4  and  C5_5 
REMARK    4  A    between atoms: C5_5  and  C6_6 
REMARK    5  A    between atoms: C6_6  and  C8_8 
REMARK    6  A    between atoms: C30_31  and  O3_33 
ROOT
HETATM    1  C8  UNL     1     -13.131  45.969 -26.459  1.00  0.00    -0.002 C 
HETATM    2  C9  UNL     1     -14.281  46.132 -27.505  1.00  0.00     0.007 C 
HETATM    3  C10 UNL     1     -13.631  46.461 -28.866  1.00  0.00     0.015 C 
HETATM    4  C11 UNL     1     -12.148  46.106 -28.675  1.00  0.00    -0.013 C 
HETATM    5  C12 UNL     1     -12.039  44.551 -28.851  1.00  0.00     0.021 C 
HETATM    6  C13 UNL     1     -11.117  46.687 -29.650  1.00  0.00    -0.070 C 
HETATM    7  C14 UNL     1     -11.336  46.657 -30.978  1.00  0.00    -0.022 C 
HETATM    8  C15 UNL     1     -10.256  46.832 -32.000  1.00  0.00     0.034 C 
HETATM    9  C16 UNL     1      -8.867  46.506 -31.407  1.00  0.00     0.013 C 
HETATM   10  C17 UNL     1      -7.725  46.443 -32.485  1.00  0.00     0.018 C 
HETATM   11  C18 UNL     1      -7.660  47.633 -33.456  1.00  0.00     0.023 C 
HETATM   12  C19 UNL     1      -7.924  45.169 -33.347  1.00  0.00     0.023 C 
HETATM   13  C20 UNL     1      -6.354  46.331 -31.799  1.00  0.00     0.135 C 
HETATM   14  O1  UNL     1      -5.446  45.633 -32.252  1.00  0.00    -0.297 OA
HETATM   15  C21 UNL     1      -6.097  47.208 -30.598  1.00  0.00     0.080 C 
HETATM   16  C22 UNL     1      -7.206  47.041 -29.575  1.00  0.00     0.017 C 
HETATM   17  C23 UNL     1      -8.611  47.376 -30.128  1.00  0.00    -0.031 C 
HETATM   18  C24 UNL     1      -8.667  48.902 -30.429  1.00  0.00     0.016 C 
HETATM   19  C25 UNL     1      -9.761  47.105 -29.050  1.00  0.00     0.024 C 
HETATM   20  C26 UNL     1      -9.409  46.198 -27.851  1.00  0.00     0.010 C 
HETATM   21  C27 UNL     1     -10.510  46.129 -26.756  1.00  0.00     0.011 C 
HETATM   22  C28 UNL     1     -11.911  46.608 -27.208  1.00  0.00    -0.029 C 
HETATM   23  C29 UNL     1     -12.034  48.161 -27.054  1.00  0.00     0.016 C 
ENDROOT
BRANCH   1  24
HETATM   24  C6  UNL     1     -13.541  46.487 -25.047  1.00  0.00    -0.014 C 
HETATM   25  C7  UNL     1     -13.633  45.347 -24.025  1.00  0.00     0.010 C 
BRANCH  24  26
HETATM   26  C5  UNL     1     -14.902  47.229 -25.114  1.00  0.00     0.008 C 
BRANCH  26  27
HETATM   27  C4  UNL     1     -15.861  46.843 -23.979  1.00  0.00     0.028 C 
BRANCH  27  28
HETATM   28  C3  UNL     1     -17.203  46.440 -24.526  1.00  0.00    -0.013 C 
HETATM   29  C2  UNL     1     -18.333  46.193 -23.829  1.00  0.00     0.008 C 
HETATM   30  C1  UNL     1     -18.468  46.236 -22.335  1.00  0.00     0.055 C 
BRANCH  29  31
HETATM   31  C30 UNL     1     -19.591  45.822 -24.530  1.00  0.00     0.171 C 
HETATM   32  O2  UNL     1     -20.586  45.365 -23.993  1.00  0.00    -0.646 OA
BRANCH  31  33
HETATM   33  O3  UNL     1     -19.559  46.016 -25.860  1.00  0.00    -0.773 OA
HETATM   34  H46 UNL     1     -20.443  45.714 -26.155  1.00  0.00     0.167 HD
ENDBRANCH  31  33
ENDBRANCH  29  31
ENDBRANCH  27  28
ENDBRANCH  26  27
ENDBRANCH  24  26
ENDBRANCH   1  24
TORSDOF 6
ENDMDL
MODEL 2
REMARK minimizedAffinity -7.18570852
REMARK CNNscore 0.491136968
REMARK CNNaffinity 6.31933022
REMARK  6 active torsions:
REMARK  status: ('A' for Active; 'I' for Inactive)
REMARK    1  A    between atoms: C2_2  and  C30_31 
REMARK    2  A    between atoms: C3_3  and  C4_4 
REMARK    3  A    between atoms: C4_4  and  C5_5 
REMARK    4  A    between atoms: C5_5  and  C6_6 
REMARK    5  A    between atoms: C6_6  and  C8_8 
REMARK    6  A    between atoms: C30_31  and  O3_33 
ROOT
HETATM    1  C8  UNL     1      -9.093  47.479 -24.382  1.00  0.00    -0.002 C 
HETATM    2  C9  UNL     1      -8.975  45.963 -24.017  1.00  0.00     0.007 C 
HETATM    3  C10 UNL     1      -7.635  45.764 -23.278  1.00  0.00     0.015 C 
HETATM    4  C11 UNL     1      -7.197  47.186 -22.894  1.00  0.00    -0.013 C 
HETATM    5  C12 UNL     1      -8.003  47.563 -21.603  1.00  0.00     0.021 C 
HETATM    6  C13 UNL     1      -5.728  47.434 -22.530  1.00  0.00    -0.070 C 
HETATM    7  C14 UNL     1      -5.081  46.608 -21.686  1.00  0.00    -0.022 C 
HETATM    8  C15 UNL     1      -3.812  46.970 -20.982  1.00  0.00     0.034 C 
HETATM    9  C16 UNL     1      -3.641  48.504 -20.893  1.00  0.00     0.013 C 
HETATM   10  C17 UNL     1      -2.454  48.949 -19.964  1.00  0.00     0.018 C 
HETATM   11  C18 UNL     1      -1.111  48.243 -20.216  1.00  0.00     0.023 C 
HETATM   12  C19 UNL     1      -2.842  48.665 -18.490  1.00  0.00     0.023 C 
HETATM   13  C20 UNL     1      -2.213  50.461 -20.100  1.00  0.00     0.135 C 
HETATM   14  O1  UNL     1      -1.909  51.168 -19.137  1.00  0.00    -0.297 OA
HETATM   15  C21 UNL     1      -2.239  51.055 -21.486  1.00  0.00     0.080 C 
HETATM   16  C22 UNL     1      -3.520  50.665 -22.203  1.00  0.00     0.017 C 
HETATM   17  C23 UNL     1      -3.717  49.137 -22.326  1.00  0.00    -0.031 C 
HETATM   18  C24 UNL     1      -2.622  48.577 -23.280  1.00  0.00     0.016 C 
HETATM   19  C25 UNL     1      -5.116  48.764 -23.007  1.00  0.00     0.024 C 
HETATM   20  C26 UNL     1      -6.199  49.863 -23.047  1.00  0.00     0.010 C 
HETATM   21  C27 UNL     1      -7.457  49.493 -23.882  1.00  0.00     0.011 C 
HETATM   22  C28 UNL     1      -7.622  47.983 -24.177  1.00  0.00    -0.029 C 
HETATM   23  C29 UNL     1      -6.812  47.583 -25.455  1.00  0.00     0.016 C 
ENDROOT
BRANCH   1  24
HETATM   24  C6  UNL     1      -9.813  47.703 -25.747  1.00  0.00    -0.014 C 
HETATM   25  C7  UNL     1      -9.817  49.182 -26.154  1.00  0.00     0.010 C 
BRANCH  24  26
HETATM   26  C5  UNL     1     -11.273  47.181 -25.683  1.00  0.00     0.008 C 
BRANCH  26  27
HETATM   27  C4  UNL     1     -12.160  47.720 -26.814  1.00  0.00     0.028 C 
BRANCH  27  28
HETATM   28  C3  UNL     1     -13.471  46.984 -26.864  1.00  0.00    -0.013 C 
HETATM   29  C2  UNL     1     -13.935  46.202 -27.861  1.00  0.00     0.008 C 
HETATM   30  C1  UNL     1     -13.238  45.934 -29.163  1.00  0.00     0.055 C 
BRANCH  29  31
HETATM   31  C30 UNL     1     -15.255  45.524 -27.742  1.00  0.00     0.171 C 
HETATM   32  O2  UNL     1     -15.956  45.523 -26.745  1.00  0.00    -0.646 OA
BRANCH  31  33
HETATM   33  O3  UNL     1     -15.639  44.867 -28.851  1.00  0.00    -0.773 OA
HETATM   34  H46 UNL     1     -16.501  44.480 -28.597  1.00  0.00     0.167 HD
ENDBRANCH  31  33
ENDBRANCH  29  31
ENDBRANCH  27  28
ENDBRANCH  26  27
ENDBRANCH  24  26
ENDBRANCH   1  24
TORSDOF 6
ENDMDL
MODEL 3
REMARK minimizedAffinity -7.923985
REMARK CNNscore 0.36691767
REMARK CNNaffinity 6.49533272
REMARK  6 active torsions:
REMARK  status: ('A' for Active; 'I' for Inactive)
REMARK    1  A    between atoms: C2_2  and  C30_31 
REMARK    2  A    between atoms: C3_3  and  C4_4 
REMARK    3  A    between atoms: C4_4  and  C5_5 
REMARK    4  A    between atoms: C5_5  and  C6_6 
REMARK    5  A    between atoms: C6_6  and  C8_8 
REMARK    6  A    between atoms: C30_31  and  O3_33 
ROOT
HETATM    1  C8  UNL     1       2.468  55.251  -9.295  1.00  0.00    -0.002 C 
HETATM    2  C9  UNL     1       1.378  55.998  -8.459  1.00  0.00     0.007 C 
HETATM    3  C10 UNL     1       2.078  56.627  -7.235  1.00  0.00     0.015 C 
HETATM    4  C11 UNL     1       3.574  56.569  -7.581  1.00  0.00    -0.013 C 
HETATM    5  C12 UNL     1       3.856  57.784  -8.532  1.00  0.00     0.021 C 
HETATM    6  C13 UNL     1       4.601  56.707  -6.450  1.00  0.00    -0.070 C 
HETATM    7  C14 UNL     1       4.473  57.673  -5.522  1.00  0.00    -0.022 C 
HETATM    8  C15 UNL     1       5.593  58.126  -4.638  1.00  0.00     0.034 C 
HETATM    9  C16 UNL     1       6.967  57.781  -5.255  1.00  0.00     0.013 C 
HETATM   10  C17 UNL     1       8.177  58.434  -4.495  1.00  0.00     0.018 C 
HETATM   11  C18 UNL     1       8.180  58.251  -2.968  1.00  0.00     0.023 C 
HETATM   12  C19 UNL     1       8.169  59.961  -4.765  1.00  0.00     0.023 C 
HETATM   13  C20 UNL     1       9.504  57.874  -5.030  1.00  0.00     0.135 C 
HETATM   14  O1  UNL     1      10.508  58.575  -5.167  1.00  0.00    -0.297 OA
HETATM   15  C21 UNL     1       9.590  56.388  -5.278  1.00  0.00     0.080 C 
HETATM   16  C22 UNL     1       8.440  55.932  -6.158  1.00  0.00     0.017 C 
HETATM   17  C23 UNL     1       7.047  56.245  -5.564  1.00  0.00    -0.031 C 
HETATM   18  C24 UNL     1       6.852  55.375  -4.288  1.00  0.00     0.016 C 
HETATM   19  C25 UNL     1       5.863  55.831  -6.556  1.00  0.00     0.024 C 
HETATM   20  C26 UNL     1       6.229  55.603  -8.039  1.00  0.00     0.010 C 
HETATM   21  C27 UNL     1       5.072  55.027  -8.902  1.00  0.00     0.011 C 
HETATM   22  C28 UNL     1       3.661  55.167  -8.281  1.00  0.00    -0.029 C 
HETATM   23  C29 UNL     1       3.367  53.971  -7.316  1.00  0.00     0.016 C 
ENDROOT
BRANCH   1  24
HETATM   24  C6  UNL     1       1.915  53.954  -9.960  1.00  0.00    -0.014 C 
HETATM   25  C7  UNL     1       2.896  53.379 -10.991  1.00  0.00     0.010 C 
BRANCH  24  26
HETATM   26  C5  UNL     1       0.552  54.234 -10.646  1.00  0.00     0.008 C 
BRANCH  26  27
HETATM   27  C4  UNL     1      -0.566  53.289 -10.185  1.00  0.00     0.028 C 
BRANCH  27  28
HETATM   28  C3  UNL     1      -1.455  52.907 -11.337  1.00  0.00    -0.013 C 
HETATM   29  C2  UNL     1      -2.771  53.170 -11.480  1.00  0.00     0.008 C 
HETATM   30  C1  UNL     1      -3.637  53.878 -10.481  1.00  0.00     0.055 C 
BRANCH  29  31
HETATM   31  C30 UNL     1      -3.503  52.736 -12.700  1.00  0.00     0.171 C 
HETATM   32  O2  UNL     1      -3.425  51.631 -13.210  1.00  0.00    -0.646 OA
BRANCH  31  33
HETATM   33  O3  UNL     1      -4.281  53.687 -13.244  1.00  0.00    -0.773 OA
HETATM   34  H46 UNL     1      -4.668  53.244 -14.026  1.00  0.00     0.167 HD
ENDBRANCH  31  33
ENDBRANCH  29  31
ENDBRANCH  27  28
ENDBRANCH  26  27
ENDBRANCH  24  26
ENDBRANCH   1  24
TORSDOF 6
ENDMDL
MODEL 4
REMARK minimizedAffinity -7.13390112
REMARK CNNscore 0.340189248
REMARK CNNaffinity 5.86501551
REMARK  6 active torsions:
REMARK  status: ('A' for Active; 'I' for Inactive)
REMARK    1  A    between atoms: C2_2  and  C30_31 
REMARK    2  A    between atoms: C3_3  and  C4_4 
REMARK    3  A    between atoms: C4_4  and  C5_5 
REMARK    4  A    between atoms: C5_5  and  C6_6 
REMARK    5  A    between atoms: C6_6  and  C8_8 
REMARK    6  A    between atoms: C30_31  and  O3_33 
ROOT
HETATM    1  C8  UNL     1     -18.222  59.009  -3.443  1.00  0.00    -0.002 C 
HETATM    2  C9  UNL     1     -17.801  60.515  -3.429  1.00  0.00     0.007 C 
HETATM    3  C10 UNL     1     -17.060  60.780  -2.102  1.00  0.00     0.015 C 
HETATM    4  C11 UNL     1     -16.731  59.379  -1.563  1.00  0.00    -0.013 C 
HETATM    5  C12 UNL     1     -15.452  58.898  -2.333  1.00  0.00     0.021 C 
HETATM    6  C13 UNL     1     -16.381  59.220  -0.079  1.00  0.00    -0.070 C 
HETATM    7  C14 UNL     1     -15.509  60.058   0.514  1.00  0.00    -0.022 C 
HETATM    8  C15 UNL     1     -14.823  59.759   1.810  1.00  0.00     0.034 C 
HETATM    9  C16 UNL     1     -14.793  58.239   2.088  1.00  0.00     0.013 C 
HETATM   10  C17 UNL     1     -13.885  57.844   3.309  1.00  0.00     0.018 C 
HETATM   11  C18 UNL     1     -14.114  58.650   4.597  1.00  0.00     0.023 C 
HETATM   12  C19 UNL     1     -12.400  58.045   2.910  1.00  0.00     0.023 C 
HETATM   13  C20 UNL     1     -14.077  56.358   3.653  1.00  0.00     0.135 C 
HETATM   14  O1  UNL     1     -13.143  55.639   4.011  1.00  0.00    -0.297 OA
HETATM   15  C21 UNL     1     -15.485  55.815   3.660  1.00  0.00     0.080 C 
HETATM   16  C22 UNL     1     -16.183  56.141   2.351  1.00  0.00     0.017 C 
HETATM   17  C23 UNL     1     -16.248  57.655   2.047  1.00  0.00    -0.031 C 
HETATM   18  C24 UNL     1     -17.184  58.326   3.095  1.00  0.00     0.016 C 
HETATM   19  C25 UNL     1     -16.909  57.955   0.622  1.00  0.00     0.024 C 
HETATM   20  C26 UNL     1     -16.987  56.785  -0.383  1.00  0.00     0.010 C 
HETATM   21  C27 UNL     1     -17.803  57.097  -1.668  1.00  0.00     0.011 C 
HETATM   22  C28 UNL     1     -18.041  58.602  -1.940  1.00  0.00    -0.029 C 
HETATM   23  C29 UNL     1     -19.306  59.104  -1.167  1.00  0.00     0.016 C 
ENDROOT
BRANCH   1  24
HETATM   24  C6  UNL     1     -19.592  58.787  -4.154  1.00  0.00    -0.014 C 
HETATM   25  C7  UNL     1     -20.726  59.550  -3.458  1.00  0.00     0.010 C 
BRANCH  24  26
HETATM   26  C5  UNL     1     -19.941  57.275  -4.199  1.00  0.00     0.008 C 
BRANCH  26  27
HETATM   27  C4  UNL     1     -21.376  56.997  -4.670  1.00  0.00     0.028 C 
BRANCH  27  28
HETATM   28  C3  UNL     1     -21.381  56.072  -5.856  1.00  0.00    -0.013 C 
HETATM   29  C2  UNL     1     -20.954  56.340  -7.108  1.00  0.00     0.008 C 
HETATM   30  C1  UNL     1     -20.412  57.655  -7.587  1.00  0.00     0.055 C 
BRANCH  29  31
HETATM   31  C30 UNL     1     -21.009  55.298  -8.168  1.00  0.00     0.171 C 
HETATM   32  O2  UNL     1     -21.890  55.194  -9.005  1.00  0.00    -0.646 OA
BRANCH  31  33
HETATM   33  O3  UNL     1     -19.987  54.425  -8.137  1.00  0.00    -0.773 OA
HETATM   34  H46 UNL     1     -20.187  53.816  -8.878  1.00  0.00     0.167 HD
ENDBRANCH  31  33
ENDBRANCH  29  31
ENDBRANCH  27  28
ENDBRANCH  26  27
ENDBRANCH  24  26
ENDBRANCH   1  24
TORSDOF 6
ENDMDL
MODEL 5
REMARK minimizedAffinity -8.25200939
REMARK CNNscore 0.313950628
REMARK CNNaffinity 6.66252756
REMARK  6 active torsions:
REMARK  status: ('A' for Active; 'I' for Inactive)
REMARK    1  A    between atoms: C2_2  and  C30_31 
REMARK    2  A    between atoms: C3_3  and  C4_4 
REMARK    3  A    between atoms: C4_4  and  C5_5 
REMARK    4  A    between atoms: C5_5  and  C6_6 
REMARK    5  A    between atoms: C6_6  and  C8_8 
REMARK    6  A    between atoms: C30_31  and  O3_33 
ROOT
HETATM    1  C8  UNL     1      -5.426  49.228 -24.197  1.00  0.00    -0.002 C 
HETATM    2  C9  UNL     1      -6.304  49.042 -22.917  1.00  0.00     0.007 C 
HETATM    3  C10 UNL     1      -5.466  49.504 -21.705  1.00  0.00     0.015 C 
HETATM    4  C11 UNL     1      -4.302  50.292 -22.326  1.00  0.00    -0.013 C 
HETATM    5  C12 UNL     1      -4.859  51.721 -22.653  1.00  0.00     0.021 C 
HETATM    6  C13 UNL     1      -3.045  50.542 -21.484  1.00  0.00    -0.070 C 
HETATM    7  C14 UNL     1      -3.146  50.972 -20.212  1.00  0.00    -0.022 C 
HETATM    8  C15 UNL     1      -2.017  51.602 -19.458  1.00  0.00     0.034 C 
HETATM    9  C16 UNL     1      -0.958  52.183 -20.422  1.00  0.00     0.013 C 
HETATM   10  C17 UNL     1       0.130  53.060 -19.702  1.00  0.00     0.018 C 
HETATM   11  C18 UNL     1       0.780  52.427 -18.461  1.00  0.00     0.023 C 
HETATM   12  C19 UNL     1      -0.527  54.386 -19.239  1.00  0.00     0.023 C 
HETATM   13  C20 UNL     1       1.258  53.417 -20.683  1.00  0.00     0.135 C 
HETATM   14  O1  UNL     1       1.810  54.519 -20.679  1.00  0.00    -0.297 OA
HETATM   15  C21 UNL     1       1.769  52.327 -21.593  1.00  0.00     0.080 C 
HETATM   16  C22 UNL     1       0.616  51.678 -22.338  1.00  0.00     0.017 C 
HETATM   17  C23 UNL     1      -0.457  51.069 -21.406  1.00  0.00    -0.031 C 
HETATM   18  C24 UNL     1       0.174  49.859 -20.657  1.00  0.00     0.016 C 
HETATM   19  C25 UNL     1      -1.696  50.474 -22.223  1.00  0.00     0.024 C 
HETATM   20  C26 UNL     1      -1.868  50.937 -23.686  1.00  0.00     0.010 C 
HETATM   21  C27 UNL     1      -2.976  50.182 -24.471  1.00  0.00     0.011 C 
HETATM   22  C28 UNL     1      -3.992  49.415 -23.590  1.00  0.00    -0.029 C 
HETATM   23  C29 UNL     1      -3.447  47.990 -23.240  1.00  0.00     0.016 C 
ENDROOT
BRANCH   1  24
HETATM   24  C6  UNL     1      -5.686  48.114 -25.257  1.00  0.00    -0.014 C 
HETATM   25  C7  UNL     1      -4.985  48.418 -26.587  1.00  0.00     0.010 C 
BRANCH  24  26
HETATM   26  C5  UNL     1      -7.209  47.946 -25.505  1.00  0.00     0.008 C 
BRANCH  26  27
HETATM   27  C4  UNL     1      -7.533  47.060 -26.716  1.00  0.00     0.028 C 
BRANCH  27  28
HETATM   28  C3  UNL     1      -7.427  47.843 -27.996  1.00  0.00    -0.013 C 
HETATM   29  C2  UNL     1      -8.376  47.999 -28.943  1.00  0.00     0.008 C 
HETATM   30  C1  UNL     1      -9.742  47.379 -28.926  1.00  0.00     0.055 C 
BRANCH  29  31
HETATM   31  C30 UNL     1      -8.114  48.829 -30.150  1.00  0.00     0.171 C 
HETATM   32  O2  UNL     1      -7.262  48.597 -30.990  1.00  0.00    -0.646 OA
BRANCH  31  33
HETATM   33  O3  UNL     1      -8.902  49.913 -30.255  1.00  0.00    -0.773 OA
HETATM   34  H46 UNL     1      -8.591  50.340 -31.079  1.00  0.00     0.167 HD
ENDBRANCH  31  33
ENDBRANCH  29  31
ENDBRANCH  27  28
ENDBRANCH  26  27
ENDBRANCH  24  26
ENDBRANCH   1  24
TORSDOF 6
ENDMDL
MODEL 6
REMARK minimizedAffinity -8.88144493
REMARK CNNscore 0.313811213
REMARK CNNaffinity 6.77074242
REMARK  6 active torsions:
REMARK  status: ('A' for Active; 'I' for Inactive)
REMARK    1  A    between atoms: C2_2  and  C30_31 
REMARK    2  A    between atoms: C3_3  and  C4_4 
REMARK    3  A    between atoms: C4_4  and  C5_5 
REMARK    4  A    between atoms: C5_5  and  C6_6 
REMARK    5  A    between atoms: C6_6  and  C8_8 
REMARK    6  A    between atoms: C30_31  and  O3_33 
ROOT
HETATM    1  C8  UNL     1      -0.464  49.876 -18.081  1.00  0.00    -0.002 C 
HETATM    2  C9  UNL     1      -1.663  48.888 -17.906  1.00  0.00     0.007 C 
HETATM    3  C10 UNL     1      -2.444  48.862 -19.237  1.00  0.00     0.015 C 
HETATM    4  C11 UNL     1      -1.489  49.512 -20.251  1.00  0.00    -0.013 C 
HETATM    5  C12 UNL     1      -0.471  48.397 -20.676  1.00  0.00     0.021 C 
HETATM    6  C13 UNL     1      -2.062  50.047 -21.569  1.00  0.00    -0.070 C 
HETATM    7  C14 UNL     1      -2.923  49.307 -22.294  1.00  0.00    -0.022 C 
HETATM    8  C15 UNL     1      -3.223  49.561 -23.738  1.00  0.00     0.034 C 
HETATM    9  C16 UNL     1      -2.085  50.360 -24.412  1.00  0.00     0.013 C 
HETATM   10  C17 UNL     1      -2.227  50.456 -25.974  1.00  0.00     0.018 C 
HETATM   11  C18 UNL     1      -3.608  50.892 -26.491  1.00  0.00     0.023 C 
HETATM   12  C19 UNL     1      -1.937  49.062 -26.587  1.00  0.00     0.023 C 
HETATM   13  C20 UNL     1      -1.190  51.439 -26.542  1.00  0.00     0.135 C 
HETATM   14  O1  UNL     1      -0.612  51.240 -27.612  1.00  0.00    -0.297 OA
HETATM   15  C21 UNL     1      -0.978  52.739 -25.806  1.00  0.00     0.080 C 
HETATM   16  C22 UNL     1      -0.696  52.474 -24.338  1.00  0.00     0.017 C 
HETATM   17  C23 UNL     1      -1.822  51.691 -23.624  1.00  0.00    -0.031 C 
HETATM   18  C24 UNL     1      -3.084  52.599 -23.559  1.00  0.00     0.016 C 
HETATM   19  C25 UNL     1      -1.451  51.354 -22.105  1.00  0.00     0.024 C 
HETATM   20  C26 UNL     1       0.037  51.450 -21.702  1.00  0.00     0.010 C 
HETATM   21  C27 UNL     1       0.298  51.292 -20.178  1.00  0.00     0.011 C 
HETATM   22  C28 UNL     1      -0.866  50.657 -19.379  1.00  0.00    -0.029 C 
HETATM   23  C29 UNL     1      -1.902  51.753 -18.958  1.00  0.00     0.016 C 
ENDROOT
BRANCH   1  24
HETATM   24  C6  UNL     1      -0.144  50.653 -16.767  1.00  0.00    -0.014 C 
HETATM   25  C7  UNL     1       0.926  51.730 -16.988  1.00  0.00     0.010 C 
BRANCH  24  26
HETATM   26  C5  UNL     1       0.330  49.675 -15.659  1.00  0.00     0.008 C 
BRANCH  26  27
HETATM   27  C4  UNL     1       0.429  50.330 -14.274  1.00  0.00     0.028 C 
BRANCH  27  28
HETATM   28  C3  UNL     1       1.684  49.896 -13.566  1.00  0.00    -0.013 C 
HETATM   29  C2  UNL     1       2.900  50.480 -13.620  1.00  0.00     0.008 C 
HETATM   30  C1  UNL     1       3.260  51.680 -14.444  1.00  0.00     0.055 C 
BRANCH  29  31
HETATM   31  C30 UNL     1       4.040  49.932 -12.836  1.00  0.00     0.171 C 
HETATM   32  O2  UNL     1       5.118  49.604 -13.301  1.00  0.00    -0.646 OA
BRANCH  31  33
HETATM   33  O3  UNL     1       3.792  49.800 -11.521  1.00  0.00    -0.773 OA
HETATM   34  H46 UNL     1       4.624  49.423 -11.170  1.00  0.00     0.167 HD
ENDBRANCH  31  33
ENDBRANCH  29  31
ENDBRANCH  27  28
ENDBRANCH  26  27
ENDBRANCH  24  26
ENDBRANCH   1  24
TORSDOF 6
ENDMDL
MODEL 7
REMARK minimizedAffinity -7.33458042
REMARK CNNscore 0.251100123
REMARK CNNaffinity 5.80957556
REMARK  6 active torsions:
REMARK  status: ('A' for Active; 'I' for Inactive)
REMARK    1  A    between atoms: C2_2  and  C30_31 
REMARK    2  A    between atoms: C3_3  and  C4_4 
REMARK    3  A    between atoms: C4_4  and  C5_5 
REMARK    4  A    between atoms: C5_5  and  C6_6 
REMARK    5  A    between atoms: C6_6  and  C8_8 
REMARK    6  A    between atoms: C30_31  and  O3_33 
ROOT
HETATM    1  C8  UNL     1       3.003  54.398 -10.190  1.00  0.00    -0.002 C 
HETATM    2  C9  UNL     1       2.862  55.951 -10.316  1.00  0.00     0.007 C 
HETATM    3  C10 UNL     1       3.746  56.590  -9.224  1.00  0.00     0.015 C 
HETATM    4  C11 UNL     1       4.658  55.446  -8.754  1.00  0.00    -0.013 C 
HETATM    5  C12 UNL     1       5.812  55.338  -9.810  1.00  0.00     0.021 C 
HETATM    6  C13 UNL     1       5.370  55.574  -7.402  1.00  0.00    -0.070 C 
HETATM    7  C14 UNL     1       6.004  56.714  -7.067  1.00  0.00    -0.022 C 
HETATM    8  C15 UNL     1       7.028  56.803  -5.979  1.00  0.00     0.034 C 
HETATM    9  C16 UNL     1       7.650  55.419  -5.683  1.00  0.00     0.013 C 
HETATM   10  C17 UNL     1       8.892  55.484  -4.722  1.00  0.00     0.018 C 
HETATM   11  C18 UNL     1       8.695  56.303  -3.435  1.00  0.00     0.023 C 
HETATM   12  C19 UNL     1      10.080  56.123  -5.485  1.00  0.00     0.023 C 
HETATM   13  C20 UNL     1       9.314  54.065  -4.306  1.00  0.00     0.135 C 
HETATM   14  O1  UNL     1      10.497  53.742  -4.178  1.00  0.00    -0.297 OA
HETATM   15  C21 UNL     1       8.226  53.089  -3.933  1.00  0.00     0.080 C 
HETATM   16  C22 UNL     1       7.180  53.020  -5.031  1.00  0.00     0.017 C 
HETATM   17  C23 UNL     1       6.522  54.384  -5.343  1.00  0.00    -0.031 C 
HETATM   18  C24 UNL     1       5.676  54.814  -4.109  1.00  0.00     0.016 C 
HETATM   19  C25 UNL     1       5.491  54.289  -6.563  1.00  0.00     0.024 C 
HETATM   20  C26 UNL     1       5.601  53.059  -7.489  1.00  0.00     0.010 C 
HETATM   21  C27 UNL     1       4.456  52.940  -8.534  1.00  0.00     0.011 C 
HETATM   22  C28 UNL     1       3.652  54.241  -8.772  1.00  0.00    -0.029 C 
HETATM   23  C29 UNL     1       2.503  54.374  -7.717  1.00  0.00     0.016 C 
ENDROOT
BRANCH   1  24
HETATM   24  C6  UNL     1       1.673  53.657 -10.527  1.00  0.00    -0.014 C 
HETATM   25  C7  UNL     1       1.859  52.642 -11.662  1.00  0.00     0.010 C 
BRANCH  24  26
HETATM   26  C5  UNL     1       0.569  54.674 -10.921  1.00  0.00     0.008 C 
BRANCH  26  27
HETATM   27  C4  UNL     1      -0.539  54.807  -9.866  1.00  0.00     0.028 C 
BRANCH  27  28
HETATM   28  C3  UNL     1      -1.881  54.464 -10.452  1.00  0.00    -0.013 C 
HETATM   29  C2  UNL     1      -2.390  53.233 -10.672  1.00  0.00     0.008 C 
HETATM   30  C1  UNL     1      -1.689  51.934 -10.404  1.00  0.00     0.055 C 
BRANCH  29  31
HETATM   31  C30 UNL     1      -3.753  53.067 -11.245  1.00  0.00     0.171 C 
HETATM   32  O2  UNL     1      -4.592  52.279 -10.844  1.00  0.00    -0.646 OA
BRANCH  31  33
HETATM   33  O3  UNL     1      -4.011  53.867 -12.294  1.00  0.00    -0.773 OA
HETATM   34  H46 UNL     1      -4.925  53.622 -12.547  1.00  0.00     0.167 HD
ENDBRANCH  31  33
ENDBRANCH  29  31
ENDBRANCH  27  28
ENDBRANCH  26  27
ENDBRANCH  24  26
ENDBRANCH   1  24
TORSDOF 6
ENDMDL
MODEL 8
REMARK minimizedAffinity -7.59781122
REMARK CNNscore 0.234300837
REMARK CNNaffinity 5.46365309
REMARK  6 active torsions:
REMARK  status: ('A' for Active; 'I' for Inactive)
REMARK    1  A    between atoms: C2_2  and  C30_31 
REMARK    2  A    between atoms: C3_3  and  C4_4 
REMARK    3  A    between atoms: C4_4  and  C5_5 
REMARK    4  A    between atoms: C5_5  and  C6_6 
REMARK    5  A    between atoms: C6_6  and  C8_8 
REMARK    6  A    between atoms: C30_31  and  O3_33 
ROOT
HETATM    1  C8  UNL     1      -5.451  46.563 -30.761  1.00  0.00    -0.002 C 
HETATM    2  C9  UNL     1      -5.729  48.069 -31.073  1.00  0.00     0.007 C 
HETATM    3  C10 UNL     1      -7.178  48.376 -30.635  1.00  0.00     0.015 C 
HETATM    4  C11 UNL     1      -7.568  47.185 -29.747  1.00  0.00    -0.013 C 
HETATM    5  C12 UNL     1      -6.943  47.463 -28.335  1.00  0.00     0.021 C 
HETATM    6  C13 UNL     1      -9.053  46.918 -29.476  1.00  0.00    -0.070 C 
HETATM    7  C14 UNL     1      -9.878  47.924 -29.128  1.00  0.00    -0.022 C 
HETATM    8  C15 UNL     1     -11.211  47.717 -28.481  1.00  0.00     0.034 C 
HETATM    9  C16 UNL     1     -11.285  46.340 -27.783  1.00  0.00     0.013 C 
HETATM   10  C17 UNL     1     -12.565  46.158 -26.890  1.00  0.00     0.018 C 
HETATM   11  C18 UNL     1     -13.900  46.526 -27.557  1.00  0.00     0.023 C 
HETATM   12  C19 UNL     1     -12.427  47.056 -25.634  1.00  0.00     0.023 C 
HETATM   13  C20 UNL     1     -12.675  44.701 -26.411  1.00  0.00     0.135 C 
HETATM   14  O1  UNL     1     -13.071  44.407 -25.282  1.00  0.00    -0.297 OA
HETATM   15  C21 UNL     1     -12.395  43.609 -27.414  1.00  0.00     0.080 C 
HETATM   16  C22 UNL     1     -11.051  43.838 -28.083  1.00  0.00     0.017 C 
HETATM   17  C23 UNL     1     -10.946  45.200 -28.807  1.00  0.00    -0.031 C 
HETATM   18  C24 UNL     1     -11.920  45.186 -30.021  1.00  0.00     0.016 C 
HETATM   19  C25 UNL     1      -9.490  45.443 -29.422  1.00  0.00     0.024 C 
HETATM   20  C26 UNL     1      -8.338  44.568 -28.883  1.00  0.00     0.010 C 
HETATM   21  C27 UNL     1      -6.997  44.728 -29.653  1.00  0.00     0.011 C 
HETATM   22  C28 UNL     1      -6.896  46.001 -30.528  1.00  0.00    -0.029 C 
HETATM   23  C29 UNL     1      -7.528  45.748 -31.937  1.00  0.00     0.016 C 
ENDROOT
BRANCH   1  24
HETATM   24  C6  UNL     1      -4.517  45.904 -31.822  1.00  0.00    -0.014 C 
HETATM   25  C7  UNL     1      -4.230  46.850 -32.994  1.00  0.00     0.010 C 
BRANCH  24  26
HETATM   26  C5  UNL     1      -5.149  44.592 -32.361  1.00  0.00     0.008 C 
BRANCH  26  27
HETATM   27  C4  UNL     1      -4.122  43.475 -32.595  1.00  0.00     0.028 C 
BRANCH  27  28
HETATM   28  C3  UNL     1      -4.340  42.819 -33.931  1.00  0.00    -0.013 C 
HETATM   29  C2  UNL     1      -3.723  41.721 -34.416  1.00  0.00     0.008 C 
HETATM   30  C1  UNL     1      -2.646  40.941 -33.720  1.00  0.00     0.055 C 
BRANCH  29  31
HETATM   31  C30 UNL     1      -4.072  41.185 -35.759  1.00  0.00     0.171 C 
HETATM   32  O2  UNL     1      -3.469  40.300 -36.341  1.00  0.00    -0.646 OA
BRANCH  31  33
HETATM   33  O3  UNL     1      -5.138  41.776 -36.328  1.00  0.00    -0.773 OA
HETATM   34  H46 UNL     1      -5.216  41.320 -37.191  1.00  0.00     0.167 HD
ENDBRANCH  31  33
ENDBRANCH  29  31
ENDBRANCH  27  28
ENDBRANCH  26  27
ENDBRANCH  24  26
ENDBRANCH   1  24
TORSDOF 6
ENDMDL
MODEL 9
REMARK minimizedAffinity -9.10186386
REMARK CNNscore 0.226010889
REMARK CNNaffinity 6.38686037
REMARK  6 active torsions:
REMARK  status: ('A' for Active; 'I' for Inactive)
REMARK    1  A    between atoms: C2_2  and  C30_31 
REMARK    2  A    between atoms: C3_3  and  C4_4 
REMARK    3  A    between atoms: C4_4  and  C5_5 
REMARK    4  A    between atoms: C5_5  and  C6_6 
REMARK    5  A    between atoms: C6_6  and  C8_8 
REMARK    6  A    between atoms: C30_31  and  O3_33 
ROOT
HETATM    1  C8  UNL     1      -1.198  50.954 -23.548  1.00  0.00    -0.002 C 
HETATM    2  C9  UNL     1      -0.865  52.480 -23.613  1.00  0.00     0.007 C 
HETATM    3  C10 UNL     1      -0.556  52.952 -22.176  1.00  0.00     0.015 C 
HETATM    4  C11 UNL     1      -0.339  51.651 -21.387  1.00  0.00    -0.013 C 
HETATM    5  C12 UNL     1       1.129  51.189 -21.690  1.00  0.00     0.021 C 
HETATM    6  C13 UNL     1      -0.432  51.689 -19.857  1.00  0.00    -0.070 C 
HETATM    7  C14 UNL     1       0.191  52.656 -19.156  1.00  0.00    -0.022 C 
HETATM    8  C15 UNL     1       0.480  52.561 -17.690  1.00  0.00     0.034 C 
HETATM    9  C16 UNL     1       0.494  51.089 -17.218  1.00  0.00     0.013 C 
HETATM   10  C17 UNL     1       1.021  50.908 -15.749  1.00  0.00     0.018 C 
HETATM   11  C18 UNL     1       0.390  51.834 -14.696  1.00  0.00     0.023 C 
HETATM   12  C19 UNL     1       2.547  51.180 -15.731  1.00  0.00     0.023 C 
HETATM   13  C20 UNL     1       0.800  49.460 -15.281  1.00  0.00     0.135 C 
HETATM   14  O1  UNL     1       1.619  48.862 -14.580  1.00  0.00    -0.297 OA
HETATM   15  C21 UNL     1      -0.524  48.812 -15.604  1.00  0.00     0.080 C 
HETATM   16  C22 UNL     1      -0.821  48.931 -17.089  1.00  0.00     0.017 C 
HETATM   17  C23 UNL     1      -0.860  50.391 -17.595  1.00  0.00    -0.031 C 
HETATM   18  C24 UNL     1      -2.089  51.100 -16.954  1.00  0.00     0.016 C 
HETATM   19  C25 UNL     1      -1.088  50.474 -19.176  1.00  0.00     0.024 C 
HETATM   20  C26 UNL     1      -0.817  49.195 -19.998  1.00  0.00     0.010 C 
HETATM   21  C27 UNL     1      -1.235  49.294 -21.492  1.00  0.00     0.011 C 
HETATM   22  C28 UNL     1      -1.447  50.735 -22.016  1.00  0.00    -0.029 C 
HETATM   23  C29 UNL     1      -2.904  51.220 -21.708  1.00  0.00     0.016 C 
ENDROOT
BRANCH   1  24
HETATM   24  C6  UNL     1      -2.290  50.544 -24.584  1.00  0.00    -0.014 C 
HETATM   25  C7  UNL     1      -3.559  51.394 -24.441  1.00  0.00     0.010 C 
BRANCH  24  26
HETATM   26  C5  UNL     1      -2.654  49.044 -24.424  1.00  0.00     0.008 C 
BRANCH  26  27
HETATM   27  C4  UNL     1      -4.158  48.801 -24.236  1.00  0.00     0.028 C 
BRANCH  27  28
HETATM   28  C3  UNL     1      -4.816  48.470 -25.547  1.00  0.00    -0.013 C 
HETATM   29  C2  UNL     1      -4.248  48.467 -26.772  1.00  0.00     0.008 C 
HETATM   30  C1  UNL     1      -2.827  48.836 -27.081  1.00  0.00     0.055 C 
BRANCH  29  31
HETATM   31  C30 UNL     1      -5.041  48.093 -27.975  1.00  0.00     0.171 C 
HETATM   32  O2  UNL     1      -4.572  47.784 -29.057  1.00  0.00    -0.646 OA
BRANCH  31  33
HETATM   33  O3  UNL     1      -6.372  48.132 -27.792  1.00  0.00    -0.773 OA
HETATM   34  H46 UNL     1      -6.729  47.876 -28.667  1.00  0.00     0.167 HD
ENDBRANCH  31  33
ENDBRANCH  29  31
ENDBRANCH  27  28
ENDBRANCH  26  27
ENDBRANCH  24  26
ENDBRANCH   1  24
TORSDOF 6
ENDMDL
