MODEL 1
REMARK minimizedAffinity -8.82192135
REMARK CNNscore 0.617189646
REMARK CNNaffinity 6.40475416
REMARK  12 active torsions:
REMARK  status: ('A' for Active; 'I' for Inactive)
REMARK    1  A    between atoms: O1_2  and  C2_3 
REMARK    2  A    between atoms: C4_5  and  O2_6 
REMARK    3  A    between atoms: O2_6  and  C5_7 
REMARK    4  A    between atoms: C8_10  and  C9_11 
REMARK    5  A    between atoms: N1_12  and  C10_14 
REMARK    6  A    between atoms: C10_14  and  C11_15 
REMARK    7  A    between atoms: C11_15  and  C12_16 
REMARK    8  A    between atoms: C12_16  and  O3_17 
REMARK    9  A    between atoms: C18_23  and  C19_24 
REMARK   10  A    between atoms: C25_32  and  O6_33 
REMARK   11  A    between atoms: C29_37  and  O7_38 
REMARK   12  A    between atoms: C33_43  and  O9_44 
ROOT
HETATM    1  C5  UNL     1       7.073  64.433 -35.757  1.00  0.00     0.127 C 
HETATM    2  C6  UNL     1       6.030  64.276 -36.846  1.00  0.00     0.033 C 
HETATM    3  C7  UNL     1       4.655  64.656 -36.338  1.00  0.00     0.021 C 
HETATM    4  C8  UNL     1       4.573  66.050 -35.621  1.00  0.00     0.026 C 
HETATM    5  C13 UNL     1       3.536  66.926 -36.468  1.00  0.00     0.009 C 
HETATM    6  C14 UNL     1       2.072  66.553 -36.210  1.00  0.00     0.007 C 
HETATM    7  C15 UNL     1       1.202  67.207 -37.265  1.00  0.00     0.013 C 
HETATM    8  C16 UNL     1       1.190  68.741 -37.145  1.00  0.00    -0.005 C 
HETATM    9  C17 UNL     1       0.165  69.076 -36.016  1.00  0.00     0.019 C 
HETATM   10  C18 UNL     1       0.680  69.447 -38.467  1.00  0.00     0.028 C 
HETATM   11  C23 UNL     1       1.550  70.709 -38.557  1.00  0.00     0.013 C 
HETATM   12  C24 UNL     1       2.920  70.254 -38.075  1.00  0.00     0.040 C 
HETATM   13  C25 UNL     1       2.611  69.384 -36.840  1.00  0.00     0.070 C 
HETATM   14  C26 UNL     1       3.751  68.440 -36.304  1.00  0.00     0.026 C 
HETATM   15  C27 UNL     1       5.158  68.823 -36.816  1.00  0.00     0.011 C 
HETATM   16  C28 UNL     1       6.193  67.691 -36.719  1.00  0.00     0.039 C 
HETATM   17  C29 UNL     1       5.968  66.789 -35.493  1.00  0.00     0.073 C 
HETATM   18  C30 UNL     1       7.202  65.875 -35.268  1.00  0.00     0.071 C 
ENDROOT
BRANCH   1  19
HETATM   19  O2  UNL     1       8.309  64.004 -36.326  1.00  0.00    -0.356 OA
BRANCH  19  20
HETATM   20  C4  UNL     1       9.128  63.216 -35.464  1.00  0.00     0.263 C 
HETATM   21  C3  UNL     1      10.555  63.729 -35.602  1.00  0.00     0.095 C 
HETATM   22  C2  UNL     1      11.499  63.025 -34.624  1.00  0.00     0.156 C 
HETATM   23  C33 UNL     1      10.945  63.145 -33.188  1.00  0.00     0.175 C 
HETATM   24  C31 UNL     1       9.453  62.736 -33.127  1.00  0.00     0.151 C 
HETATM   25  O8  UNL     1       8.664  63.383 -34.125  1.00  0.00    -0.354 OA
HETATM   26  C32 UNL     1       9.208  61.224 -33.139  1.00  0.00     0.042 C 
BRANCH  22  27
HETATM   27  O1  UNL     1      12.779  63.658 -34.794  1.00  0.00    -0.388 OA
HETATM   28  C1  UNL     1      13.032  64.155 -36.095  1.00  0.00     0.202 C 
ENDBRANCH  22  27
BRANCH  23  29
HETATM   29  O9  UNL     1      11.715  62.391 -32.248  1.00  0.00    -0.390 OA
HETATM   30  H51 UNL     1      11.730  61.447 -32.508  1.00  0.00     0.210 HD
ENDBRANCH  23  29
ENDBRANCH  19  20
ENDBRANCH   1  19
BRANCH  17  31
HETATM   31  O7  UNL     1       5.977  67.733 -34.392  1.00  0.00    -0.389 OA
HETATM   32  H43 UNL     1       5.682  67.237 -33.602  1.00  0.00     0.210 HD
ENDBRANCH  17  31
BRANCH   4  33
HETATM   33  C9  UNL     1       4.009  65.696 -34.234  1.00  0.00     0.068 C 
HETATM   34  N1  UNL     1       4.720  65.104 -33.334  1.00  0.00    -0.401 N 
ATOM     35  H1  UNL     1       5.721  64.943 -33.446  1.00  0.00     0.158 HD
BRANCH  34  36
HETATM   36  C10 UNL     1       3.984  64.681 -32.139  1.00  0.00     0.121 C 
BRANCH  36  37
HETATM   37  C11 UNL     1       3.823  63.162 -32.151  1.00  0.00     0.045 C 
BRANCH  37  38
HETATM   38  C12 UNL     1       4.474  62.536 -33.376  1.00  0.00     0.165 C 
BRANCH  38  39
HETATM   39  O3  UNL     1       5.893  62.485 -33.233  1.00  0.00    -0.401 OA
HETATM   40  H20 UNL     1       6.075  61.983 -32.420  1.00  0.00     0.209 HD
ENDBRANCH  38  39
ENDBRANCH  37  38
ENDBRANCH  36  37
ENDBRANCH  34  36
ENDBRANCH   4  33
BRANCH  13  41
HETATM   41  O6  UNL     1       2.437  70.368 -35.786  1.00  0.00    -0.389 OA
HETATM   42  H37 UNL     1       3.317  70.739 -35.577  1.00  0.00     0.210 HD
ENDBRANCH  13  41
BRANCH  10  43
HETATM   43  C19 UNL     1       0.702  68.663 -39.764  1.00  0.00    -0.045 A 
HETATM   44  C20 UNL     1      -0.371  68.207 -40.420  1.00  0.00     0.087 A 
HETATM   45  C21 UNL     1       0.112  67.491 -41.599  1.00  0.00     0.283 A 
HETATM   46  O4  UNL     1      -0.602  66.938 -42.413  1.00  0.00    -0.260 OA
HETATM   47  O5  UNL     1       1.473  67.532 -41.625  1.00  0.00    -0.314 OA
HETATM   48  C22 UNL     1       1.936  68.295 -40.513  1.00  0.00     0.213 A 
ENDBRANCH  10  43
TORSDOF 12
ENDMDL
MODEL 2
REMARK minimizedAffinity -8.92353535
REMARK CNNscore 0.50356704
REMARK CNNaffinity 7.45916319
REMARK  12 active torsions:
REMARK  status: ('A' for Active; 'I' for Inactive)
REMARK    1  A    between atoms: O1_2  and  C2_3 
REMARK    2  A    between atoms: C4_5  and  O2_6 
REMARK    3  A    between atoms: O2_6  and  C5_7 
REMARK    4  A    between atoms: C8_10  and  C9_11 
REMARK    5  A    between atoms: N1_12  and  C10_14 
REMARK    6  A    between atoms: C10_14  and  C11_15 
REMARK    7  A    between atoms: C11_15  and  C12_16 
REMARK    8  A    between atoms: C12_16  and  O3_17 
REMARK    9  A    between atoms: C18_23  and  C19_24 
REMARK   10  A    between atoms: C25_32  and  O6_33 
REMARK   11  A    between atoms: C29_37  and  O7_38 
REMARK   12  A    between atoms: C33_43  and  O9_44 
ROOT
HETATM    1  C5  UNL     1      -2.707  49.670 -24.552  1.00  0.00     0.127 C 
HETATM    2  C6  UNL     1      -1.868  50.686 -23.803  1.00  0.00     0.033 C 
HETATM    3  C7  UNL     1      -2.589  51.182 -22.568  1.00  0.00     0.021 C 
HETATM    4  C8  UNL     1      -3.150  50.056 -21.630  1.00  0.00     0.026 C 
HETATM    5  C13 UNL     1      -2.432  50.257 -20.215  1.00  0.00     0.009 C 
HETATM    6  C14 UNL     1      -3.010  51.417 -19.397  1.00  0.00     0.007 C 
HETATM    7  C15 UNL     1      -2.079  51.717 -18.239  1.00  0.00     0.013 C 
HETATM    8  C16 UNL     1      -2.031  50.570 -17.216  1.00  0.00    -0.005 C 
HETATM    9  C17 UNL     1      -3.294  50.742 -16.315  1.00  0.00     0.019 C 
HETATM   10  C18 UNL     1      -0.765  50.657 -16.268  1.00  0.00     0.028 C 
HETATM   11  C23 UNL     1      -0.367  49.188 -16.065  1.00  0.00     0.013 C 
HETATM   12  C24 UNL     1      -0.620  48.541 -17.419  1.00  0.00     0.040 C 
HETATM   13  C25 UNL     1      -1.979  49.119 -17.861  1.00  0.00     0.070 C 
HETATM   14  C26 UNL     1      -2.383  48.968 -19.375  1.00  0.00     0.026 C 
HETATM   15  C27 UNL     1      -1.567  47.891 -20.125  1.00  0.00     0.011 C 
HETATM   16  C28 UNL     1      -1.584  48.039 -21.654  1.00  0.00     0.039 C 
HETATM   17  C29 UNL     1      -2.922  48.588 -22.180  1.00  0.00     0.073 C 
HETATM   18  C30 UNL     1      -3.000  48.421 -23.721  1.00  0.00     0.071 C 
ENDROOT
BRANCH   1  19
HETATM   19  O2  UNL     1      -1.959  49.313 -25.712  1.00  0.00    -0.356 OA
BRANCH  19  20
HETATM   20  C4  UNL     1      -1.108  50.340 -26.221  1.00  0.00     0.263 C 
HETATM   21  C3  UNL     1      -2.007  51.443 -26.764  1.00  0.00     0.095 C 
HETATM   22  C2  UNL     1      -1.189  52.652 -27.228  1.00  0.00     0.156 C 
HETATM   23  C33 UNL     1      -0.265  53.124 -26.084  1.00  0.00     0.175 C 
HETATM   24  C31 UNL     1       0.529  51.941 -25.479  1.00  0.00     0.151 C 
HETATM   25  O8  UNL     1      -0.306  50.831 -25.149  1.00  0.00    -0.354 OA
HETATM   26  C32 UNL     1       1.729  51.488 -26.316  1.00  0.00     0.042 C 
BRANCH  22  27
HETATM   27  O1  UNL     1      -2.150  53.642 -27.628  1.00  0.00    -0.388 OA
HETATM   28  C1  UNL     1      -1.780  54.414 -28.756  1.00  0.00     0.202 C 
ENDBRANCH  22  27
BRANCH  23  29
HETATM   29  O9  UNL     1       0.620  54.167 -26.503  1.00  0.00    -0.390 OA
HETATM   30  H51 UNL     1       1.170  53.858 -27.252  1.00  0.00     0.210 HD
ENDBRANCH  23  29
ENDBRANCH  19  20
ENDBRANCH   1  19
BRANCH  17  31
HETATM   31  O7  UNL     1      -3.889  47.654 -21.637  1.00  0.00    -0.389 OA
HETATM   32  H43 UNL     1      -4.771  48.041 -21.807  1.00  0.00     0.210 HD
ENDBRANCH  17  31
BRANCH   4  33
HETATM   33  C9  UNL     1      -4.652  50.386 -21.550  1.00  0.00     0.068 C 
HETATM   34  N1  UNL     1      -5.453  49.750 -20.763  1.00  0.00    -0.401 N 
ATOM     35  H1  UNL     1      -5.123  49.079 -20.071  1.00  0.00     0.158 HD
BRANCH  34  36
HETATM   36  C10 UNL     1      -6.874  50.065 -20.937  1.00  0.00     0.121 C 
BRANCH  36  37
HETATM   37  C11 UNL     1      -7.234  49.996 -22.419  1.00  0.00     0.045 C 
BRANCH  37  38
HETATM   38  C12 UNL     1      -7.691  48.600 -22.823  1.00  0.00     0.165 C 
BRANCH  38  39
HETATM   39  O3  UNL     1      -6.668  47.636 -22.580  1.00  0.00    -0.401 OA
HETATM   40  H20 UNL     1      -6.446  47.694 -21.635  1.00  0.00     0.209 HD
ENDBRANCH  38  39
ENDBRANCH  37  38
ENDBRANCH  36  37
ENDBRANCH  34  36
ENDBRANCH   4  33
BRANCH  13  41
HETATM   41  O6  UNL     1      -2.932  48.282 -17.153  1.00  0.00    -0.389 OA
HETATM   42  H37 UNL     1      -2.923  47.399 -17.573  1.00  0.00     0.210 HD
ENDBRANCH  13  41
BRANCH  10  43
HETATM   43  C19 UNL     1       0.418  51.496 -16.714  1.00  0.00    -0.045 A 
HETATM   44  C20 UNL     1       1.459  51.846 -15.950  1.00  0.00     0.087 A 
HETATM   45  C21 UNL     1       2.345  52.666 -16.774  1.00  0.00     0.283 A 
HETATM   46  O4  UNL     1       3.384  53.164 -16.386  1.00  0.00    -0.260 OA
HETATM   47  O5  UNL     1       1.813  52.793 -18.020  1.00  0.00    -0.314 OA
HETATM   48  C22 UNL     1       0.601  52.043 -18.086  1.00  0.00     0.213 A 
ENDBRANCH  10  43
TORSDOF 12
ENDMDL
MODEL 3
REMARK minimizedAffinity -7.08088827
REMARK CNNscore 0.426318854
REMARK CNNaffinity 6.53764725
REMARK  12 active torsions:
REMARK  status: ('A' for Active; 'I' for Inactive)
REMARK    1  A    between atoms: O1_2  and  C2_3 
REMARK    2  A    between atoms: C4_5  and  O2_6 
REMARK    3  A    between atoms: O2_6  and  C5_7 
REMARK    4  A    between atoms: C8_10  and  C9_11 
REMARK    5  A    between atoms: N1_12  and  C10_14 
REMARK    6  A    between atoms: C10_14  and  C11_15 
REMARK    7  A    between atoms: C11_15  and  C12_16 
REMARK    8  A    between atoms: C12_16  and  O3_17 
REMARK    9  A    between atoms: C18_23  and  C19_24 
REMARK   10  A    between atoms: C25_32  and  O6_33 
REMARK   11  A    between atoms: C29_37  and  O7_38 
REMARK   12  A    between atoms: C33_43  and  O9_44 
ROOT
HETATM    1  C5  UNL     1      -0.516  53.832  -9.567  1.00  0.00     0.127 C 
HETATM    2  C6  UNL     1       0.259  53.954 -10.864  1.00  0.00     0.033 C 
HETATM    3  C7  UNL     1       0.595  52.588 -11.425  1.00  0.00     0.021 C 
HETATM    4  C8  UNL     1      -0.619  51.599 -11.539  1.00  0.00     0.026 C 
HETATM    5  C13 UNL     1      -0.748  51.232 -13.090  1.00  0.00     0.009 C 
HETATM    6  C14 UNL     1       0.299  50.218 -13.565  1.00  0.00     0.007 C 
HETATM    7  C15 UNL     1       0.291  50.174 -15.081  1.00  0.00     0.013 C 
HETATM    8  C16 UNL     1      -1.020  49.598 -15.642  1.00  0.00    -0.005 C 
HETATM    9  C17 UNL     1      -0.887  48.046 -15.544  1.00  0.00     0.019 C 
HETATM   10  C18 UNL     1      -1.232  49.954 -17.171  1.00  0.00     0.028 C 
HETATM   11  C23 UNL     1      -2.746  50.185 -17.278  1.00  0.00     0.013 C 
HETATM   12  C24 UNL     1      -3.111  50.888 -15.979  1.00  0.00     0.040 C 
HETATM   13  C25 UNL     1      -2.329  50.109 -14.901  1.00  0.00     0.070 C 
HETATM   14  C26 UNL     1      -2.165  50.780 -13.486  1.00  0.00     0.026 C 
HETATM   15  C27 UNL     1      -3.167  51.928 -13.230  1.00  0.00     0.011 C 
HETATM   16  C28 UNL     1      -2.745  52.893 -12.110  1.00  0.00     0.039 C 
HETATM   17  C29 UNL     1      -1.979  52.186 -10.978  1.00  0.00     0.073 C 
HETATM   18  C30 UNL     1      -1.858  53.123  -9.748  1.00  0.00     0.071 C 
ENDROOT
BRANCH   1  19
HETATM   19  O2  UNL     1      -0.733  55.165  -9.107  1.00  0.00    -0.356 OA
BRANCH  19  20
HETATM   20  C4  UNL     1       0.041  55.543  -7.970  1.00  0.00     0.263 C 
HETATM   21  C3  UNL     1       1.478  55.727  -8.441  1.00  0.00     0.095 C 
HETATM   22  C2  UNL     1       2.373  56.251  -7.315  1.00  0.00     0.156 C 
HETATM   23  C33 UNL     1       1.758  57.536  -6.718  1.00  0.00     0.175 C 
HETATM   24  C31 UNL     1       0.261  57.336  -6.378  1.00  0.00     0.151 C 
HETATM   25  O8  UNL     1      -0.478  56.770  -7.460  1.00  0.00    -0.354 OA
HETATM   26  C32 UNL     1       0.003  56.561  -5.082  1.00  0.00     0.042 C 
BRANCH  22  27
HETATM   27  O1  UNL     1       3.664  56.462  -7.910  1.00  0.00    -0.388 OA
HETATM   28  C1  UNL     1       3.666  56.548  -9.322  1.00  0.00     0.202 C 
ENDBRANCH  22  27
BRANCH  23  29
HETATM   29  O9  UNL     1       2.480  57.997  -5.573  1.00  0.00    -0.390 OA
HETATM   30  H51 UNL     1       2.497  57.300  -4.885  1.00  0.00     0.210 HD
ENDBRANCH  23  29
ENDBRANCH  19  20
ENDBRANCH   1  19
BRANCH  17  31
HETATM   31  O7  UNL     1      -2.894  51.134 -10.579  1.00  0.00    -0.389 OA
HETATM   32  H43 UNL     1      -2.395  50.553  -9.969  1.00  0.00     0.210 HD
ENDBRANCH  17  31
BRANCH   4  33
HETATM   33  C9  UNL     1      -0.159  50.387 -10.710  1.00  0.00     0.068 C 
HETATM   34  N1  UNL     1      -0.919  49.363 -10.511  1.00  0.00    -0.401 N 
ATOM     35  H1  UNL     1      -1.816  49.248 -10.982  1.00  0.00     0.158 HD
BRANCH  34  36
HETATM   36  C10 UNL     1      -0.400  48.379  -9.558  1.00  0.00     0.121 C 
BRANCH  36  37
HETATM   37  C11 UNL     1      -1.540  47.867  -8.679  1.00  0.00     0.045 C 
BRANCH  37  38
HETATM   38  C12 UNL     1      -2.145  48.982  -7.837  1.00  0.00     0.165 C 
BRANCH  38  39
HETATM   39  O3  UNL     1      -3.568  48.897  -7.821  1.00  0.00    -0.401 OA
HETATM   40  H20 UNL     1      -3.794  48.014  -7.483  1.00  0.00     0.209 HD
ENDBRANCH  38  39
ENDBRANCH  37  38
ENDBRANCH  36  37
ENDBRANCH  34  36
ENDBRANCH   4  33
BRANCH  13  41
HETATM   41  O6  UNL     1      -3.180  48.958 -14.653  1.00  0.00    -0.389 OA
HETATM   42  H37 UNL     1      -3.969  49.269 -14.168  1.00  0.00     0.210 HD
ENDBRANCH  13  41
BRANCH  10  43
HETATM   43  C19 UNL     1      -0.451  51.112 -17.760  1.00  0.00    -0.045 A 
HETATM   44  C20 UNL     1      -0.815  51.841 -18.822  1.00  0.00     0.087 A 
HETATM   45  C21 UNL     1       0.237  52.829 -19.053  1.00  0.00     0.283 A 
HETATM   46  O4  UNL     1       0.230  53.648 -19.951  1.00  0.00    -0.260 OA
HETATM   47  O5  UNL     1       1.217  52.670 -18.121  1.00  0.00    -0.314 OA
HETATM   48  C22 UNL     1       0.843  51.623 -17.228  1.00  0.00     0.213 A 
ENDBRANCH  10  43
TORSDOF 12
ENDMDL
MODEL 4
REMARK minimizedAffinity -7.68455982
REMARK CNNscore 0.357567787
REMARK CNNaffinity 6.44969368
REMARK  12 active torsions:
REMARK  status: ('A' for Active; 'I' for Inactive)
REMARK    1  A    between atoms: O1_2  and  C2_3 
REMARK    2  A    between atoms: C4_5  and  O2_6 
REMARK    3  A    between atoms: O2_6  and  C5_7 
REMARK    4  A    between atoms: C8_10  and  C9_11 
REMARK    5  A    between atoms: N1_12  and  C10_14 
REMARK    6  A    between atoms: C10_14  and  C11_15 
REMARK    7  A    between atoms: C11_15  and  C12_16 
REMARK    8  A    between atoms: C12_16  and  O3_17 
REMARK    9  A    between atoms: C18_23  and  C19_24 
REMARK   10  A    between atoms: C25_32  and  O6_33 
REMARK   11  A    between atoms: C29_37  and  O7_38 
REMARK   12  A    between atoms: C33_43  and  O9_44 
ROOT
HETATM    1  C5  UNL     1      -6.982  48.761 -24.768  1.00  0.00     0.127 C 
HETATM    2  C6  UNL     1      -8.394  49.126 -24.356  1.00  0.00     0.033 C 
HETATM    3  C7  UNL     1      -9.323  49.137 -25.551  1.00  0.00     0.021 C 
HETATM    4  C8  UNL     1      -9.271  47.847 -26.444  1.00  0.00     0.026 C 
HETATM    5  C13 UNL     1     -10.745  47.227 -26.416  1.00  0.00     0.009 C 
HETATM    6  C14 UNL     1     -11.738  47.975 -27.313  1.00  0.00     0.007 C 
HETATM    7  C15 UNL     1     -13.144  47.515 -26.984  1.00  0.00     0.013 C 
HETATM    8  C16 UNL     1     -13.382  46.043 -27.364  1.00  0.00    -0.005 C 
HETATM    9  C17 UNL     1     -13.682  46.037 -28.896  1.00  0.00     0.019 C 
HETATM   10  C18 UNL     1     -14.648  45.427 -26.637  1.00  0.00     0.028 C 
HETATM   11  C23 UNL     1     -14.223  43.982 -26.342  1.00  0.00     0.013 C 
HETATM   12  C24 UNL     1     -12.751  44.093 -25.969  1.00  0.00     0.040 C 
HETATM   13  C25 UNL     1     -12.175  45.073 -27.011  1.00  0.00     0.070 C 
HETATM   14  C26 UNL     1     -10.770  45.717 -26.714  1.00  0.00     0.026 C 
HETATM   15  C27 UNL     1      -9.963  44.962 -25.634  1.00  0.00     0.011 C 
HETATM   16  C28 UNL     1      -8.845  45.794 -24.987  1.00  0.00     0.039 C 
HETATM   17  C29 UNL     1      -8.197  46.782 -25.973  1.00  0.00     0.073 C 
HETATM   18  C30 UNL     1      -6.889  47.359 -25.370  1.00  0.00     0.071 C 
ENDROOT
BRANCH   1  19
HETATM   19  O2  UNL     1      -6.191  48.830 -23.584  1.00  0.00    -0.356 OA
BRANCH  19  20
HETATM   20  C4  UNL     1      -5.384  50.001 -23.465  1.00  0.00     0.263 C 
HETATM   21  C3  UNL     1      -5.129  50.227 -21.981  1.00  0.00     0.095 C 
HETATM   22  C2  UNL     1      -4.169  51.396 -21.750  1.00  0.00     0.156 C 
HETATM   23  C33 UNL     1      -2.876  51.176 -22.564  1.00  0.00     0.175 C 
HETATM   24  C31 UNL     1      -3.193  50.820 -24.037  1.00  0.00     0.151 C 
HETATM   25  O8  UNL     1      -4.156  49.773 -24.154  1.00  0.00    -0.354 OA
HETATM   26  C32 UNL     1      -3.587  52.017 -24.909  1.00  0.00     0.042 C 
BRANCH  22  27
HETATM   27  O1  UNL     1      -3.946  51.444 -20.331  1.00  0.00    -0.388 OA
HETATM   28  C1  UNL     1      -3.872  50.182 -19.694  1.00  0.00     0.202 C 
ENDBRANCH  22  27
BRANCH  23  29
HETATM   29  O9  UNL     1      -1.996  52.302 -22.494  1.00  0.00    -0.390 OA
HETATM   30  H51 UNL     1      -2.451  53.103 -22.826  1.00  0.00     0.210 HD
ENDBRANCH  23  29
ENDBRANCH  19  20
ENDBRANCH   1  19
BRANCH  17  31
HETATM   31  O7  UNL     1      -7.779  45.922 -27.063  1.00  0.00    -0.389 OA
HETATM   32  H43 UNL     1      -7.502  46.515 -27.790  1.00  0.00     0.210 HD
ENDBRANCH  17  31
BRANCH   4  33
HETATM   33  C9  UNL     1      -8.921  48.402 -27.837  1.00  0.00     0.068 C 
HETATM   34  N1  UNL     1      -8.356  47.677 -28.743  1.00  0.00    -0.401 N 
ATOM     35  H1  UNL     1      -8.216  46.673 -28.631  1.00  0.00     0.158 HD
BRANCH  34  36
HETATM   36  C10 UNL     1      -7.932  48.402 -29.944  1.00  0.00     0.121 C 
BRANCH  36  37
HETATM   37  C11 UNL     1      -6.481  48.049 -30.267  1.00  0.00     0.045 C 
BRANCH  37  38
HETATM   38  C12 UNL     1      -5.659  47.837 -29.003  1.00  0.00     0.165 C 
BRANCH  38  39
HETATM   39  O3  UNL     1      -4.969  49.030 -28.635  1.00  0.00    -0.401 OA
HETATM   40  H20 UNL     1      -5.642  49.723 -28.526  1.00  0.00     0.209 HD
ENDBRANCH  38  39
ENDBRANCH  37  38
ENDBRANCH  36  37
ENDBRANCH  34  36
ENDBRANCH   4  33
BRANCH  13  41
HETATM   41  O6  UNL     1     -11.939  44.218 -28.162  1.00  0.00    -0.389 OA
HETATM   42  H37 UNL     1     -11.175  43.645 -27.956  1.00  0.00     0.210 HD
ENDBRANCH  13  41
BRANCH  10  43
HETATM   43  C19 UNL     1     -15.176  46.116 -25.394  1.00  0.00    -0.045 A 
HETATM   44  C20 UNL     1     -14.431  46.648 -24.419  1.00  0.00     0.087 A 
HETATM   45  C21 UNL     1     -15.348  47.182 -23.414  1.00  0.00     0.283 A 
HETATM   46  O4  UNL     1     -15.002  47.727 -22.383  1.00  0.00    -0.260 OA
HETATM   47  O5  UNL     1     -16.631  46.956 -23.808  1.00  0.00    -0.314 OA
HETATM   48  C22 UNL     1     -16.619  46.316 -25.083  1.00  0.00     0.213 A 
ENDBRANCH  10  43
TORSDOF 12
ENDMDL
MODEL 5
REMARK minimizedAffinity -9.42837334
REMARK CNNscore 0.328297973
REMARK CNNaffinity 7.19633722
REMARK  12 active torsions:
REMARK  status: ('A' for Active; 'I' for Inactive)
REMARK    1  A    between atoms: O1_2  and  C2_3 
REMARK    2  A    between atoms: C4_5  and  O2_6 
REMARK    3  A    between atoms: O2_6  and  C5_7 
REMARK    4  A    between atoms: C8_10  and  C9_11 
REMARK    5  A    between atoms: N1_12  and  C10_14 
REMARK    6  A    between atoms: C10_14  and  C11_15 
REMARK    7  A    between atoms: C11_15  and  C12_16 
REMARK    8  A    between atoms: C12_16  and  O3_17 
REMARK    9  A    between atoms: C18_23  and  C19_24 
REMARK   10  A    between atoms: C25_32  and  O6_33 
REMARK   11  A    between atoms: C29_37  and  O7_38 
REMARK   12  A    between atoms: C33_43  and  O9_44 
ROOT
HETATM    1  C5  UNL     1      -3.882  51.211 -25.860  1.00  0.00     0.127 C 
HETATM    2  C6  UNL     1      -3.158  52.120 -24.886  1.00  0.00     0.033 C 
HETATM    3  C7  UNL     1      -3.817  52.090 -23.523  1.00  0.00     0.021 C 
HETATM    4  C8  UNL     1      -4.068  50.656 -22.937  1.00  0.00     0.026 C 
HETATM    5  C13 UNL     1      -3.247  50.586 -21.566  1.00  0.00     0.009 C 
HETATM    6  C14 UNL     1      -3.929  51.327 -20.410  1.00  0.00     0.007 C 
HETATM    7  C15 UNL     1      -2.945  51.466 -19.265  1.00  0.00     0.013 C 
HETATM    8  C16 UNL     1      -2.585  50.109 -18.635  1.00  0.00    -0.005 C 
HETATM    9  C17 UNL     1      -3.754  49.763 -17.660  1.00  0.00     0.019 C 
HETATM   10  C18 UNL     1      -1.260  50.176 -17.772  1.00  0.00     0.028 C 
HETATM   11  C23 UNL     1      -0.591  48.820 -18.037  1.00  0.00     0.013 C 
HETATM   12  C24 UNL     1      -0.870  48.546 -19.508  1.00  0.00     0.040 C 
HETATM   13  C25 UNL     1      -2.350  48.942 -19.687  1.00  0.00     0.070 C 
HETATM   14  C26 UNL     1      -2.882  49.149 -21.154  1.00  0.00     0.026 C 
HETATM   15  C27 UNL     1      -1.975  48.515 -22.232  1.00  0.00     0.011 C 
HETATM   16  C28 UNL     1      -2.183  49.084 -23.644  1.00  0.00     0.039 C 
HETATM   17  C29 UNL     1      -3.646  49.481 -23.912  1.00  0.00     0.073 C 
HETATM   18  C30 UNL     1      -3.859  49.746 -25.426  1.00  0.00     0.071 C 
ENDROOT
BRANCH   1  19
HETATM   19  O2  UNL     1      -3.212  51.355 -27.111  1.00  0.00    -0.356 OA
BRANCH  19  20
HETATM   20  C4  UNL     1      -1.872  51.838 -27.025  1.00  0.00     0.263 C 
HETATM   21  C3  UNL     1      -1.652  52.310 -25.594  1.00  0.00     0.095 C 
HETATM   22  C2  UNL     1      -0.200  52.739 -25.365  1.00  0.00     0.156 C 
HETATM   23  C33 UNL     1       0.752  51.598 -25.784  1.00  0.00     0.175 C 
HETATM   24  C31 UNL     1       0.402  51.065 -27.195  1.00  0.00     0.151 C 
HETATM   25  O8  UNL     1      -0.987  50.765 -27.339  1.00  0.00    -0.354 OA
HETATM   26  C32 UNL     1       0.888  51.949 -28.347  1.00  0.00     0.042 C 
BRANCH  22  27
HETATM   27  O1  UNL     1      -0.108  53.072 -23.970  1.00  0.00    -0.388 OA
HETATM   28  C1  UNL     1      -0.081  51.964 -23.090  1.00  0.00     0.202 C 
ENDBRANCH  22  27
BRANCH  23  29
HETATM   29  O9  UNL     1       2.126  51.991 -25.719  1.00  0.00    -0.390 OA
HETATM   30  H51 UNL     1       2.280  52.766 -26.297  1.00  0.00     0.210 HD
ENDBRANCH  23  29
ENDBRANCH  19  20
ENDBRANCH   1  19
BRANCH  17  31
HETATM   31  O7  UNL     1      -4.369  48.257 -23.625  1.00  0.00    -0.389 OA
HETATM   32  H43 UNL     1      -5.318  48.493 -23.625  1.00  0.00     0.210 HD
ENDBRANCH  17  31
BRANCH   4  33
HETATM   33  C9  UNL     1      -5.586  50.643 -22.685  1.00  0.00     0.068 C 
HETATM   34  N1  UNL     1      -6.215  49.570 -22.339  1.00  0.00    -0.401 N 
ATOM     35  H1  UNL     1      -5.732  48.704 -22.102  1.00  0.00     0.158 HD
BRANCH  34  36
HETATM   36  C10 UNL     1      -7.676  49.688 -22.313  1.00  0.00     0.121 C 
BRANCH  36  37
HETATM   37  C11 UNL     1      -8.295  48.556 -23.129  1.00  0.00     0.045 C 
BRANCH  37  38
HETATM   38  C12 UNL     1      -8.156  48.800 -24.625  1.00  0.00     0.165 C 
BRANCH  38  39
HETATM   39  O3  UNL     1      -9.084  49.787 -25.072  1.00  0.00    -0.401 OA
HETATM   40  H20 UNL     1      -8.915  50.589 -24.548  1.00  0.00     0.209 HD
ENDBRANCH  38  39
ENDBRANCH  37  38
ENDBRANCH  36  37
ENDBRANCH  34  36
ENDBRANCH   4  33
BRANCH  13  41
HETATM   41  O6  UNL     1      -3.058  47.766 -19.213  1.00  0.00    -0.389 OA
HETATM   42  H37 UNL     1      -2.940  47.059 -19.878  1.00  0.00     0.210 HD
ENDBRANCH  13  41
BRANCH  10  43
HETATM   43  C19 UNL     1      -0.298  51.325 -18.006  1.00  0.00    -0.045 A 
HETATM   44  C20 UNL     1      -0.147  51.995 -19.154  1.00  0.00     0.087 A 
HETATM   45  C21 UNL     1       0.895  52.997 -18.938  1.00  0.00     0.283 A 
HETATM   46  O4  UNL     1       1.292  53.774 -19.785  1.00  0.00    -0.260 OA
HETATM   47  O5  UNL     1       1.350  52.905 -17.658  1.00  0.00    -0.314 OA
HETATM   48  C22 UNL     1       0.616  51.891 -16.976  1.00  0.00     0.213 A 
ENDBRANCH  10  43
TORSDOF 12
ENDMDL
MODEL 6
REMARK minimizedAffinity -8.14582157
REMARK CNNscore 0.307822824
REMARK CNNaffinity 6.31418037
REMARK  12 active torsions:
REMARK  status: ('A' for Active; 'I' for Inactive)
REMARK    1  A    between atoms: O1_2  and  C2_3 
REMARK    2  A    between atoms: C4_5  and  O2_6 
REMARK    3  A    between atoms: O2_6  and  C5_7 
REMARK    4  A    between atoms: C8_10  and  C9_11 
REMARK    5  A    between atoms: N1_12  and  C10_14 
REMARK    6  A    between atoms: C10_14  and  C11_15 
REMARK    7  A    between atoms: C11_15  and  C12_16 
REMARK    8  A    between atoms: C12_16  and  O3_17 
REMARK    9  A    between atoms: C18_23  and  C19_24 
REMARK   10  A    between atoms: C25_32  and  O6_33 
REMARK   11  A    between atoms: C29_37  and  O7_38 
REMARK   12  A    between atoms: C33_43  and  O9_44 
ROOT
HETATM    1  C5  UNL     1      -6.957  48.450 -25.009  1.00  0.00     0.127 C 
HETATM    2  C6  UNL     1      -8.332  48.884 -24.540  1.00  0.00     0.033 C 
HETATM    3  C7  UNL     1      -9.309  48.930 -25.695  1.00  0.00     0.021 C 
HETATM    4  C8  UNL     1      -9.356  47.634 -26.580  1.00  0.00     0.026 C 
HETATM    5  C13 UNL     1     -10.854  47.083 -26.484  1.00  0.00     0.009 C 
HETATM    6  C14 UNL     1     -11.849  47.871 -27.344  1.00  0.00     0.007 C 
HETATM    7  C15 UNL     1     -13.260  47.479 -26.951  1.00  0.00     0.013 C 
HETATM    8  C16 UNL     1     -13.582  46.018 -27.310  1.00  0.00    -0.005 C 
HETATM    9  C17 UNL     1     -13.946  46.017 -28.828  1.00  0.00     0.019 C 
HETATM   10  C18 UNL     1     -14.842  45.467 -26.525  1.00  0.00     0.028 C 
HETATM   11  C23 UNL     1     -14.472  44.005 -26.236  1.00  0.00     0.013 C 
HETATM   12  C24 UNL     1     -12.982  44.049 -25.927  1.00  0.00     0.040 C 
HETATM   13  C25 UNL     1     -12.406  44.995 -27.000  1.00  0.00     0.070 C 
HETATM   14  C26 UNL     1     -10.961  45.575 -26.768  1.00  0.00     0.026 C 
HETATM   15  C27 UNL     1     -10.145  44.789 -25.717  1.00  0.00     0.011 C 
HETATM   16  C28 UNL     1      -8.963  45.572 -25.125  1.00  0.00     0.039 C 
HETATM   17  C29 UNL     1      -8.313  46.523 -26.146  1.00  0.00     0.073 C 
HETATM   18  C30 UNL     1      -6.955  47.042 -25.604  1.00  0.00     0.071 C 
ENDROOT
BRANCH   1  19
HETATM   19  O2  UNL     1      -6.114  48.490 -23.860  1.00  0.00    -0.356 OA
BRANCH  19  20
HETATM   20  C4  UNL     1      -5.083  49.476 -23.902  1.00  0.00     0.263 C 
HETATM   21  C3  UNL     1      -4.237  49.194 -25.136  1.00  0.00     0.095 C 
HETATM   22  C2  UNL     1      -3.170  50.272 -25.340  1.00  0.00     0.156 C 
HETATM   23  C33 UNL     1      -3.835  51.665 -25.362  1.00  0.00     0.175 C 
HETATM   24  C31 UNL     1      -4.787  51.852 -24.155  1.00  0.00     0.151 C 
HETATM   25  O8  UNL     1      -5.694  50.761 -23.998  1.00  0.00    -0.354 OA
HETATM   26  C32 UNL     1      -4.081  52.165 -22.833  1.00  0.00     0.042 C 
BRANCH  22  27
HETATM   27  O1  UNL     1      -2.509  49.938 -26.572  1.00  0.00    -0.388 OA
HETATM   28  C1  UNL     1      -3.337  49.957 -27.720  1.00  0.00     0.202 C 
ENDBRANCH  22  27
BRANCH  23  29
HETATM   29  O9  UNL     1      -2.872  52.722 -25.415  1.00  0.00    -0.390 OA
HETATM   30  H51 UNL     1      -2.271  52.666 -24.644  1.00  0.00     0.210 HD
ENDBRANCH  23  29
ENDBRANCH  19  20
ENDBRANCH   1  19
BRANCH  17  31
HETATM   31  O7  UNL     1      -7.982  45.638 -27.245  1.00  0.00    -0.389 OA
HETATM   32  H43 UNL     1      -7.709  46.213 -27.988  1.00  0.00     0.210 HD
ENDBRANCH  17  31
BRANCH   4  33
HETATM   33  C9  UNL     1      -9.040  48.164 -27.990  1.00  0.00     0.068 C 
HETATM   34  N1  UNL     1      -7.833  48.244 -28.439  1.00  0.00    -0.401 N 
ATOM     35  H1  UNL     1      -7.035  47.858 -27.935  1.00  0.00     0.158 HD
BRANCH  34  36
HETATM   36  C10 UNL     1      -7.693  48.932 -29.726  1.00  0.00     0.121 C 
BRANCH  36  37
HETATM   37  C11 UNL     1      -6.809  48.103 -30.654  1.00  0.00     0.045 C 
BRANCH  37  38
HETATM   38  C12 UNL     1      -5.336  48.224 -30.286  1.00  0.00     0.165 C 
BRANCH  38  39
HETATM   39  O3  UNL     1      -4.778  49.434 -30.797  1.00  0.00    -0.401 OA
HETATM   40  H20 UNL     1      -5.311  50.163 -30.437  1.00  0.00     0.209 HD
ENDBRANCH  38  39
ENDBRANCH  37  38
ENDBRANCH  36  37
ENDBRANCH  34  36
ENDBRANCH   4  33
BRANCH  13  41
HETATM   41  O6  UNL     1     -12.260  44.123 -28.153  1.00  0.00    -0.389 OA
HETATM   42  H37 UNL     1     -11.515  43.516 -27.975  1.00  0.00     0.210 HD
ENDBRANCH  13  41
BRANCH  10  43
HETATM   43  C19 UNL     1     -15.284  46.187 -25.266  1.00  0.00    -0.045 A 
HETATM   44  C20 UNL     1     -14.480  46.612 -24.285  1.00  0.00     0.087 A 
HETATM   45  C21 UNL     1     -15.326  47.227 -23.265  1.00  0.00     0.283 A 
HETATM   46  O4  UNL     1     -14.917  47.709 -22.227  1.00  0.00    -0.260 OA
HETATM   47  O5  UNL     1     -16.628  47.156 -23.657  1.00  0.00    -0.314 OA
HETATM   48  C22 UNL     1     -16.694  46.543 -24.942  1.00  0.00     0.213 A 
ENDBRANCH  10  43
TORSDOF 12
ENDMDL
MODEL 7
REMARK minimizedAffinity -7.77594471
REMARK CNNscore 0.304060757
REMARK CNNaffinity 5.62468481
REMARK  12 active torsions:
REMARK  status: ('A' for Active; 'I' for Inactive)
REMARK    1  A    between atoms: O1_2  and  C2_3 
REMARK    2  A    between atoms: C4_5  and  O2_6 
REMARK    3  A    between atoms: O2_6  and  C5_7 
REMARK    4  A    between atoms: C8_10  and  C9_11 
REMARK    5  A    between atoms: N1_12  and  C10_14 
REMARK    6  A    between atoms: C10_14  and  C11_15 
REMARK    7  A    between atoms: C11_15  and  C12_16 
REMARK    8  A    between atoms: C12_16  and  O3_17 
REMARK    9  A    between atoms: C18_23  and  C19_24 
REMARK   10  A    between atoms: C25_32  and  O6_33 
REMARK   11  A    between atoms: C29_37  and  O7_38 
REMARK   12  A    between atoms: C33_43  and  O9_44 
ROOT
HETATM    1  C5  UNL     1       6.261  64.226 -35.163  1.00  0.00     0.127 C 
HETATM    2  C6  UNL     1       6.500  64.220 -36.660  1.00  0.00     0.033 C 
HETATM    3  C7  UNL     1       5.548  65.162 -37.365  1.00  0.00     0.021 C 
HETATM    4  C8  UNL     1       5.488  66.614 -36.772  1.00  0.00     0.026 C 
HETATM    5  C13 UNL     1       5.939  67.596 -37.951  1.00  0.00     0.009 C 
HETATM    6  C14 UNL     1       4.844  67.832 -38.998  1.00  0.00     0.007 C 
HETATM    7  C15 UNL     1       5.457  68.508 -40.209  1.00  0.00     0.013 C 
HETATM    8  C16 UNL     1       5.945  69.934 -39.898  1.00  0.00    -0.005 C 
HETATM    9  C17 UNL     1       4.679  70.846 -39.962  1.00  0.00     0.019 C 
HETATM   10  C18 UNL     1       6.966  70.473 -40.981  1.00  0.00     0.028 C 
HETATM   11  C23 UNL     1       7.966  71.293 -40.153  1.00  0.00     0.013 C 
HETATM   12  C24 UNL     1       8.127  70.497 -38.865  1.00  0.00     0.040 C 
HETATM   13  C25 UNL     1       6.688  70.081 -38.501  1.00  0.00     0.070 C 
HETATM   14  C26 UNL     1       6.502  68.933 -37.439  1.00  0.00     0.026 C 
HETATM   15  C27 UNL     1       7.766  68.672 -36.589  1.00  0.00     0.011 C 
HETATM   16  C28 UNL     1       7.791  67.297 -35.906  1.00  0.00     0.039 C 
HETATM   17  C29 UNL     1       6.390  66.819 -35.486  1.00  0.00     0.073 C 
HETATM   18  C30 UNL     1       6.504  65.598 -34.535  1.00  0.00     0.071 C 
ENDROOT
BRANCH   1  19
HETATM   19  O2  UNL     1       7.170  63.275 -34.612  1.00  0.00    -0.356 OA
BRANCH  19  20
HETATM   20  C4  UNL     1       8.545  63.651 -34.669  1.00  0.00     0.263 C 
HETATM   21  C3  UNL     1       9.185  63.227 -33.354  1.00  0.00     0.095 C 
HETATM   22  C2  UNL     1      10.695  63.478 -33.361  1.00  0.00     0.156 C 
HETATM   23  C33 UNL     1      11.330  62.801 -34.595  1.00  0.00     0.175 C 
HETATM   24  C31 UNL     1      10.562  63.162 -35.890  1.00  0.00     0.151 C 
HETATM   25  O8  UNL     1       9.153  62.969 -35.764  1.00  0.00    -0.354 OA
HETATM   26  C32 UNL     1      10.871  64.556 -36.445  1.00  0.00     0.042 C 
BRANCH  22  27
HETATM   27  O1  UNL     1      11.183  62.958 -32.113  1.00  0.00    -0.388 OA
HETATM   28  C1  UNL     1      10.754  61.645 -31.804  1.00  0.00     0.202 C 
ENDBRANCH  22  27
BRANCH  23  29
HETATM   29  O9  UNL     1      12.719  63.116 -34.727  1.00  0.00    -0.390 OA
HETATM   30  H51 UNL     1      12.838  64.085 -34.797  1.00  0.00     0.210 HD
ENDBRANCH  23  29
ENDBRANCH  19  20
ENDBRANCH   1  19
BRANCH  17  31
HETATM   31  O7  UNL     1       5.911  67.912 -34.662  1.00  0.00    -0.389 OA
HETATM   32  H43 UNL     1       4.964  67.735 -34.495  1.00  0.00     0.210 HD
ENDBRANCH  17  31
BRANCH   4  33
HETATM   33  C9  UNL     1       3.997  66.790 -36.432  1.00  0.00     0.068 C 
HETATM   34  N1  UNL     1       3.210  65.783 -36.255  1.00  0.00    -0.401 N 
ATOM     35  H1  UNL     1       3.550  64.822 -36.217  1.00  0.00     0.158 HD
BRANCH  34  36
HETATM   36  C10 UNL     1       1.791  66.121 -36.115  1.00  0.00     0.121 C 
BRANCH  36  37
HETATM   37  C11 UNL     1       1.426  67.219 -37.112  1.00  0.00     0.045 C 
BRANCH  37  38
HETATM   38  C12 UNL     1       0.453  68.224 -36.511  1.00  0.00     0.165 C 
BRANCH  38  39
HETATM   39  O3  UNL     1      -0.890  67.752 -36.599  1.00  0.00    -0.401 OA
HETATM   40  H20 UNL     1      -0.917  66.893 -36.144  1.00  0.00     0.209 HD
ENDBRANCH  38  39
ENDBRANCH  37  38
ENDBRANCH  36  37
ENDBRANCH  34  36
ENDBRANCH   4  33
BRANCH  13  41
HETATM   41  O6  UNL     1       6.166  71.265 -37.841  1.00  0.00    -0.389 OA
HETATM   42  H37 UNL     1       6.600  71.335 -36.968  1.00  0.00     0.210 HD
ENDBRANCH  13  41
BRANCH  10  43
HETATM   43  C19 UNL     1       7.673  69.472 -41.873  1.00  0.00    -0.045 A 
HETATM   44  C20 UNL     1       7.439  69.285 -43.177  1.00  0.00     0.087 A 
HETATM   45  C21 UNL     1       8.325  68.214 -43.629  1.00  0.00     0.283 A 
HETATM   46  O4  UNL     1       8.362  67.782 -44.764  1.00  0.00    -0.260 OA
HETATM   47  O5  UNL     1       9.074  67.777 -42.580  1.00  0.00    -0.314 OA
HETATM   48  C22 UNL     1       8.755  68.552 -41.426  1.00  0.00     0.213 A 
ENDBRANCH  10  43
TORSDOF 12
ENDMDL
MODEL 8
REMARK minimizedAffinity -8.0311203
REMARK CNNscore 0.290620506
REMARK CNNaffinity 6.32769537
REMARK  12 active torsions:
REMARK  status: ('A' for Active; 'I' for Inactive)
REMARK    1  A    between atoms: O1_2  and  C2_3 
REMARK    2  A    between atoms: C4_5  and  O2_6 
REMARK    3  A    between atoms: O2_6  and  C5_7 
REMARK    4  A    between atoms: C8_10  and  C9_11 
REMARK    5  A    between atoms: N1_12  and  C10_14 
REMARK    6  A    between atoms: C10_14  and  C11_15 
REMARK    7  A    between atoms: C11_15  and  C12_16 
REMARK    8  A    between atoms: C12_16  and  O3_17 
REMARK    9  A    between atoms: C18_23  and  C19_24 
REMARK   10  A    between atoms: C25_32  and  O6_33 
REMARK   11  A    between atoms: C29_37  and  O7_38 
REMARK   12  A    between atoms: C33_43  and  O9_44 
ROOT
HETATM    1  C5  UNL     1      -8.337  48.083 -24.719  1.00  0.00     0.127 C 
HETATM    2  C6  UNL     1      -7.712  47.097 -23.752  1.00  0.00     0.033 C 
HETATM    3  C7  UNL     1      -6.201  47.165 -23.809  1.00  0.00     0.021 C 
HETATM    4  C8  UNL     1      -5.595  48.607 -23.675  1.00  0.00     0.026 C 
HETATM    5  C13 UNL     1      -4.665  48.580 -22.374  1.00  0.00     0.009 C 
HETATM    6  C14 UNL     1      -3.318  47.887 -22.603  1.00  0.00     0.007 C 
HETATM    7  C15 UNL     1      -2.655  47.640 -21.261  1.00  0.00     0.013 C 
HETATM    8  C16 UNL     1      -2.250  48.949 -20.561  1.00  0.00    -0.005 C 
HETATM    9  C17 UNL     1      -0.899  49.385 -21.209  1.00  0.00     0.019 C 
HETATM   10  C18 UNL     1      -1.984  48.749 -19.012  1.00  0.00     0.028 C 
HETATM   11  C23 UNL     1      -2.524  50.043 -18.386  1.00  0.00     0.013 C 
HETATM   12  C24 UNL     1      -3.768  50.363 -19.202  1.00  0.00     0.040 C 
HETATM   13  C25 UNL     1      -3.334  50.106 -20.660  1.00  0.00     0.070 C 
HETATM   14  C26 UNL     1      -4.464  49.972 -21.748  1.00  0.00     0.026 C 
HETATM   15  C27 UNL     1      -5.828  50.538 -21.292  1.00  0.00     0.011 C 
HETATM   16  C28 UNL     1      -7.027  50.012 -22.095  1.00  0.00     0.039 C 
HETATM   17  C29 UNL     1      -6.683  49.754 -23.573  1.00  0.00     0.073 C 
HETATM   18  C30 UNL     1      -7.981  49.533 -24.394  1.00  0.00     0.071 C 
ENDROOT
BRANCH   1  19
HETATM   19  O2  UNL     1      -9.748  47.899 -24.618  1.00  0.00    -0.356 OA
BRANCH  19  20
HETATM   20  C4  UNL     1     -10.445  47.892 -25.863  1.00  0.00     0.263 C 
HETATM   21  C3  UNL     1      -9.398  47.839 -26.968  1.00  0.00     0.095 C 
HETATM   22  C2  UNL     1     -10.048  47.707 -28.348  1.00  0.00     0.156 C 
HETATM   23  C33 UNL     1     -11.007  46.497 -28.357  1.00  0.00     0.175 C 
HETATM   24  C31 UNL     1     -11.964  46.529 -27.141  1.00  0.00     0.151 C 
HETATM   25  O8  UNL     1     -11.277  46.734 -25.907  1.00  0.00    -0.354 OA
HETATM   26  C32 UNL     1     -13.134  47.509 -27.279  1.00  0.00     0.042 C 
BRANCH  22  27
HETATM   27  O1  UNL     1      -8.962  47.579 -29.280  1.00  0.00    -0.388 OA
HETATM   28  C1  UNL     1      -7.682  47.871 -28.751  1.00  0.00     0.202 C 
ENDBRANCH  22  27
BRANCH  23  29
HETATM   29  O9  UNL     1     -11.745  46.404 -29.579  1.00  0.00    -0.390 OA
HETATM   30  H51 UNL     1     -12.262  47.224 -29.721  1.00  0.00     0.210 HD
ENDBRANCH  23  29
ENDBRANCH  19  20
ENDBRANCH   1  19
BRANCH  17  31
HETATM   31  O7  UNL     1      -6.158  51.034 -24.009  1.00  0.00    -0.389 OA
HETATM   32  H43 UNL     1      -5.776  50.885 -24.897  1.00  0.00     0.210 HD
ENDBRANCH  17  31
BRANCH   4  33
HETATM   33  C9  UNL     1      -4.760  48.754 -24.960  1.00  0.00     0.068 C 
HETATM   34  N1  UNL     1      -5.158  48.287 -26.095  1.00  0.00    -0.401 N 
ATOM     35  H1  UNL     1      -6.091  47.899 -26.230  1.00  0.00     0.158 HD
BRANCH  34  36
HETATM   36  C10 UNL     1      -4.171  48.354 -27.176  1.00  0.00     0.121 C 
BRANCH  36  37
HETATM   37  C11 UNL     1      -3.153  49.451 -26.870  1.00  0.00     0.045 C 
BRANCH  37  38
HETATM   38  C12 UNL     1      -3.194  50.562 -27.910  1.00  0.00     0.165 C 
BRANCH  38  39
HETATM   39  O3  UNL     1      -1.956  51.269 -27.954  1.00  0.00    -0.401 OA
HETATM   40  H20 UNL     1      -1.263  50.612 -28.141  1.00  0.00     0.209 HD
ENDBRANCH  38  39
ENDBRANCH  37  38
ENDBRANCH  36  37
ENDBRANCH  34  36
ENDBRANCH   4  33
BRANCH  13  41
HETATM   41  O6  UNL     1      -2.644  51.334 -21.013  1.00  0.00    -0.389 OA
HETATM   42  H37 UNL     1      -3.316  52.038 -21.106  1.00  0.00     0.210 HD
ENDBRANCH  13  41
BRANCH  10  43
HETATM   43  C19 UNL     1      -2.557  47.521 -18.331  1.00  0.00    -0.045 A 
HETATM   44  C20 UNL     1      -2.621  47.319 -17.010  1.00  0.00     0.087 A 
HETATM   45  C21 UNL     1      -3.222  46.004 -16.800  1.00  0.00     0.283 A 
HETATM   46  O4  UNL     1      -3.417  45.499 -15.712  1.00  0.00    -0.260 OA
HETATM   47  O5  UNL     1      -3.505  45.440 -18.007  1.00  0.00    -0.314 OA
HETATM   48  C22 UNL     1      -3.151  46.355 -19.041  1.00  0.00     0.213 A 
ENDBRANCH  10  43
TORSDOF 12
ENDMDL
MODEL 9
REMARK minimizedAffinity -7.0881238
REMARK CNNscore 0.288013369
REMARK CNNaffinity 6.46106195
REMARK  12 active torsions:
REMARK  status: ('A' for Active; 'I' for Inactive)
REMARK    1  A    between atoms: O1_2  and  C2_3 
REMARK    2  A    between atoms: C4_5  and  O2_6 
REMARK    3  A    between atoms: O2_6  and  C5_7 
REMARK    4  A    between atoms: C8_10  and  C9_11 
REMARK    5  A    between atoms: N1_12  and  C10_14 
REMARK    6  A    between atoms: C10_14  and  C11_15 
REMARK    7  A    between atoms: C11_15  and  C12_16 
REMARK    8  A    between atoms: C12_16  and  O3_17 
REMARK    9  A    between atoms: C18_23  and  C19_24 
REMARK   10  A    between atoms: C25_32  and  O6_33 
REMARK   11  A    between atoms: C29_37  and  O7_38 
REMARK   12  A    between atoms: C33_43  and  O9_44 
ROOT
HETATM    1  C5  UNL     1      -2.222  49.938 -18.986  1.00  0.00     0.127 C 
HETATM    2  C6  UNL     1      -3.109  50.541 -17.915  1.00  0.00     0.033 C 
HETATM    3  C7  UNL     1      -3.353  49.553 -16.794  1.00  0.00     0.021 C 
HETATM    4  C8  UNL     1      -2.060  48.887 -16.202  1.00  0.00     0.026 C 
HETATM    5  C13 UNL     1      -2.022  49.290 -14.654  1.00  0.00     0.009 C 
HETATM    6  C14 UNL     1      -2.999  48.483 -13.791  1.00  0.00     0.007 C 
HETATM    7  C15 UNL     1      -3.111  49.138 -12.428  1.00  0.00     0.013 C 
HETATM    8  C16 UNL     1      -1.799  49.053 -11.629  1.00  0.00    -0.005 C 
HETATM    9  C17 UNL     1      -1.770  47.625 -11.000  1.00  0.00     0.019 C 
HETATM   10  C18 UNL     1      -1.749  50.092 -10.436  1.00  0.00     0.028 C 
HETATM   11  C23 UNL     1      -0.279  50.534 -10.407  1.00  0.00     0.013 C 
HETATM   12  C24 UNL     1       0.119  50.604 -11.874  1.00  0.00     0.040 C 
HETATM   13  C25 UNL     1      -0.491  49.328 -12.488  1.00  0.00     0.070 C 
HETATM   14  C26 UNL     1      -0.605  49.250 -14.056  1.00  0.00     0.026 C 
HETATM   15  C27 UNL     1       0.296  50.270 -14.789  1.00  0.00     0.011 C 
HETATM   16  C28 UNL     1      -0.126  50.554 -16.239  1.00  0.00     0.039 C 
HETATM   17  C29 UNL     1      -0.724  49.318 -16.934  1.00  0.00     0.073 C 
HETATM   18  C30 UNL     1      -0.836  49.565 -18.462  1.00  0.00     0.071 C 
ENDROOT
BRANCH   1  19
HETATM   19  O2  UNL     1      -2.101  50.928 -20.006  1.00  0.00    -0.356 OA
BRANCH  19  20
HETATM   20  C4  UNL     1      -0.812  51.530 -20.113  1.00  0.00     0.263 C 
HETATM   21  C3  UNL     1      -0.540  51.758 -21.594  1.00  0.00     0.095 C 
HETATM   22  C2  UNL     1       0.774  52.512 -21.811  1.00  0.00     0.156 C 
HETATM   23  C33 UNL     1       0.768  53.816 -20.985  1.00  0.00     0.175 C 
HETATM   24  C31 UNL     1       0.358  53.548 -19.516  1.00  0.00     0.151 C 
HETATM   25  O8  UNL     1      -0.836  52.772 -19.412  1.00  0.00    -0.354 OA
HETATM   26  C32 UNL     1       1.468  52.953 -18.645  1.00  0.00     0.042 C 
BRANCH  22  27
HETATM   27  O1  UNL     1       0.864  52.738 -23.228  1.00  0.00    -0.388 OA
HETATM   28  C1  UNL     1      -0.235  52.261 -23.981  1.00  0.00     0.202 C 
ENDBRANCH  22  27
BRANCH  23  29
HETATM   29  O9  UNL     1       2.025  54.497 -21.042  1.00  0.00    -0.390 OA
HETATM   30  H51 UNL     1       2.737  53.912 -20.713  1.00  0.00     0.210 HD
ENDBRANCH  23  29
ENDBRANCH  19  20
ENDBRANCH   1  19
BRANCH  17  31
HETATM   31  O7  UNL     1       0.320  48.324 -16.775  1.00  0.00    -0.389 OA
HETATM   32  H43 UNL     1      -0.067  47.471 -17.059  1.00  0.00     0.210 HD
ENDBRANCH  17  31
BRANCH   4  33
HETATM   33  C9  UNL     1      -2.329  47.383 -16.385  1.00  0.00     0.068 C 
HETATM   34  N1  UNL     1      -2.830  46.903 -17.474  1.00  0.00    -0.401 N 
ATOM     35  H1  UNL     1      -2.968  47.470 -18.309  1.00  0.00     0.158 HD
BRANCH  34  36
HETATM   36  C10 UNL     1      -3.186  45.482 -17.420  1.00  0.00     0.121 C 
BRANCH  36  37
HETATM   37  C11 UNL     1      -3.684  45.028 -18.790  1.00  0.00     0.045 C 
BRANCH  37  38
HETATM   38  C12 UNL     1      -3.984  46.212 -19.700  1.00  0.00     0.165 C 
BRANCH  38  39
HETATM   39  O3  UNL     1      -2.886  46.482 -20.568  1.00  0.00    -0.401 OA
HETATM   40  H20 UNL     1      -2.715  45.666 -21.068  1.00  0.00     0.209 HD
ENDBRANCH  38  39
ENDBRANCH  37  38
ENDBRANCH  36  37
ENDBRANCH  34  36
ENDBRANCH   4  33
BRANCH  13  41
HETATM   41  O6  UNL     1       0.486  48.308 -12.150  1.00  0.00    -0.389 OA
HETATM   42  H37 UNL     1       1.278  48.459 -12.704  1.00  0.00     0.210 HD
ENDBRANCH  13  41
BRANCH  10  43
HETATM   43  C19 UNL     1      -2.687  51.283 -10.471  1.00  0.00    -0.045 A 
HETATM   44  C20 UNL     1      -2.324  52.558 -10.647  1.00  0.00     0.087 A 
HETATM   45  C21 UNL     1      -3.539  53.369 -10.590  1.00  0.00     0.283 A 
HETATM   46  O4  UNL     1      -3.568  54.579 -10.700  1.00  0.00    -0.260 OA
HETATM   47  O5  UNL     1      -4.611  52.557 -10.378  1.00  0.00    -0.314 OA
HETATM   48  C22 UNL     1      -4.167  51.203 -10.331  1.00  0.00     0.213 A 
ENDBRANCH  10  43
TORSDOF 12
ENDMDL
