MODEL 1
REMARK minimizedAffinity -7.8592906
REMARK CNNscore 0.617861152
REMARK CNNaffinity 6.75846338
REMARK  4 active torsions:
REMARK  status: ('A' for Active; 'I' for Inactive)
REMARK    1  A    between atoms: C2_2  and  C4_4 
REMARK    2  A    between atoms: C4_4  and  C5_5 
REMARK    3  A    between atoms: C5_5  and  O1_6 
REMARK    4  A    between atoms: C8_9  and  C9_10 
ROOT
HETATM    1  C9  UNL     1      -0.108  11.512  19.057  1.00  0.00     0.001 C 
HETATM    2  C10 UNL     1      -1.110  12.668  19.235  1.00  0.00     0.007 C 
HETATM    3  C11 UNL     1      -1.328  13.275  17.844  1.00  0.00     0.011 C 
HETATM    4  C12 UNL     1      -0.680  12.305  16.828  1.00  0.00    -0.032 C 
HETATM    5  C13 UNL     1      -0.234  13.112  15.581  1.00  0.00     0.016 C 
HETATM    6  C14 UNL     1      -1.695  11.206  16.307  1.00  0.00     0.004 C 
HETATM    7  C15 UNL     1      -2.859  10.745  17.210  1.00  0.00     0.007 C 
HETATM    8  C16 UNL     1      -3.900   9.902  16.439  1.00  0.00     0.007 C 
HETATM    9  C17 UNL     1      -3.436   9.368  15.056  1.00  0.00     0.010 C 
HETATM   10  C18 UNL     1      -4.377   8.281  14.458  1.00  0.00     0.018 C 
HETATM   11  C19 UNL     1      -4.060   8.034  12.970  1.00  0.00     0.023 C 
HETATM   12  C20 UNL     1      -5.854   8.711  14.544  1.00  0.00     0.023 C 
HETATM   13  C21 UNL     1      -4.204   6.957  15.211  1.00  0.00     0.135 C 
HETATM   14  O2  UNL     1      -5.091   6.103  15.236  1.00  0.00    -0.297 OA
HETATM   15  C22 UNL     1      -2.914   6.723  15.958  1.00  0.00     0.080 C 
HETATM   16  C23 UNL     1      -1.751   7.418  15.276  1.00  0.00     0.018 C 
HETATM   17  C24 UNL     1      -1.967   8.917  15.140  1.00  0.00    -0.026 A 
HETATM   18  C25 UNL     1      -0.946   9.676  14.313  1.00  0.00     0.021 A 
HETATM   19  C26 UNL     1      -1.006   9.932  15.797  1.00  0.00    -0.027 A 
HETATM   20  C27 UNL     1       0.105   9.408  16.677  1.00  0.00     0.011 C 
HETATM   21  C28 UNL     1       1.125  10.480  17.015  1.00  0.00     0.011 C 
HETATM   22  C29 UNL     1       0.540  11.752  17.655  1.00  0.00    -0.032 C 
HETATM   23  C30 UNL     1       1.715  12.759  17.737  1.00  0.00     0.016 C 
ENDROOT
BRANCH   1  24
HETATM   24  C8  UNL     1       0.808  11.222  20.280  1.00  0.00     0.014 C 
HETATM   25  C7  UNL     1       1.569  12.508  20.663  1.00  0.00     0.010 C 
HETATM   26  C6  UNL     1       2.697  12.198  21.639  1.00  0.00     0.041 C 
HETATM   27  C4  UNL     1       3.722  11.190  21.052  1.00  0.00     0.085 C 
HETATM   28  O3  UNL     1       3.130  10.477  19.938  1.00  0.00    -0.377 OA
HETATM   29  C31 UNL     1       1.788  10.044  20.149  1.00  0.00     0.174 C 
BRANCH  27  30
HETATM   30  C2  UNL     1       4.200  10.183  22.152  1.00  0.00     0.014 C 
HETATM   31  C1  UNL     1       5.288  10.758  23.070  1.00  0.00     0.012 C 
HETATM   32  C3  UNL     1       3.058   9.621  23.008  1.00  0.00     0.012 C 
ENDBRANCH  27  30
BRANCH  27  33
HETATM   33  C5  UNL     1       4.924  11.950  20.425  1.00  0.00     0.202 C 
BRANCH  33  34
HETATM   34  O1  UNL     1       5.693  11.080  19.591  1.00  0.00    -0.398 OA
HETATM   35  H10 UNL     1       5.839  10.285  20.141  1.00  0.00     0.209 HD
ENDBRANCH  33  34
ENDBRANCH  27  33
ENDBRANCH   1  24
TORSDOF 4
ENDMDL
MODEL 2
REMARK minimizedAffinity -7.35217857
REMARK CNNscore 0.60628897
REMARK CNNaffinity 6.59204435
REMARK  4 active torsions:
REMARK  status: ('A' for Active; 'I' for Inactive)
REMARK    1  A    between atoms: C2_2  and  C4_4 
REMARK    2  A    between atoms: C4_4  and  C5_5 
REMARK    3  A    between atoms: C5_5  and  O1_6 
REMARK    4  A    between atoms: C8_9  and  C9_10 
ROOT
HETATM    1  C9  UNL     1      15.177  -5.580   7.020  1.00  0.00     0.001 C 
HETATM    2  C10 UNL     1      14.990  -7.098   7.199  1.00  0.00     0.007 C 
HETATM    3  C11 UNL     1      13.566  -7.421   6.732  1.00  0.00     0.011 C 
HETATM    4  C12 UNL     1      13.031  -6.153   6.026  1.00  0.00    -0.032 C 
HETATM    5  C13 UNL     1      11.486  -6.121   6.160  1.00  0.00     0.016 C 
HETATM    6  C14 UNL     1      13.343  -6.147   4.472  1.00  0.00     0.004 C 
HETATM    7  C15 UNL     1      14.586  -6.887   3.936  1.00  0.00     0.007 C 
HETATM    8  C16 UNL     1      14.568  -7.022   2.396  1.00  0.00     0.007 C 
HETATM    9  C17 UNL     1      13.551  -6.109   1.658  1.00  0.00     0.010 C 
HETATM   10  C18 UNL     1      13.775  -6.041   0.117  1.00  0.00     0.018 C 
HETATM   11  C19 UNL     1      12.564  -5.404  -0.590  1.00  0.00     0.023 C 
HETATM   12  C20 UNL     1      13.966  -7.448  -0.482  1.00  0.00     0.023 C 
HETATM   13  C21 UNL     1      15.015  -5.198  -0.201  1.00  0.00     0.135 C 
HETATM   14  O2  UNL     1      15.644  -5.338  -1.251  1.00  0.00    -0.297 OA
HETATM   15  C22 UNL     1      15.478  -4.192   0.823  1.00  0.00     0.080 C 
HETATM   16  C23 UNL     1      14.309  -3.636   1.613  1.00  0.00     0.018 C 
HETATM   17  C24 UNL     1      13.518  -4.723   2.325  1.00  0.00    -0.026 A 
HETATM   18  C25 UNL     1      12.225  -4.291   2.993  1.00  0.00     0.021 A 
HETATM   19  C26 UNL     1      13.373  -4.738   3.862  1.00  0.00    -0.027 A 
HETATM   20  C27 UNL     1      14.128  -3.707   4.669  1.00  0.00     0.011 C 
HETATM   21  C28 UNL     1      13.673  -3.663   6.115  1.00  0.00     0.011 C 
HETATM   22  C29 UNL     1      13.730  -5.012   6.855  1.00  0.00    -0.032 C 
HETATM   23  C30 UNL     1      13.056  -4.767   8.228  1.00  0.00     0.016 C 
ENDROOT
BRANCH   1  24
HETATM   24  C8  UNL     1      16.153  -4.900   8.021  1.00  0.00     0.014 C 
HETATM   25  C7  UNL     1      17.562  -5.502   7.849  1.00  0.00     0.010 C 
HETATM   26  C6  UNL     1      18.468  -5.100   9.006  1.00  0.00     0.041 C 
HETATM   27  C4  UNL     1      17.910  -5.566  10.378  1.00  0.00     0.085 C 
HETATM   28  O3  UNL     1      16.497  -5.863  10.262  1.00  0.00    -0.377 OA
HETATM   29  C31 UNL     1      15.746  -4.916   9.505  1.00  0.00     0.174 C 
BRANCH  27  30
HETATM   30  C2  UNL     1      18.150  -4.473  11.474  1.00  0.00     0.014 C 
HETATM   31  C1  UNL     1      18.723  -5.039  12.781  1.00  0.00     0.012 C 
HETATM   32  C3  UNL     1      19.028  -3.309  10.997  1.00  0.00     0.012 C 
ENDBRANCH  27  30
BRANCH  27  33
HETATM   33  C5  UNL     1      18.554  -6.921  10.786  1.00  0.00     0.202 C 
BRANCH  33  34
HETATM   34  O1  UNL     1      19.967  -6.894  10.574  1.00  0.00    -0.398 OA
HETATM   35  H10 UNL     1      20.068  -6.549   9.665  1.00  0.00     0.209 HD
ENDBRANCH  33  34
ENDBRANCH  27  33
ENDBRANCH   1  24
TORSDOF 4
ENDMDL
MODEL 3
REMARK minimizedAffinity -9.40943146
REMARK CNNscore 0.562411904
REMARK CNNaffinity 7.30553579
REMARK  4 active torsions:
REMARK  status: ('A' for Active; 'I' for Inactive)
REMARK    1  A    between atoms: C2_2  and  C4_4 
REMARK    2  A    between atoms: C4_4  and  C5_5 
REMARK    3  A    between atoms: C5_5  and  O1_6 
REMARK    4  A    between atoms: C8_9  and  C9_10 
ROOT
HETATM    1  C9  UNL     1      -2.668   7.403  13.677  1.00  0.00     0.001 C 
HETATM    2  C10 UNL     1      -3.149   8.765  13.142  1.00  0.00     0.007 C 
HETATM    3  C11 UNL     1      -2.018   9.764  13.410  1.00  0.00     0.011 C 
HETATM    4  C12 UNL     1      -0.784   8.936  13.838  1.00  0.00    -0.032 C 
HETATM    5  C13 UNL     1       0.108   9.808  14.760  1.00  0.00     0.016 C 
HETATM    6  C14 UNL     1       0.123   8.519  12.607  1.00  0.00     0.004 C 
HETATM    7  C15 UNL     1      -0.513   8.330  11.214  1.00  0.00     0.007 C 
HETATM    8  C16 UNL     1       0.548   8.216  10.097  1.00  0.00     0.007 C 
HETATM    9  C17 UNL     1       2.000   7.944  10.579  1.00  0.00     0.010 C 
HETATM   10  C18 UNL     1       2.972   7.528   9.434  1.00  0.00     0.018 C 
HETATM   11  C19 UNL     1       4.438   7.594   9.903  1.00  0.00     0.023 C 
HETATM   12  C20 UNL     1       2.839   8.468   8.220  1.00  0.00     0.023 C 
HETATM   13  C21 UNL     1       2.676   6.094   8.982  1.00  0.00     0.135 C 
HETATM   14  O2  UNL     1       2.980   5.691   7.859  1.00  0.00    -0.297 OA
HETATM   15  C22 UNL     1       1.970   5.172   9.945  1.00  0.00     0.080 C 
HETATM   16  C23 UNL     1       2.322   5.506  11.382  1.00  0.00     0.018 C 
HETATM   17  C24 UNL     1       1.979   6.942  11.747  1.00  0.00    -0.026 A 
HETATM   18  C25 UNL     1       2.456   7.428  13.103  1.00  0.00     0.021 A 
HETATM   19  C26 UNL     1       0.975   7.270  12.874  1.00  0.00    -0.027 A 
HETATM   20  C27 UNL     1       0.247   6.128  13.545  1.00  0.00     0.011 C 
HETATM   21  C28 UNL     1      -0.478   6.570  14.803  1.00  0.00     0.011 C 
HETATM   22  C29 UNL     1      -1.459   7.741  14.609  1.00  0.00    -0.032 C 
HETATM   23  C30 UNL     1      -1.930   8.134  16.032  1.00  0.00     0.016 C 
ENDROOT
BRANCH   1  24
HETATM   24  C8  UNL     1      -3.783   6.451  14.192  1.00  0.00     0.014 C 
HETATM   25  C7  UNL     1      -4.276   5.566  13.028  1.00  0.00     0.010 C 
HETATM   26  C6  UNL     1      -5.567   4.849  13.402  1.00  0.00     0.041 C 
HETATM   27  C4  UNL     1      -6.705   5.840  13.768  1.00  0.00     0.085 C 
HETATM   28  O3  UNL     1      -6.146   7.139  14.086  1.00  0.00    -0.377 OA
HETATM   29  C31 UNL     1      -4.979   7.104  14.905  1.00  0.00     0.174 C 
BRANCH  27  30
HETATM   30  C2  UNL     1      -7.546   5.298  14.972  1.00  0.00     0.014 C 
HETATM   31  C1  UNL     1      -7.294   3.814  15.271  1.00  0.00     0.012 C 
HETATM   32  C3  UNL     1      -7.368   6.113  16.260  1.00  0.00     0.012 C 
ENDBRANCH  27  30
BRANCH  27  33
HETATM   33  C5  UNL     1      -7.605   6.104  12.528  1.00  0.00     0.202 C 
BRANCH  33  34
HETATM   34  O1  UNL     1      -8.414   4.962  12.238  1.00  0.00    -0.398 OA
HETATM   35  H10 UNL     1      -7.785   4.213  12.246  1.00  0.00     0.209 HD
ENDBRANCH  33  34
ENDBRANCH  27  33
ENDBRANCH   1  24
TORSDOF 4
ENDMDL
MODEL 4
REMARK minimizedAffinity -6.59275913
REMARK CNNscore 0.453661621
REMARK CNNaffinity 6.55918932
REMARK  4 active torsions:
REMARK  status: ('A' for Active; 'I' for Inactive)
REMARK    1  A    between atoms: C2_2  and  C4_4 
REMARK    2  A    between atoms: C4_4  and  C5_5 
REMARK    3  A    between atoms: C5_5  and  O1_6 
REMARK    4  A    between atoms: C8_9  and  C9_10 
ROOT
HETATM    1  C9  UNL     1     -13.884   7.997  23.537  1.00  0.00     0.001 C 
HETATM    2  C10 UNL     1     -14.688   8.799  24.577  1.00  0.00     0.007 C 
HETATM    3  C11 UNL     1     -16.054   8.115  24.695  1.00  0.00     0.011 C 
HETATM    4  C12 UNL     1     -15.945   6.767  23.944  1.00  0.00    -0.032 C 
HETATM    5  C13 UNL     1     -17.349   6.372  23.416  1.00  0.00     0.016 C 
HETATM    6  C14 UNL     1     -15.475   5.584  24.886  1.00  0.00     0.004 C 
HETATM    7  C15 UNL     1     -14.581   5.883  26.109  1.00  0.00     0.007 C 
HETATM    8  C16 UNL     1     -14.469   4.673  27.063  1.00  0.00     0.007 C 
HETATM    9  C17 UNL     1     -14.935   3.313  26.474  1.00  0.00     0.010 C 
HETATM   10  C18 UNL     1     -14.521   2.083  27.337  1.00  0.00     0.018 C 
HETATM   11  C19 UNL     1     -15.279   0.817  26.894  1.00  0.00     0.023 C 
HETATM   12  C20 UNL     1     -14.846   2.311  28.827  1.00  0.00     0.023 C 
HETATM   13  C21 UNL     1     -13.019   1.818  27.195  1.00  0.00     0.135 C 
HETATM   14  O2  UNL     1     -12.380   1.218  28.060  1.00  0.00    -0.297 OA
HETATM   15  C22 UNL     1     -12.314   2.336  25.966  1.00  0.00     0.080 C 
HETATM   16  C23 UNL     1     -13.244   2.355  24.768  1.00  0.00     0.018 C 
HETATM   17  C24 UNL     1     -14.485   3.200  25.007  1.00  0.00    -0.026 A 
HETATM   18  C25 UNL     1     -15.563   3.139  23.940  1.00  0.00     0.021 A 
HETATM   19  C26 UNL     1     -14.805   4.428  24.127  1.00  0.00    -0.027 A 
HETATM   20  C27 UNL     1     -13.800   4.847  23.080  1.00  0.00     0.011 C 
HETATM   21  C28 UNL     1     -14.367   5.874  22.117  1.00  0.00     0.011 C 
HETATM   22  C29 UNL     1     -14.948   7.135  22.782  1.00  0.00    -0.032 C 
HETATM   23  C30 UNL     1     -15.624   7.938  21.642  1.00  0.00     0.016 C 
ENDROOT
BRANCH   1  24
HETATM   24  C8  UNL     1     -12.844   8.812  22.717  1.00  0.00     0.014 C 
HETATM   25  C7  UNL     1     -11.478   8.759  23.433  1.00  0.00     0.010 C 
HETATM   26  C6  UNL     1     -10.520   9.788  22.845  1.00  0.00     0.041 C 
HETATM   27  C4  UNL     1     -11.068  11.236  22.961  1.00  0.00     0.085 C 
HETATM   28  O3  UNL     1     -12.500  11.205  23.185  1.00  0.00    -0.377 OA
HETATM   29  C31 UNL     1     -13.211  10.267  22.381  1.00  0.00     0.174 C 
BRANCH  27  30
HETATM   30  C2  UNL     1     -10.734  12.060  21.672  1.00  0.00     0.014 C 
HETATM   31  C1  UNL     1      -9.372  12.764  21.737  1.00  0.00     0.012 C 
HETATM   32  C3  UNL     1     -10.822  11.239  20.379  1.00  0.00     0.012 C 
ENDBRANCH  27  30
BRANCH  27  33
HETATM   33  C5  UNL     1     -10.497  11.925  24.233  1.00  0.00     0.202 C 
BRANCH  33  34
HETATM   34  O1  UNL     1     -11.551  12.482  25.022  1.00  0.00    -0.398 OA
HETATM   35  H10 UNL     1     -12.091  12.987  24.382  1.00  0.00     0.209 HD
ENDBRANCH  33  34
ENDBRANCH  27  33
ENDBRANCH   1  24
TORSDOF 4
ENDMDL
MODEL 5
REMARK minimizedAffinity -6.100842
REMARK CNNscore 0.422827065
REMARK CNNaffinity 6.35373926
REMARK  4 active torsions:
REMARK  status: ('A' for Active; 'I' for Inactive)
REMARK    1  A    between atoms: C2_2  and  C4_4 
REMARK    2  A    between atoms: C4_4  and  C5_5 
REMARK    3  A    between atoms: C5_5  and  O1_6 
REMARK    4  A    between atoms: C8_9  and  C9_10 
ROOT
HETATM    1  C9  UNL     1      -0.915  14.797   3.831  1.00  0.00     0.001 C 
HETATM    2  C10 UNL     1      -0.987  13.300   3.482  1.00  0.00     0.007 C 
HETATM    3  C11 UNL     1      -0.768  13.192   1.969  1.00  0.00     0.011 C 
HETATM    4  C12 UNL     1      -0.292  14.584   1.488  1.00  0.00    -0.032 C 
HETATM    5  C13 UNL     1      -0.715  14.773   0.008  1.00  0.00     0.016 C 
HETATM    6  C14 UNL     1       1.285  14.730   1.522  1.00  0.00     0.004 C 
HETATM    7  C15 UNL     1       2.110  13.922   2.545  1.00  0.00     0.007 C 
HETATM    8  C16 UNL     1       3.624  13.965   2.241  1.00  0.00     0.007 C 
HETATM    9  C17 UNL     1       4.074  15.064   1.239  1.00  0.00     0.010 C 
HETATM   10  C18 UNL     1       5.616  15.280   1.197  1.00  0.00     0.018 C 
HETATM   11  C19 UNL     1       6.023  16.124  -0.025  1.00  0.00     0.023 C 
HETATM   12  C20 UNL     1       6.366  13.937   1.095  1.00  0.00     0.023 C 
HETATM   13  C21 UNL     1       6.083  16.009   2.462  1.00  0.00     0.135 C 
HETATM   14  O2  UNL     1       7.240  15.920   2.873  1.00  0.00    -0.297 OA
HETATM   15  C22 UNL     1       5.076  16.835   3.224  1.00  0.00     0.080 C 
HETATM   16  C23 UNL     1       4.034  17.425   2.293  1.00  0.00     0.018 C 
HETATM   17  C24 UNL     1       3.289  16.360   1.503  1.00  0.00    -0.026 A 
HETATM   18  C25 UNL     1       2.354  16.855   0.415  1.00  0.00     0.021 A 
HETATM   19  C26 UNL     1       1.759  16.187   1.629  1.00  0.00    -0.027 A 
HETATM   20  C27 UNL     1       1.018  17.030   2.641  1.00  0.00     0.011 C 
HETATM   21  C28 UNL     1      -0.485  16.961   2.455  1.00  0.00     0.011 C 
HETATM   22  C29 UNL     1      -1.076  15.538   2.464  1.00  0.00    -0.032 C 
HETATM   23  C30 UNL     1      -2.568  15.700   2.077  1.00  0.00     0.016 C 
ENDROOT
BRANCH   1  24
HETATM   24  C8  UNL     1      -1.774  15.247   5.047  1.00  0.00     0.014 C 
HETATM   25  C7  UNL     1      -2.811  16.290   4.580  1.00  0.00     0.010 C 
HETATM   26  C6  UNL     1      -3.455  16.983   5.774  1.00  0.00     0.041 C 
HETATM   27  C4  UNL     1      -2.411  17.708   6.666  1.00  0.00     0.085 C 
HETATM   28  O3  UNL     1      -1.086  17.187   6.399  1.00  0.00    -0.377 OA
HETATM   29  C31 UNL     1      -1.014  15.768   6.279  1.00  0.00     0.174 C 
BRANCH  27  30
HETATM   30  C2  UNL     1      -2.768  17.544   8.182  1.00  0.00     0.014 C 
HETATM   31  C1  UNL     1      -1.672  18.060   9.124  1.00  0.00     0.012 C 
HETATM   32  C3  UNL     1      -4.110  18.179   8.568  1.00  0.00     0.012 C 
ENDBRANCH  27  30
BRANCH  27  33
HETATM   33  C5  UNL     1      -2.318  19.209   6.270  1.00  0.00     0.202 C 
BRANCH  33  34
HETATM   34  O1  UNL     1      -3.425  19.584   5.446  1.00  0.00    -0.398 OA
HETATM   35  H10 UNL     1      -3.460  18.890   4.759  1.00  0.00     0.209 HD
ENDBRANCH  33  34
ENDBRANCH  27  33
ENDBRANCH   1  24
TORSDOF 4
ENDMDL
MODEL 6
REMARK minimizedAffinity -6.5218153
REMARK CNNscore 0.419938505
REMARK CNNaffinity 5.87581444
REMARK  4 active torsions:
REMARK  status: ('A' for Active; 'I' for Inactive)
REMARK    1  A    between atoms: C2_2  and  C4_4 
REMARK    2  A    between atoms: C4_4  and  C5_5 
REMARK    3  A    between atoms: C5_5  and  O1_6 
REMARK    4  A    between atoms: C8_9  and  C9_10 
ROOT
HETATM    1  C9  UNL     1      -4.825 -10.755   6.286  1.00  0.00     0.001 C 
HETATM    2  C10 UNL     1      -3.930  -9.542   5.969  1.00  0.00     0.007 C 
HETATM    3  C11 UNL     1      -3.034  -9.955   4.796  1.00  0.00     0.011 C 
HETATM    4  C12 UNL     1      -3.597 -11.290   4.253  1.00  0.00    -0.032 C 
HETATM    5  C13 UNL     1      -2.439 -12.095   3.608  1.00  0.00     0.016 C 
HETATM    6  C14 UNL     1      -4.678 -11.075   3.115  1.00  0.00     0.004 C 
HETATM    7  C15 UNL     1      -5.535  -9.791   3.102  1.00  0.00     0.007 C 
HETATM    8  C16 UNL     1      -6.312  -9.620   1.778  1.00  0.00     0.007 C 
HETATM    9  C17 UNL     1      -6.395 -10.886   0.883  1.00  0.00     0.010 C 
HETATM   10  C18 UNL     1      -7.434 -10.769  -0.273  1.00  0.00     0.018 C 
HETATM   11  C19 UNL     1      -7.241 -11.896  -1.305  1.00  0.00     0.023 C 
HETATM   12  C20 UNL     1      -7.285  -9.431  -1.024  1.00  0.00     0.023 C 
HETATM   13  C21 UNL     1      -8.859 -10.866   0.283  1.00  0.00     0.135 C 
HETATM   14  O2  UNL     1      -9.823 -10.388  -0.314  1.00  0.00    -0.297 OA
HETATM   15  C22 UNL     1      -9.062 -11.547   1.614  1.00  0.00     0.080 C 
HETATM   16  C23 UNL     1      -8.039 -12.646   1.830  1.00  0.00     0.018 C 
HETATM   17  C24 UNL     1      -6.609 -12.130   1.763  1.00  0.00    -0.026 A 
HETATM   18  C25 UNL     1      -5.511 -13.177   1.786  1.00  0.00     0.021 A 
HETATM   19  C26 UNL     1      -5.652 -12.253   2.969  1.00  0.00    -0.027 A 
HETATM   20  C27 UNL     1      -6.194 -12.802   4.268  1.00  0.00     0.011 C 
HETATM   21  C28 UNL     1      -5.093 -13.128   5.258  1.00  0.00     0.011 C 
HETATM   22  C29 UNL     1      -4.136 -11.962   5.571  1.00  0.00    -0.032 C 
HETATM   23  C30 UNL     1      -3.006 -12.568   6.441  1.00  0.00     0.016 C 
ENDROOT
BRANCH   1  24
HETATM   24  C8  UNL     1      -5.263 -10.898   7.771  1.00  0.00     0.014 C 
HETATM   25  C7  UNL     1      -6.759 -10.542   7.897  1.00  0.00     0.010 C 
HETATM   26  C6  UNL     1      -7.150 -10.364   9.359  1.00  0.00     0.041 C 
HETATM   27  C4  UNL     1      -6.329  -9.245  10.055  1.00  0.00     0.085 C 
HETATM   28  O3  UNL     1      -5.128  -8.966   9.293  1.00  0.00    -0.377 OA
HETATM   29  C31 UNL     1      -4.442 -10.121   8.814  1.00  0.00     0.174 C 
BRANCH  27  30
HETATM   30  C2  UNL     1      -5.962  -9.656  11.521  1.00  0.00     0.014 C 
HETATM   31  C1  UNL     1      -6.695  -8.828  12.586  1.00  0.00     0.012 C 
HETATM   32  C3  UNL     1      -6.167 -11.149  11.808  1.00  0.00     0.012 C 
ENDBRANCH  27  30
BRANCH  27  33
HETATM   33  C5  UNL     1      -7.118  -7.905  10.028  1.00  0.00     0.202 C 
BRANCH  33  34
HETATM   34  O1  UNL     1      -8.493  -8.135   9.709  1.00  0.00    -0.398 OA
HETATM   35  H10 UNL     1      -8.464  -8.711   8.920  1.00  0.00     0.209 HD
ENDBRANCH  33  34
ENDBRANCH  27  33
ENDBRANCH   1  24
TORSDOF 4
ENDMDL
MODEL 7
REMARK minimizedAffinity -6.88132906
REMARK CNNscore 0.381810725
REMARK CNNaffinity 5.90248871
REMARK  4 active torsions:
REMARK  status: ('A' for Active; 'I' for Inactive)
REMARK    1  A    between atoms: C2_2  and  C4_4 
REMARK    2  A    between atoms: C4_4  and  C5_5 
REMARK    3  A    between atoms: C5_5  and  O1_6 
REMARK    4  A    between atoms: C8_9  and  C9_10 
ROOT
HETATM    1  C9  UNL     1      -4.385 -10.029   5.825  1.00  0.00     0.001 C 
HETATM    2  C10 UNL     1      -2.884  -9.980   5.488  1.00  0.00     0.007 C 
HETATM    3  C11 UNL     1      -2.552 -11.296   4.775  1.00  0.00     0.011 C 
HETATM    4  C12 UNL     1      -3.902 -11.978   4.449  1.00  0.00    -0.032 C 
HETATM    5  C13 UNL     1      -3.687 -13.513   4.400  1.00  0.00     0.016 C 
HETATM    6  C14 UNL     1      -4.464 -11.561   3.028  1.00  0.00     0.004 C 
HETATM    7  C15 UNL     1      -4.112 -10.179   2.438  1.00  0.00     0.007 C 
HETATM    8  C16 UNL     1      -4.496 -10.065   0.945  1.00  0.00     0.007 C 
HETATM    9  C17 UNL     1      -5.462 -11.161   0.418  1.00  0.00     0.010 C 
HETATM   10  C18 UNL     1      -6.066 -10.842  -0.982  1.00  0.00     0.018 C 
HETATM   11  C19 UNL     1      -6.739 -12.087  -1.591  1.00  0.00     0.023 C 
HETATM   12  C20 UNL     1      -4.975 -10.384  -1.970  1.00  0.00     0.023 C 
HETATM   13  C21 UNL     1      -7.120  -9.736  -0.865  1.00  0.00     0.135 C 
HETATM   14  O2  UNL     1      -7.420  -9.020  -1.821  1.00  0.00    -0.297 OA
HETATM   15  C22 UNL     1      -7.780  -9.516   0.474  1.00  0.00     0.080 C 
HETATM   16  C23 UNL     1      -7.885 -10.813   1.253  1.00  0.00     0.018 C 
HETATM   17  C24 UNL     1      -6.531 -11.467   1.482  1.00  0.00    -0.026 A 
HETATM   18  C25 UNL     1      -6.544 -12.856   2.092  1.00  0.00     0.021 A 
HETATM   19  C26 UNL     1      -5.987 -11.716   2.905  1.00  0.00    -0.027 A 
HETATM   20  C27 UNL     1      -6.780 -11.197   4.082  1.00  0.00     0.011 C 
HETATM   21  C28 UNL     1      -6.282 -11.755   5.402  1.00  0.00     0.011 C 
HETATM   22  C29 UNL     1      -4.783 -11.533   5.676  1.00  0.00    -0.032 C 
HETATM   23  C30 UNL     1      -4.468 -12.335   6.964  1.00  0.00     0.016 C 
ENDROOT
BRANCH   1  24
HETATM   24  C8  UNL     1      -4.815  -9.251   7.100  1.00  0.00     0.014 C 
HETATM   25  C7  UNL     1      -4.026  -9.786   8.313  1.00  0.00     0.010 C 
HETATM   26  C6  UNL     1      -4.631  -9.281   9.617  1.00  0.00     0.041 C 
HETATM   27  C4  UNL     1      -6.114  -9.708   9.782  1.00  0.00     0.085 C 
HETATM   28  O3  UNL     1      -6.666 -10.084   8.495  1.00  0.00    -0.377 OA
HETATM   29  C31 UNL     1      -6.319  -9.215   7.418  1.00  0.00     0.174 C 
BRANCH  27  30
HETATM   30  C2  UNL     1      -6.957  -8.553  10.420  1.00  0.00     0.014 C 
HETATM   31  C1  UNL     1      -8.466  -8.832  10.425  1.00  0.00     0.012 C 
HETATM   32  C3  UNL     1      -6.506  -8.175  11.836  1.00  0.00     0.012 C 
ENDBRANCH  27  30
BRANCH  27  33
HETATM   33  C5  UNL     1      -6.207 -11.007  10.632  1.00  0.00     0.202 C 
BRANCH  33  34
HETATM   34  O1  UNL     1      -5.174 -11.040  11.619  1.00  0.00    -0.398 OA
HETATM   35  H10 UNL     1      -4.359 -10.828  11.122  1.00  0.00     0.209 HD
ENDBRANCH  33  34
ENDBRANCH  27  33
ENDBRANCH   1  24
TORSDOF 4
ENDMDL
MODEL 8
REMARK minimizedAffinity -7.4040308
REMARK CNNscore 0.37884891
REMARK CNNaffinity 6.50882339
REMARK  4 active torsions:
REMARK  status: ('A' for Active; 'I' for Inactive)
REMARK    1  A    between atoms: C2_2  and  C4_4 
REMARK    2  A    between atoms: C4_4  and  C5_5 
REMARK    3  A    between atoms: C5_5  and  O1_6 
REMARK    4  A    between atoms: C8_9  and  C9_10 
ROOT
HETATM    1  C9  UNL     1     -13.860   6.851  23.474  1.00  0.00     0.001 C 
HETATM    2  C10 UNL     1     -15.102   7.681  23.846  1.00  0.00     0.007 C 
HETATM    3  C11 UNL     1     -16.305   6.736  23.746  1.00  0.00     0.011 C 
HETATM    4  C12 UNL     1     -15.736   5.305  23.594  1.00  0.00    -0.032 C 
HETATM    5  C13 UNL     1     -16.760   4.440  22.813  1.00  0.00     0.016 C 
HETATM    6  C14 UNL     1     -15.520   4.588  24.990  1.00  0.00     0.004 C 
HETATM    7  C15 UNL     1     -15.220   5.429  26.248  1.00  0.00     0.007 C 
HETATM    8  C16 UNL     1     -15.331   4.599  27.547  1.00  0.00     0.007 C 
HETATM    9  C17 UNL     1     -15.349   3.058  27.356  1.00  0.00     0.010 C 
HETATM   10  C18 UNL     1     -15.147   2.261  28.679  1.00  0.00     0.018 C 
HETATM   11  C19 UNL     1     -15.499   0.773  28.488  1.00  0.00     0.023 C 
HETATM   12  C20 UNL     1     -16.052   2.803  29.802  1.00  0.00     0.023 C 
HETATM   13  C21 UNL     1     -13.687   2.353  29.135  1.00  0.00     0.135 C 
HETATM   14  O2  UNL     1     -13.363   2.197  30.313  1.00  0.00    -0.297 OA
HETATM   15  C22 UNL     1     -12.633   2.669  28.103  1.00  0.00     0.080 C 
HETATM   16  C23 UNL     1     -13.017   2.121  26.742  1.00  0.00     0.018 C 
HETATM   17  C24 UNL     1     -14.353   2.660  26.252  1.00  0.00    -0.026 A 
HETATM   18  C25 UNL     1     -14.912   2.036  24.987  1.00  0.00     0.021 A 
HETATM   19  C26 UNL     1     -14.463   3.474  24.945  1.00  0.00    -0.027 A 
HETATM   20  C27 UNL     1     -13.193   3.825  24.204  1.00  0.00     0.011 C 
HETATM   21  C28 UNL     1     -13.470   4.367  22.815  1.00  0.00     0.011 C 
HETATM   22  C29 UNL     1     -14.423   5.576  22.768  1.00  0.00    -0.032 C 
HETATM   23  C30 UNL     1     -14.701   5.833  21.265  1.00  0.00     0.016 C 
ENDROOT
BRANCH   1  24
HETATM   24  C8  UNL     1     -12.699   7.641  22.807  1.00  0.00     0.014 C 
HETATM   25  C7  UNL     1     -11.691   8.079  23.890  1.00  0.00     0.010 C 
HETATM   26  C6  UNL     1     -10.717   9.111  23.336  1.00  0.00     0.041 C 
HETATM   27  C4  UNL     1     -11.440  10.380  22.810  1.00  0.00     0.085 C 
HETATM   28  O3  UNL     1     -12.840  10.089  22.574  1.00  0.00    -0.377 OA
HETATM   29  C31 UNL     1     -13.091   8.842  21.929  1.00  0.00     0.174 C 
BRANCH  27  30
HETATM   30  C2  UNL     1     -10.762  10.902  21.499  1.00  0.00     0.014 C 
HETATM   31  C1  UNL     1     -11.765  11.228  20.384  1.00  0.00     0.012 C 
HETATM   32  C3  UNL     1      -9.841  12.108  21.723  1.00  0.00     0.012 C 
ENDBRANCH  27  30
BRANCH  27  33
HETATM   33  C5  UNL     1     -11.459  11.481  23.909  1.00  0.00     0.202 C 
BRANCH  33  34
HETATM   34  O1  UNL     1     -10.467  11.218  24.904  1.00  0.00    -0.398 OA
HETATM   35  H10 UNL     1     -10.604  10.278  25.139  1.00  0.00     0.209 HD
ENDBRANCH  33  34
ENDBRANCH  27  33
ENDBRANCH   1  24
TORSDOF 4
ENDMDL
MODEL 9
REMARK minimizedAffinity -6.8153677
REMARK CNNscore 0.376378894
REMARK CNNaffinity 6.01216078
REMARK  4 active torsions:
REMARK  status: ('A' for Active; 'I' for Inactive)
REMARK    1  A    between atoms: C2_2  and  C4_4 
REMARK    2  A    between atoms: C4_4  and  C5_5 
REMARK    3  A    between atoms: C5_5  and  O1_6 
REMARK    4  A    between atoms: C8_9  and  C9_10 
ROOT
HETATM    1  C9  UNL     1      -3.269  11.310  -8.369  1.00  0.00     0.001 C 
HETATM    2  C10 UNL     1      -2.272  11.363  -9.542  1.00  0.00     0.007 C 
HETATM    3  C11 UNL     1      -2.206  12.826  -9.993  1.00  0.00     0.011 C 
HETATM    4  C12 UNL     1      -2.939  13.659  -8.915  1.00  0.00    -0.032 C 
HETATM    5  C13 UNL     1      -3.521  14.934  -9.578  1.00  0.00     0.016 C 
HETATM    6  C14 UNL     1      -1.965  14.158  -7.769  1.00  0.00     0.004 C 
HETATM    7  C15 UNL     1      -0.709  13.335  -7.415  1.00  0.00     0.007 C 
HETATM    8  C16 UNL     1       0.261  14.112  -6.497  1.00  0.00     0.007 C 
HETATM    9  C17 UNL     1      -0.333  15.374  -5.813  1.00  0.00     0.010 C 
HETATM   10  C18 UNL     1       0.559  15.944  -4.670  1.00  0.00     0.018 C 
HETATM   11  C19 UNL     1       0.097  17.355  -4.260  1.00  0.00     0.023 C 
HETATM   12  C20 UNL     1       2.031  16.057  -5.113  1.00  0.00     0.023 C 
HETATM   13  C21 UNL     1       0.484  15.037  -3.437  1.00  0.00     0.135 C 
HETATM   14  O2  UNL     1       1.382  15.011  -2.594  1.00  0.00    -0.297 OA
HETATM   15  C22 UNL     1      -0.719  14.141  -3.281  1.00  0.00     0.080 C 
HETATM   16  C23 UNL     1      -1.956  14.772  -3.891  1.00  0.00     0.018 C 
HETATM   17  C24 UNL     1      -1.778  15.091  -5.368  1.00  0.00    -0.026 A 
HETATM   18  C25 UNL     1      -2.890  15.887  -6.027  1.00  0.00     0.021 A 
HETATM   19  C26 UNL     1      -2.683  14.454  -6.445  1.00  0.00    -0.027 A 
HETATM   20  C27 UNL     1      -3.691  13.412  -6.016  1.00  0.00     0.011 C 
HETATM   21  C28 UNL     1      -4.687  13.091  -7.114  1.00  0.00     0.011 C 
HETATM   22  C29 UNL     1      -4.060  12.656  -8.452  1.00  0.00    -0.032 C 
HETATM   23  C30 UNL     1      -5.236  12.564  -9.457  1.00  0.00     0.016 C 
ENDROOT
BRANCH   1  24
HETATM   24  C8  UNL     1      -4.052   9.976  -8.212  1.00  0.00     0.014 C 
HETATM   25  C7  UNL     1      -3.976   9.511  -6.742  1.00  0.00     0.010 C 
HETATM   26  C6  UNL     1      -4.451   8.070  -6.606  1.00  0.00     0.041 C 
HETATM   27  C4  UNL     1      -3.608   7.089  -7.464  1.00  0.00     0.085 C 
HETATM   28  O3  UNL     1      -2.892   7.820  -8.491  1.00  0.00    -0.377 OA
HETATM   29  C31 UNL     1      -3.658   8.825  -9.153  1.00  0.00     0.174 C 
BRANCH  27  30
HETATM   30  C2  UNL     1      -4.520   5.992  -8.110  1.00  0.00     0.014 C 
HETATM   31  C1  UNL     1      -5.157   5.048  -7.081  1.00  0.00     0.012 C 
HETATM   32  C3  UNL     1      -5.614   6.564  -9.021  1.00  0.00     0.012 C 
ENDBRANCH  27  30
BRANCH  27  33
HETATM   33  C5  UNL     1      -2.486   6.448  -6.599  1.00  0.00     0.202 C 
BRANCH  33  34
HETATM   34  O1  UNL     1      -1.294   7.237  -6.652  1.00  0.00    -0.398 OA
HETATM   35  H10 UNL     1      -1.155   7.401  -7.606  1.00  0.00     0.209 HD
ENDBRANCH  33  34
ENDBRANCH  27  33
ENDBRANCH   1  24
TORSDOF 4
ENDMDL
