MODEL 1
REMARK minimizedAffinity -9.08758068
REMARK  4 active torsions:
REMARK  status: ('A' for Active; 'I' for Inactive)
REMARK    1  A    between atoms: C13_15  and  C14_16 
REMARK    2  A    between atoms: C14_16  and  C16_18 
REMARK    3  A    between atoms: C16_18  and  C17_19 
REMARK    4  A    between atoms: C17_19  and  C18_20 
ROOT
HETATM    1  C1  UNL     1      -7.715   6.995  16.663  1.00  0.00     0.047 C 
HETATM    2  C2  UNL     1      -7.077   6.773  15.506  1.00  0.00     0.052 C 
HETATM    3  O1  UNL     1      -7.802   6.983  14.301  1.00  0.00    -0.284 OA
HETATM    4  C3  UNL     1      -7.980   5.980  13.386  1.00  0.00     0.263 C 
HETATM    5  O2  UNL     1      -8.608   6.160  12.347  1.00  0.00    -0.265 OA
HETATM    6  C4  UNL     1      -7.349   4.653  13.720  1.00  0.00     0.112 C 
HETATM    7  C5  UNL     1      -5.851   4.686  13.453  1.00  0.00     0.021 C 
HETATM    8  C6  UNL     1      -5.162   5.946  13.981  1.00  0.00    -0.022 A 
HETATM    9  C7  UNL     1      -4.901   7.040  12.975  1.00  0.00     0.022 A 
HETATM   10  C8  UNL     1      -3.709   6.266  13.519  1.00  0.00    -0.027 A 
HETATM   11  C9  UNL     1      -3.040   5.273  12.558  1.00  0.00     0.011 C 
HETATM   12  C10 UNL     1      -1.635   5.610  12.029  1.00  0.00     0.011 C 
HETATM   13  C11 UNL     1      -0.970   6.822  12.693  1.00  0.00    -0.032 C 
HETATM   14  C12 UNL     1      -1.510   8.096  11.991  1.00  0.00     0.016 C 
HETATM   15  C13 UNL     1       0.595   6.829  12.688  1.00  0.00    -0.002 C 
HETATM   16  C22 UNL     1       0.972   7.645  13.956  1.00  0.00     0.006 C 
HETATM   17  C23 UNL     1      -0.317   7.827  14.776  1.00  0.00     0.011 C 
HETATM   18  C24 UNL     1      -1.283   6.757  14.234  1.00  0.00    -0.032 C 
HETATM   19  C25 UNL     1      -0.894   5.410  14.922  1.00  0.00     0.016 C 
HETATM   20  C26 UNL     1      -2.785   7.066  14.470  1.00  0.00     0.004 C 
HETATM   21  C27 UNL     1      -3.228   6.926  15.932  1.00  0.00     0.007 C 
HETATM   22  C28 UNL     1      -4.687   7.340  16.084  1.00  0.00     0.012 C 
HETATM   23  C29 UNL     1      -5.619   6.325  15.403  1.00  0.00     0.051 C 
ENDROOT
BRANCH  15  24
HETATM   24  C14 UNL     1       1.437   7.196  11.427  1.00  0.00    -0.014 C 
HETATM   25  C15 UNL     1       0.670   7.817  10.253  1.00  0.00     0.010 C 
BRANCH  24  26
HETATM   26  C16 UNL     1       2.319   6.004  10.978  1.00  0.00     0.008 C 
BRANCH  26  27
HETATM   27  C17 UNL     1       3.291   6.301   9.825  1.00  0.00     0.028 C 
BRANCH  27  28
HETATM   28  C18 UNL     1       2.645   6.283   8.466  1.00  0.00    -0.025 C 
HETATM   29  C19 UNL     1       2.531   7.294   7.582  1.00  0.00    -0.091 C 
HETATM   30  C20 UNL     1       1.854   7.074   6.254  1.00  0.00     0.042 C 
HETATM   31  C21 UNL     1       3.030   8.698   7.789  1.00  0.00     0.042 C 
ENDBRANCH  27  28
ENDBRANCH  26  27
ENDBRANCH  24  26
ENDBRANCH  15  24
TORSDOF 4
ENDMDL
MODEL 2
REMARK minimizedAffinity -9.05417919
REMARK  4 active torsions:
REMARK  status: ('A' for Active; 'I' for Inactive)
REMARK    1  A    between atoms: C13_15  and  C14_16 
REMARK    2  A    between atoms: C14_16  and  C16_18 
REMARK    3  A    between atoms: C16_18  and  C17_19 
REMARK    4  A    between atoms: C17_19  and  C18_20 
ROOT
HETATM    1  C1  UNL     1       5.629   6.888  10.828  1.00  0.00     0.047 C 
HETATM    2  C2  UNL     1       4.306   6.806  10.629  1.00  0.00     0.052 C 
HETATM    3  O1  UNL     1       3.844   5.894   9.641  1.00  0.00    -0.284 OA
HETATM    4  C3  UNL     1       3.094   6.312   8.573  1.00  0.00     0.263 C 
HETATM    5  O2  UNL     1       2.696   5.525   7.718  1.00  0.00    -0.265 OA
HETATM    6  C4  UNL     1       2.775   7.783   8.517  1.00  0.00     0.112 C 
HETATM    7  C5  UNL     1       1.657   8.130   9.489  1.00  0.00     0.021 C 
HETATM    8  C6  UNL     1       1.829   7.498  10.872  1.00  0.00    -0.022 A 
HETATM    9  C7  UNL     1       1.046   6.236  11.137  1.00  0.00     0.022 A 
HETATM   10  C8  UNL     1       0.628   7.505  11.864  1.00  0.00    -0.027 A 
HETATM   11  C9  UNL     1      -0.673   8.169  11.392  1.00  0.00     0.011 C 
HETATM   12  C10 UNL     1      -1.895   8.118  12.326  1.00  0.00     0.011 C 
HETATM   13  C11 UNL     1      -1.608   7.577  13.732  1.00  0.00    -0.032 C 
HETATM   14  C12 UNL     1      -1.639   6.027  13.652  1.00  0.00     0.016 C 
HETATM   15  C13 UNL     1      -2.568   8.075  14.863  1.00  0.00    -0.002 C 
HETATM   16  C22 UNL     1      -1.694   8.026  16.147  1.00  0.00     0.006 C 
HETATM   17  C23 UNL     1      -0.242   7.793  15.696  1.00  0.00     0.011 C 
HETATM   18  C24 UNL     1      -0.228   8.168  14.202  1.00  0.00    -0.032 C 
HETATM   19  C25 UNL     1      -0.127   9.724  14.130  1.00  0.00     0.016 C 
HETATM   20  C26 UNL     1       0.919   7.516  13.385  1.00  0.00     0.004 C 
HETATM   21  C27 UNL     1       2.307   8.097  13.687  1.00  0.00     0.007 C 
HETATM   22  C28 UNL     1       3.377   7.335  12.914  1.00  0.00     0.012 C 
HETATM   23  C29 UNL     1       3.270   7.616  11.406  1.00  0.00     0.051 C 
ENDROOT
BRANCH  15  24
HETATM   24  C14 UNL     1      -4.011   7.514  15.059  1.00  0.00    -0.014 C 
HETATM   25  C15 UNL     1      -4.133   6.218  15.871  1.00  0.00     0.010 C 
BRANCH  24  26
HETATM   26  C16 UNL     1      -4.764   7.426  13.708  1.00  0.00     0.008 C 
BRANCH  26  27
HETATM   27  C17 UNL     1      -6.221   6.944  13.798  1.00  0.00     0.028 C 
BRANCH  27  28
HETATM   28  C18 UNL     1      -6.390   5.470  13.547  1.00  0.00    -0.025 C 
HETATM   29  C19 UNL     1      -7.383   4.844  12.885  1.00  0.00    -0.091 C 
HETATM   30  C20 UNL     1      -7.369   3.345  12.729  1.00  0.00     0.042 C 
HETATM   31  C21 UNL     1      -8.572   5.514  12.253  1.00  0.00     0.042 C 
ENDBRANCH  27  28
ENDBRANCH  26  27
ENDBRANCH  24  26
ENDBRANCH  15  24
TORSDOF 4
ENDMDL
MODEL 3
REMARK minimizedAffinity -8.95744514
REMARK  4 active torsions:
REMARK  status: ('A' for Active; 'I' for Inactive)
REMARK    1  A    between atoms: C13_15  and  C14_16 
REMARK    2  A    between atoms: C14_16  and  C16_18 
REMARK    3  A    between atoms: C16_18  and  C17_19 
REMARK    4  A    between atoms: C17_19  and  C18_20 
ROOT
HETATM    1  C1  UNL     1      -7.454   2.643  12.663  1.00  0.00     0.047 C 
HETATM    2  C2  UNL     1      -6.746   3.639  13.214  1.00  0.00     0.052 C 
HETATM    3  O1  UNL     1      -7.146   4.101  14.498  1.00  0.00    -0.284 OA
HETATM    4  C3  UNL     1      -7.499   5.406  14.713  1.00  0.00     0.263 C 
HETATM    5  O2  UNL     1      -7.846   5.806  15.821  1.00  0.00    -0.265 OA
HETATM    6  C4  UNL     1      -7.421   6.324  13.521  1.00  0.00     0.112 C 
HETATM    7  C5  UNL     1      -5.979   6.719  13.237  1.00  0.00     0.021 C 
HETATM    8  C6  UNL     1      -5.001   5.543  13.286  1.00  0.00    -0.022 A 
HETATM    9  C7  UNL     1      -4.220   5.372  14.566  1.00  0.00     0.022 A 
HETATM   10  C8  UNL     1      -3.471   5.831  13.324  1.00  0.00    -0.027 A 
HETATM   11  C9  UNL     1      -3.028   7.300  13.294  1.00  0.00     0.011 C 
HETATM   12  C10 UNL     1      -1.525   7.609  13.409  1.00  0.00     0.011 C 
HETATM   13  C11 UNL     1      -0.609   6.382  13.335  1.00  0.00    -0.032 C 
HETATM   14  C12 UNL     1      -0.559   5.749  14.751  1.00  0.00     0.016 C 
HETATM   15  C13 UNL     1       0.843   6.646  12.814  1.00  0.00    -0.002 C 
HETATM   16  C22 UNL     1       1.259   5.299  12.159  1.00  0.00     0.006 C 
HETATM   17  C23 UNL     1      -0.009   4.432  12.065  1.00  0.00     0.011 C 
HETATM   18  C24 UNL     1      -1.177   5.424  12.224  1.00  0.00    -0.032 C 
HETATM   19  C25 UNL     1      -1.388   6.096  10.830  1.00  0.00     0.016 C 
HETATM   20  C26 UNL     1      -2.502   4.786  12.718  1.00  0.00     0.004 C 
HETATM   21  C27 UNL     1      -3.202   3.912  11.670  1.00  0.00     0.007 C 
HETATM   22  C28 UNL     1      -4.437   3.253  12.272  1.00  0.00     0.012 C 
HETATM   23  C29 UNL     1      -5.532   4.294  12.556  1.00  0.00     0.051 C 
ENDROOT
BRANCH  15  24
HETATM   24  C14 UNL     1       1.957   7.289  13.698  1.00  0.00    -0.014 C 
HETATM   25  C15 UNL     1       1.483   8.212  14.827  1.00  0.00     0.010 C 
BRANCH  24  26
HETATM   26  C16 UNL     1       3.048   7.955  12.822  1.00  0.00     0.008 C 
BRANCH  26  27
HETATM   27  C17 UNL     1       3.448   7.173  11.561  1.00  0.00     0.028 C 
BRANCH  27  28
HETATM   28  C18 UNL     1       3.261   7.943  10.283  1.00  0.00    -0.025 C 
HETATM   29  C19 UNL     1       3.002   7.465   9.050  1.00  0.00    -0.091 C 
HETATM   30  C20 UNL     1       2.835   8.407   7.885  1.00  0.00     0.042 C 
HETATM   31  C21 UNL     1       2.856   6.012   8.687  1.00  0.00     0.042 C 
ENDBRANCH  27  28
ENDBRANCH  26  27
ENDBRANCH  24  26
ENDBRANCH  15  24
TORSDOF 4
ENDMDL
MODEL 4
REMARK minimizedAffinity -8.81161213
REMARK  4 active torsions:
REMARK  status: ('A' for Active; 'I' for Inactive)
REMARK    1  A    between atoms: C13_15  and  C14_16 
REMARK    2  A    between atoms: C14_16  and  C16_18 
REMARK    3  A    between atoms: C16_18  and  C17_19 
REMARK    4  A    between atoms: C17_19  and  C18_20 
ROOT
HETATM    1  C1  UNL     1       3.505   4.566   9.274  1.00  0.00     0.047 C 
HETATM    2  C2  UNL     1       2.842   5.688   9.583  1.00  0.00     0.052 C 
HETATM    3  O1  UNL     1       2.642   6.642   8.547  1.00  0.00    -0.284 OA
HETATM    4  C3  UNL     1       3.106   7.926   8.654  1.00  0.00     0.263 C 
HETATM    5  O2  UNL     1       2.935   8.750   7.759  1.00  0.00    -0.265 OA
HETATM    6  C4  UNL     1       3.820   8.273   9.935  1.00  0.00     0.112 C 
HETATM    7  C5  UNL     1       2.824   8.495  11.064  1.00  0.00     0.021 C 
HETATM    8  C6  UNL     1       1.729   7.429  11.135  1.00  0.00    -0.022 A 
HETATM    9  C7  UNL     1       0.402   7.786  10.510  1.00  0.00     0.022 A 
HETATM   10  C8  UNL     1       0.478   7.684  12.027  1.00  0.00    -0.027 A 
HETATM   11  C9  UNL     1       0.425   9.005  12.806  1.00  0.00     0.011 C 
HETATM   12  C10 UNL     1      -0.837   9.311  13.632  1.00  0.00     0.011 C 
HETATM   13  C11 UNL     1      -1.830   8.148  13.745  1.00  0.00    -0.032 C 
HETATM   14  C12 UNL     1      -2.702   8.150  12.462  1.00  0.00     0.016 C 
HETATM   15  C13 UNL     1      -2.744   8.154  15.015  1.00  0.00    -0.002 C 
HETATM   16  C22 UNL     1      -3.051   6.650  15.265  1.00  0.00     0.006 C 
HETATM   17  C23 UNL     1      -2.114   5.841  14.352  1.00  0.00     0.011 C 
HETATM   18  C24 UNL     1      -1.000   6.828  13.955  1.00  0.00    -0.032 C 
HETATM   19  C25 UNL     1       0.006   6.873  15.149  1.00  0.00     0.016 C 
HETATM   20  C26 UNL     1      -0.258   6.468  12.641  1.00  0.00     0.004 C 
HETATM   21  C27 UNL     1       0.669   5.252  12.761  1.00  0.00     0.007 C 
HETATM   22  C28 UNL     1       1.277   4.916  11.405  1.00  0.00     0.012 C 
HETATM   23  C29 UNL     1       2.278   5.999  10.969  1.00  0.00     0.051 C 
ENDROOT
BRANCH  15  24
HETATM   24  C14 UNL     1      -3.987   9.086  15.162  1.00  0.00    -0.014 C 
HETATM   25  C15 UNL     1      -3.885  10.196  16.215  1.00  0.00     0.010 C 
BRANCH  24  26
HETATM   26  C16 UNL     1      -5.288   8.260  15.312  1.00  0.00     0.008 C 
BRANCH  26  27
HETATM   27  C17 UNL     1      -5.856   7.683  14.005  1.00  0.00     0.028 C 
BRANCH  27  28
HETATM   28  C18 UNL     1      -6.658   6.425  14.194  1.00  0.00    -0.025 C 
HETATM   29  C19 UNL     1      -6.414   5.196  13.697  1.00  0.00    -0.091 C 
HETATM   30  C20 UNL     1      -7.338   4.048  14.011  1.00  0.00     0.042 C 
HETATM   31  C21 UNL     1      -5.257   4.825  12.810  1.00  0.00     0.042 C 
ENDBRANCH  27  28
ENDBRANCH  26  27
ENDBRANCH  24  26
ENDBRANCH  15  24
TORSDOF 4
ENDMDL
MODEL 5
REMARK minimizedAffinity -8.69495583
REMARK  4 active torsions:
REMARK  status: ('A' for Active; 'I' for Inactive)
REMARK    1  A    between atoms: C13_15  and  C14_16 
REMARK    2  A    between atoms: C14_16  and  C16_18 
REMARK    3  A    between atoms: C16_18  and  C17_19 
REMARK    4  A    between atoms: C17_19  and  C18_20 
ROOT
HETATM    1  C1  UNL     1      -4.920   4.536  13.241  1.00  0.00     0.047 C 
HETATM    2  C2  UNL     1      -4.044   5.529  13.446  1.00  0.00     0.052 C 
HETATM    3  O1  UNL     1      -4.139   6.252  14.667  1.00  0.00    -0.284 OA
HETATM    4  C3  UNL     1      -4.345   7.605  14.686  1.00  0.00     0.263 C 
HETATM    5  O2  UNL     1      -4.429   8.229  15.740  1.00  0.00    -0.265 OA
HETATM    6  C4  UNL     1      -4.445   8.284  13.345  1.00  0.00     0.112 C 
HETATM    7  C5  UNL     1      -3.065   8.462  12.726  1.00  0.00     0.021 C 
HETATM    8  C6  UNL     1      -2.186   7.213  12.820  1.00  0.00    -0.022 A 
HETATM    9  C7  UNL     1      -1.176   7.185  13.941  1.00  0.00     0.022 A 
HETATM   10  C8  UNL     1      -0.663   7.333  12.516  1.00  0.00    -0.027 A 
HETATM   11  C9  UNL     1      -0.130   8.717  12.119  1.00  0.00     0.011 C 
HETATM   12  C10 UNL     1       1.384   8.873  11.890  1.00  0.00     0.011 C 
HETATM   13  C11 UNL     1       2.174   7.559  11.887  1.00  0.00    -0.032 C 
HETATM   14  C12 UNL     1       2.464   7.184  13.365  1.00  0.00     0.016 C 
HETATM   15  C13 UNL     1       3.504   7.566  11.064  1.00  0.00    -0.002 C 
HETATM   16  C22 UNL     1       3.679   6.087  10.618  1.00  0.00     0.006 C 
HETATM   17  C23 UNL     1       2.359   5.362  10.931  1.00  0.00     0.011 C 
HETATM   18  C24 UNL     1       1.323   6.489  11.109  1.00  0.00    -0.032 C 
HETATM   19  C25 UNL     1       0.882   6.924   9.675  1.00  0.00     0.016 C 
HETATM   20  C26 UNL     1       0.083   6.098  11.956  1.00  0.00     0.004 C 
HETATM   21  C27 UNL     1      -0.878   5.135  11.246  1.00  0.00     0.007 C 
HETATM   22  C28 UNL     1      -2.009   4.732  12.184  1.00  0.00     0.012 C 
HETATM   23  C29 UNL     1      -2.944   5.921  12.459  1.00  0.00     0.051 C 
ENDROOT
BRANCH  15  24
HETATM   24  C14 UNL     1       4.819   8.228  11.582  1.00  0.00    -0.014 C 
HETATM   25  C15 UNL     1       5.521   9.193  10.619  1.00  0.00     0.010 C 
BRANCH  24  26
HETATM   26  C16 UNL     1       5.792   7.166  12.152  1.00  0.00     0.008 C 
BRANCH  26  27
HETATM   27  C17 UNL     1       6.500   7.557  13.460  1.00  0.00     0.028 C 
BRANCH  27  28
HETATM   28  C18 UNL     1       7.987   7.733  13.317  1.00  0.00    -0.025 C 
HETATM   29  C19 UNL     1       8.900   7.943  14.286  1.00  0.00    -0.091 C 
HETATM   30  C20 UNL     1      10.360   8.083  13.941  1.00  0.00     0.042 C 
HETATM   31  C21 UNL     1       8.604   8.063  15.756  1.00  0.00     0.042 C 
ENDBRANCH  27  28
ENDBRANCH  26  27
ENDBRANCH  24  26
ENDBRANCH  15  24
TORSDOF 4
ENDMDL
MODEL 6
REMARK minimizedAffinity -8.48074245
REMARK  4 active torsions:
REMARK  status: ('A' for Active; 'I' for Inactive)
REMARK    1  A    between atoms: C13_15  and  C14_16 
REMARK    2  A    between atoms: C14_16  and  C16_18 
REMARK    3  A    between atoms: C16_18  and  C17_19 
REMARK    4  A    between atoms: C17_19  and  C18_20 
ROOT
HETATM    1  C1  UNL     1      -7.294   2.608  12.876  1.00  0.00     0.047 C 
HETATM    2  C2  UNL     1      -6.725   3.715  13.373  1.00  0.00     0.052 C 
HETATM    3  O1  UNL     1      -7.294   4.277  14.549  1.00  0.00    -0.284 OA
HETATM    4  C3  UNL     1      -7.765   5.563  14.574  1.00  0.00     0.263 C 
HETATM    5  O2  UNL     1      -8.257   6.049  15.588  1.00  0.00    -0.265 OA
HETATM    6  C4  UNL     1      -7.629   6.349  13.295  1.00  0.00     0.112 C 
HETATM    7  C5  UNL     1      -6.198   6.833  13.110  1.00  0.00     0.021 C 
HETATM    8  C6  UNL     1      -5.145   5.760  13.392  1.00  0.00    -0.022 A 
HETATM    9  C7  UNL     1      -4.496   5.797  14.754  1.00  0.00     0.022 A 
HETATM   10  C8  UNL     1      -3.654   6.181  13.546  1.00  0.00    -0.027 A 
HETATM   11  C9  UNL     1      -3.322   7.671  13.387  1.00  0.00     0.011 C 
HETATM   12  C10 UNL     1      -1.867   8.119  13.611  1.00  0.00     0.011 C 
HETATM   13  C11 UNL     1      -0.859   6.975  13.772  1.00  0.00    -0.032 C 
HETATM   14  C12 UNL     1      -0.914   6.507  15.251  1.00  0.00     0.016 C 
HETATM   15  C13 UNL     1       0.616   7.306  13.369  1.00  0.00    -0.002 C 
HETATM   16  C22 UNL     1       1.200   5.936  12.920  1.00  0.00     0.006 C 
HETATM   17  C23 UNL     1       0.018   4.958  12.804  1.00  0.00     0.011 C 
HETATM   18  C24 UNL     1      -1.231   5.857  12.731  1.00  0.00    -0.032 C 
HETATM   19  C25 UNL     1      -1.342   6.352  11.253  1.00  0.00     0.016 C 
HETATM   20  C26 UNL     1      -2.550   5.164  13.165  1.00  0.00     0.004 C 
HETATM   21  C27 UNL     1      -3.067   4.124  12.162  1.00  0.00     0.007 C 
HETATM   22  C28 UNL     1      -4.306   3.429  12.714  1.00  0.00     0.012 C 
HETATM   23  C29 UNL     1      -5.500   4.397  12.765  1.00  0.00     0.051 C 
ENDROOT
BRANCH  15  24
HETATM   24  C14 UNL     1       1.578   8.136  14.275  1.00  0.00    -0.014 C 
HETATM   25  C15 UNL     1       1.407   9.659  14.235  1.00  0.00     0.010 C 
BRANCH  24  26
HETATM   26  C16 UNL     1       3.052   7.711  14.061  1.00  0.00     0.008 C 
BRANCH  26  27
HETATM   27  C17 UNL     1       3.723   8.278  12.800  1.00  0.00     0.028 C 
BRANCH  27  28
HETATM   28  C18 UNL     1       4.991   7.567  12.413  1.00  0.00    -0.025 C 
HETATM   29  C19 UNL     1       5.174   6.656  11.436  1.00  0.00    -0.091 C 
HETATM   30  C20 UNL     1       6.537   6.060  11.194  1.00  0.00     0.042 C 
HETATM   31  C21 UNL     1       4.106   6.138  10.512  1.00  0.00     0.042 C 
ENDBRANCH  27  28
ENDBRANCH  26  27
ENDBRANCH  24  26
ENDBRANCH  15  24
TORSDOF 4
ENDMDL
MODEL 7
REMARK minimizedAffinity -8.47836971
REMARK  4 active torsions:
REMARK  status: ('A' for Active; 'I' for Inactive)
REMARK    1  A    between atoms: C13_15  and  C14_16 
REMARK    2  A    between atoms: C14_16  and  C16_18 
REMARK    3  A    between atoms: C16_18  and  C17_19 
REMARK    4  A    between atoms: C17_19  and  C18_20 
ROOT
HETATM    1  C1  UNL     1       3.906   5.717  10.258  1.00  0.00     0.047 C 
HETATM    2  C2  UNL     1       3.185   6.564  11.005  1.00  0.00     0.052 C 
HETATM    3  O1  UNL     1       3.504   7.948  10.928  1.00  0.00    -0.284 OA
HETATM    4  C3  UNL     1       3.873   8.663  12.036  1.00  0.00     0.263 C 
HETATM    5  O2  UNL     1       4.150   9.857  11.969  1.00  0.00    -0.265 OA
HETATM    6  C4  UNL     1       3.903   7.907  13.338  1.00  0.00     0.112 C 
HETATM    7  C5  UNL     1       2.495   7.713  13.882  1.00  0.00     0.021 C 
HETATM    8  C6  UNL     1       1.487   7.256  12.826  1.00  0.00    -0.022 A 
HETATM    9  C7  UNL     1       0.613   8.329  12.223  1.00  0.00     0.022 A 
HETATM   10  C8  UNL     1      -0.034   7.314  13.154  1.00  0.00    -0.027 A 
HETATM   11  C9  UNL     1      -0.437   7.820  14.546  1.00  0.00     0.011 C 
HETATM   12  C10 UNL     1      -1.937   7.958  14.863  1.00  0.00     0.011 C 
HETATM   13  C11 UNL     1      -2.876   7.372  13.801  1.00  0.00    -0.032 C 
HETATM   14  C12 UNL     1      -3.041   8.436  12.684  1.00  0.00     0.016 C 
HETATM   15  C13 UNL     1      -4.280   6.910  14.315  1.00  0.00    -0.002 C 
HETATM   16  C22 UNL     1      -4.681   5.769  13.337  1.00  0.00     0.006 C 
HETATM   17  C23 UNL     1      -3.431   5.424  12.509  1.00  0.00     0.011 C 
HETATM   18  C24 UNL     1      -2.254   6.014  13.308  1.00  0.00    -0.032 C 
HETATM   19  C25 UNL     1      -1.927   4.995  14.445  1.00  0.00     0.016 C 
HETATM   20  C26 UNL     1      -0.983   6.303  12.465  1.00  0.00     0.004 C 
HETATM   21  C27 UNL     1      -0.232   5.042  12.018  1.00  0.00     0.007 C 
HETATM   22  C28 UNL     1       0.940   5.417  11.119  1.00  0.00     0.012 C 
HETATM   23  C29 UNL     1       2.038   6.138  11.920  1.00  0.00     0.051 C 
ENDROOT
BRANCH  15  24
HETATM   24  C14 UNL     1      -5.438   7.907  14.631  1.00  0.00    -0.014 C 
HETATM   25  C15 UNL     1      -5.022   9.324  15.045  1.00  0.00     0.010 C 
BRANCH  24  26
HETATM   26  C16 UNL     1      -6.453   7.286  15.623  1.00  0.00     0.008 C 
BRANCH  26  27
HETATM   27  C17 UNL     1      -7.226   6.067  15.096  1.00  0.00     0.028 C 
BRANCH  27  28
HETATM   28  C18 UNL     1      -7.966   6.324  13.812  1.00  0.00    -0.025 C 
HETATM   29  C19 UNL     1      -8.258   5.452  12.827  1.00  0.00    -0.091 C 
HETATM   30  C20 UNL     1      -9.026   5.903  11.611  1.00  0.00     0.042 C 
HETATM   31  C21 UNL     1      -7.879   3.997  12.806  1.00  0.00     0.042 C 
ENDBRANCH  27  28
ENDBRANCH  26  27
ENDBRANCH  24  26
ENDBRANCH  15  24
TORSDOF 4
ENDMDL
MODEL 8
REMARK minimizedAffinity -8.31544876
REMARK  4 active torsions:
REMARK  status: ('A' for Active; 'I' for Inactive)
REMARK    1  A    between atoms: C13_15  and  C14_16 
REMARK    2  A    between atoms: C14_16  and  C16_18 
REMARK    3  A    between atoms: C16_18  and  C17_19 
REMARK    4  A    between atoms: C17_19  and  C18_20 
ROOT
HETATM    1  C1  UNL     1      -6.717   3.199  12.687  1.00  0.00     0.047 C 
HETATM    2  C2  UNL     1      -6.199   4.241  13.351  1.00  0.00     0.052 C 
HETATM    3  O1  UNL     1      -6.811   4.610  14.581  1.00  0.00    -0.284 OA
HETATM    4  C3  UNL     1      -7.328   5.863  14.777  1.00  0.00     0.263 C 
HETATM    5  O2  UNL     1      -7.859   6.182  15.838  1.00  0.00    -0.265 OA
HETATM    6  C4  UNL     1      -7.194   6.828  13.628  1.00  0.00     0.112 C 
HETATM    7  C5  UNL     1      -5.778   7.381  13.551  1.00  0.00     0.021 C 
HETATM    8  C6  UNL     1      -4.694   6.312  13.703  1.00  0.00    -0.022 A 
HETATM    9  C7  UNL     1      -4.074   6.174  15.072  1.00  0.00     0.022 A 
HETATM   10  C8  UNL     1      -3.222   6.755  13.953  1.00  0.00    -0.027 A 
HETATM   11  C9  UNL     1      -2.940   8.262  14.018  1.00  0.00     0.011 C 
HETATM   12  C10 UNL     1      -1.507   8.720  14.341  1.00  0.00     0.011 C 
HETATM   13  C11 UNL     1      -0.462   7.598  14.363  1.00  0.00    -0.032 C 
HETATM   14  C12 UNL     1      -0.531   6.921  15.757  1.00  0.00     0.016 C 
HETATM   15  C13 UNL     1       1.009   8.031  14.048  1.00  0.00    -0.002 C 
HETATM   16  C22 UNL     1       1.649   6.760  13.423  1.00  0.00     0.006 C 
HETATM   17  C23 UNL     1       0.506   5.771  13.139  1.00  0.00     0.011 C 
HETATM   18  C24 UNL     1      -0.773   6.630  13.162  1.00  0.00    -0.032 C 
HETATM   19  C25 UNL     1      -0.871   7.329  11.769  1.00  0.00     0.016 C 
HETATM   20  C26 UNL     1      -2.075   5.840  13.459  1.00  0.00     0.004 C 
HETATM   21  C27 UNL     1      -2.533   4.938  12.305  1.00  0.00     0.007 C 
HETATM   22  C28 UNL     1      -3.758   4.132  12.720  1.00  0.00     0.012 C 
HETATM   23  C29 UNL     1      -4.987   5.043  12.879  1.00  0.00     0.051 C 
ENDROOT
BRANCH  15  24
HETATM   24  C14 UNL     1       1.922   8.752  15.088  1.00  0.00    -0.014 C 
HETATM   25  C15 UNL     1       3.193   8.007  15.511  1.00  0.00     0.010 C 
BRANCH  24  26
HETATM   26  C16 UNL     1       1.101   9.238  16.309  1.00  0.00     0.008 C 
BRANCH  26  27
HETATM   27  C17 UNL     1       1.493  10.620  16.857  1.00  0.00     0.028 C 
BRANCH  27  28
HETATM   28  C18 UNL     1       1.822  10.621  18.324  1.00  0.00    -0.025 C 
HETATM   29  C19 UNL     1       0.996  10.851  19.365  1.00  0.00    -0.091 C 
HETATM   30  C20 UNL     1       1.517  10.796  20.778  1.00  0.00     0.042 C 
HETATM   31  C21 UNL     1      -0.468  11.177  19.265  1.00  0.00     0.042 C 
ENDBRANCH  27  28
ENDBRANCH  26  27
ENDBRANCH  24  26
ENDBRANCH  15  24
TORSDOF 4
ENDMDL
MODEL 9
REMARK minimizedAffinity -8.31088257
REMARK  4 active torsions:
REMARK  status: ('A' for Active; 'I' for Inactive)
REMARK    1  A    between atoms: C13_15  and  C14_16 
REMARK    2  A    between atoms: C14_16  and  C16_18 
REMARK    3  A    between atoms: C16_18  and  C17_19 
REMARK    4  A    between atoms: C17_19  and  C18_20 
ROOT
HETATM    1  C1  UNL     1       3.823   4.681   9.261  1.00  0.00     0.047 C 
HETATM    2  C2  UNL     1       3.351   5.749   9.918  1.00  0.00     0.052 C 
HETATM    3  O1  UNL     1       3.777   7.034   9.480  1.00  0.00    -0.284 OA
HETATM    4  C3  UNL     1       4.428   7.899  10.318  1.00  0.00     0.263 C 
HETATM    5  O2  UNL     1       4.797   9.007   9.940  1.00  0.00    -0.265 OA
HETATM    6  C4  UNL     1       4.649   7.420  11.729  1.00  0.00     0.112 C 
HETATM    7  C5  UNL     1       3.368   7.532  12.544  1.00  0.00     0.021 C 
HETATM    8  C6  UNL     1       2.129   7.014  11.811  1.00  0.00    -0.022 A 
HETATM    9  C7  UNL     1       1.256   8.053  11.150  1.00  0.00     0.022 A 
HETATM   10  C8  UNL     1       0.718   7.342  12.382  1.00  0.00    -0.027 A 
HETATM   11  C9  UNL     1       0.654   8.165  13.676  1.00  0.00     0.011 C 
HETATM   12  C10 UNL     1      -0.731   8.565  14.215  1.00  0.00     0.011 C 
HETATM   13  C11 UNL     1      -1.916   7.912  13.494  1.00  0.00    -0.032 C 
HETATM   14  C12 UNL     1      -2.203   8.743  12.216  1.00  0.00     0.016 C 
HETATM   15  C13 UNL     1      -3.224   7.755  14.338  1.00  0.00    -0.002 C 
HETATM   16  C22 UNL     1      -3.920   6.507  13.725  1.00  0.00     0.006 C 
HETATM   17  C23 UNL     1      -2.902   5.839  12.786  1.00  0.00     0.011 C 
HETATM   18  C24 UNL     1      -1.537   6.411  13.212  1.00  0.00    -0.032 C 
HETATM   19  C25 UNL     1      -1.085   5.604  14.471  1.00  0.00     0.016 C 
HETATM   20  C26 UNL     1      -0.442   6.351  12.114  1.00  0.00     0.004 C 
HETATM   21  C27 UNL     1       0.081   4.937  11.832  1.00  0.00     0.007 C 
HETATM   22  C28 UNL     1       1.078   4.963  10.679  1.00  0.00     0.012 C 
HETATM   23  C29 UNL     1       2.377   5.673  11.093  1.00  0.00     0.051 C 
ENDROOT
BRANCH  15  24
HETATM   24  C14 UNL     1      -4.195   8.942  14.626  1.00  0.00    -0.014 C 
HETATM   25  C15 UNL     1      -4.032   9.642  15.981  1.00  0.00     0.010 C 
BRANCH  24  26
HETATM   26  C16 UNL     1      -5.665   8.540  14.353  1.00  0.00     0.008 C 
BRANCH  26  27
HETATM   27  C17 UNL     1      -6.500   8.212  15.602  1.00  0.00     0.028 C 
BRANCH  27  28
HETATM   28  C18 UNL     1      -7.861   7.650  15.294  1.00  0.00    -0.025 C 
HETATM   29  C19 UNL     1      -9.023   8.314  15.136  1.00  0.00    -0.091 C 
HETATM   30  C20 UNL     1     -10.292   7.566  14.815  1.00  0.00     0.042 C 
HETATM   31  C21 UNL     1      -9.203   9.803  15.254  1.00  0.00     0.042 C 
ENDBRANCH  27  28
ENDBRANCH  26  27
ENDBRANCH  24  26
ENDBRANCH  15  24
TORSDOF 4
ENDMDL
