MODEL 1
REMARK minimizedAffinity -9.9142046
REMARK  2 active torsions:
REMARK  status: ('A' for Active; 'I' for Inactive)
REMARK    1  A    between atoms: C3_4  and  C4_5 
REMARK       I    between atoms: N2_13  and  C11_14 
REMARK    2  A    between atoms: C11_14  and  C12_16 
ROOT
HETATM    1  C4  UNL     1      -6.737  47.434 -28.761  1.00  0.00    -0.021 A 
HETATM    2  C5  UNL     1      -5.508  47.878 -29.258  1.00  0.00     0.015 A 
HETATM    3  C6  UNL     1      -4.550  48.401 -28.392  1.00  0.00     0.040 A 
HETATM    4  C7  UNL     1      -4.802  48.468 -27.016  1.00  0.00     0.095 A 
HETATM    5  O1  UNL     1      -3.766  48.856 -26.213  1.00  0.00    -0.347 OA
HETATM    6  C8  UNL     1      -3.569  50.277 -26.274  1.00  0.00     0.213 C 
HETATM    7  C9  UNL     1      -3.203  50.786 -24.868  1.00  0.00     0.265 C 
HETATM    8  C10 UNL     1      -1.682  50.610 -24.638  1.00  0.00     0.164 C 
HETATM    9  N2  UNL     1      -1.275  51.154 -23.337  1.00  0.00    -0.344 N 
HETATM   10  C11 UNL     1      -0.046  51.799 -23.251  1.00  0.00     0.254 C 
HETATM   11  O2  UNL     1       0.706  51.985 -24.204  1.00  0.00    -0.267 OA
HETATM   12  C18 UNL     1      -2.068  50.689 -22.193  1.00  0.00     0.156 C 
HETATM   13  C19 UNL     1      -3.586  50.700 -22.465  1.00  0.00     0.293 C 
HETATM   14  N3  UNL     1      -3.923  50.114 -23.766  1.00  0.00     0.107 N 
HETATM   15  C20 UNL     1      -5.357  49.910 -23.983  1.00  0.00     0.375 C 
HETATM   16  C21 UNL     1      -5.667  48.403 -24.023  1.00  0.00     0.250 C 
HETATM   17  O3  UNL     1      -5.468  47.653 -23.057  1.00  0.00    -0.271 OA
HETATM   18  N4  UNL     1      -6.330  47.893 -25.109  1.00  0.00    -0.323 N 
HETATM   19  C22 UNL     1      -6.012  48.001 -26.488  1.00  0.00     0.069 A 
HETATM   20  C23 UNL     1      -6.975  47.492 -27.378  1.00  0.00     0.044 A 
HETATM   21  H22 UNL     1      -6.781  47.013 -24.879  1.00  0.00     0.169 HD
ENDROOT
BRANCH  10  22
HETATM   22  C12 UNL     1       0.361  52.362 -21.956  1.00  0.00     0.033 A 
HETATM   23  C13 UNL     1       1.061  53.566 -21.894  1.00  0.00     0.017 A 
HETATM   24  C14 UNL     1       1.412  54.094 -20.652  1.00  0.00     0.003 A 
HETATM   25  C15 UNL     1       1.054  53.417 -19.487  1.00  0.00     0.024 A 
HETATM   26  C16 UNL     1       0.347  52.216 -19.563  1.00  0.00     0.035 A 
HETATM   27 CL1  UNL     1      -0.077  51.386 -18.121  1.00  0.00    -0.084 Cl
HETATM   28  C17 UNL     1      -0.009  51.682 -20.797  1.00  0.00     0.041 A 
ENDBRANCH  10  22
BRANCH   1  29
HETATM   29  C3  UNL     1      -7.742  46.897 -29.657  1.00  0.00     0.008 A 
HETATM   30  C2  UNL     1      -8.968  47.478 -29.906  1.00  0.00     0.123 A 
HETATM   31  N1  UNL     1      -9.595  46.676 -30.817  1.00  0.00    -0.307 N 
HETATM   32  C1  UNL     1     -10.900  46.877 -31.389  1.00  0.00     0.177 C 
HETATM   33  N5  UNL     1      -8.860  45.611 -31.190  1.00  0.00    -0.310 N 
HETATM   34  C24 UNL     1      -7.735  45.743 -30.478  1.00  0.00     0.120 A 
ATOM     35  H5  UNL     1      -9.104  44.878 -31.856  1.00  0.00     0.186 HD
ENDBRANCH   1  29
TORSDOF 2
ENDMDL
MODEL 2
REMARK minimizedAffinity -9.73602676
REMARK  2 active torsions:
REMARK  status: ('A' for Active; 'I' for Inactive)
REMARK    1  A    between atoms: C3_4  and  C4_5 
REMARK       I    between atoms: N2_13  and  C11_14 
REMARK    2  A    between atoms: C11_14  and  C12_16 
ROOT
HETATM    1  C4  UNL     1       0.951  51.502 -14.955  1.00  0.00    -0.021 A 
HETATM    2  C5  UNL     1       0.312  50.283 -15.204  1.00  0.00     0.015 A 
HETATM    3  C6  UNL     1      -0.069  49.945 -16.501  1.00  0.00     0.040 A 
HETATM    4  C7  UNL     1       0.201  50.812 -17.566  1.00  0.00     0.095 A 
HETATM    5  O1  UNL     1      -0.069  50.353 -18.826  1.00  0.00    -0.347 OA
HETATM    6  C8  UNL     1      -1.477  50.406 -19.104  1.00  0.00     0.213 C 
HETATM    7  C9  UNL     1      -1.676  50.829 -20.570  1.00  0.00     0.265 C 
HETATM    8  C10 UNL     1      -1.568  49.583 -21.483  1.00  0.00     0.164 C 
HETATM    9  N2  UNL     1      -1.827  49.929 -22.886  1.00  0.00    -0.344 N 
HETATM   10  C11 UNL     1      -2.527  49.015 -23.668  1.00  0.00     0.254 C 
HETATM   11  O2  UNL     1      -2.984  47.954 -23.251  1.00  0.00    -0.267 OA
HETATM   12  C18 UNL     1      -1.052  51.063 -23.401  1.00  0.00     0.156 C 
HETATM   13  C19 UNL     1      -1.011  52.258 -22.426  1.00  0.00     0.293 C 
HETATM   14  N3  UNL     1      -0.715  51.845 -21.050  1.00  0.00     0.107 N 
HETATM   15  C20 UNL     1      -0.459  52.954 -20.129  1.00  0.00     0.375 C 
HETATM   16  C21 UNL     1       1.018  52.937 -19.695  1.00  0.00     0.250 C 
HETATM   17  O3  UNL     1       1.953  53.077 -20.496  1.00  0.00    -0.271 OA
HETATM   18  N4  UNL     1       1.314  52.920 -18.357  1.00  0.00    -0.323 N 
HETATM   19  C22 UNL     1       0.868  52.025 -17.349  1.00  0.00     0.069 A 
HETATM   20  C23 UNL     1       1.230  52.358 -16.032  1.00  0.00     0.044 A 
HETATM   21  H22 UNL     1       2.254  53.262 -18.188  1.00  0.00     0.169 HD
ENDROOT
BRANCH  10  22
HETATM   22  C12 UNL     1      -2.806  49.361 -25.068  1.00  0.00     0.033 A 
HETATM   23  C13 UNL     1      -3.418  48.440 -25.918  1.00  0.00     0.017 A 
HETATM   24  C14 UNL     1      -3.698  48.802 -27.235  1.00  0.00     0.003 A 
HETATM   25  C15 UNL     1      -3.369  50.079 -27.686  1.00  0.00     0.024 A 
HETATM   26  C16 UNL     1      -2.763  50.993 -26.823  1.00  0.00     0.035 A 
HETATM   27 CL1  UNL     1      -2.352  52.560 -27.396  1.00  0.00    -0.084 Cl
HETATM   28  C17 UNL     1      -2.482  50.643 -25.508  1.00  0.00     0.041 A 
ENDBRANCH  10  22
BRANCH   1  29
HETATM   29  C3  UNL     1       1.342  51.865 -13.608  1.00  0.00     0.008 A 
HETATM   30  C2  UNL     1       2.505  51.458 -12.987  1.00  0.00     0.123 A 
HETATM   31  N1  UNL     1       2.502  52.035 -11.749  1.00  0.00    -0.307 N 
HETATM   32  C1  UNL     1       3.516  51.908 -10.735  1.00  0.00     0.177 C 
HETATM   33  N5  UNL     1       1.419  52.801 -11.517  1.00  0.00    -0.310 N 
HETATM   34  C24 UNL     1       0.711  52.691 -12.646  1.00  0.00     0.120 A 
ATOM     35  H5  UNL     1       1.193  53.337 -10.679  1.00  0.00     0.186 HD
ENDBRANCH   1  29
TORSDOF 2
ENDMDL
MODEL 3
REMARK minimizedAffinity -9.71177864
REMARK  2 active torsions:
REMARK  status: ('A' for Active; 'I' for Inactive)
REMARK    1  A    between atoms: C3_4  and  C4_5 
REMARK       I    between atoms: N2_13  and  C11_14 
REMARK    2  A    between atoms: C11_14  and  C12_16 
ROOT
HETATM    1  C4  UNL     1      -0.981  51.787 -22.093  1.00  0.00    -0.021 A 
HETATM    2  C5  UNL     1      -0.470  51.694 -23.391  1.00  0.00     0.015 A 
HETATM    3  C6  UNL     1      -1.243  51.140 -24.410  1.00  0.00     0.040 A 
HETATM    4  C7  UNL     1      -2.542  50.691 -24.147  1.00  0.00     0.095 A 
HETATM    5  O1  UNL     1      -3.293  50.296 -25.220  1.00  0.00    -0.347 OA
HETATM    6  C8  UNL     1      -2.903  48.989 -25.669  1.00  0.00     0.213 C 
HETATM    7  C9  UNL     1      -4.164  48.215 -26.092  1.00  0.00     0.265 C 
HETATM    8  C10 UNL     1      -4.525  48.581 -27.552  1.00  0.00     0.164 C 
HETATM    9  N2  UNL     1      -5.680  47.806 -28.024  1.00  0.00    -0.344 N 
HETATM   10  C11 UNL     1      -5.684  47.377 -29.347  1.00  0.00     0.254 C 
HETATM   11  O2  UNL     1      -4.764  47.562 -30.138  1.00  0.00    -0.267 OA
HETATM   12  C18 UNL     1      -6.850  47.833 -27.140  1.00  0.00     0.156 C 
HETATM   13  C19 UNL     1      -6.488  47.635 -25.653  1.00  0.00     0.293 C 
HETATM   14  N3  UNL     1      -5.348  48.461 -25.242  1.00  0.00     0.107 N 
HETATM   15  C20 UNL     1      -5.097  48.469 -23.799  1.00  0.00     0.375 C 
HETATM   16  C21 UNL     1      -5.402  49.864 -23.226  1.00  0.00     0.250 C 
HETATM   17  O3  UNL     1      -6.532  50.373 -23.270  1.00  0.00    -0.271 OA
HETATM   18  N4  UNL     1      -4.433  50.509 -22.505  1.00  0.00    -0.323 N 
HETATM   19  C22 UNL     1      -3.091  50.802 -22.863  1.00  0.00     0.069 A 
HETATM   20  C23 UNL     1      -2.291  51.348 -21.843  1.00  0.00     0.044 A 
HETATM   21  H22 UNL     1      -4.839  51.215 -21.899  1.00  0.00     0.169 HD
ENDROOT
BRANCH  10  22
HETATM   22  C12 UNL     1      -6.828  46.586 -29.822  1.00  0.00     0.033 A 
HETATM   23  C13 UNL     1      -6.881  45.211 -29.600  1.00  0.00     0.017 A 
HETATM   24  C14 UNL     1      -7.991  44.487 -30.036  1.00  0.00     0.003 A 
HETATM   25  C15 UNL     1      -9.035  45.145 -30.683  1.00  0.00     0.024 A 
HETATM   26  C16 UNL     1      -8.972  46.523 -30.893  1.00  0.00     0.035 A 
HETATM   27 CL1  UNL     1     -10.261  47.320 -31.702  1.00  0.00    -0.084 Cl
HETATM   28  C17 UNL     1      -7.872  47.255 -30.461  1.00  0.00     0.041 A 
ENDBRANCH  10  22
BRANCH   1  29
HETATM   29  C3  UNL     1      -0.180  52.353 -21.027  1.00  0.00     0.008 A 
HETATM   30  C2  UNL     1      -0.124  51.865 -19.737  1.00  0.00     0.123 A 
HETATM   31  N1  UNL     1       0.757  52.661 -19.063  1.00  0.00    -0.307 N 
HETATM   32  C1  UNL     1       1.149  52.538 -17.683  1.00  0.00     0.177 C 
HETATM   33  N5  UNL     1       1.291  53.636 -19.823  1.00  0.00    -0.310 N 
HETATM   34  C24 UNL     1       0.715  53.451 -21.016  1.00  0.00     0.120 A 
ATOM     35  H5  UNL     1       1.972  54.345 -19.554  1.00  0.00     0.186 HD
ENDBRANCH   1  29
TORSDOF 2
ENDMDL
MODEL 4
REMARK minimizedAffinity -9.66842556
REMARK  2 active torsions:
REMARK  status: ('A' for Active; 'I' for Inactive)
REMARK    1  A    between atoms: C3_4  and  C4_5 
REMARK       I    between atoms: N2_13  and  C11_14 
REMARK    2  A    between atoms: C11_14  and  C12_16 
ROOT
HETATM    1  C4  UNL     1      -0.700  51.125 -20.462  1.00  0.00    -0.021 A 
HETATM    2  C5  UNL     1      -1.714  50.175 -20.309  1.00  0.00     0.015 A 
HETATM    3  C6  UNL     1      -2.355  49.648 -21.429  1.00  0.00     0.040 A 
HETATM    4  C7  UNL     1      -1.975  50.051 -22.715  1.00  0.00     0.095 A 
HETATM    5  O1  UNL     1      -2.544  49.387 -23.767  1.00  0.00    -0.347 OA
HETATM    6  C8  UNL     1      -3.889  49.836 -23.994  1.00  0.00     0.213 C 
HETATM    7  C9  UNL     1      -4.143  49.888 -25.511  1.00  0.00     0.265 C 
HETATM    8  C10 UNL     1      -4.555  48.481 -26.012  1.00  0.00     0.164 C 
HETATM    9  N2  UNL     1      -4.882  48.501 -27.442  1.00  0.00    -0.344 N 
HETATM   10  C11 UNL     1      -5.931  47.702 -27.886  1.00  0.00     0.254 C 
HETATM   11  O2  UNL     1      -6.634  47.014 -27.153  1.00  0.00    -0.267 OA
HETATM   12  C18 UNL     1      -3.869  49.122 -28.303  1.00  0.00     0.156 C 
HETATM   13  C19 UNL     1      -3.324  50.448 -27.734  1.00  0.00     0.293 C 
HETATM   14  N3  UNL     1      -2.988  50.349 -26.311  1.00  0.00     0.107 N 
HETATM   15  C20 UNL     1      -2.276  51.510 -25.775  1.00  0.00     0.375 C 
HETATM   16  C21 UNL     1      -0.833  51.113 -25.413  1.00  0.00     0.250 C 
HETATM   17  O3  UNL     1      -0.020  50.707 -26.255  1.00  0.00    -0.271 OA
HETATM   18  N4  UNL     1      -0.379  51.360 -24.144  1.00  0.00    -0.323 N 
HETATM   19  C22 UNL     1      -0.941  50.977 -22.898  1.00  0.00     0.069 A 
HETATM   20  C23 UNL     1      -0.316  51.511 -21.757  1.00  0.00     0.044 A 
HETATM   21  H22 UNL     1       0.635  51.396 -24.122  1.00  0.00     0.169 HD
ENDROOT
BRANCH  10  22
HETATM   22  C12 UNL     1      -6.276  47.729 -29.314  1.00  0.00     0.033 A 
HETATM   23  C13 UNL     1      -7.400  48.423 -29.759  1.00  0.00     0.017 A 
HETATM   24  C14 UNL     1      -7.691  48.457 -31.122  1.00  0.00     0.003 A 
HETATM   25  C15 UNL     1      -6.853  47.804 -32.025  1.00  0.00     0.024 A 
HETATM   26  C16 UNL     1      -5.727  47.120 -31.566  1.00  0.00     0.035 A 
HETATM   27 CL1  UNL     1      -4.709  46.310 -32.688  1.00  0.00    -0.084 Cl
HETATM   28  C17 UNL     1      -5.427  47.081 -30.210  1.00  0.00     0.041 A 
ENDBRANCH  10  22
BRANCH   1  29
HETATM   29  C3  UNL     1      -0.036  51.684 -19.302  1.00  0.00     0.008 A 
HETATM   30  C2  UNL     1      -0.008  51.103 -18.052  1.00  0.00     0.123 A 
HETATM   31  N1  UNL     1       0.735  51.931 -17.259  1.00  0.00    -0.307 N 
HETATM   32  C1  UNL     1       1.051  51.739 -15.868  1.00  0.00     0.177 C 
HETATM   33  N5  UNL     1       1.205  53.014 -17.906  1.00  0.00    -0.310 N 
HETATM   34  C24 UNL     1       0.730  52.866 -19.148  1.00  0.00     0.120 A 
ATOM     35  H5  UNL     1       1.786  53.767 -17.538  1.00  0.00     0.186 HD
ENDBRANCH   1  29
TORSDOF 2
ENDMDL
MODEL 5
REMARK minimizedAffinity -9.58164215
REMARK  2 active torsions:
REMARK  status: ('A' for Active; 'I' for Inactive)
REMARK    1  A    between atoms: C3_4  and  C4_5 
REMARK       I    between atoms: N2_13  and  C11_14 
REMARK    2  A    between atoms: C11_14  and  C12_16 
ROOT
HETATM    1  C4  UNL     1      -6.912  46.920 -28.092  1.00  0.00    -0.021 A 
HETATM    2  C5  UNL     1      -7.310  46.878 -26.753  1.00  0.00     0.015 A 
HETATM    3  C6  UNL     1      -6.609  47.604 -25.791  1.00  0.00     0.040 A 
HETATM    4  C7  UNL     1      -5.514  48.394 -26.161  1.00  0.00     0.095 A 
HETATM    5  O1  UNL     1      -4.966  49.190 -25.193  1.00  0.00    -0.347 OA
HETATM    6  C8  UNL     1      -4.146  48.423 -24.298  1.00  0.00     0.213 C 
HETATM    7  C9  UNL     1      -2.909  49.259 -23.922  1.00  0.00     0.265 C 
HETATM    8  C10 UNL     1      -3.265  50.203 -22.748  1.00  0.00     0.164 C 
HETATM    9  N2  UNL     1      -2.092  50.966 -22.305  1.00  0.00    -0.344 N 
HETATM   10  C11 UNL     1      -1.944  51.209 -20.943  1.00  0.00     0.254 C 
HETATM   11  O2  UNL     1      -2.706  50.789 -20.078  1.00  0.00    -0.267 OA
HETATM   12  C18 UNL     1      -1.363  51.660 -23.373  1.00  0.00     0.156 C 
HETATM   13  C19 UNL     1      -1.144  50.782 -24.623  1.00  0.00     0.293 C 
HETATM   14  N3  UNL     1      -2.362  50.075 -25.028  1.00  0.00     0.107 N 
HETATM   15  C20 UNL     1      -2.265  49.397 -26.322  1.00  0.00     0.375 C 
HETATM   16  C21 UNL     1      -3.184  50.093 -27.343  1.00  0.00     0.250 C 
HETATM   17  O3  UNL     1      -3.030  51.274 -27.685  1.00  0.00    -0.271 OA
HETATM   18  N4  UNL     1      -4.112  49.342 -28.016  1.00  0.00    -0.323 N 
HETATM   19  C22 UNL     1      -5.114  48.479 -27.501  1.00  0.00     0.069 A 
HETATM   20  C23 UNL     1      -5.822  47.727 -28.456  1.00  0.00     0.044 A 
HETATM   21  H22 UNL     1      -4.395  49.800 -28.877  1.00  0.00     0.169 HD
ENDROOT
BRANCH  10  22
HETATM   22  C12 UNL     1      -0.763  51.958 -20.491  1.00  0.00     0.033 A 
HETATM   23  C13 UNL     1      -0.088  52.811 -21.362  1.00  0.00     0.017 A 
HETATM   24  C14 UNL     1       1.014  53.532 -20.900  1.00  0.00     0.003 A 
HETATM   25  C15 UNL     1       1.423  53.396 -19.575  1.00  0.00     0.024 A 
HETATM   26  C16 UNL     1       0.733  52.544 -18.712  1.00  0.00     0.035 A 
HETATM   27 CL1  UNL     1       1.255  52.378 -17.084  1.00  0.00    -0.084 Cl
HETATM   28  C17 UNL     1      -0.367  51.823 -19.161  1.00  0.00     0.041 A 
ENDBRANCH  10  22
BRANCH   1  29
HETATM   29  C3  UNL     1      -7.630  46.161 -29.096  1.00  0.00     0.008 A 
HETATM   30  C2  UNL     1      -7.164  45.011 -29.700  1.00  0.00     0.123 A 
HETATM   31  N1  UNL     1      -8.145  44.602 -30.557  1.00  0.00    -0.307 N 
HETATM   32  C1  UNL     1      -8.120  43.441 -31.407  1.00  0.00     0.177 C 
HETATM   33  N5  UNL     1      -9.230  45.400 -30.552  1.00  0.00    -0.310 N 
HETATM   34  C24 UNL     1      -8.913  46.352 -29.667  1.00  0.00     0.120 A 
ATOM     35  H5  UNL     1     -10.088  45.302 -31.093  1.00  0.00     0.186 HD
ENDBRANCH   1  29
TORSDOF 2
ENDMDL
MODEL 6
REMARK minimizedAffinity -9.40641975
REMARK  2 active torsions:
REMARK  status: ('A' for Active; 'I' for Inactive)
REMARK    1  A    between atoms: C3_4  and  C4_5 
REMARK       I    between atoms: N2_13  and  C11_14 
REMARK    2  A    between atoms: C11_14  and  C12_16 
ROOT
HETATM    1  C4  UNL     1      -0.318  51.600 -19.420  1.00  0.00    -0.021 A 
HETATM    2  C5  UNL     1       0.251  51.696 -20.693  1.00  0.00     0.015 A 
HETATM    3  C6  UNL     1      -0.474  51.300 -21.815  1.00  0.00     0.040 A 
HETATM    4  C7  UNL     1      -1.782  50.821 -21.679  1.00  0.00     0.095 A 
HETATM    5  O1  UNL     1      -2.482  50.589 -22.831  1.00  0.00    -0.347 OA
HETATM    6  C8  UNL     1      -2.067  49.361 -23.449  1.00  0.00     0.213 C 
HETATM    7  C9  UNL     1      -3.306  48.661 -24.037  1.00  0.00     0.265 C 
HETATM    8  C10 UNL     1      -3.603  49.238 -25.443  1.00  0.00     0.164 C 
HETATM    9  N2  UNL     1      -4.732  48.544 -26.073  1.00  0.00    -0.344 N 
HETATM   10  C11 UNL     1      -4.676  48.313 -27.444  1.00  0.00     0.254 C 
HETATM   11  O2  UNL     1      -3.722  48.610 -28.158  1.00  0.00    -0.267 OA
HETATM   12  C18 UNL     1      -5.940  48.444 -25.248  1.00  0.00     0.156 C 
HETATM   13  C19 UNL     1      -5.644  48.029 -23.792  1.00  0.00     0.293 C 
HETATM   14  N3  UNL     1      -4.527  48.783 -23.213  1.00  0.00     0.107 N 
HETATM   15  C20 UNL     1      -4.341  48.578 -21.776  1.00  0.00     0.375 C 
HETATM   16  C21 UNL     1      -4.677  49.875 -21.018  1.00  0.00     0.250 C 
HETATM   17  O3  UNL     1      -5.805  50.388 -21.037  1.00  0.00    -0.271 OA
HETATM   18  N4  UNL     1      -3.743  50.405 -20.167  1.00  0.00    -0.323 N 
HETATM   19  C22 UNL     1      -2.388  50.744 -20.419  1.00  0.00     0.069 A 
HETATM   20  C23 UNL     1      -1.636  51.132 -19.295  1.00  0.00     0.044 A 
HETATM   21  H22 UNL     1      -4.179  51.016 -19.484  1.00  0.00     0.169 HD
ENDROOT
BRANCH  10  22
HETATM   22  C12 UNL     1      -5.794  47.604 -28.081  1.00  0.00     0.033 A 
HETATM   23  C13 UNL     1      -6.888  47.181 -27.326  1.00  0.00     0.017 A 
HETATM   24  C14 UNL     1      -7.950  46.534 -27.958  1.00  0.00     0.003 A 
HETATM   25  C15 UNL     1      -7.910  46.323 -29.335  1.00  0.00     0.024 A 
HETATM   26  C16 UNL     1      -6.813  46.758 -30.079  1.00  0.00     0.035 A 
HETATM   27 CL1  UNL     1      -6.771  46.481 -31.774  1.00  0.00    -0.084 Cl
HETATM   28  C17 UNL     1      -5.750  47.405 -29.460  1.00  0.00     0.041 A 
ENDBRANCH  10  22
BRANCH   1  29
HETATM   29  C3  UNL     1       0.432  52.001 -18.247  1.00  0.00     0.008 A 
HETATM   30  C2  UNL     1       0.284  51.454 -16.989  1.00  0.00     0.123 A 
HETATM   31  N1  UNL     1       1.186  52.089 -16.184  1.00  0.00    -0.307 N 
HETATM   32  C1  UNL     1       1.408  51.852 -14.782  1.00  0.00     0.177 C 
HETATM   33  N5  UNL     1       1.924  53.012 -16.829  1.00  0.00    -0.310 N 
HETATM   34  C24 UNL     1       1.460  52.962 -18.083  1.00  0.00     0.120 A 
ATOM     35  H5  UNL     1       2.661  53.607 -16.452  1.00  0.00     0.186 HD
ENDBRANCH   1  29
TORSDOF 2
ENDMDL
MODEL 7
REMARK minimizedAffinity -9.10660362
REMARK  2 active torsions:
REMARK  status: ('A' for Active; 'I' for Inactive)
REMARK    1  A    between atoms: C3_4  and  C4_5 
REMARK       I    between atoms: N2_13  and  C11_14 
REMARK    2  A    between atoms: C11_14  and  C12_16 
ROOT
HETATM    1  C4  UNL     1      -4.599  48.694 -26.945  1.00  0.00    -0.021 A 
HETATM    2  C5  UNL     1      -4.965  48.018 -25.777  1.00  0.00     0.015 A 
HETATM    3  C6  UNL     1      -4.431  48.402 -24.548  1.00  0.00     0.040 A 
HETATM    4  C7  UNL     1      -3.540  49.479 -24.471  1.00  0.00     0.095 A 
HETATM    5  O1  UNL     1      -3.170  49.892 -23.220  1.00  0.00    -0.347 OA
HETATM    6  C8  UNL     1      -2.193  49.006 -22.652  1.00  0.00     0.213 C 
HETATM    7  C9  UNL     1      -1.166  49.842 -21.867  1.00  0.00     0.265 C 
HETATM    8  C10 UNL     1      -1.709  50.115 -20.443  1.00  0.00     0.164 C 
HETATM    9  N2  UNL     1      -0.728  50.846 -19.632  1.00  0.00    -0.344 N 
HETATM   10  C11 UNL     1      -0.623  50.523 -18.282  1.00  0.00     0.254 C 
HETATM   11  O2  UNL     1      -1.266  49.635 -17.731  1.00  0.00    -0.267 OA
HETATM   12  C18 UNL     1      -0.179  52.053 -20.258  1.00  0.00     0.156 C 
HETATM   13  C19 UNL     1       0.215  51.842 -21.734  1.00  0.00     0.293 C 
HETATM   14  N3  UNL     1      -0.823  51.136 -22.493  1.00  0.00     0.107 N 
HETATM   15  C20 UNL     1      -0.592  51.095 -23.938  1.00  0.00     0.375 C 
HETATM   16  C21 UNL     1      -1.651  51.951 -24.657  1.00  0.00     0.250 C 
HETATM   17  O3  UNL     1      -1.764  53.171 -24.473  1.00  0.00    -0.271 OA
HETATM   18  N4  UNL     1      -2.398  51.378 -25.652  1.00  0.00    -0.323 N 
HETATM   19  C22 UNL     1      -3.181  50.194 -25.621  1.00  0.00     0.069 A 
HETATM   20  C23 UNL     1      -3.716  49.782 -26.854  1.00  0.00     0.044 A 
HETATM   21  H22 UNL     1      -2.783  52.085 -26.271  1.00  0.00     0.169 HD
ENDROOT
BRANCH  10  22
HETATM   22  C12 UNL     1       0.369  51.238 -17.467  1.00  0.00     0.033 A 
HETATM   23  C13 UNL     1       1.128  52.270 -18.017  1.00  0.00     0.017 A 
HETATM   24  C14 UNL     1       2.044  52.951 -17.215  1.00  0.00     0.003 A 
HETATM   25  C15 UNL     1       2.186  52.598 -15.874  1.00  0.00     0.024 A 
HETATM   26  C16 UNL     1       1.415  51.568 -15.335  1.00  0.00     0.035 A 
HETATM   27 CL1  UNL     1       1.608  51.135 -13.684  1.00  0.00    -0.084 Cl
HETATM   28  C17 UNL     1       0.497  50.884 -16.125  1.00  0.00     0.041 A 
ENDBRANCH  10  22
BRANCH   1  29
HETATM   29  C3  UNL     1      -5.143  48.295 -28.227  1.00  0.00     0.008 A 
HETATM   30  C2  UNL     1      -6.266  47.511 -28.398  1.00  0.00     0.123 A 
HETATM   31  N1  UNL     1      -6.449  47.392 -29.747  1.00  0.00    -0.307 N 
HETATM   32  C1  UNL     1      -7.500  46.670 -30.414  1.00  0.00     0.177 C 
HETATM   33  N5  UNL     1      -5.527  48.052 -30.474  1.00  0.00    -0.310 N 
HETATM   34  C24 UNL     1      -4.730  48.595 -29.548  1.00  0.00     0.120 A 
ATOM     35  H5  UNL     1      -5.455  48.120 -31.489  1.00  0.00     0.186 HD
ENDBRANCH   1  29
TORSDOF 2
ENDMDL
MODEL 8
REMARK minimizedAffinity -9.02782536
REMARK  2 active torsions:
REMARK  status: ('A' for Active; 'I' for Inactive)
REMARK    1  A    between atoms: C3_4  and  C4_5 
REMARK       I    between atoms: N2_13  and  C11_14 
REMARK    2  A    between atoms: C11_14  and  C12_16 
ROOT
HETATM    1  C4  UNL     1      -3.858  48.486 -25.034  1.00  0.00    -0.021 A 
HETATM    2  C5  UNL     1      -3.102  48.705 -26.188  1.00  0.00     0.015 A 
HETATM    3  C6  UNL     1      -3.703  48.633 -27.444  1.00  0.00     0.040 A 
HETATM    4  C7  UNL     1      -5.071  48.359 -27.558  1.00  0.00     0.095 A 
HETATM    5  O1  UNL     1      -5.621  48.448 -28.807  1.00  0.00    -0.347 OA
HETATM    6  C8  UNL     1      -5.296  47.293 -29.597  1.00  0.00     0.213 C 
HETATM    7  C9  UNL     1      -6.521  46.918 -30.450  1.00  0.00     0.265 C 
HETATM    8  C10 UNL     1      -6.526  47.770 -31.743  1.00  0.00     0.164 C 
HETATM    9  N2  UNL     1      -7.637  47.390 -32.625  1.00  0.00    -0.344 N 
HETATM   10  C11 UNL     1      -7.414  47.393 -33.998  1.00  0.00     0.254 C 
HETATM   11  O2  UNL     1      -6.334  47.648 -34.524  1.00  0.00    -0.267 OA
HETATM   12  C18 UNL     1      -8.955  47.349 -31.982  1.00  0.00     0.156 C 
HETATM   13  C19 UNL     1      -8.935  46.647 -30.609  1.00  0.00     0.293 C 
HETATM   14  N3  UNL     1      -7.821  47.095 -29.768  1.00  0.00     0.107 N 
HETATM   15  C20 UNL     1      -7.876  46.618 -28.385  1.00  0.00     0.375 C 
HETATM   16  C21 UNL     1      -8.135  47.803 -27.437  1.00  0.00     0.250 C 
HETATM   17  O3  UNL     1      -9.165  48.489 -27.490  1.00  0.00    -0.271 OA
HETATM   18  N4  UNL     1      -7.270  48.017 -26.396  1.00  0.00    -0.323 N 
HETATM   19  C22 UNL     1      -5.859  48.166 -26.416  1.00  0.00     0.069 A 
HETATM   20  C23 UNL     1      -5.233  48.226 -25.158  1.00  0.00     0.044 A 
HETATM   21  H22 UNL     1      -7.712  48.564 -25.663  1.00  0.00     0.169 HD
ENDROOT
BRANCH  10  22
HETATM   22  C12 UNL     1      -8.515  46.998 -34.887  1.00  0.00     0.033 A 
HETATM   23  C13 UNL     1      -8.494  47.339 -36.238  1.00  0.00     0.017 A 
HETATM   24  C14 UNL     1      -9.538  46.929 -37.067  1.00  0.00     0.003 A 
HETATM   25  C15 UNL     1     -10.586  46.177 -36.538  1.00  0.00     0.024 A 
HETATM   26  C16 UNL     1     -10.591  45.836 -35.185  1.00  0.00     0.035 A 
HETATM   27 CL1  UNL     1     -11.895  44.920 -34.544  1.00  0.00    -0.084 Cl
HETATM   28  C17 UNL     1      -9.555  46.239 -34.351  1.00  0.00     0.041 A 
ENDBRANCH  10  22
BRANCH   1  29
HETATM   29  C3  UNL     1      -3.239  48.550 -23.726  1.00  0.00     0.008 A 
HETATM   30  C2  UNL     1      -2.187  49.377 -23.390  1.00  0.00     0.123 A 
HETATM   31  N1  UNL     1      -1.924  49.148 -22.070  1.00  0.00    -0.307 N 
HETATM   32  C1  UNL     1      -0.912  49.785 -21.268  1.00  0.00     0.177 C 
HETATM   33  N5  UNL     1      -2.738  48.232 -21.511  1.00  0.00    -0.310 N 
HETATM   34  C24 UNL     1      -3.533  47.864 -22.521  1.00  0.00     0.120 A 
ATOM     35  H5  UNL     1      -2.746  47.898 -20.548  1.00  0.00     0.186 HD
ENDBRANCH   1  29
TORSDOF 2
ENDMDL
MODEL 9
REMARK minimizedAffinity -8.98972034
REMARK  2 active torsions:
REMARK  status: ('A' for Active; 'I' for Inactive)
REMARK    1  A    between atoms: C3_4  and  C4_5 
REMARK       I    between atoms: N2_13  and  C11_14 
REMARK    2  A    between atoms: C11_14  and  C12_16 
ROOT
HETATM    1  C4  UNL     1      -2.431  50.005 -24.867  1.00  0.00    -0.021 A 
HETATM    2  C5  UNL     1      -1.404  50.935 -24.685  1.00  0.00     0.015 A 
HETATM    3  C6  UNL     1      -0.827  51.105 -23.427  1.00  0.00     0.040 A 
HETATM    4  C7  UNL     1      -1.259  50.333 -22.342  1.00  0.00     0.095 A 
HETATM    5  O1  UNL     1      -0.552  50.449 -21.177  1.00  0.00    -0.347 OA
HETATM    6  C8  UNL     1      -0.891  51.661 -20.485  1.00  0.00     0.213 C 
HETATM    7  C9  UNL     1      -0.923  51.374 -18.973  1.00  0.00     0.265 C 
HETATM    8  C10 UNL     1       0.512  51.480 -18.401  1.00  0.00     0.164 C 
HETATM    9  N2  UNL     1       0.519  51.289 -16.945  1.00  0.00    -0.344 N 
HETATM   10  C11 UNL     1       1.399  52.055 -16.188  1.00  0.00     0.254 C 
HETATM   11  O2  UNL     1       2.141  52.916 -16.651  1.00  0.00    -0.267 OA
HETATM   12  C18 UNL     1      -0.181  50.090 -16.472  1.00  0.00     0.156 C 
HETATM   13  C19 UNL     1      -1.547  49.878 -17.157  1.00  0.00     0.293 C 
HETATM   14  N3  UNL     1      -1.475  50.052 -18.611  1.00  0.00     0.107 N 
HETATM   15  C20 UNL     1      -2.689  49.659 -19.328  1.00  0.00     0.375 C 
HETATM   16  C21 UNL     1      -2.409  48.407 -20.179  1.00  0.00     0.250 C 
HETATM   17  O3  UNL     1      -2.069  47.323 -19.683  1.00  0.00    -0.271 OA
HETATM   18  N4  UNL     1      -2.691  48.442 -21.519  1.00  0.00    -0.323 N 
HETATM   19  C22 UNL     1      -2.265  49.372 -22.503  1.00  0.00     0.069 A 
HETATM   20  C23 UNL     1      -2.847  49.226 -23.775  1.00  0.00     0.044 A 
HETATM   21  H22 UNL     1      -2.808  47.505 -21.890  1.00  0.00     0.169 HD
ENDROOT
BRANCH  10  22
HETATM   22  C12 UNL     1       1.399  51.883 -14.729  1.00  0.00     0.033 A 
HETATM   23  C13 UNL     1       2.516  51.362 -14.076  1.00  0.00     0.017 A 
HETATM   24  C14 UNL     1       2.502  51.234 -12.688  1.00  0.00     0.003 A 
HETATM   25  C15 UNL     1       1.378  51.634 -11.967  1.00  0.00     0.024 A 
HETATM   26  C16 UNL     1       0.271  52.160 -12.632  1.00  0.00     0.035 A 
HETATM   27 CL1  UNL     1      -1.113  52.639 -11.733  1.00  0.00    -0.084 Cl
HETATM   28  C17 UNL     1       0.274  52.294 -14.016  1.00  0.00     0.041 A 
ENDBRANCH  10  22
BRANCH   1  29
HETATM   29  C3  UNL     1      -3.042  49.830 -26.169  1.00  0.00     0.008 A 
HETATM   30  C2  UNL     1      -3.794  48.736 -26.547  1.00  0.00     0.123 A 
HETATM   31  N1  UNL     1      -4.199  48.974 -27.829  1.00  0.00    -0.307 N 
HETATM   32  C1  UNL     1      -5.015  48.117 -28.649  1.00  0.00     0.177 C 
HETATM   33  N5  UNL     1      -3.773  50.154 -28.317  1.00  0.00    -0.310 N 
HETATM   34  C24 UNL     1      -3.064  50.671 -27.308  1.00  0.00     0.120 A 
ATOM     35  H5  UNL     1      -3.949  50.558 -29.237  1.00  0.00     0.186 HD
ENDBRANCH   1  29
TORSDOF 2
ENDMDL
