MODEL 1
REMARK minimizedAffinity -7.08310652
REMARK CNNscore 0.479304135
REMARK CNNaffinity 6.60332727
REMARK  4 active torsions:
REMARK  status: ('A' for Active; 'I' for Inactive)
REMARK    1  A    between atoms: C4_4  and  C5_5 
REMARK    2  A    between atoms: C5_5  and  C6_7 
REMARK    3  A    between atoms: C6_7  and  C7_8 
REMARK    4  A    between atoms: C7_8  and  C9_10 
ROOT
HETATM    1  C9  UNL     1      -9.579   7.340  13.997  1.00  0.00    -0.002 C 
HETATM    2  C10 UNL     1     -10.908   6.530  13.882  1.00  0.00     0.006 C 
HETATM    3  C11 UNL     1     -12.013   7.357  14.574  1.00  0.00     0.011 C 
HETATM    4  C12 UNL     1     -11.403   8.760  14.745  1.00  0.00    -0.032 C 
HETATM    5  C13 UNL     1     -11.576   9.468  13.357  1.00  0.00     0.016 C 
HETATM    6  C14 UNL     1     -12.045   9.615  15.897  1.00  0.00     0.004 C 
HETATM    7  C15 UNL     1     -13.314  10.376  15.453  1.00  0.00     0.007 C 
HETATM    8  C16 UNL     1     -14.026  11.160  16.562  1.00  0.00     0.007 C 
HETATM    9  C17 UNL     1     -13.163  11.468  17.800  1.00  0.00     0.010 C 
HETATM   10  C18 UNL     1     -13.724  12.605  18.706  1.00  0.00     0.018 C 
HETATM   11  C19 UNL     1     -15.241  12.444  18.933  1.00  0.00     0.023 C 
HETATM   12  C20 UNL     1     -13.042  12.584  20.088  1.00  0.00     0.023 C 
HETATM   13  C21 UNL     1     -13.463  13.975  18.072  1.00  0.00     0.135 C 
HETATM   14  O2  UNL     1     -14.107  14.976  18.400  1.00  0.00    -0.297 OA
HETATM   15  C22 UNL     1     -12.400  14.078  17.004  1.00  0.00     0.080 C 
HETATM   16  C23 UNL     1     -11.246  13.140  17.303  1.00  0.00     0.018 C 
HETATM   17  C24 UNL     1     -11.696  11.695  17.393  1.00  0.00    -0.026 A 
HETATM   18  C25 UNL     1     -10.739  10.683  17.968  1.00  0.00     0.021 A 
HETATM   19  C26 UNL     1     -11.036  10.633  16.481  1.00  0.00    -0.027 A 
HETATM   20  C27 UNL     1      -9.833  10.942  15.600  1.00  0.00     0.011 C 
HETATM   21  C28 UNL     1      -9.082   9.691  15.094  1.00  0.00     0.011 C 
HETATM   22  C29 UNL     1      -9.910   8.390  15.104  1.00  0.00    -0.032 C 
HETATM   23  C30 UNL     1      -9.761   7.713  16.494  1.00  0.00     0.016 C 
ENDROOT
BRANCH   1  24
HETATM   24  C7  UNL     1      -8.307   6.440  13.972  1.00  0.00    -0.007 C 
HETATM   25  C8  UNL     1      -6.967   7.065  14.371  1.00  0.00     0.011 C 
BRANCH  24  26
HETATM   26  C6  UNL     1      -8.213   5.506  12.742  1.00  0.00     0.087 C 
BRANCH  26  27
HETATM   27  C5  UNL     1      -7.577   4.137  12.915  1.00  0.00     0.149 C 
HETATM   28  O1  UNL     1      -8.215   3.138  13.243  1.00  0.00    -0.293 OA
BRANCH  27  29
HETATM   29  C4  UNL     1      -6.110   3.960  12.690  1.00  0.00     0.052 C 
HETATM   30  C2  UNL     1      -5.440   3.016  12.002  1.00  0.00    -0.084 C 
HETATM   31  C1  UNL     1      -3.938   3.106  11.882  1.00  0.00     0.043 C 
HETATM   32  C3  UNL     1      -6.031   1.802  11.345  1.00  0.00     0.043 C 
ENDBRANCH  27  29
ENDBRANCH  26  27
ENDBRANCH  24  26
ENDBRANCH   1  24
TORSDOF 4
ENDMDL
MODEL 2
REMARK minimizedAffinity -7.54348183
REMARK CNNscore 0.462162793
REMARK CNNaffinity 6.74462748
REMARK  4 active torsions:
REMARK  status: ('A' for Active; 'I' for Inactive)
REMARK    1  A    between atoms: C4_4  and  C5_5 
REMARK    2  A    between atoms: C5_5  and  C6_7 
REMARK    3  A    between atoms: C6_7  and  C7_8 
REMARK    4  A    between atoms: C7_8  and  C9_10 
ROOT
HETATM    1  C9  UNL     1      -1.045   6.597  12.954  1.00  0.00    -0.002 C 
HETATM    2  C10 UNL     1      -0.191   5.991  14.110  1.00  0.00     0.006 C 
HETATM    3  C11 UNL     1      -0.298   6.949  15.315  1.00  0.00     0.011 C 
HETATM    4  C12 UNL     1      -1.479   7.877  14.974  1.00  0.00    -0.032 C 
HETATM    5  C13 UNL     1      -2.771   7.070  15.346  1.00  0.00     0.016 C 
HETATM    6  C14 UNL     1      -1.451   9.266  15.707  1.00  0.00     0.004 C 
HETATM    7  C15 UNL     1      -2.079   9.221  17.118  1.00  0.00     0.007 C 
HETATM    8  C16 UNL     1      -2.002  10.532  17.909  1.00  0.00     0.007 C 
HETATM    9  C17 UNL     1      -1.756  11.793  17.059  1.00  0.00     0.010 C 
HETATM   10  C18 UNL     1      -2.107  13.129  17.779  1.00  0.00     0.018 C 
HETATM   11  C19 UNL     1      -1.571  13.146  19.224  1.00  0.00     0.023 C 
HETATM   12  C20 UNL     1      -1.480  14.327  17.036  1.00  0.00     0.023 C 
HETATM   13  C21 UNL     1      -3.625  13.339  17.814  1.00  0.00     0.135 C 
HETATM   14  O2  UNL     1      -4.156  14.110  18.618  1.00  0.00    -0.297 OA
HETATM   15  C22 UNL     1      -4.477  12.555  16.844  1.00  0.00     0.080 C 
HETATM   16  C23 UNL     1      -3.758  12.378  15.520  1.00  0.00     0.018 C 
HETATM   17  C24 UNL     1      -2.434  11.658  15.684  1.00  0.00    -0.026 A 
HETATM   18  C25 UNL     1      -1.471  11.662  14.524  1.00  0.00     0.021 A 
HETATM   19  C26 UNL     1      -2.167  10.362  14.881  1.00  0.00    -0.027 A 
HETATM   20  C27 UNL     1      -3.116   9.854  13.804  1.00  0.00     0.011 C 
HETATM   21  C28 UNL     1      -2.493   8.804  12.856  1.00  0.00     0.011 C 
HETATM   22  C29 UNL     1      -1.260   8.072  13.422  1.00  0.00    -0.032 C 
HETATM   23  C30 UNL     1       0.012   8.894  13.078  1.00  0.00     0.016 C 
ENDROOT
BRANCH   1  24
HETATM   24  C7  UNL     1      -0.553   6.173  11.537  1.00  0.00    -0.007 C 
HETATM   25  C8  UNL     1      -0.368   4.681  11.250  1.00  0.00     0.011 C 
BRANCH  24  26
HETATM   26  C6  UNL     1       0.580   7.059  10.967  1.00  0.00     0.087 C 
BRANCH  26  27
HETATM   27  C5  UNL     1       0.283   7.929   9.757  1.00  0.00     0.149 C 
HETATM   28  O1  UNL     1      -0.276   9.021   9.838  1.00  0.00    -0.293 OA
BRANCH  27  29
HETATM   29  C4  UNL     1       0.670   7.466   8.389  1.00  0.00     0.052 C 
HETATM   30  C2  UNL     1       1.788   7.694   7.674  1.00  0.00    -0.084 C 
HETATM   31  C1  UNL     1       1.951   7.048   6.320  1.00  0.00     0.043 C 
HETATM   32  C3  UNL     1       2.928   8.592   8.062  1.00  0.00     0.043 C 
ENDBRANCH  27  29
ENDBRANCH  26  27
ENDBRANCH  24  26
ENDBRANCH   1  24
TORSDOF 4
ENDMDL
MODEL 3
REMARK minimizedAffinity -8.36127186
REMARK CNNscore 0.445064753
REMARK CNNaffinity 6.46349669
REMARK  4 active torsions:
REMARK  status: ('A' for Active; 'I' for Inactive)
REMARK    1  A    between atoms: C4_4  and  C5_5 
REMARK    2  A    between atoms: C5_5  and  C6_7 
REMARK    3  A    between atoms: C6_7  and  C7_8 
REMARK    4  A    between atoms: C7_8  and  C9_10 
ROOT
HETATM    1  C9  UNL     1      -0.079   9.672  16.529  1.00  0.00    -0.002 C 
HETATM    2  C10 UNL     1      -1.426  10.150  15.903  1.00  0.00     0.006 C 
HETATM    3  C11 UNL     1      -1.408   9.756  14.411  1.00  0.00     0.011 C 
HETATM    4  C12 UNL     1      -0.246   8.753  14.285  1.00  0.00    -0.032 C 
HETATM    5  C13 UNL     1      -0.822   7.377  14.766  1.00  0.00     0.016 C 
HETATM    6  C14 UNL     1       0.361   8.636  12.841  1.00  0.00     0.004 C 
HETATM    7  C15 UNL     1      -0.405   7.644  11.938  1.00  0.00     0.007 C 
HETATM    8  C16 UNL     1       0.097   7.555  10.493  1.00  0.00     0.007 C 
HETATM    9  C17 UNL     1       1.529   8.076  10.267  1.00  0.00     0.010 C 
HETATM   10  C18 UNL     1       2.183   7.596   8.936  1.00  0.00     0.018 C 
HETATM   11  C19 UNL     1       1.201   7.716   7.753  1.00  0.00     0.023 C 
HETATM   12  C20 UNL     1       3.421   8.452   8.600  1.00  0.00     0.023 C 
HETATM   13  C21 UNL     1       2.636   6.137   9.055  1.00  0.00     0.135 C 
HETATM   14  O2  UNL     1       2.844   5.438   8.059  1.00  0.00    -0.297 OA
HETATM   15  C22 UNL     1       2.806   5.552  10.437  1.00  0.00     0.080 C 
HETATM   16  C23 UNL     1       3.330   6.599  11.402  1.00  0.00     0.018 C 
HETATM   17  C24 UNL     1       2.406   7.796  11.500  1.00  0.00    -0.026 A 
HETATM   18  C25 UNL     1       2.918   9.040  12.180  1.00  0.00     0.021 A 
HETATM   19  C26 UNL     1       1.851   8.220  12.881  1.00  0.00    -0.027 A 
HETATM   20  C27 UNL     1       2.318   7.583  14.183  1.00  0.00     0.011 C 
HETATM   21  C28 UNL     1       1.966   8.398  15.447  1.00  0.00     0.011 C 
HETATM   22  C29 UNL     1       0.806   9.397  15.272  1.00  0.00    -0.032 C 
HETATM   23  C30 UNL     1       1.381  10.747  14.763  1.00  0.00     0.016 C 
ENDROOT
BRANCH   1  24
HETATM   24  C7  UNL     1       0.361  10.516  17.763  1.00  0.00    -0.007 C 
HETATM   25  C8  UNL     1      -0.099  11.974  17.846  1.00  0.00     0.011 C 
BRANCH  24  26
HETATM   26  C6  UNL     1       1.834  10.306  18.184  1.00  0.00     0.087 C 
BRANCH  26  27
HETATM   27  C5  UNL     1       2.264  10.750  19.573  1.00  0.00     0.149 C 
HETATM   28  O1  UNL     1       2.801  11.835  19.793  1.00  0.00    -0.293 OA
BRANCH  27  29
HETATM   29  C4  UNL     1       2.045   9.851  20.746  1.00  0.00     0.052 C 
HETATM   30  C2  UNL     1       2.877   9.502  21.746  1.00  0.00    -0.084 C 
HETATM   31  C1  UNL     1       2.376   8.610  22.855  1.00  0.00     0.043 C 
HETATM   32  C3  UNL     1       4.326   9.874  21.872  1.00  0.00     0.043 C 
ENDBRANCH  27  29
ENDBRANCH  26  27
ENDBRANCH  24  26
ENDBRANCH   1  24
TORSDOF 4
ENDMDL
MODEL 4
REMARK minimizedAffinity -6.80434752
REMARK CNNscore 0.413242847
REMARK CNNaffinity 5.69705343
REMARK  4 active torsions:
REMARK  status: ('A' for Active; 'I' for Inactive)
REMARK    1  A    between atoms: C4_4  and  C5_5 
REMARK    2  A    between atoms: C5_5  and  C6_7 
REMARK    3  A    between atoms: C6_7  and  C7_8 
REMARK    4  A    between atoms: C7_8  and  C9_10 
ROOT
HETATM    1  C9  UNL     1     -15.025  -2.686  15.196  1.00  0.00    -0.002 C 
HETATM    2  C10 UNL     1     -14.897  -4.114  15.812  1.00  0.00     0.006 C 
HETATM    3  C11 UNL     1     -14.762  -5.111  14.642  1.00  0.00     0.011 C 
HETATM    4  C12 UNL     1     -14.447  -4.236  13.415  1.00  0.00    -0.032 C 
HETATM    5  C13 UNL     1     -12.910  -3.935  13.495  1.00  0.00     0.016 C 
HETATM    6  C14 UNL     1     -14.823  -4.885  12.036  1.00  0.00     0.004 C 
HETATM    7  C15 UNL     1     -13.720  -5.812  11.479  1.00  0.00     0.007 C 
HETATM    8  C16 UNL     1     -14.072  -6.536  10.174  1.00  0.00     0.007 C 
HETATM    9  C17 UNL     1     -15.227  -5.908   9.372  1.00  0.00     0.010 C 
HETATM   10  C18 UNL     1     -15.293  -6.362   7.883  1.00  0.00     0.018 C 
HETATM   11  C19 UNL     1     -15.098  -7.886   7.751  1.00  0.00     0.023 C 
HETATM   12  C20 UNL     1     -16.664  -6.015   7.270  1.00  0.00     0.023 C 
HETATM   13  C21 UNL     1     -14.214  -5.654   7.056  1.00  0.00     0.135 C 
HETATM   14  O2  UNL     1     -13.835  -6.096   5.968  1.00  0.00    -0.297 OA
HETATM   15  C22 UNL     1     -13.596  -4.395   7.617  1.00  0.00     0.080 C 
HETATM   16  C23 UNL     1     -14.625  -3.588   8.386  1.00  0.00     0.018 C 
HETATM   17  C24 UNL     1     -15.227  -4.378   9.532  1.00  0.00    -0.026 A 
HETATM   18  C25 UNL     1     -16.460  -3.833  10.204  1.00  0.00     0.021 A 
HETATM   19  C26 UNL     1     -15.151  -3.811  10.970  1.00  0.00    -0.027 A 
HETATM   20  C27 UNL     1     -14.637  -2.410  11.274  1.00  0.00     0.011 C 
HETATM   21  C28 UNL     1     -15.014  -1.889  12.678  1.00  0.00     0.011 C 
HETATM   22  C29 UNL     1     -15.368  -2.985  13.702  1.00  0.00    -0.032 C 
HETATM   23  C30 UNL     1     -16.885  -3.300  13.594  1.00  0.00     0.016 C 
ENDROOT
BRANCH   1  24
HETATM   24  C7  UNL     1     -15.801  -1.689  16.109  1.00  0.00    -0.007 C 
HETATM   25  C8  UNL     1     -16.963  -2.228  16.949  1.00  0.00     0.011 C 
BRANCH  24  26
HETATM   26  C6  UNL     1     -16.097  -0.321  15.448  1.00  0.00     0.087 C 
BRANCH  26  27
HETATM   27  C5  UNL     1     -15.079   0.796  15.605  1.00  0.00     0.149 C 
HETATM   28  O1  UNL     1     -14.059   0.684  16.283  1.00  0.00    -0.293 OA
BRANCH  27  29
HETATM   29  C4  UNL     1     -15.297   2.107  14.921  1.00  0.00     0.052 C 
HETATM   30  C2  UNL     1     -16.099   3.139  15.247  1.00  0.00    -0.084 C 
HETATM   31  C1  UNL     1     -16.085   4.389  14.402  1.00  0.00     0.043 C 
HETATM   32  C3  UNL     1     -17.086   3.179  16.378  1.00  0.00     0.043 C 
ENDBRANCH  27  29
ENDBRANCH  26  27
ENDBRANCH  24  26
ENDBRANCH   1  24
TORSDOF 4
ENDMDL
MODEL 5
REMARK minimizedAffinity -8.02008152
REMARK CNNscore 0.348202646
REMARK CNNaffinity 6.63306189
REMARK  4 active torsions:
REMARK  status: ('A' for Active; 'I' for Inactive)
REMARK    1  A    between atoms: C4_4  and  C5_5 
REMARK    2  A    between atoms: C5_5  and  C6_7 
REMARK    3  A    between atoms: C6_7  and  C7_8 
REMARK    4  A    between atoms: C7_8  and  C9_10 
ROOT
HETATM    1  C9  UNL     1      -2.998   5.693  12.702  1.00  0.00    -0.002 C 
HETATM    2  C10 UNL     1      -4.119   5.175  13.657  1.00  0.00     0.006 C 
HETATM    3  C11 UNL     1      -4.389   6.284  14.695  1.00  0.00     0.011 C 
HETATM    4  C12 UNL     1      -3.707   7.537  14.117  1.00  0.00    -0.032 C 
HETATM    5  C13 UNL     1      -4.711   8.115  13.060  1.00  0.00     0.016 C 
HETATM    6  C14 UNL     1      -3.326   8.625  15.185  1.00  0.00     0.004 C 
HETATM    7  C15 UNL     1      -4.489   9.585  15.516  1.00  0.00     0.007 C 
HETATM    8  C16 UNL     1      -4.194  10.614  16.614  1.00  0.00     0.007 C 
HETATM    9  C17 UNL     1      -2.700  10.861  16.891  1.00  0.00     0.010 C 
HETATM   10  C18 UNL     1      -2.401  12.180  17.666  1.00  0.00     0.018 C 
HETATM   11  C19 UNL     1      -3.372  12.368  18.849  1.00  0.00     0.023 C 
HETATM   12  C20 UNL     1      -0.969  12.161  18.238  1.00  0.00     0.023 C 
HETATM   13  C21 UNL     1      -2.521  13.390  16.733  1.00  0.00     0.135 C 
HETATM   14  O2  UNL     1      -2.684  14.533  17.170  1.00  0.00    -0.297 OA
HETATM   15  C22 UNL     1      -2.455  13.153  15.243  1.00  0.00     0.080 C 
HETATM   16  C23 UNL     1      -1.488  12.030  14.921  1.00  0.00     0.018 C 
HETATM   17  C24 UNL     1      -1.881  10.730  15.595  1.00  0.00    -0.026 A 
HETATM   18  C25 UNL     1      -0.878   9.605  15.617  1.00  0.00     0.021 A 
HETATM   19  C26 UNL     1      -2.105   9.463  14.735  1.00  0.00    -0.027 A 
HETATM   20  C27 UNL     1      -1.792   9.416  13.246  1.00  0.00     0.011 C 
HETATM   21  C28 UNL     1      -1.692   7.988  12.664  1.00  0.00     0.011 C 
HETATM   22  C29 UNL     1      -2.403   6.900  13.494  1.00  0.00    -0.032 C 
HETATM   23  C30 UNL     1      -1.413   6.357  14.560  1.00  0.00     0.016 C 
ENDROOT
BRANCH   1  24
HETATM   24  C7  UNL     1      -2.161   4.547  12.058  1.00  0.00    -0.007 C 
HETATM   25  C8  UNL     1      -2.768   3.143  12.009  1.00  0.00     0.011 C 
BRANCH  24  26
HETATM   26  C6  UNL     1      -0.663   4.561  12.444  1.00  0.00     0.087 C 
BRANCH  26  27
HETATM   27  C5  UNL     1       0.369   4.775  11.349  1.00  0.00     0.149 C 
HETATM   28  O1  UNL     1       1.213   3.933  11.050  1.00  0.00    -0.293 OA
BRANCH  27  29
HETATM   29  C4  UNL     1       0.390   6.059  10.583  1.00  0.00     0.052 C 
HETATM   30  C2  UNL     1       1.418   6.725  10.023  1.00  0.00    -0.084 C 
HETATM   31  C1  UNL     1       1.151   7.989   9.244  1.00  0.00     0.043 C 
HETATM   32  C3  UNL     1       2.873   6.367  10.124  1.00  0.00     0.043 C 
ENDBRANCH  27  29
ENDBRANCH  26  27
ENDBRANCH  24  26
ENDBRANCH   1  24
TORSDOF 4
ENDMDL
MODEL 6
REMARK minimizedAffinity -7.9510355
REMARK CNNscore 0.345771164
REMARK CNNaffinity 6.78141356
REMARK  4 active torsions:
REMARK  status: ('A' for Active; 'I' for Inactive)
REMARK    1  A    between atoms: C4_4  and  C5_5 
REMARK    2  A    between atoms: C5_5  and  C6_7 
REMARK    3  A    between atoms: C6_7  and  C7_8 
REMARK    4  A    between atoms: C7_8  and  C9_10 
ROOT
HETATM    1  C9  UNL     1      -2.178   5.976  13.148  1.00  0.00    -0.002 C 
HETATM    2  C10 UNL     1      -3.307   5.333  14.013  1.00  0.00     0.006 C 
HETATM    3  C11 UNL     1      -3.815   6.416  14.988  1.00  0.00     0.011 C 
HETATM    4  C12 UNL     1      -3.249   7.737  14.435  1.00  0.00    -0.032 C 
HETATM    5  C13 UNL     1      -4.215   8.158  13.274  1.00  0.00     0.016 C 
HETATM    6  C14 UNL     1      -3.114   8.885  15.499  1.00  0.00     0.004 C 
HETATM    7  C15 UNL     1      -4.417   9.691  15.693  1.00  0.00     0.007 C 
HETATM    8  C16 UNL     1      -4.362  10.770  16.780  1.00  0.00     0.007 C 
HETATM    9  C17 UNL     1      -2.945  11.217  17.184  1.00  0.00     0.010 C 
HETATM   10  C18 UNL     1      -2.893  12.578  17.941  1.00  0.00     0.018 C 
HETATM   11  C19 UNL     1      -3.987  12.659  19.025  1.00  0.00     0.023 C 
HETATM   12  C20 UNL     1      -1.531  12.759  18.640  1.00  0.00     0.023 C 
HETATM   13  C21 UNL     1      -3.080  13.744  16.964  1.00  0.00     0.135 C 
HETATM   14  O2  UNL     1      -3.431  14.863  17.348  1.00  0.00    -0.297 OA
HETATM   15  C22 UNL     1      -2.845  13.490  15.494  1.00  0.00     0.080 C 
HETATM   16  C23 UNL     1      -1.715  12.497  15.296  1.00  0.00     0.018 C 
HETATM   17  C24 UNL     1      -1.998  11.170  15.972  1.00  0.00    -0.026 A 
HETATM   18  C25 UNL     1      -0.864  10.188  16.119  1.00  0.00     0.021 A 
HETATM   19  C26 UNL     1      -1.974   9.868  15.135  1.00  0.00    -0.027 A 
HETATM   20  C27 UNL     1      -1.520   9.835  13.682  1.00  0.00     0.011 C 
HETATM   21  C28 UNL     1      -1.182   8.422  13.157  1.00  0.00     0.011 C 
HETATM   22  C29 UNL     1      -1.821   7.266  13.952  1.00  0.00    -0.032 C 
HETATM   23  C30 UNL     1      -0.873   6.878  15.120  1.00  0.00     0.016 C 
ENDROOT
BRANCH   1  24
HETATM   24  C7  UNL     1      -1.143   4.938  12.618  1.00  0.00    -0.007 C 
HETATM   25  C8  UNL     1       0.293   5.013  13.143  1.00  0.00     0.011 C 
BRANCH  24  26
HETATM   26  C6  UNL     1      -1.233   4.671  11.097  1.00  0.00     0.087 C 
BRANCH  26  27
HETATM   27  C5  UNL     1      -2.091   3.514  10.612  1.00  0.00     0.149 C 
HETATM   28  O1  UNL     1      -1.623   2.514  10.071  1.00  0.00    -0.293 OA
BRANCH  27  29
HETATM   29  C4  UNL     1      -3.576   3.563  10.779  1.00  0.00     0.052 C 
HETATM   30  C2  UNL     1      -4.423   2.667  11.320  1.00  0.00    -0.084 C 
HETATM   31  C1  UNL     1      -5.893   2.996  11.417  1.00  0.00     0.043 C 
HETATM   32  C3  UNL     1      -4.072   1.295  11.820  1.00  0.00     0.043 C 
ENDBRANCH  27  29
ENDBRANCH  26  27
ENDBRANCH  24  26
ENDBRANCH   1  24
TORSDOF 4
ENDMDL
MODEL 7
REMARK minimizedAffinity -7.09933805
REMARK CNNscore 0.341973782
REMARK CNNaffinity 6.52761698
REMARK  4 active torsions:
REMARK  status: ('A' for Active; 'I' for Inactive)
REMARK    1  A    between atoms: C4_4  and  C5_5 
REMARK    2  A    between atoms: C5_5  and  C6_7 
REMARK    3  A    between atoms: C6_7  and  C7_8 
REMARK    4  A    between atoms: C7_8  and  C9_10 
ROOT
HETATM    1  C9  UNL     1      -0.857  10.213  16.356  1.00  0.00    -0.002 C 
HETATM    2  C10 UNL     1      -2.026  10.843  15.537  1.00  0.00     0.006 C 
HETATM    3  C11 UNL     1      -1.849  10.407  14.068  1.00  0.00     0.011 C 
HETATM    4  C12 UNL     1      -0.824   9.259  14.121  1.00  0.00    -0.032 C 
HETATM    5  C13 UNL     1      -1.639   7.983  14.527  1.00  0.00     0.016 C 
HETATM    6  C14 UNL     1      -0.039   9.023  12.781  1.00  0.00     0.004 C 
HETATM    7  C15 UNL     1      -0.793   8.113  11.787  1.00  0.00     0.007 C 
HETATM    8  C16 UNL     1      -0.106   7.918  10.430  1.00  0.00     0.007 C 
HETATM    9  C17 UNL     1       1.399   8.242  10.408  1.00  0.00     0.010 C 
HETATM   10  C18 UNL     1       2.166   7.644   9.191  1.00  0.00     0.018 C 
HETATM   11  C19 UNL     1       1.386   7.855   7.878  1.00  0.00     0.023 C 
HETATM   12  C20 UNL     1       3.541   8.322   9.029  1.00  0.00     0.023 C 
HETATM   13  C21 UNL     1       2.400   6.142   9.389  1.00  0.00     0.135 C 
HETATM   14  O2  UNL     1       2.653   5.394   8.440  1.00  0.00    -0.297 OA
HETATM   15  C22 UNL     1       2.294   5.580  10.787  1.00  0.00     0.080 C 
HETATM   16  C23 UNL     1       2.810   6.577  11.806  1.00  0.00     0.018 C 
HETATM   17  C24 UNL     1       2.047   7.887  11.758  1.00  0.00    -0.026 A 
HETATM   18  C25 UNL     1       2.617   9.073  12.493  1.00  0.00     0.021 A 
HETATM   19  C26 UNL     1       1.363   8.418  13.040  1.00  0.00    -0.027 A 
HETATM   20  C27 UNL     1       1.552   7.764  14.402  1.00  0.00     0.011 C 
HETATM   21  C28 UNL     1       1.135   8.654  15.594  1.00  0.00     0.011 C 
HETATM   22  C29 UNL     1       0.153   9.790  15.243  1.00  0.00    -0.032 C 
HETATM   23  C30 UNL     1       0.968  11.039  14.809  1.00  0.00     0.016 C 
ENDROOT
BRANCH   1  24
HETATM   24  C7  UNL     1      -0.490  11.028  17.632  1.00  0.00    -0.007 C 
HETATM   25  C8  UNL     1      -1.111  10.607  18.967  1.00  0.00     0.011 C 
BRANCH  24  26
HETATM   26  C6  UNL     1      -0.457  12.560  17.420  1.00  0.00     0.087 C 
BRANCH  26  27
HETATM   27  C5  UNL     1      -1.364  13.432  18.274  1.00  0.00     0.149 C 
HETATM   28  O1  UNL     1      -1.045  13.839  19.390  1.00  0.00    -0.293 OA
BRANCH  27  29
HETATM   29  C4  UNL     1      -2.714  13.826  17.768  1.00  0.00     0.052 C 
HETATM   30  C2  UNL     1      -3.941  13.413  18.139  1.00  0.00    -0.084 C 
HETATM   31  C1  UNL     1      -5.160  14.026  17.495  1.00  0.00     0.043 C 
HETATM   32  C3  UNL     1      -4.255  12.332  19.133  1.00  0.00     0.043 C 
ENDBRANCH  27  29
ENDBRANCH  26  27
ENDBRANCH  24  26
ENDBRANCH   1  24
TORSDOF 4
ENDMDL
MODEL 8
REMARK minimizedAffinity -7.19930506
REMARK CNNscore 0.339960277
REMARK CNNaffinity 6.23546171
REMARK  4 active torsions:
REMARK  status: ('A' for Active; 'I' for Inactive)
REMARK    1  A    between atoms: C4_4  and  C5_5 
REMARK    2  A    between atoms: C5_5  and  C6_7 
REMARK    3  A    between atoms: C6_7  and  C7_8 
REMARK    4  A    between atoms: C7_8  and  C9_10 
ROOT
HETATM    1  C9  UNL     1      -1.485  12.030  17.126  1.00  0.00    -0.002 C 
HETATM    2  C10 UNL     1      -2.358  12.812  16.096  1.00  0.00     0.006 C 
HETATM    3  C11 UNL     1      -2.202  12.109  14.731  1.00  0.00     0.011 C 
HETATM    4  C12 UNL     1      -1.556  10.751  15.061  1.00  0.00    -0.032 C 
HETATM    5  C13 UNL     1      -2.732   9.829  15.537  1.00  0.00     0.016 C 
HETATM    6  C14 UNL     1      -0.772  10.094  13.869  1.00  0.00     0.004 C 
HETATM    7  C15 UNL     1      -1.678   9.273  12.925  1.00  0.00     0.007 C 
HETATM    8  C16 UNL     1      -0.975   8.679  11.699  1.00  0.00     0.007 C 
HETATM    9  C17 UNL     1       0.557   8.574  11.813  1.00  0.00     0.010 C 
HETATM   10  C18 UNL     1       1.211   7.598  10.789  1.00  0.00     0.018 C 
HETATM   11  C19 UNL     1       0.627   7.796   9.375  1.00  0.00     0.023 C 
HETATM   12  C20 UNL     1       2.731   7.840  10.702  1.00  0.00     0.023 C 
HETATM   13  C21 UNL     1       0.989   6.143  11.215  1.00  0.00     0.135 C 
HETATM   14  O2  UNL     1       1.088   5.209  10.414  1.00  0.00    -0.297 OA
HETATM   15  C22 UNL     1       0.619   5.868  12.653  1.00  0.00     0.080 C 
HETATM   16  C23 UNL     1       1.320   6.840  13.583  1.00  0.00     0.018 C 
HETATM   17  C24 UNL     1       0.972   8.282  13.266  1.00  0.00    -0.026 A 
HETATM   18  C25 UNL     1       1.800   9.371  13.896  1.00  0.00     0.021 A 
HETATM   19  C26 UNL     1       0.373   9.182  14.373  1.00  0.00    -0.027 A 
HETATM   20  C27 UNL     1       0.261   8.733  15.824  1.00  0.00     0.011 C 
HETATM   21  C28 UNL     1       0.028   9.886  16.826  1.00  0.00     0.011 C 
HETATM   22  C29 UNL     1      -0.556  11.172  16.209  1.00  0.00    -0.032 C 
HETATM   23  C30 UNL     1       0.613  12.064  15.711  1.00  0.00     0.016 C 
ENDROOT
BRANCH   1  24
HETATM   24  C7  UNL     1      -0.997  12.912  18.315  1.00  0.00    -0.007 C 
HETATM   25  C8  UNL     1      -0.189  14.174  17.999  1.00  0.00     0.011 C 
BRANCH  24  26
HETATM   26  C6  UNL     1      -0.448  12.110  19.518  1.00  0.00     0.087 C 
BRANCH  26  27
HETATM   27  C5  UNL     1       1.032  11.762  19.545  1.00  0.00     0.149 C 
HETATM   28  O1  UNL     1       1.886  12.423  18.959  1.00  0.00    -0.293 OA
BRANCH  27  29
HETATM   29  C4  UNL     1       1.504  10.564  20.305  1.00  0.00     0.052 C 
HETATM   30  C2  UNL     1       2.233  10.478  21.434  1.00  0.00    -0.084 C 
HETATM   31  C1  UNL     1       2.525   9.124  22.031  1.00  0.00     0.043 C 
HETATM   32  C3  UNL     1       2.857  11.621  22.182  1.00  0.00     0.043 C 
ENDBRANCH  27  29
ENDBRANCH  26  27
ENDBRANCH  24  26
ENDBRANCH   1  24
TORSDOF 4
ENDMDL
MODEL 9
REMARK minimizedAffinity -7.00189114
REMARK CNNscore 0.328869164
REMARK CNNaffinity 5.86533117
REMARK  4 active torsions:
REMARK  status: ('A' for Active; 'I' for Inactive)
REMARK    1  A    between atoms: C4_4  and  C5_5 
REMARK    2  A    between atoms: C5_5  and  C6_7 
REMARK    3  A    between atoms: C6_7  and  C7_8 
REMARK    4  A    between atoms: C7_8  and  C9_10 
ROOT
HETATM    1  C9  UNL     1       8.231   8.986  13.965  1.00  0.00    -0.002 C 
HETATM    2  C10 UNL     1       7.537  10.123  14.778  1.00  0.00     0.006 C 
HETATM    3  C11 UNL     1       6.030  10.070  14.452  1.00  0.00     0.011 C 
HETATM    4  C12 UNL     1       5.826   8.707  13.765  1.00  0.00    -0.032 C 
HETATM    5  C13 UNL     1       5.734   7.658  14.927  1.00  0.00     0.016 C 
HETATM    6  C14 UNL     1       4.563   8.627  12.834  1.00  0.00     0.004 C 
HETATM    7  C15 UNL     1       3.266   8.277  13.597  1.00  0.00     0.007 C 
HETATM    8  C16 UNL     1       1.991   8.268  12.746  1.00  0.00     0.007 C 
HETATM    9  C17 UNL     1       2.220   8.140  11.229  1.00  0.00     0.010 C 
HETATM   10  C18 UNL     1       0.959   7.700  10.425  1.00  0.00     0.018 C 
HETATM   11  C19 UNL     1      -0.294   8.474  10.880  1.00  0.00     0.023 C 
HETATM   12  C20 UNL     1       1.152   7.972   8.920  1.00  0.00     0.023 C 
HETATM   13  C21 UNL     1       0.704   6.200  10.605  1.00  0.00     0.135 C 
HETATM   14  O2  UNL     1      -0.400   5.697  10.376  1.00  0.00    -0.297 OA
HETATM   15  C22 UNL     1       1.841   5.335  11.095  1.00  0.00     0.080 C 
HETATM   16  C23 UNL     1       3.166   5.827  10.543  1.00  0.00     0.018 C 
HETATM   17  C24 UNL     1       3.450   7.262  10.940  1.00  0.00    -0.026 A 
HETATM   18  C25 UNL     1       4.569   7.989  10.239  1.00  0.00     0.021 A 
HETATM   19  C26 UNL     1       4.759   7.599  11.693  1.00  0.00    -0.027 A 
HETATM   20  C27 UNL     1       5.863   6.575  11.918  1.00  0.00     0.011 C 
HETATM   21  C28 UNL     1       7.225   7.189  12.312  1.00  0.00     0.011 C 
HETATM   22  C29 UNL     1       7.148   8.610  12.906  1.00  0.00    -0.032 C 
HETATM   23  C30 UNL     1       7.205   9.641  11.746  1.00  0.00     0.016 C 
ENDROOT
BRANCH   1  24
HETATM   24  C7  UNL     1       9.727   9.284  13.645  1.00  0.00    -0.007 C 
HETATM   25  C8  UNL     1      10.770   8.217  13.990  1.00  0.00     0.011 C 
BRANCH  24  26
HETATM   26  C6  UNL     1      10.177  10.724  13.991  1.00  0.00     0.087 C 
BRANCH  26  27
HETATM   27  C5  UNL     1      11.309  10.912  14.988  1.00  0.00     0.149 C 
HETATM   28  O1  UNL     1      11.120  11.140  16.181  1.00  0.00    -0.293 OA
BRANCH  27  29
HETATM   29  C4  UNL     1      12.729  10.829  14.530  1.00  0.00     0.052 C 
HETATM   30  C2  UNL     1      13.513  11.753  13.943  1.00  0.00    -0.084 C 
HETATM   31  C1  UNL     1      14.952  11.421  13.631  1.00  0.00     0.043 C 
HETATM   32  C3  UNL     1      13.095  13.125  13.499  1.00  0.00     0.043 C 
ENDBRANCH  27  29
ENDBRANCH  26  27
ENDBRANCH  24  26
ENDBRANCH   1  24
TORSDOF 4
ENDMDL
