MODEL 1
REMARK minimizedAffinity -9.63605976
REMARK  6 active torsions:
REMARK  status: ('A' for Active; 'I' for Inactive)
REMARK    1  A    between atoms: C2_2  and  C30_32 
REMARK    2  A    between atoms: C3_3  and  C4_4 
REMARK    3  A    between atoms: C4_4  and  C5_6 
REMARK    4  A    between atoms: C5_6  and  C6_7 
REMARK    5  A    between atoms: C6_7  and  C8_9 
REMARK    6  A    between atoms: C30_32  and  O4_34 
ROOT
HETATM    1  C8  UNL     1      -4.081   7.165  14.600  1.00  0.00    -0.001 C 
HETATM    2  C9  UNL     1      -4.121   8.584  14.041  1.00  0.00     0.007 C 
HETATM    3  C10 UNL     1      -2.660   9.030  13.936  1.00  0.00     0.015 C 
HETATM    4  C11 UNL     1      -1.750   7.799  14.245  1.00  0.00    -0.013 C 
HETATM    5  C12 UNL     1      -1.225   7.912  15.702  1.00  0.00     0.021 C 
HETATM    6  C13 UNL     1      -0.522   7.797  13.311  1.00  0.00    -0.070 C 
HETATM    7  C14 UNL     1       0.262   8.887  13.205  1.00  0.00    -0.022 C 
HETATM    8  C15 UNL     1       1.554   8.947  12.462  1.00  0.00     0.034 C 
HETATM    9  C16 UNL     1       2.148   7.565  12.093  1.00  0.00     0.013 C 
HETATM   10  C17 UNL     1       3.415   7.685  11.163  1.00  0.00     0.018 C 
HETATM   11  C18 UNL     1       4.131   9.052  11.243  1.00  0.00     0.023 C 
HETATM   12  C19 UNL     1       4.471   6.627  11.556  1.00  0.00     0.023 C 
HETATM   13  C20 UNL     1       3.013   7.490   9.696  1.00  0.00     0.135 C 
HETATM   14  O2  UNL     1       3.817   7.113   8.843  1.00  0.00    -0.297 OA
HETATM   15  C21 UNL     1       1.608   7.884   9.303  1.00  0.00     0.080 C 
HETATM   16  C22 UNL     1       0.528   7.229  10.165  1.00  0.00     0.017 C 
HETATM   17  C23 UNL     1       1.015   6.637  11.520  1.00  0.00    -0.031 C 
HETATM   18  C24 UNL     1       1.525   5.195  11.260  1.00  0.00     0.016 C 
HETATM   19  C25 UNL     1      -0.159   6.513  12.590  1.00  0.00     0.024 C 
HETATM   20  C26 UNL     1      -1.394   5.767  12.028  1.00  0.00     0.010 C 
HETATM   21  C27 UNL     1      -2.753   6.211  12.568  1.00  0.00     0.011 C 
HETATM   22  C28 UNL     1      -2.734   6.574  14.061  1.00  0.00    -0.029 C 
HETATM   23  C29 UNL     1      -2.367   5.321  14.885  1.00  0.00     0.016 C 
ENDROOT
BRANCH   1  24
HETATM   24  C6  UNL     1      -5.407   6.350  14.559  1.00  0.00    -0.007 C 
HETATM   25  C7  UNL     1      -6.218   6.614  15.842  1.00  0.00     0.011 C 
BRANCH  24  26
HETATM   26  C5  UNL     1      -6.332   6.400  13.332  1.00  0.00     0.087 C 
BRANCH  26  27
HETATM   27  C4  UNL     1      -7.694   5.737  13.435  1.00  0.00     0.150 C 
HETATM   28  O1  UNL     1      -8.681   6.361  13.815  1.00  0.00    -0.293 OA
BRANCH  27  29
HETATM   29  C3  UNL     1      -7.796   4.315  12.998  1.00  0.00     0.063 C 
HETATM   30  C2  UNL     1      -6.759   3.566  12.574  1.00  0.00     0.015 C 
HETATM   31  C1  UNL     1      -5.342   4.037  12.408  1.00  0.00     0.055 C 
BRANCH  30  32
HETATM   32  C30 UNL     1      -6.989   2.147  12.210  1.00  0.00     0.171 C 
HETATM   33  O3  UNL     1      -6.213   1.436  11.598  1.00  0.00    -0.646 OA
BRANCH  32  34
HETATM   34  O4  UNL     1      -8.175   1.664  12.617  1.00  0.00    -0.773 OA
HETATM   35  H44 UNL     1      -8.158   0.736  12.305  1.00  0.00     0.167 HD
ENDBRANCH  32  34
ENDBRANCH  30  32
ENDBRANCH  27  29
ENDBRANCH  26  27
ENDBRANCH  24  26
ENDBRANCH   1  24
TORSDOF 6
ENDMDL
MODEL 2
REMARK minimizedAffinity -9.37959576
REMARK  6 active torsions:
REMARK  status: ('A' for Active; 'I' for Inactive)
REMARK    1  A    between atoms: C2_2  and  C30_32 
REMARK    2  A    between atoms: C3_3  and  C4_4 
REMARK    3  A    between atoms: C4_4  and  C5_6 
REMARK    4  A    between atoms: C5_6  and  C6_7 
REMARK    5  A    between atoms: C6_7  and  C8_9 
REMARK    6  A    between atoms: C30_32  and  O4_34 
ROOT
HETATM    1  C8  UNL     1      -0.809   5.895  12.123  1.00  0.00    -0.001 C 
HETATM    2  C9  UNL     1       0.030   4.949  11.270  1.00  0.00     0.007 C 
HETATM    3  C10 UNL     1       1.088   5.826  10.596  1.00  0.00     0.015 C 
HETATM    4  C11 UNL     1       0.997   7.260  11.209  1.00  0.00    -0.013 C 
HETATM    5  C12 UNL     1       0.231   8.182  10.222  1.00  0.00     0.021 C 
HETATM    6  C13 UNL     1       2.411   7.851  11.391  1.00  0.00    -0.070 C 
HETATM    7  C14 UNL     1       3.279   7.885  10.363  1.00  0.00    -0.022 C 
HETATM    8  C15 UNL     1       4.604   8.570  10.380  1.00  0.00     0.034 C 
HETATM    9  C16 UNL     1       4.797   9.567  11.550  1.00  0.00     0.013 C 
HETATM   10  C17 UNL     1       6.268  10.130  11.621  1.00  0.00     0.018 C 
HETATM   11  C18 UNL     1       7.042  10.048  10.287  1.00  0.00     0.023 C 
HETATM   12  C19 UNL     1       6.251  11.625  12.013  1.00  0.00     0.023 C 
HETATM   13  C20 UNL     1       7.086   9.339  12.648  1.00  0.00     0.135 C 
HETATM   14  O2  UNL     1       8.078   9.816  13.201  1.00  0.00    -0.297 OA
HETATM   15  C21 UNL     1       6.697   7.898  12.885  1.00  0.00     0.080 C 
HETATM   16  C22 UNL     1       5.221   7.716  13.238  1.00  0.00     0.017 C 
HETATM   17  C23 UNL     1       4.292   8.916  12.889  1.00  0.00    -0.031 C 
HETATM   18  C24 UNL     1       4.336   9.919  14.072  1.00  0.00     0.016 C 
HETATM   19  C25 UNL     1       2.768   8.482  12.724  1.00  0.00     0.024 C 
HETATM   20  C26 UNL     1       2.252   7.667  13.936  1.00  0.00     0.010 C 
HETATM   21  C27 UNL     1       1.198   6.602  13.632  1.00  0.00     0.011 C 
HETATM   22  C28 UNL     1       0.191   7.023  12.549  1.00  0.00    -0.029 C 
HETATM   23  C29 UNL     1      -0.609   8.246  13.047  1.00  0.00     0.016 C 
ENDROOT
BRANCH   1  24
HETATM   24  C6  UNL     1      -1.793   5.247  13.141  1.00  0.00    -0.007 C 
HETATM   25  C7  UNL     1      -1.317   5.533  14.578  1.00  0.00     0.011 C 
BRANCH  24  26
HETATM   26  C5  UNL     1      -3.310   5.476  13.035  1.00  0.00     0.087 C 
BRANCH  26  27
HETATM   27  C4  UNL     1      -4.124   4.502  12.201  1.00  0.00     0.150 C 
HETATM   28  O1  UNL     1      -3.657   3.979  11.193  1.00  0.00    -0.293 OA
BRANCH  27  29
HETATM   29  C3  UNL     1      -5.491   4.161  12.690  1.00  0.00     0.063 C 
HETATM   30  C2  UNL     1      -6.173   3.050  12.349  1.00  0.00     0.015 C 
HETATM   31  C1  UNL     1      -5.713   1.997  11.380  1.00  0.00     0.055 C 
BRANCH  30  32
HETATM   32  C30 UNL     1      -7.509   2.807  12.943  1.00  0.00     0.171 C 
HETATM   33  O3  UNL     1      -8.092   3.551  13.709  1.00  0.00    -0.646 OA
BRANCH  32  34
HETATM   34  O4  UNL     1      -8.070   1.645  12.566  1.00  0.00    -0.773 OA
HETATM   35  H44 UNL     1      -8.929   1.648  13.037  1.00  0.00     0.167 HD
ENDBRANCH  32  34
ENDBRANCH  30  32
ENDBRANCH  27  29
ENDBRANCH  26  27
ENDBRANCH  24  26
ENDBRANCH   1  24
TORSDOF 6
ENDMDL
MODEL 3
REMARK minimizedAffinity -9.37514114
REMARK  6 active torsions:
REMARK  status: ('A' for Active; 'I' for Inactive)
REMARK    1  A    between atoms: C2_2  and  C30_32 
REMARK    2  A    between atoms: C3_3  and  C4_4 
REMARK    3  A    between atoms: C4_4  and  C5_6 
REMARK    4  A    between atoms: C5_6  and  C6_7 
REMARK    5  A    between atoms: C6_7  and  C8_9 
REMARK    6  A    between atoms: C30_32  and  O4_34 
ROOT
HETATM    1  C8  UNL     1       1.106   7.669  12.363  1.00  0.00    -0.001 C 
HETATM    2  C9  UNL     1       0.952   8.649  13.523  1.00  0.00     0.007 C 
HETATM    3  C10 UNL     1      -0.523   9.055  13.531  1.00  0.00     0.015 C 
HETATM    4  C11 UNL     1      -1.282   8.160  12.499  1.00  0.00    -0.013 C 
HETATM    5  C12 UNL     1      -1.514   8.976  11.198  1.00  0.00     0.021 C 
HETATM    6  C13 UNL     1      -2.668   7.769  13.052  1.00  0.00    -0.070 C 
HETATM    7  C14 UNL     1      -3.519   8.710  13.502  1.00  0.00    -0.022 C 
HETATM    8  C15 UNL     1      -4.934   8.466  13.908  1.00  0.00     0.034 C 
HETATM    9  C16 UNL     1      -5.508   7.102  13.449  1.00  0.00     0.013 C 
HETATM   10  C17 UNL     1      -6.939   6.822  14.050  1.00  0.00     0.018 C 
HETATM   11  C18 UNL     1      -7.702   8.091  14.485  1.00  0.00     0.023 C 
HETATM   12  C19 UNL     1      -7.833   6.125  12.999  1.00  0.00     0.023 C 
HETATM   13  C20 UNL     1      -6.823   5.935  15.295  1.00  0.00     0.135 C 
HETATM   14  O2  UNL     1      -7.757   5.233  15.686  1.00  0.00    -0.297 OA
HETATM   15  C21 UNL     1      -5.548   6.032  16.101  1.00  0.00     0.080 C 
HETATM   16  C22 UNL     1      -4.284   5.819  15.269  1.00  0.00     0.017 C 
HETATM   17  C23 UNL     1      -4.459   5.965  13.729  1.00  0.00    -0.031 C 
HETATM   18  C24 UNL     1      -4.926   4.597  13.165  1.00  0.00     0.016 C 
HETATM   19  C25 UNL     1      -3.091   6.313  12.988  1.00  0.00     0.024 C 
HETATM   20  C26 UNL     1      -1.951   5.336  13.365  1.00  0.00     0.010 C 
HETATM   21  C27 UNL     1      -0.539   5.923  13.385  1.00  0.00     0.011 C 
HETATM   22  C28 UNL     1      -0.284   6.953  12.273  1.00  0.00    -0.029 C 
HETATM   23  C29 UNL     1      -0.409   6.260  10.900  1.00  0.00     0.016 C 
ENDROOT
BRANCH   1  24
HETATM   24  C6  UNL     1       2.442   6.875  12.278  1.00  0.00    -0.007 C 
HETATM   25  C7  UNL     1       2.210   5.547  11.531  1.00  0.00     0.011 C 
BRANCH  24  26
HETATM   26  C5  UNL     1       3.733   7.543  11.774  1.00  0.00     0.087 C 
BRANCH  26  27
HETATM   27  C4  UNL     1       4.136   7.320  10.328  1.00  0.00     0.150 C 
HETATM   28  O1  UNL     1       5.184   6.750  10.037  1.00  0.00    -0.293 OA
BRANCH  27  29
HETATM   29  C3  UNL     1       3.179   7.767   9.275  1.00  0.00     0.063 C 
HETATM   30  C2  UNL     1       2.655   6.968   8.325  1.00  0.00     0.015 C 
HETATM   31  C1  UNL     1       2.979   5.515   8.118  1.00  0.00     0.055 C 
BRANCH  30  32
HETATM   32  C30 UNL     1       1.676   7.528   7.363  1.00  0.00     0.171 C 
HETATM   33  O3  UNL     1       1.648   7.305   6.167  1.00  0.00    -0.646 OA
BRANCH  32  34
HETATM   34  O4  UNL     1       0.770   8.349   7.922  1.00  0.00    -0.773 OA
HETATM   35  H44 UNL     1       0.213   8.618   7.161  1.00  0.00     0.167 HD
ENDBRANCH  32  34
ENDBRANCH  30  32
ENDBRANCH  27  29
ENDBRANCH  26  27
ENDBRANCH  24  26
ENDBRANCH   1  24
TORSDOF 6
ENDMDL
MODEL 4
REMARK minimizedAffinity -9.31654549
REMARK  6 active torsions:
REMARK  status: ('A' for Active; 'I' for Inactive)
REMARK    1  A    between atoms: C2_2  and  C30_32 
REMARK    2  A    between atoms: C3_3  and  C4_4 
REMARK    3  A    between atoms: C4_4  and  C5_6 
REMARK    4  A    between atoms: C5_6  and  C6_7 
REMARK    5  A    between atoms: C6_7  and  C8_9 
REMARK    6  A    between atoms: C30_32  and  O4_34 
ROOT
HETATM    1  C8  UNL     1      -2.014   6.603  12.859  1.00  0.00    -0.001 C 
HETATM    2  C9  UNL     1      -1.357   5.254  13.132  1.00  0.00     0.007 C 
HETATM    3  C10 UNL     1      -0.037   5.270  12.358  1.00  0.00     0.015 C 
HETATM    4  C11 UNL     1       0.178   6.709  11.789  1.00  0.00    -0.013 C 
HETATM    5  C12 UNL     1      -0.202   6.718  10.284  1.00  0.00     0.021 C 
HETATM    6  C13 UNL     1       1.666   7.105  11.892  1.00  0.00    -0.070 C 
HETATM    7  C14 UNL     1       2.626   6.304  11.392  1.00  0.00    -0.022 C 
HETATM    8  C15 UNL     1       4.073   6.656  11.294  1.00  0.00     0.034 C 
HETATM    9  C16 UNL     1       4.382   8.162  11.479  1.00  0.00     0.013 C 
HETATM   10  C17 UNL     1       5.931   8.453  11.539  1.00  0.00     0.018 C 
HETATM   11  C18 UNL     1       6.805   7.363  10.882  1.00  0.00     0.023 C 
HETATM   12  C19 UNL     1       6.258   9.768  10.797  1.00  0.00     0.023 C 
HETATM   13  C20 UNL     1       6.391   8.558  12.998  1.00  0.00     0.135 C 
HETATM   14  O2  UNL     1       7.402   9.183  13.321  1.00  0.00    -0.297 OA
HETATM   15  C21 UNL     1       5.615   7.771  14.029  1.00  0.00     0.080 C 
HETATM   16  C22 UNL     1       4.111   8.048  14.003  1.00  0.00     0.017 C 
HETATM   17  C23 UNL     1       3.574   8.721  12.706  1.00  0.00    -0.031 C 
HETATM   18  C24 UNL     1       3.740  10.257  12.856  1.00  0.00     0.016 C 
HETATM   19  C25 UNL     1       2.019   8.458  12.480  1.00  0.00     0.024 C 
HETATM   20  C26 UNL     1       1.172   8.814  13.727  1.00  0.00     0.010 C 
HETATM   21  C27 UNL     1      -0.080   7.968  13.955  1.00  0.00     0.011 C 
HETATM   22  C28 UNL     1      -0.811   7.586  12.658  1.00  0.00    -0.029 C 
HETATM   23  C29 UNL     1      -1.317   8.869  11.963  1.00  0.00     0.016 C 
ENDROOT
BRANCH   1  24
HETATM   24  C6  UNL     1      -3.244   6.984  13.735  1.00  0.00    -0.007 C 
HETATM   25  C7  UNL     1      -4.088   8.049  13.010  1.00  0.00     0.011 C 
BRANCH  24  26
HETATM   26  C5  UNL     1      -4.160   5.901  14.330  1.00  0.00     0.087 C 
BRANCH  26  27
HETATM   27  C4  UNL     1      -5.343   5.431  13.503  1.00  0.00     0.150 C 
HETATM   28  O1  UNL     1      -6.448   5.955  13.613  1.00  0.00    -0.293 OA
BRANCH  27  29
HETATM   29  C3  UNL     1      -5.093   4.350  12.507  1.00  0.00     0.063 C 
HETATM   30  C2  UNL     1      -5.922   3.314  12.275  1.00  0.00     0.015 C 
HETATM   31  C1  UNL     1      -7.202   3.029  13.008  1.00  0.00     0.055 C 
BRANCH  30  32
HETATM   32  C30 UNL     1      -5.577   2.329  11.222  1.00  0.00     0.171 C 
HETATM   33  O3  UNL     1      -5.594   1.118  11.348  1.00  0.00    -0.646 OA
BRANCH  32  34
HETATM   34  O4  UNL     1      -5.219   2.884  10.051  1.00  0.00    -0.773 OA
HETATM   35  H44 UNL     1      -5.033   2.108   9.483  1.00  0.00     0.167 HD
ENDBRANCH  32  34
ENDBRANCH  30  32
ENDBRANCH  27  29
ENDBRANCH  26  27
ENDBRANCH  24  26
ENDBRANCH   1  24
TORSDOF 6
ENDMDL
MODEL 5
REMARK minimizedAffinity -9.24788094
REMARK  6 active torsions:
REMARK  status: ('A' for Active; 'I' for Inactive)
REMARK    1  A    between atoms: C2_2  and  C30_32 
REMARK    2  A    between atoms: C3_3  and  C4_4 
REMARK    3  A    between atoms: C4_4  and  C5_6 
REMARK    4  A    between atoms: C5_6  and  C6_7 
REMARK    5  A    between atoms: C6_7  and  C8_9 
REMARK    6  A    between atoms: C30_32  and  O4_34 
ROOT
HETATM    1  C8  UNL     1       2.334   7.482  11.199  1.00  0.00    -0.001 C 
HETATM    2  C9  UNL     1       2.362   8.598  12.240  1.00  0.00     0.007 C 
HETATM    3  C10 UNL     1       0.908   9.048  12.404  1.00  0.00     0.015 C 
HETATM    4  C11 UNL     1      -0.002   8.060  11.606  1.00  0.00    -0.013 C 
HETATM    5  C12 UNL     1      -0.406   8.721  10.260  1.00  0.00     0.021 C 
HETATM    6  C13 UNL     1      -1.301   7.782  12.392  1.00  0.00    -0.070 C 
HETATM    7  C14 UNL     1      -2.066   8.797  12.837  1.00  0.00    -0.022 C 
HETATM    8  C15 UNL     1      -3.411   8.648  13.464  1.00  0.00     0.034 C 
HETATM    9  C16 UNL     1      -4.065   7.258  13.261  1.00  0.00     0.013 C 
HETATM   10  C17 UNL     1      -5.399   7.097  14.086  1.00  0.00     0.018 C 
HETATM   11  C18 UNL     1      -6.074   8.433  14.464  1.00  0.00     0.023 C 
HETATM   12  C19 UNL     1      -6.444   6.307  13.264  1.00  0.00     0.023 C 
HETATM   13  C20 UNL     1      -5.119   6.363  15.403  1.00  0.00     0.135 C 
HETATM   14  O2  UNL     1      -5.997   5.742  16.004  1.00  0.00    -0.297 OA
HETATM   15  C21 UNL     1      -3.741   6.516  16.004  1.00  0.00     0.080 C 
HETATM   16  C22 UNL     1      -2.611   6.165  15.036  1.00  0.00     0.017 C 
HETATM   17  C23 UNL     1      -3.003   6.130  13.529  1.00  0.00    -0.031 C 
HETATM   18  C24 UNL     1      -3.564   4.719  13.210  1.00  0.00     0.016 C 
HETATM   19  C25 UNL     1      -1.749   6.343  12.568  1.00  0.00     0.024 C 
HETATM   20  C26 UNL     1      -0.581   5.383  12.899  1.00  0.00     0.010 C 
HETATM   21  C27 UNL     1       0.827   5.923  12.649  1.00  0.00     0.011 C 
HETATM   22  C28 UNL     1       0.936   6.804  11.394  1.00  0.00    -0.029 C 
HETATM   23  C29 UNL     1       0.607   5.956  10.148  1.00  0.00     0.016 C 
ENDROOT
BRANCH   1  24
HETATM   24  C6  UNL     1       3.634   6.641  11.027  1.00  0.00    -0.007 C 
HETATM   25  C7  UNL     1       3.350   5.427  10.122  1.00  0.00     0.011 C 
BRANCH  24  26
HETATM   26  C5  UNL     1       4.960   7.304  10.618  1.00  0.00     0.087 C 
BRANCH  26  27
HETATM   27  C4  UNL     1       6.160   7.124  11.528  1.00  0.00     0.150 C 
HETATM   28  O1  UNL     1       7.295   7.007  11.074  1.00  0.00    -0.293 OA
BRANCH  27  29
HETATM   29  C3  UNL     1       5.914   7.157  12.999  1.00  0.00     0.063 C 
HETATM   30  C2  UNL     1       5.873   8.278  13.745  1.00  0.00     0.015 C 
HETATM   31  C1  UNL     1       6.125   9.675  13.252  1.00  0.00     0.055 C 
BRANCH  30  32
HETATM   32  C30 UNL     1       5.572   8.176  15.193  1.00  0.00     0.171 C 
HETATM   33  O3  UNL     1       5.615   9.091  15.994  1.00  0.00    -0.646 OA
BRANCH  32  34
HETATM   34  O4  UNL     1       5.232   6.939  15.595  1.00  0.00    -0.773 OA
HETATM   35  H44 UNL     1       5.067   7.052  16.554  1.00  0.00     0.167 HD
ENDBRANCH  32  34
ENDBRANCH  30  32
ENDBRANCH  27  29
ENDBRANCH  26  27
ENDBRANCH  24  26
ENDBRANCH   1  24
TORSDOF 6
ENDMDL
MODEL 6
REMARK minimizedAffinity -9.03147888
REMARK  6 active torsions:
REMARK  status: ('A' for Active; 'I' for Inactive)
REMARK    1  A    between atoms: C2_2  and  C30_32 
REMARK    2  A    between atoms: C3_3  and  C4_4 
REMARK    3  A    between atoms: C4_4  and  C5_6 
REMARK    4  A    between atoms: C5_6  and  C6_7 
REMARK    5  A    between atoms: C6_7  and  C8_9 
REMARK    6  A    between atoms: C30_32  and  O4_34 
ROOT
HETATM    1  C8  UNL     1      -1.847   6.578  12.816  1.00  0.00    -0.001 C 
HETATM    2  C9  UNL     1      -1.194   5.225  13.080  1.00  0.00     0.007 C 
HETATM    3  C10 UNL     1       0.123   5.239  12.300  1.00  0.00     0.015 C 
HETATM    4  C11 UNL     1       0.340   6.680  11.735  1.00  0.00    -0.013 C 
HETATM    5  C12 UNL     1      -0.048   6.696  10.232  1.00  0.00     0.021 C 
HETATM    6  C13 UNL     1       1.830   7.070  11.832  1.00  0.00    -0.070 C 
HETATM    7  C14 UNL     1       2.785   6.267  11.324  1.00  0.00    -0.022 C 
HETATM    8  C15 UNL     1       4.232   6.614  11.220  1.00  0.00     0.034 C 
HETATM    9  C16 UNL     1       4.548   8.118  11.409  1.00  0.00     0.013 C 
HETATM   10  C17 UNL     1       6.098   8.403  11.463  1.00  0.00     0.018 C 
HETATM   11  C18 UNL     1       6.965   7.313  10.797  1.00  0.00     0.023 C 
HETATM   12  C19 UNL     1       6.426   9.721  10.724  1.00  0.00     0.023 C 
HETATM   13  C20 UNL     1       6.565   8.501  12.920  1.00  0.00     0.135 C 
HETATM   14  O2  UNL     1       7.581   9.121  13.240  1.00  0.00    -0.297 OA
HETATM   15  C21 UNL     1       5.792   7.714  13.952  1.00  0.00     0.080 C 
HETATM   16  C22 UNL     1       4.290   7.995  13.934  1.00  0.00     0.017 C 
HETATM   17  C23 UNL     1       3.748   8.676  12.642  1.00  0.00    -0.031 C 
HETATM   18  C24 UNL     1       3.921  10.210  12.797  1.00  0.00     0.016 C 
HETATM   19  C25 UNL     1       2.190   8.420  12.423  1.00  0.00     0.024 C 
HETATM   20  C26 UNL     1       1.352   8.774  13.676  1.00  0.00     0.010 C 
HETATM   21  C27 UNL     1       0.098   7.931  13.907  1.00  0.00     0.011 C 
HETATM   22  C28 UNL     1      -0.642   7.557  12.612  1.00  0.00    -0.029 C 
HETATM   23  C29 UNL     1      -1.146   8.844  11.925  1.00  0.00     0.016 C 
ENDROOT
BRANCH   1  24
HETATM   24  C6  UNL     1      -3.071   6.959  13.700  1.00  0.00    -0.007 C 
HETATM   25  C7  UNL     1      -3.922   8.021  12.977  1.00  0.00     0.011 C 
BRANCH  24  26
HETATM   26  C5  UNL     1      -3.981   5.878  14.304  1.00  0.00     0.087 C 
BRANCH  26  27
HETATM   27  C4  UNL     1      -4.794   5.014  13.357  1.00  0.00     0.150 C 
HETATM   28  O1  UNL     1      -4.381   3.923  12.973  1.00  0.00    -0.293 OA
BRANCH  27  29
HETATM   29  C3  UNL     1      -6.141   5.517  12.959  1.00  0.00     0.063 C 
HETATM   30  C2  UNL     1      -7.298   4.864  13.177  1.00  0.00     0.015 C 
HETATM   31  C1  UNL     1      -7.439   3.502  13.797  1.00  0.00     0.055 C 
BRANCH  30  32
HETATM   32  C30 UNL     1      -8.577   5.496  12.773  1.00  0.00     0.171 C 
HETATM   33  O3  UNL     1      -8.871   5.846  11.644  1.00  0.00    -0.646 OA
BRANCH  32  34
HETATM   34  O4  UNL     1      -9.442   5.676  13.786  1.00  0.00    -0.773 OA
HETATM   35  H44 UNL     1     -10.215   6.091  13.349  1.00  0.00     0.167 HD
ENDBRANCH  32  34
ENDBRANCH  30  32
ENDBRANCH  27  29
ENDBRANCH  26  27
ENDBRANCH  24  26
ENDBRANCH   1  24
TORSDOF 6
ENDMDL
MODEL 7
REMARK minimizedAffinity -8.96518707
REMARK  6 active torsions:
REMARK  status: ('A' for Active; 'I' for Inactive)
REMARK    1  A    between atoms: C2_2  and  C30_32 
REMARK    2  A    between atoms: C3_3  and  C4_4 
REMARK    3  A    between atoms: C4_4  and  C5_6 
REMARK    4  A    between atoms: C5_6  and  C6_7 
REMARK    5  A    between atoms: C6_7  and  C8_9 
REMARK    6  A    between atoms: C30_32  and  O4_34 
ROOT
HETATM    1  C8  UNL     1      -4.315   6.549  15.079  1.00  0.00    -0.001 C 
HETATM    2  C9  UNL     1      -3.201   6.110  16.025  1.00  0.00     0.007 C 
HETATM    3  C10 UNL     1      -2.123   5.486  15.136  1.00  0.00     0.015 C 
HETATM    4  C11 UNL     1      -2.513   5.738  13.645  1.00  0.00    -0.013 C 
HETATM    5  C12 UNL     1      -3.132   4.441  13.058  1.00  0.00     0.021 C 
HETATM    6  C13 UNL     1      -1.254   6.066  12.814  1.00  0.00    -0.070 C 
HETATM    7  C14 UNL     1      -0.183   5.250  12.839  1.00  0.00    -0.022 C 
HETATM    8  C15 UNL     1       1.017   5.381  11.962  1.00  0.00     0.034 C 
HETATM    9  C16 UNL     1       0.824   6.318  10.744  1.00  0.00     0.013 C 
HETATM   10  C17 UNL     1       2.167   6.557   9.953  1.00  0.00     0.018 C 
HETATM   11  C18 UNL     1       3.229   5.456  10.163  1.00  0.00     0.023 C 
HETATM   12  C19 UNL     1       1.892   6.600   8.433  1.00  0.00     0.023 C 
HETATM   13  C20 UNL     1       2.812   7.875  10.396  1.00  0.00     0.135 C 
HETATM   14  O2  UNL     1       3.591   8.497   9.672  1.00  0.00    -0.297 OA
HETATM   15  C21 UNL     1       2.544   8.339  11.809  1.00  0.00     0.080 C 
HETATM   16  C22 UNL     1       1.056   8.421  12.152  1.00  0.00     0.017 C 
HETATM   17  C23 UNL     1       0.103   7.638  11.201  1.00  0.00    -0.031 C 
HETATM   18  C24 UNL     1      -0.238   8.557   9.998  1.00  0.00     0.016 C 
HETATM   19  C25 UNL     1      -1.285   7.272  11.894  1.00  0.00     0.024 C 
HETATM   20  C26 UNL     1      -1.968   8.504  12.535  1.00  0.00     0.010 C 
HETATM   21  C27 UNL     1      -2.798   8.236  13.791  1.00  0.00     0.011 C 
HETATM   22  C28 UNL     1      -3.572   6.909  13.747  1.00  0.00    -0.029 C 
HETATM   23  C29 UNL     1      -4.597   6.956  12.594  1.00  0.00     0.016 C 
ENDROOT
BRANCH   1  24
HETATM   24  C6  UNL     1      -5.426   7.466  15.669  1.00  0.00    -0.007 C 
HETATM   25  C7  UNL     1      -5.589   8.719  14.786  1.00  0.00     0.011 C 
BRANCH  24  26
HETATM   26  C5  UNL     1      -6.807   6.902  16.041  1.00  0.00     0.087 C 
BRANCH  26  27
HETATM   27  C4  UNL     1      -7.691   6.379  14.923  1.00  0.00     0.150 C 
HETATM   28  O1  UNL     1      -8.582   7.070  14.437  1.00  0.00    -0.293 OA
BRANCH  27  29
HETATM   29  C3  UNL     1      -7.392   5.016  14.398  1.00  0.00     0.063 C 
HETATM   30  C2  UNL     1      -7.667   4.599  13.146  1.00  0.00     0.015 C 
HETATM   31  C1  UNL     1      -8.367   5.399  12.084  1.00  0.00     0.055 C 
BRANCH  30  32
HETATM   32  C30 UNL     1      -7.276   3.229  12.735  1.00  0.00     0.171 C 
HETATM   33  O3  UNL     1      -6.158   2.878  12.403  1.00  0.00    -0.646 OA
BRANCH  32  34
HETATM   34  O4  UNL     1      -8.289   2.346  12.745  1.00  0.00    -0.773 OA
HETATM   35  H44 UNL     1      -7.862   1.512  12.458  1.00  0.00     0.167 HD
ENDBRANCH  32  34
ENDBRANCH  30  32
ENDBRANCH  27  29
ENDBRANCH  26  27
ENDBRANCH  24  26
ENDBRANCH   1  24
TORSDOF 6
ENDMDL
MODEL 8
REMARK minimizedAffinity -8.88470936
REMARK  6 active torsions:
REMARK  status: ('A' for Active; 'I' for Inactive)
REMARK    1  A    between atoms: C2_2  and  C30_32 
REMARK    2  A    between atoms: C3_3  and  C4_4 
REMARK    3  A    between atoms: C4_4  and  C5_6 
REMARK    4  A    between atoms: C5_6  and  C6_7 
REMARK    5  A    between atoms: C6_7  and  C8_9 
REMARK    6  A    between atoms: C30_32  and  O4_34 
ROOT
HETATM    1  C8  UNL     1       0.675   6.957  12.642  1.00  0.00    -0.001 C 
HETATM    2  C9  UNL     1       0.165   6.812  11.210  1.00  0.00     0.007 C 
HETATM    3  C10 UNL     1      -0.998   5.820  11.282  1.00  0.00     0.015 C 
HETATM    4  C11 UNL     1      -1.303   5.532  12.787  1.00  0.00    -0.013 C 
HETATM    5  C12 UNL     1      -0.681   4.163  13.175  1.00  0.00     0.021 C 
HETATM    6  C13 UNL     1      -2.826   5.427  13.010  1.00  0.00    -0.070 C 
HETATM    7  C14 UNL     1      -3.575   4.597  12.261  1.00  0.00    -0.022 C 
HETATM    8  C15 UNL     1      -5.018   4.298  12.491  1.00  0.00     0.034 C 
HETATM    9  C16 UNL     1      -5.551   4.730  13.880  1.00  0.00     0.013 C 
HETATM   10  C17 UNL     1      -7.112   4.551  14.006  1.00  0.00     0.018 C 
HETATM   11  C18 UNL     1      -7.713   3.526  13.019  1.00  0.00     0.023 C 
HETATM   12  C19 UNL     1      -7.481   4.050  15.420  1.00  0.00     0.023 C 
HETATM   13  C20 UNL     1      -7.819   5.884  13.732  1.00  0.00     0.135 C 
HETATM   14  O2  UNL     1      -8.943   6.130  14.171  1.00  0.00    -0.297 OA
HETATM   15  C21 UNL     1      -7.129   6.858  12.805  1.00  0.00     0.080 C 
HETATM   16  C22 UNL     1      -5.692   7.179  13.217  1.00  0.00     0.017 C 
HETATM   17  C23 UNL     1      -5.040   6.178  14.216  1.00  0.00    -0.031 C 
HETATM   18  C24 UNL     1      -5.430   6.609  15.655  1.00  0.00     0.016 C 
HETATM   19  C25 UNL     1      -3.447   6.205  14.155  1.00  0.00     0.024 C 
HETATM   20  C26 UNL     1      -2.875   7.638  14.293  1.00  0.00     0.010 C 
HETATM   21  C27 UNL     1      -1.578   7.921  13.536  1.00  0.00     0.011 C 
HETATM   22  C28 UNL     1      -0.597   6.737  13.530  1.00  0.00    -0.029 C 
HETATM   23  C29 UNL     1      -0.156   6.435  14.978  1.00  0.00     0.016 C 
ENDROOT
BRANCH   1  24
HETATM   24  C6  UNL     1       1.680   8.112  12.923  1.00  0.00    -0.007 C 
HETATM   25  C7  UNL     1       2.647   7.696  14.048  1.00  0.00     0.011 C 
BRANCH  24  26
HETATM   26  C5  UNL     1       2.460   8.782  11.779  1.00  0.00     0.087 C 
BRANCH  26  27
HETATM   27  C4  UNL     1       3.759   8.139  11.327  1.00  0.00     0.150 C 
HETATM   28  O1  UNL     1       4.834   8.721  11.443  1.00  0.00    -0.293 OA
BRANCH  27  29
HETATM   29  C3  UNL     1       3.683   6.749  10.793  1.00  0.00     0.063 C 
HETATM   30  C2  UNL     1       3.311   6.428   9.539  1.00  0.00     0.015 C 
HETATM   31  C1  UNL     1       2.853   7.392   8.481  1.00  0.00     0.055 C 
BRANCH  30  32
HETATM   32  C30 UNL     1       3.322   5.006   9.119  1.00  0.00     0.171 C 
HETATM   33  O3  UNL     1       3.595   4.595   8.006  1.00  0.00    -0.646 OA
BRANCH  32  34
HETATM   34  O4  UNL     1       2.990   4.145  10.097  1.00  0.00    -0.773 OA
HETATM   35  H44 UNL     1       3.052   3.272   9.657  1.00  0.00     0.167 HD
ENDBRANCH  32  34
ENDBRANCH  30  32
ENDBRANCH  27  29
ENDBRANCH  26  27
ENDBRANCH  24  26
ENDBRANCH   1  24
TORSDOF 6
ENDMDL
MODEL 9
REMARK minimizedAffinity -8.74132824
REMARK  6 active torsions:
REMARK  status: ('A' for Active; 'I' for Inactive)
REMARK    1  A    between atoms: C2_2  and  C30_32 
REMARK    2  A    between atoms: C3_3  and  C4_4 
REMARK    3  A    between atoms: C4_4  and  C5_6 
REMARK    4  A    between atoms: C5_6  and  C6_7 
REMARK    5  A    between atoms: C6_7  and  C8_9 
REMARK    6  A    between atoms: C30_32  and  O4_34 
ROOT
HETATM    1  C8  UNL     1       1.106   7.670  13.362  1.00  0.00    -0.001 C 
HETATM    2  C9  UNL     1       0.792   7.072  14.731  1.00  0.00     0.007 C 
HETATM    3  C10 UNL     1      -0.706   6.757  14.712  1.00  0.00     0.015 C 
HETATM    4  C11 UNL     1      -1.235   6.984  13.260  1.00  0.00    -0.013 C 
HETATM    5  C12 UNL     1      -1.966   8.354  13.198  1.00  0.00     0.021 C 
HETATM    6  C13 UNL     1      -2.265   5.895  12.892  1.00  0.00    -0.070 C 
HETATM    7  C14 UNL     1      -3.319   5.648  13.693  1.00  0.00    -0.022 C 
HETATM    8  C15 UNL     1      -4.453   4.736  13.362  1.00  0.00     0.034 C 
HETATM    9  C16 UNL     1      -4.545   4.340  11.867  1.00  0.00     0.013 C 
HETATM   10  C17 UNL     1      -5.648   3.245  11.604  1.00  0.00     0.018 C 
HETATM   11  C18 UNL     1      -6.746   3.181  12.687  1.00  0.00     0.023 C 
HETATM   12  C19 UNL     1      -6.378   3.531  10.272  1.00  0.00     0.023 C 
HETATM   13  C20 UNL     1      -5.007   1.853  11.551  1.00  0.00     0.135 C 
HETATM   14  O2  UNL     1      -5.534   0.914  10.953  1.00  0.00    -0.297 OA
HETATM   15  C21 UNL     1      -3.746   1.638  12.356  1.00  0.00     0.080 C 
HETATM   16  C22 UNL     1      -2.649   2.659  12.055  1.00  0.00     0.017 C 
HETATM   17  C23 UNL     1      -3.117   3.957  11.333  1.00  0.00    -0.031 C 
HETATM   18  C24 UNL     1      -3.126   3.682   9.805  1.00  0.00     0.016 C 
HETATM   19  C25 UNL     1      -2.119   5.178  11.563  1.00  0.00     0.024 C 
HETATM   20  C26 UNL     1      -0.651   4.812  11.232  1.00  0.00     0.010 C 
HETATM   21  C27 UNL     1       0.422   5.513  12.064  1.00  0.00     0.011 C 
HETATM   22  C28 UNL     1       0.088   6.977  12.394  1.00  0.00    -0.029 C 
HETATM   23  C29 UNL     1       0.007   7.787  11.083  1.00  0.00     0.016 C 
ENDROOT
BRANCH   1  24
HETATM   24  C6  UNL     1       2.608   7.835  12.989  1.00  0.00    -0.007 C 
HETATM   25  C7  UNL     1       3.423   8.169  14.254  1.00  0.00     0.011 C 
BRANCH  24  26
HETATM   26  C5  UNL     1       3.342   6.769  12.157  1.00  0.00     0.087 C 
BRANCH  26  27
HETATM   27  C4  UNL     1       4.385   7.236  11.158  1.00  0.00     0.150 C 
HETATM   28  O1  UNL     1       5.578   6.997  11.321  1.00  0.00    -0.293 OA
BRANCH  27  29
HETATM   29  C3  UNL     1       3.895   7.941   9.938  1.00  0.00     0.063 C 
HETATM   30  C2  UNL     1       3.177   7.364   8.955  1.00  0.00     0.015 C 
HETATM   31  C1  UNL     1       2.795   5.912   8.877  1.00  0.00     0.055 C 
BRANCH  30  32
HETATM   32  C30 UNL     1       2.711   8.190   7.815  1.00  0.00     0.171 C 
HETATM   33  O3  UNL     1       3.162   9.273   7.492  1.00  0.00    -0.646 OA
BRANCH  32  34
HETATM   34  O4  UNL     1       1.698   7.642   7.122  1.00  0.00    -0.773 OA
HETATM   35  H44 UNL     1       1.524   8.303   6.420  1.00  0.00     0.167 HD
ENDBRANCH  32  34
ENDBRANCH  30  32
ENDBRANCH  27  29
ENDBRANCH  26  27
ENDBRANCH  24  26
ENDBRANCH   1  24
TORSDOF 6
ENDMDL
