MODEL 1
REMARK minimizedAffinity -7.42480946
REMARK CNNscore 0.573877454
REMARK CNNaffinity 6.17543459
REMARK  6 active torsions:
REMARK  status: ('A' for Active; 'I' for Inactive)
REMARK    1  A    between atoms: C3_3  and  O1_4 
REMARK    2  A    between atoms: N1_14  and  O2_16 
REMARK    3  A    between atoms: O2_16  and  C13_17 
REMARK    4  A    between atoms: C13_17  and  C14_18 
REMARK       I    between atoms: C14_18  and  N2_20 
REMARK    5  A    between atoms: N2_20  and  C15_21 
REMARK    6  A    between atoms: C15_21  and  C17_23 
ROOT
HETATM    1  C1  UNL     1      -4.449  11.394  16.244  1.00  0.00     0.015 C 
HETATM    2  C2  UNL     1      -4.464  12.551  16.564  1.00  0.00    -0.078 C 
HETATM    3  C3  UNL     1      -4.495  13.977  16.958  1.00  0.00     0.128 C 
HETATM    4  C4  UNL     1      -3.249  14.323  17.817  1.00  0.00     0.052 C 
HETATM    5  C5  UNL     1      -3.712  14.320  19.289  1.00  0.00     0.010 C 
HETATM    6  C6  UNL     1      -5.150  13.807  19.244  1.00  0.00     0.002 C 
HETATM    7  C7  UNL     1      -6.080  14.109  20.426  1.00  0.00    -0.004 C 
HETATM    8  C8  UNL     1      -5.497  13.582  21.742  1.00  0.00     0.010 C 
HETATM    9  C9  UNL     1      -6.431  13.888  22.907  1.00  0.00     0.035 C 
HETATM   10  C10 UNL     1      -7.817  13.333  22.688  1.00  0.00    -0.069 C 
HETATM   11  C11 UNL     1      -8.412  12.643  23.678  1.00  0.00     0.030 C 
HETATM   12  C12 UNL     1      -9.828  12.206  23.597  1.00  0.00     0.032 C 
HETATM   13  N1  UNL     1     -10.341  11.633  24.651  1.00  0.00    -0.271 N 
ATOM     14  H1  UNL     1      -9.820  11.443  25.508  1.00  0.00     0.194 HD
HETATM   15  C23 UNL     1     -10.604  12.528  22.339  1.00  0.00     0.060 C 
HETATM   16  C24 UNL     1      -9.682  12.667  21.133  1.00  0.00     0.020 C 
HETATM   17  C25 UNL     1      -8.492  13.647  21.348  1.00  0.00    -0.016 C 
HETATM   18  C26 UNL     1      -9.024  15.096  21.410  1.00  0.00     0.020 C 
HETATM   19  C27 UNL     1      -7.471  13.451  20.158  1.00  0.00     0.002 C 
HETATM   20  C28 UNL     1      -8.035  13.869  18.773  1.00  0.00     0.007 C 
HETATM   21  C29 UNL     1      -7.040  13.672  17.615  1.00  0.00     0.014 C 
HETATM   22  C30 UNL     1      -5.684  14.347  17.898  1.00  0.00     0.003 C 
HETATM   23  C31 UNL     1      -5.890  15.891  17.886  1.00  0.00     0.020 C 
ENDROOT
BRANCH   3  24
HETATM   24  O1  UNL     1      -4.501  14.760  15.771  1.00  0.00    -0.377 OA
HETATM   25  H2  UNL     1      -3.802  14.403  15.198  1.00  0.00     0.211 HD
ENDBRANCH   3  24
BRANCH  13  26
HETATM   26  O2  UNL     1     -11.694  11.308  24.467  1.00  0.00    -0.271 OA
BRANCH  26  27
HETATM   27  C13 UNL     1     -11.893   9.937  24.803  1.00  0.00     0.303 C 
BRANCH  27  28
HETATM   28  C14 UNL     1     -11.779   9.067  23.563  1.00  0.00     0.244 C 
HETATM   29  O3  UNL     1     -10.717   8.886  22.975  1.00  0.00    -0.271 OA
HETATM   30  N2  UNL     1     -12.986   8.563  23.123  1.00  0.00    -0.351 N 
HETATM   31  H16 UNL     1     -13.762   8.591  23.779  1.00  0.00     0.163 HD
BRANCH  30  32
HETATM   32  C15 UNL     1     -13.082   7.672  21.979  1.00  0.00     0.113 C 
HETATM   33  C16 UNL     1     -14.029   8.222  20.907  1.00  0.00     0.037 C 
BRANCH  32  34
HETATM   34  C17 UNL     1     -13.521   6.286  22.425  1.00  0.00    -0.036 A 
HETATM   35  C18 UNL     1     -14.067   5.361  21.519  1.00  0.00     0.009 A 
HETATM   36  C19 UNL     1     -14.445   4.084  21.942  1.00  0.00     0.001 A 
HETATM   37  C20 UNL     1     -14.277   3.712  23.275  1.00  0.00     0.000 A 
HETATM   38  C21 UNL     1     -13.744   4.621  24.187  1.00  0.00     0.001 A 
HETATM   39  C22 UNL     1     -13.374   5.900  23.767  1.00  0.00     0.009 A 
ENDBRANCH  32  34
ENDBRANCH  30  32
ENDBRANCH  27  28
ENDBRANCH  26  27
ENDBRANCH  13  26
TORSDOF 6
ENDMDL
MODEL 2
REMARK minimizedAffinity -8.07313156
REMARK CNNscore 0.553978384
REMARK CNNaffinity 6.81586313
REMARK  6 active torsions:
REMARK  status: ('A' for Active; 'I' for Inactive)
REMARK    1  A    between atoms: C3_3  and  O1_4 
REMARK    2  A    between atoms: N1_14  and  O2_16 
REMARK    3  A    between atoms: O2_16  and  C13_17 
REMARK    4  A    between atoms: C13_17  and  C14_18 
REMARK       I    between atoms: C14_18  and  N2_20 
REMARK    5  A    between atoms: N2_20  and  C15_21 
REMARK    6  A    between atoms: C15_21  and  C17_23 
ROOT
HETATM    1  C1  UNL     1       2.582   8.024   7.425  1.00  0.00     0.015 C 
HETATM    2  C2  UNL     1       3.042   7.550   8.428  1.00  0.00    -0.078 C 
HETATM    3  C3  UNL     1       3.605   6.976   9.670  1.00  0.00     0.128 C 
HETATM    4  C4  UNL     1       3.637   5.426   9.578  1.00  0.00     0.052 C 
HETATM    5  C5  UNL     1       2.416   4.910  10.368  1.00  0.00     0.010 C 
HETATM    6  C6  UNL     1       1.633   6.169  10.738  1.00  0.00     0.002 C 
HETATM    7  C7  UNL     1       0.638   6.104  11.904  1.00  0.00    -0.004 C 
HETATM    8  C8  UNL     1      -0.417   5.015  11.676  1.00  0.00     0.010 C 
HETATM    9  C9  UNL     1      -1.398   4.962  12.840  1.00  0.00     0.035 C 
HETATM   10  C10 UNL     1      -2.065   6.294  13.087  1.00  0.00    -0.069 C 
HETATM   11  C11 UNL     1      -3.399   6.341  13.250  1.00  0.00     0.030 C 
HETATM   12  C12 UNL     1      -4.104   7.584  13.652  1.00  0.00     0.032 C 
HETATM   13  N1  UNL     1      -5.385   7.499  13.883  1.00  0.00    -0.271 N 
ATOM     14  H1  UNL     1      -5.929   6.643  13.775  1.00  0.00     0.194 HD
HETATM   15  C23 UNL     1      -3.281   8.838  13.850  1.00  0.00     0.060 C 
HETATM   16  C24 UNL     1      -2.008   8.810  13.013  1.00  0.00     0.020 C 
HETATM   17  C25 UNL     1      -1.153   7.522  13.193  1.00  0.00    -0.016 C 
HETATM   18  C26 UNL     1      -0.515   7.521  14.601  1.00  0.00     0.020 C 
HETATM   19  C27 UNL     1      -0.057   7.494  12.056  1.00  0.00     0.002 C 
HETATM   20  C28 UNL     1       0.989   8.638  12.166  1.00  0.00     0.007 C 
HETATM   21  C29 UNL     1       2.052   8.611  11.053  1.00  0.00     0.014 C 
HETATM   22  C30 UNL     1       2.734   7.234  10.937  1.00  0.00     0.003 C 
HETATM   23  C31 UNL     1       3.597   7.004  12.213  1.00  0.00     0.020 C 
ENDROOT
BRANCH   3  24
HETATM   24  O1  UNL     1       4.925   7.480   9.829  1.00  0.00    -0.377 OA
HETATM   25  H2  UNL     1       5.369   7.377   8.970  1.00  0.00     0.211 HD
ENDBRANCH   3  24
BRANCH  13  26
HETATM   26  O2  UNL     1      -5.926   8.726  14.298  1.00  0.00    -0.271 OA
BRANCH  26  27
HETATM   27  C13 UNL     1      -5.748   8.860  15.706  1.00  0.00     0.303 C 
BRANCH  27  28
HETATM   28  C14 UNL     1      -4.862  10.055  16.016  1.00  0.00     0.244 C 
HETATM   29  O3  UNL     1      -4.733  11.003  15.248  1.00  0.00    -0.271 OA
HETATM   30  N2  UNL     1      -4.165   9.939  17.202  1.00  0.00    -0.351 N 
HETATM   31  H16 UNL     1      -4.488   9.233  17.858  1.00  0.00     0.163 HD
BRANCH  30  32
HETATM   32  C15 UNL     1      -3.299  10.995  17.697  1.00  0.00     0.113 C 
HETATM   33  C16 UNL     1      -2.292  10.471  18.726  1.00  0.00     0.037 C 
BRANCH  32  34
HETATM   34  C17 UNL     1      -4.130  12.127  18.284  1.00  0.00    -0.036 A 
HETATM   35  C18 UNL     1      -4.763  13.076  17.464  1.00  0.00     0.009 A 
HETATM   36  C19 UNL     1      -5.539  14.095  18.020  1.00  0.00     0.001 A 
HETATM   37  C20 UNL     1      -5.698  14.178  19.402  1.00  0.00     0.000 A 
HETATM   38  C21 UNL     1      -5.070  13.249  20.229  1.00  0.00     0.001 A 
HETATM   39  C22 UNL     1      -4.287  12.234  19.675  1.00  0.00     0.009 A 
ENDBRANCH  32  34
ENDBRANCH  30  32
ENDBRANCH  27  28
ENDBRANCH  26  27
ENDBRANCH  13  26
TORSDOF 6
ENDMDL
MODEL 3
REMARK minimizedAffinity -7.92742443
REMARK CNNscore 0.550071001
REMARK CNNaffinity 6.73653173
REMARK  6 active torsions:
REMARK  status: ('A' for Active; 'I' for Inactive)
REMARK    1  A    between atoms: C3_3  and  O1_4 
REMARK    2  A    between atoms: N1_14  and  O2_16 
REMARK    3  A    between atoms: O2_16  and  C13_17 
REMARK    4  A    between atoms: C13_17  and  C14_18 
REMARK       I    between atoms: C14_18  and  N2_20 
REMARK    5  A    between atoms: N2_20  and  C15_21 
REMARK    6  A    between atoms: C15_21  and  C17_23 
ROOT
HETATM    1  C1  UNL     1      -3.917  12.510  18.900  1.00  0.00     0.015 C 
HETATM    2  C2  UNL     1      -4.422  13.518  19.313  1.00  0.00    -0.078 C 
HETATM    3  C3  UNL     1      -5.055  14.757  19.815  1.00  0.00     0.128 C 
HETATM    4  C4  UNL     1      -4.450  15.150  21.190  1.00  0.00     0.052 C 
HETATM    5  C5  UNL     1      -5.451  14.678  22.265  1.00  0.00     0.010 C 
HETATM    6  C6  UNL     1      -6.505  13.884  21.494  1.00  0.00     0.002 C 
HETATM    7  C7  UNL     1      -7.882  13.668  22.134  1.00  0.00    -0.004 C 
HETATM    8  C8  UNL     1      -7.760  12.975  23.497  1.00  0.00     0.010 C 
HETATM    9  C9  UNL     1      -9.135  12.766  24.120  1.00  0.00     0.035 C 
HETATM   10  C10 UNL     1     -10.060  11.987  23.216  1.00  0.00    -0.069 C 
HETATM   11  C11 UNL     1     -10.762  10.958  23.724  1.00  0.00     0.030 C 
HETATM   12  C12 UNL     1     -11.805  10.250  22.942  1.00  0.00     0.032 C 
HETATM   13  N1  UNL     1     -12.500   9.333  23.559  1.00  0.00    -0.271 N 
ATOM     14  H1  UNL     1     -12.347   9.059  24.530  1.00  0.00     0.194 HD
HETATM   15  C23 UNL     1     -12.051  10.692  21.516  1.00  0.00     0.060 C 
HETATM   16  C24 UNL     1     -10.808  11.328  20.905  1.00  0.00     0.020 C 
HETATM   17  C25 UNL     1     -10.183  12.464  21.765  1.00  0.00    -0.016 C 
HETATM   18  C26 UNL     1     -11.116  13.696  21.746  1.00  0.00     0.020 C 
HETATM   19  C27 UNL     1      -8.757  12.803  21.173  1.00  0.00     0.002 C 
HETATM   20  C28 UNL     1      -8.801  13.415  19.746  1.00  0.00     0.007 C 
HETATM   21  C29 UNL     1      -7.411  13.738  19.171  1.00  0.00     0.014 C 
HETATM   22  C30 UNL     1      -6.575  14.607  20.131  1.00  0.00     0.003 C 
HETATM   23  C31 UNL     1      -7.228  16.020  20.210  1.00  0.00     0.020 C 
ENDROOT
BRANCH   3  24
HETATM   24  O1  UNL     1      -4.815  15.789  18.866  1.00  0.00    -0.377 OA
HETATM   25  H2  UNL     1      -3.870  15.750  18.645  1.00  0.00     0.211 HD
ENDBRANCH   3  24
BRANCH  13  26
HETATM   26  O2  UNL     1     -13.481   8.771  22.729  1.00  0.00    -0.271 OA
BRANCH  26  27
HETATM   27  C13 UNL     1     -13.199   7.385  22.549  1.00  0.00     0.303 C 
BRANCH  27  28
HETATM   28  C14 UNL     1     -13.574   6.603  23.797  1.00  0.00     0.244 C 
HETATM   29  O3  UNL     1     -13.319   6.999  24.929  1.00  0.00    -0.271 OA
HETATM   30  N2  UNL     1     -14.158   5.381  23.533  1.00  0.00    -0.351 N 
HETATM   31  H16 UNL     1     -14.513   5.234  22.592  1.00  0.00     0.163 HD
BRANCH  30  32
HETATM   32  C15 UNL     1     -14.628   4.503  24.592  1.00  0.00     0.113 C 
HETATM   33  C16 UNL     1     -15.006   5.285  25.853  1.00  0.00     0.037 C 
BRANCH  32  34
HETATM   34  C17 UNL     1     -13.578   3.447  24.907  1.00  0.00    -0.036 A 
HETATM   35  C18 UNL     1     -12.631   3.045  23.951  1.00  0.00     0.009 A 
HETATM   36  C19 UNL     1     -11.661   2.090  24.264  1.00  0.00     0.001 A 
HETATM   37  C20 UNL     1     -11.622   1.527  25.539  1.00  0.00     0.000 A 
HETATM   38  C21 UNL     1     -12.560   1.909  26.495  1.00  0.00     0.001 A 
HETATM   39  C22 UNL     1     -13.535   2.858  26.180  1.00  0.00     0.009 A 
ENDBRANCH  32  34
ENDBRANCH  30  32
ENDBRANCH  27  28
ENDBRANCH  26  27
ENDBRANCH  13  26
TORSDOF 6
ENDMDL
MODEL 4
REMARK minimizedAffinity -9.81474209
REMARK CNNscore 0.542060375
REMARK CNNaffinity 7.30034304
REMARK  6 active torsions:
REMARK  status: ('A' for Active; 'I' for Inactive)
REMARK    1  A    between atoms: C3_3  and  O1_4 
REMARK    2  A    between atoms: N1_14  and  O2_16 
REMARK    3  A    between atoms: O2_16  and  C13_17 
REMARK    4  A    between atoms: C13_17  and  C14_18 
REMARK       I    between atoms: C14_18  and  N2_20 
REMARK    5  A    between atoms: N2_20  and  C15_21 
REMARK    6  A    between atoms: C15_21  and  C17_23 
ROOT
HETATM    1  C1  UNL     1       0.016   8.522   8.846  1.00  0.00     0.015 C 
HETATM    2  C2  UNL     1       0.435   7.947   9.813  1.00  0.00    -0.078 C 
HETATM    3  C3  UNL     1       0.944   7.246  11.013  1.00  0.00     0.128 C 
HETATM    4  C4  UNL     1       1.273   5.767  10.671  1.00  0.00     0.052 C 
HETATM    5  C5  UNL     1       0.083   4.922  11.173  1.00  0.00     0.010 C 
HETATM    6  C6  UNL     1      -0.957   5.945  11.626  1.00  0.00     0.002 C 
HETATM    7  C7  UNL     1      -2.053   5.501  12.603  1.00  0.00    -0.004 C 
HETATM    8  C8  UNL     1      -2.854   4.320  12.043  1.00  0.00     0.010 C 
HETATM    9  C9  UNL     1      -3.939   3.891  13.023  1.00  0.00     0.035 C 
HETATM   10  C10 UNL     1      -4.864   5.027  13.386  1.00  0.00    -0.069 C 
HETATM   11  C11 UNL     1      -6.194   4.827  13.353  1.00  0.00     0.030 C 
HETATM   12  C12 UNL     1      -7.158   5.841  13.847  1.00  0.00     0.032 C 
HETATM   13  N1  UNL     1      -8.420   5.510  13.867  1.00  0.00    -0.271 N 
ATOM     14  H1  UNL     1      -8.780   4.614  13.539  1.00  0.00     0.194 HD
HETATM   15  C23 UNL     1      -6.611   7.151  14.370  1.00  0.00     0.060 C 
HETATM   16  C24 UNL     1      -5.265   7.487  13.740  1.00  0.00     0.020 C 
HETATM   17  C25 UNL     1      -4.214   6.342  13.829  1.00  0.00    -0.016 C 
HETATM   18  C26 UNL     1      -3.757   6.177  15.296  1.00  0.00     0.020 C 
HETATM   19  C27 UNL     1      -3.005   6.708  12.879  1.00  0.00     0.002 C 
HETATM   20  C28 UNL     1      -2.210   7.962  13.332  1.00  0.00     0.007 C 
HETATM   21  C29 UNL     1      -1.036   8.318  12.401  1.00  0.00     0.014 C 
HETATM   22  C30 UNL     1      -0.103   7.116  12.161  1.00  0.00     0.003 C 
HETATM   23  C31 UNL     1       0.632   6.789  13.496  1.00  0.00     0.020 C 
ENDROOT
BRANCH   3  24
HETATM   24  O1  UNL     1       2.120   7.916  11.448  1.00  0.00    -0.377 OA
HETATM   25  H2  UNL     1       2.673   8.050  10.660  1.00  0.00     0.211 HD
ENDBRANCH   3  24
BRANCH  13  26
HETATM   26  O2  UNL     1      -9.223   6.533  14.395  1.00  0.00    -0.271 OA
BRANCH  26  27
HETATM   27  C13 UNL     1     -10.322   6.761  13.516  1.00  0.00     0.303 C 
BRANCH  27  28
HETATM   28  C14 UNL     1     -11.243   7.827  14.087  1.00  0.00     0.244 C 
HETATM   29  O3  UNL     1     -12.095   8.398  13.414  1.00  0.00    -0.271 OA
HETATM   30  N2  UNL     1     -10.982   8.139  15.406  1.00  0.00    -0.351 N 
HETATM   31  H16 UNL     1     -10.413   7.481  15.930  1.00  0.00     0.163 HD
BRANCH  30  32
HETATM   32  C15 UNL     1     -11.782   9.101  16.146  1.00  0.00     0.113 C 
HETATM   33  C16 UNL     1     -13.120   9.381  15.454  1.00  0.00     0.037 C 
BRANCH  32  34
HETATM   34  C17 UNL     1     -11.000  10.391  16.350  1.00  0.00    -0.036 A 
HETATM   35  C18 UNL     1     -10.246  10.964  15.312  1.00  0.00     0.009 A 
HETATM   36  C19 UNL     1      -9.552  12.160  15.511  1.00  0.00     0.001 A 
HETATM   37  C20 UNL     1      -9.606  12.802  16.747  1.00  0.00     0.000 A 
HETATM   38  C21 UNL     1     -10.343  12.241  17.788  1.00  0.00     0.001 A 
HETATM   39  C22 UNL     1     -11.031  11.042  17.593  1.00  0.00     0.009 A 
ENDBRANCH  32  34
ENDBRANCH  30  32
ENDBRANCH  27  28
ENDBRANCH  26  27
ENDBRANCH  13  26
TORSDOF 6
ENDMDL
MODEL 5
REMARK minimizedAffinity -8.94955158
REMARK CNNscore 0.542010128
REMARK CNNaffinity 7.49361372
REMARK  6 active torsions:
REMARK  status: ('A' for Active; 'I' for Inactive)
REMARK    1  A    between atoms: C3_3  and  O1_4 
REMARK    2  A    between atoms: N1_14  and  O2_16 
REMARK    3  A    between atoms: O2_16  and  C13_17 
REMARK    4  A    between atoms: C13_17  and  C14_18 
REMARK       I    between atoms: C14_18  and  N2_20 
REMARK    5  A    between atoms: N2_20  and  C15_21 
REMARK    6  A    between atoms: C15_21  and  C17_23 
ROOT
HETATM    1  C1  UNL     1      -1.786   8.961  12.302  1.00  0.00     0.015 C 
HETATM    2  C2  UNL     1      -1.872   8.056  13.085  1.00  0.00    -0.078 C 
HETATM    3  C3  UNL     1      -1.987   6.947  14.059  1.00  0.00     0.128 C 
HETATM    4  C4  UNL     1      -1.804   5.582  13.341  1.00  0.00     0.052 C 
HETATM    5  C5  UNL     1      -3.218   5.005  13.122  1.00  0.00     0.010 C 
HETATM    6  C6  UNL     1      -4.166   6.121  13.558  1.00  0.00     0.002 C 
HETATM    7  C7  UNL     1      -5.611   5.761  13.928  1.00  0.00    -0.004 C 
HETATM    8  C8  UNL     1      -6.321   5.046  12.772  1.00  0.00     0.010 C 
HETATM    9  C9  UNL     1      -7.753   4.696  13.154  1.00  0.00     0.035 C 
HETATM   10  C10 UNL     1      -8.543   5.908  13.585  1.00  0.00    -0.069 C 
HETATM   11  C11 UNL     1      -9.772   6.107  13.075  1.00  0.00     0.030 C 
HETATM   12  C12 UNL     1     -10.668   7.182  13.568  1.00  0.00     0.032 C 
HETATM   13  N1  UNL     1     -11.877   7.227  13.080  1.00  0.00    -0.271 N 
ATOM     14  H1  UNL     1     -12.228   6.590  12.365  1.00  0.00     0.194 HD
HETATM   15  C23 UNL     1     -10.153   8.097  14.658  1.00  0.00     0.060 C 
HETATM   16  C24 UNL     1      -8.632   8.195  14.634  1.00  0.00     0.020 C 
HETATM   17  C25 UNL     1      -7.904   6.819  14.638  1.00  0.00    -0.016 C 
HETATM   18  C26 UNL     1      -8.079   6.149  16.019  1.00  0.00     0.020 C 
HETATM   19  C27 UNL     1      -6.380   7.068  14.299  1.00  0.00     0.002 C 
HETATM   20  C28 UNL     1      -5.622   7.880  15.385  1.00  0.00     0.007 C 
HETATM   21  C29 UNL     1      -4.139   8.125  15.049  1.00  0.00     0.014 C 
HETATM   22  C30 UNL     1      -3.401   6.817  14.705  1.00  0.00     0.003 C 
HETATM   23  C31 UNL     1      -3.299   5.954  15.998  1.00  0.00     0.020 C 
ENDROOT
BRANCH   3  24
HETATM   24  O1  UNL     1      -0.974   7.118  15.042  1.00  0.00    -0.377 OA
HETATM   25  H2  UNL     1      -0.147   7.295  14.562  1.00  0.00     0.211 HD
ENDBRANCH   3  24
BRANCH  13  26
HETATM   26  O2  UNL     1     -12.638   8.257  13.656  1.00  0.00    -0.271 OA
BRANCH  26  27
HETATM   27  C13 UNL     1     -13.826   8.440  12.890  1.00  0.00     0.303 C 
BRANCH  27  28
HETATM   28  C14 UNL     1     -15.044   8.010  13.692  1.00  0.00     0.244 C 
HETATM   29  O3  UNL     1     -15.921   8.794  14.038  1.00  0.00    -0.271 OA
HETATM   30  N2  UNL     1     -15.029   6.678  14.055  1.00  0.00    -0.351 N 
HETATM   31  H16 UNL     1     -14.383   6.073  13.556  1.00  0.00     0.163 HD
BRANCH  30  32
HETATM   32  C15 UNL     1     -16.124   6.064  14.787  1.00  0.00     0.113 C 
HETATM   33  C16 UNL     1     -15.938   6.190  16.302  1.00  0.00     0.037 C 
BRANCH  32  34
HETATM   34  C17 UNL     1     -16.275   4.605  14.382  1.00  0.00    -0.036 A 
HETATM   35  C18 UNL     1     -15.376   3.622  14.828  1.00  0.00     0.009 A 
HETATM   36  C19 UNL     1     -15.543   2.283  14.464  1.00  0.00     0.001 A 
HETATM   37  C20 UNL     1     -16.613   1.908  13.654  1.00  0.00     0.000 A 
HETATM   38  C21 UNL     1     -17.509   2.872  13.197  1.00  0.00     0.001 A 
HETATM   39  C22 UNL     1     -17.338   4.212  13.554  1.00  0.00     0.009 A 
ENDBRANCH  32  34
ENDBRANCH  30  32
ENDBRANCH  27  28
ENDBRANCH  26  27
ENDBRANCH  13  26
TORSDOF 6
ENDMDL
MODEL 6
REMARK minimizedAffinity -10.4190893
REMARK CNNscore 0.478900194
REMARK CNNaffinity 7.25871134
REMARK  6 active torsions:
REMARK  status: ('A' for Active; 'I' for Inactive)
REMARK    1  A    between atoms: C3_3  and  O1_4 
REMARK    2  A    between atoms: N1_14  and  O2_16 
REMARK    3  A    between atoms: O2_16  and  C13_17 
REMARK    4  A    between atoms: C13_17  and  C14_18 
REMARK       I    between atoms: C14_18  and  N2_20 
REMARK    5  A    between atoms: N2_20  and  C15_21 
REMARK    6  A    between atoms: C15_21  and  C17_23 
ROOT
HETATM    1  C1  UNL     1       0.122   8.466   8.727  1.00  0.00     0.015 C 
HETATM    2  C2  UNL     1       0.549   7.951   9.724  1.00  0.00    -0.078 C 
HETATM    3  C3  UNL     1       1.067   7.325  10.961  1.00  0.00     0.128 C 
HETATM    4  C4  UNL     1       1.475   5.851  10.685  1.00  0.00     0.052 C 
HETATM    5  C5  UNL     1       0.318   4.969  11.199  1.00  0.00     0.010 C 
HETATM    6  C6  UNL     1      -0.781   5.956  11.590  1.00  0.00     0.002 C 
HETATM    7  C7  UNL     1      -1.874   5.498  12.564  1.00  0.00    -0.004 C 
HETATM    8  C8  UNL     1      -2.604   4.257  12.038  1.00  0.00     0.010 C 
HETATM    9  C9  UNL     1      -3.687   3.813  13.014  1.00  0.00     0.035 C 
HETATM   10  C10 UNL     1      -4.674   4.916  13.312  1.00  0.00    -0.069 C 
HETATM   11  C11 UNL     1      -5.991   4.649  13.263  1.00  0.00     0.030 C 
HETATM   12  C12 UNL     1      -7.014   5.633  13.697  1.00  0.00     0.032 C 
HETATM   13  N1  UNL     1      -8.259   5.240  13.707  1.00  0.00    -0.271 N 
ATOM     14  H1  UNL     1      -8.567   4.315  13.409  1.00  0.00     0.194 HD
HETATM   15  C23 UNL     1      -6.543   6.988  14.177  1.00  0.00     0.060 C 
HETATM   16  C24 UNL     1      -5.202   7.365  13.558  1.00  0.00     0.020 C 
HETATM   17  C25 UNL     1      -4.098   6.278  13.714  1.00  0.00    -0.016 C 
HETATM   18  C26 UNL     1      -3.664   6.195  15.195  1.00  0.00     0.020 C 
HETATM   19  C27 UNL     1      -2.889   6.665  12.773  1.00  0.00     0.002 C 
HETATM   20  C28 UNL     1      -2.166   7.975  13.189  1.00  0.00     0.007 C 
HETATM   21  C29 UNL     1      -0.992   8.352  12.267  1.00  0.00     0.014 C 
HETATM   22  C30 UNL     1       0.003   7.189  12.094  1.00  0.00     0.003 C 
HETATM   23  C31 UNL     1       0.726   6.952  13.454  1.00  0.00     0.020 C 
ENDROOT
BRANCH   3  24
HETATM   24  O1  UNL     1       2.199   8.070  11.390  1.00  0.00    -0.377 OA
HETATM   25  H2  UNL     1       2.761   8.199  10.608  1.00  0.00     0.211 HD
ENDBRANCH   3  24
BRANCH  13  26
HETATM   26  O2  UNL     1      -9.122   6.242  14.178  1.00  0.00    -0.271 OA
BRANCH  26  27
HETATM   27  C13 UNL     1      -9.996   6.635  13.123  1.00  0.00     0.303 C 
BRANCH  27  28
HETATM   28  C14 UNL     1     -11.261   7.259  13.690  1.00  0.00     0.244 C 
HETATM   29  O3  UNL     1     -11.346   7.650  14.849  1.00  0.00    -0.271 OA
HETATM   30  N2  UNL     1     -12.319   7.275  12.803  1.00  0.00    -0.351 N 
HETATM   31  H16 UNL     1     -12.099   7.126  11.822  1.00  0.00     0.163 HD
BRANCH  30  32
HETATM   32  C15 UNL     1     -13.602   7.869  13.140  1.00  0.00     0.113 C 
HETATM   33  C16 UNL     1     -13.483   8.855  14.307  1.00  0.00     0.037 C 
BRANCH  32  34
HETATM   34  C17 UNL     1     -14.620   6.783  13.455  1.00  0.00    -0.036 A 
HETATM   35  C18 UNL     1     -14.372   5.804  14.432  1.00  0.00     0.009 A 
HETATM   36  C19 UNL     1     -15.327   4.827  14.722  1.00  0.00     0.001 A 
HETATM   37  C20 UNL     1     -16.545   4.818  14.044  1.00  0.00     0.000 A 
HETATM   38  C21 UNL     1     -16.803   5.777  13.067  1.00  0.00     0.001 A 
HETATM   39  C22 UNL     1     -15.845   6.749  12.770  1.00  0.00     0.009 A 
ENDBRANCH  32  34
ENDBRANCH  30  32
ENDBRANCH  27  28
ENDBRANCH  26  27
ENDBRANCH  13  26
TORSDOF 6
ENDMDL
MODEL 7
REMARK minimizedAffinity -9.26988316
REMARK CNNscore 0.419141442
REMARK CNNaffinity 7.22737169
REMARK  6 active torsions:
REMARK  status: ('A' for Active; 'I' for Inactive)
REMARK    1  A    between atoms: C3_3  and  O1_4 
REMARK    2  A    between atoms: N1_14  and  O2_16 
REMARK    3  A    between atoms: O2_16  and  C13_17 
REMARK    4  A    between atoms: C13_17  and  C14_18 
REMARK       I    between atoms: C14_18  and  N2_20 
REMARK    5  A    between atoms: N2_20  and  C15_21 
REMARK    6  A    between atoms: C15_21  and  C17_23 
ROOT
HETATM    1  C1  UNL     1      -9.006   6.158  10.726  1.00  0.00     0.015 C 
HETATM    2  C2  UNL     1      -8.837   5.736  11.837  1.00  0.00    -0.078 C 
HETATM    3  C3  UNL     1      -8.616   5.210  13.202  1.00  0.00     0.128 C 
HETATM    4  C4  UNL     1      -9.357   6.093  14.243  1.00  0.00     0.052 C 
HETATM    5  C5  UNL     1      -8.298   7.028  14.864  1.00  0.00     0.010 C 
HETATM    6  C6  UNL     1      -7.031   6.777  14.047  1.00  0.00     0.002 C 
HETATM    7  C7  UNL     1      -5.674   7.158  14.652  1.00  0.00    -0.004 C 
HETATM    8  C8  UNL     1      -5.631   8.642  15.033  1.00  0.00     0.010 C 
HETATM    9  C9  UNL     1      -4.278   9.006  15.632  1.00  0.00     0.035 C 
HETATM   10  C10 UNL     1      -3.134   8.669  14.707  1.00  0.00    -0.069 C 
HETATM   11  C11 UNL     1      -2.176   9.587  14.484  1.00  0.00     0.030 C 
HETATM   12  C12 UNL     1      -0.944   9.275  13.719  1.00  0.00     0.032 C 
HETATM   13  N1  UNL     1      -0.031  10.204  13.646  1.00  0.00    -0.271 N 
ATOM     14  H1  UNL     1      -0.128  11.132  14.056  1.00  0.00     0.194 HD
HETATM   15  C23 UNL     1      -0.792   7.881  13.149  1.00  0.00     0.060 C 
HETATM   16  C24 UNL     1      -2.146   7.231  12.892  1.00  0.00     0.020 C 
HETATM   17  C25 UNL     1      -3.108   7.256  14.115  1.00  0.00    -0.016 C 
HETATM   18  C26 UNL     1      -2.582   6.292  15.203  1.00  0.00     0.020 C 
HETATM   19  C27 UNL     1      -4.550   6.841  13.616  1.00  0.00     0.002 C 
HETATM   20  C28 UNL     1      -4.641   5.373  13.117  1.00  0.00     0.007 C 
HETATM   21  C29 UNL     1      -6.045   4.974  12.627  1.00  0.00     0.014 C 
HETATM   22  C30 UNL     1      -7.132   5.281  13.675  1.00  0.00     0.003 C 
HETATM   23  C31 UNL     1      -6.930   4.324  14.888  1.00  0.00     0.020 C 
ENDROOT
BRANCH   3  24
HETATM   24  O1  UNL     1      -9.119   3.880  13.248  1.00  0.00    -0.377 OA
HETATM   25  H2  UNL     1     -10.003   3.902  12.844  1.00  0.00     0.211 HD
ENDBRANCH   3  24
BRANCH  13  26
HETATM   26  O2  UNL     1       1.101   9.773  12.936  1.00  0.00    -0.271 OA
BRANCH  26  27
HETATM   27  C13 UNL     1       2.014   9.162  13.845  1.00  0.00     0.303 C 
BRANCH  27  28
HETATM   28  C14 UNL     1       2.526   7.848  13.276  1.00  0.00     0.244 C 
HETATM   29  O3  UNL     1       2.646   6.834  13.955  1.00  0.00    -0.271 OA
HETATM   30  N2  UNL     1       2.909   7.926  11.953  1.00  0.00    -0.351 N 
HETATM   31  H16 UNL     1       2.583   8.733  11.427  1.00  0.00     0.163 HD
BRANCH  30  32
HETATM   32  C15 UNL     1       3.383   6.768  11.215  1.00  0.00     0.113 C 
HETATM   33  C16 UNL     1       4.909   6.638  11.280  1.00  0.00     0.037 C 
BRANCH  32  34
HETATM   34  C17 UNL     1       2.909   6.831   9.771  1.00  0.00    -0.036 A 
HETATM   35  C18 UNL     1       3.172   5.789   8.865  1.00  0.00     0.009 A 
HETATM   36  C19 UNL     1       2.710   5.854   7.549  1.00  0.00     0.001 A 
HETATM   37  C20 UNL     1       1.974   6.958   7.120  1.00  0.00     0.000 A 
HETATM   38  C21 UNL     1       1.712   8.003   8.004  1.00  0.00     0.001 A 
HETATM   39  C22 UNL     1       2.181   7.942   9.319  1.00  0.00     0.009 A 
ENDBRANCH  32  34
ENDBRANCH  30  32
ENDBRANCH  27  28
ENDBRANCH  26  27
ENDBRANCH  13  26
TORSDOF 6
ENDMDL
MODEL 8
REMARK minimizedAffinity -9.05908871
REMARK CNNscore 0.399316579
REMARK CNNaffinity 7.07179022
REMARK  6 active torsions:
REMARK  status: ('A' for Active; 'I' for Inactive)
REMARK    1  A    between atoms: C3_3  and  O1_4 
REMARK    2  A    between atoms: N1_14  and  O2_16 
REMARK    3  A    between atoms: O2_16  and  C13_17 
REMARK    4  A    between atoms: C13_17  and  C14_18 
REMARK       I    between atoms: C14_18  and  N2_20 
REMARK    5  A    between atoms: N2_20  and  C15_21 
REMARK    6  A    between atoms: C15_21  and  C17_23 
ROOT
HETATM    1  C1  UNL     1      -0.853   8.773  11.208  1.00  0.00     0.015 C 
HETATM    2  C2  UNL     1      -0.756   7.881  12.006  1.00  0.00    -0.078 C 
HETATM    3  C3  UNL     1      -0.644   6.789  12.998  1.00  0.00     0.128 C 
HETATM    4  C4  UNL     1      -0.516   5.420  12.276  1.00  0.00     0.052 C 
HETATM    5  C5  UNL     1      -1.914   4.769  12.311  1.00  0.00     0.010 C 
HETATM    6  C6  UNL     1      -2.830   5.845  12.890  1.00  0.00     0.002 C 
HETATM    7  C7  UNL     1      -4.169   5.422  13.508  1.00  0.00    -0.004 C 
HETATM    8  C8  UNL     1      -5.028   4.649  12.501  1.00  0.00     0.010 C 
HETATM    9  C9  UNL     1      -6.354   4.236  13.127  1.00  0.00     0.035 C 
HETATM   10  C10 UNL     1      -7.121   5.416  13.673  1.00  0.00    -0.069 C 
HETATM   11  C11 UNL     1      -8.427   5.543  13.380  1.00  0.00     0.030 C 
HETATM   12  C12 UNL     1      -9.281   6.583  14.007  1.00  0.00     0.032 C 
HETATM   13  N1  UNL     1     -10.557   6.557  13.733  1.00  0.00    -0.271 N 
ATOM     14  H1  UNL     1     -10.991   5.888  13.097  1.00  0.00     0.194 HD
HETATM   15  C23 UNL     1      -8.635   7.545  14.980  1.00  0.00     0.060 C 
HETATM   16  C24 UNL     1      -7.149   7.717  14.693  1.00  0.00     0.020 C 
HETATM   17  C25 UNL     1      -6.359   6.380  14.589  1.00  0.00    -0.016 C 
HETATM   18  C26 UNL     1      -6.259   5.731  15.988  1.00  0.00     0.020 C 
HETATM   19  C27 UNL     1      -4.931   6.697  13.990  1.00  0.00     0.002 C 
HETATM   20  C28 UNL     1      -4.042   7.569  14.918  1.00  0.00     0.007 C 
HETATM   21  C29 UNL     1      -2.654   7.880  14.329  1.00  0.00     0.014 C 
HETATM   22  C30 UNL     1      -1.917   6.603  13.879  1.00  0.00     0.003 C 
HETATM   23  C31 UNL     1      -1.551   5.774  15.146  1.00  0.00     0.020 C 
ENDROOT
BRANCH   3  24
HETATM   24  O1  UNL     1       0.512   7.031  13.789  1.00  0.00    -0.377 OA
HETATM   25  H2  UNL     1       1.234   7.239  13.173  1.00  0.00     0.211 HD
ENDBRANCH   3  24
BRANCH  13  26
HETATM   26  O2  UNL     1     -11.261   7.560  14.419  1.00  0.00    -0.271 OA
BRANCH  26  27
HETATM   27  C13 UNL     1     -11.656   8.567  13.491  1.00  0.00     0.303 C 
BRANCH  27  28
HETATM   28  C14 UNL     1     -11.685   9.927  14.168  1.00  0.00     0.244 C 
HETATM   29  O3  UNL     1     -12.415  10.839  13.794  1.00  0.00    -0.271 OA
HETATM   30  N2  UNL     1     -10.765  10.060  15.189  1.00  0.00    -0.351 N 
HETATM   31  H16 UNL     1     -10.360   9.204  15.557  1.00  0.00     0.163 HD
BRANCH  30  32
HETATM   32  C15 UNL     1     -10.666  11.270  15.988  1.00  0.00     0.113 C 
HETATM   33  C16 UNL     1      -9.336  11.996  15.760  1.00  0.00     0.037 C 
BRANCH  32  34
HETATM   34  C17 UNL     1     -10.857  10.945  17.462  1.00  0.00    -0.036 A 
HETATM   35  C18 UNL     1     -10.855  11.952  18.442  1.00  0.00     0.009 A 
HETATM   36  C19 UNL     1     -11.053  11.637  19.789  1.00  0.00     0.001 A 
HETATM   37  C20 UNL     1     -11.260  10.314  20.174  1.00  0.00     0.000 A 
HETATM   38  C21 UNL     1     -11.257   9.304  19.215  1.00  0.00     0.001 A 
HETATM   39  C22 UNL     1     -11.051   9.616  17.869  1.00  0.00     0.009 A 
ENDBRANCH  32  34
ENDBRANCH  30  32
ENDBRANCH  27  28
ENDBRANCH  26  27
ENDBRANCH  13  26
TORSDOF 6
ENDMDL
MODEL 9
REMARK minimizedAffinity -9.98880291
REMARK CNNscore 0.365528405
REMARK CNNaffinity 6.94956446
REMARK  6 active torsions:
REMARK  status: ('A' for Active; 'I' for Inactive)
REMARK    1  A    between atoms: C3_3  and  O1_4 
REMARK    2  A    between atoms: N1_14  and  O2_16 
REMARK    3  A    between atoms: O2_16  and  C13_17 
REMARK    4  A    between atoms: C13_17  and  C14_18 
REMARK       I    between atoms: C14_18  and  N2_20 
REMARK    5  A    between atoms: N2_20  and  C15_21 
REMARK    6  A    between atoms: C15_21  and  C17_23 
ROOT
HETATM    1  C1  UNL     1       1.574   7.011   6.822  1.00  0.00     0.015 C 
HETATM    2  C2  UNL     1       2.199   7.238   7.822  1.00  0.00    -0.078 C 
HETATM    3  C3  UNL     1       2.960   7.526   9.058  1.00  0.00     0.128 C 
HETATM    4  C4  UNL     1       3.787   6.282   9.481  1.00  0.00     0.052 C 
HETATM    5  C5  UNL     1       2.994   5.586  10.608  1.00  0.00     0.010 C 
HETATM    6  C6  UNL     1       1.669   6.344  10.677  1.00  0.00     0.002 C 
HETATM    7  C7  UNL     1       0.834   6.256  11.960  1.00  0.00    -0.004 C 
HETATM    8  C8  UNL     1       0.494   4.800  12.305  1.00  0.00     0.010 C 
HETATM    9  C9  UNL     1      -0.336   4.728  13.581  1.00  0.00     0.035 C 
HETATM   10  C10 UNL     1      -1.596   5.553  13.490  1.00  0.00    -0.069 C 
HETATM   11  C11 UNL     1      -2.767   5.010  13.871  1.00  0.00     0.030 C 
HETATM   12  C12 UNL     1      -4.016   5.805  13.961  1.00  0.00     0.032 C 
HETATM   13  N1  UNL     1      -5.074   5.209  14.438  1.00  0.00    -0.271 N 
ATOM     14  H1  UNL     1      -5.098   4.230  14.723  1.00  0.00     0.194 HD
HETATM   15  C23 UNL     1      -3.960   7.267  13.576  1.00  0.00     0.060 C 
HETATM   16  C24 UNL     1      -2.843   7.541  12.576  1.00  0.00     0.020 C 
HETATM   17  C25 UNL     1      -1.449   7.002  13.014  1.00  0.00    -0.016 C 
HETATM   18  C26 UNL     1      -0.922   7.843  14.198  1.00  0.00     0.020 C 
HETATM   19  C27 UNL     1      -0.480   7.077  11.768  1.00  0.00     0.002 C 
HETATM   20  C28 UNL     1      -0.174   8.526  11.298  1.00  0.00     0.007 C 
HETATM   21  C29 UNL     1       0.766   8.595  10.081  1.00  0.00     0.014 C 
HETATM   22  C30 UNL     1       2.061   7.791  10.306  1.00  0.00     0.003 C 
HETATM   23  C31 UNL     1       2.902   8.508  11.404  1.00  0.00     0.020 C 
ENDROOT
BRANCH   3  24
HETATM   24  O1  UNL     1       3.828   8.620   8.795  1.00  0.00    -0.377 OA
HETATM   25  H2  UNL     1       4.274   8.426   7.953  1.00  0.00     0.211 HD
ENDBRANCH   3  24
BRANCH  13  26
HETATM   26  O2  UNL     1      -6.175   6.076  14.515  1.00  0.00    -0.271 OA
BRANCH  26  27
HETATM   27  C13 UNL     1      -7.369   5.332  14.284  1.00  0.00     0.303 C 
BRANCH  27  28
HETATM   28  C14 UNL     1      -7.308   4.642  12.931  1.00  0.00     0.244 C 
HETATM   29  O3  UNL     1      -8.024   4.965  11.988  1.00  0.00    -0.271 OA
HETATM   30  N2  UNL     1      -6.430   3.578  12.888  1.00  0.00    -0.351 N 
HETATM   31  H16 UNL     1      -5.742   3.519  13.634  1.00  0.00     0.163 HD
BRANCH  30  32
HETATM   32  C15 UNL     1      -6.195   2.817  11.672  1.00  0.00     0.113 C 
HETATM   33  C16 UNL     1      -6.775   1.402  11.766  1.00  0.00     0.037 C 
BRANCH  32  34
HETATM   34  C17 UNL     1      -4.707   2.770  11.359  1.00  0.00    -0.036 A 
HETATM   35  C18 UNL     1      -4.079   3.789  10.622  1.00  0.00     0.009 A 
HETATM   36  C19 UNL     1      -2.707   3.740  10.362  1.00  0.00     0.001 A 
HETATM   37  C20 UNL     1      -1.944   2.675  10.837  1.00  0.00     0.000 A 
HETATM   38  C21 UNL     1      -2.553   1.653  11.562  1.00  0.00     0.001 A 
HETATM   39  C22 UNL     1      -3.926   1.697  11.816  1.00  0.00     0.009 A 
ENDBRANCH  32  34
ENDBRANCH  30  32
ENDBRANCH  27  28
ENDBRANCH  26  27
ENDBRANCH  13  26
TORSDOF 6
ENDMDL
