MODEL 1
REMARK minimizedAffinity -11.9368029
REMARK  6 active torsions:
REMARK  status: ('A' for Active; 'I' for Inactive)
REMARK    1  A    between atoms: N1_2  and  C2_3 
REMARK    2  A    between atoms: C4_5  and  N4_35 
REMARK    3  A    between atoms: C5_7  and  N2_12 
REMARK    4  A    between atoms: C7_9  and  O2_10 
REMARK    5  A    between atoms: C18_25  and  O4_26 
REMARK    6  A    between atoms: C27_36  and  C28_37 
ROOT
HETATM    1  C2  UNL     1      -3.209  47.813 -20.981  1.00  0.00     0.257 C 
HETATM    2  C3  UNL     1      -2.085  48.448 -21.895  1.00  0.00     0.092 C 
HETATM    3  C4  UNL     1      -1.902  49.822 -21.335  1.00  0.00     0.234 C 
HETATM    4  O1  UNL     1      -3.191  50.426 -21.506  1.00  0.00    -0.333 OA
HETATM    5  C5  UNL     1      -3.933  50.318 -20.286  1.00  0.00     0.168 C 
HETATM    6  C6  UNL     1      -5.345  50.797 -20.660  1.00  0.00     0.074 C 
HETATM    7  C7  UNL     1      -3.855  48.792 -19.851  1.00  0.00     0.209 C 
ENDROOT
BRANCH   1   8
HETATM    8  N1  UNL     1      -4.122  46.958 -21.765  1.00  0.00     0.086 N 
HETATM    9  C1  UNL     1      -5.099  47.688 -22.562  1.00  0.00     0.307 C 
HETATM   10  H4  UNL     1      -4.648  46.365 -21.120  1.00  0.00     0.316 HD
ENDBRANCH   1   8
BRANCH   7  11
HETATM   11  O2  UNL     1      -5.125  48.292 -19.394  1.00  0.00    -0.384 OA
HETATM   12  C8  UNL     1      -5.184  48.111 -17.983  1.00  0.00     0.202 C 
ENDBRANCH   7  11
BRANCH   3  13
HETATM   13  N4  UNL     1      -0.991  50.884 -21.575  1.00  0.00    -0.316 N 
HETATM   14  C26 UNL     1      -0.266  51.734 -20.796  1.00  0.00     0.048 A 
HETATM   15  C21 UNL     1       0.271  52.716 -21.668  1.00  0.00     0.004 A 
HETATM   16  C25 UNL     1      -0.036  51.750 -19.414  1.00  0.00     0.030 A 
HETATM   17  C20 UNL     1      -0.176  52.425 -23.000  1.00  0.00     0.021 A 
HETATM   18  C22 UNL     1       1.062  53.737 -21.100  1.00  0.00     0.014 A 
HETATM   19  C19 UNL     1      -0.139  52.908 -24.310  1.00  0.00     0.045 A 
HETATM   20  C27 UNL     1      -0.908  51.269 -22.884  1.00  0.00     0.077 A 
HETATM   21  C16 UNL     1      -0.818  52.320 -25.410  1.00  0.00     0.061 A 
HETATM   22  C18 UNL     1       0.477  54.067 -24.890  1.00  0.00     0.155 A 
HETATM   23  C15 UNL     1      -1.599  51.152 -25.345  1.00  0.00     0.022 C 
HETATM   24  C17 UNL     1      -0.543  53.199 -26.555  1.00  0.00     0.259 A 
HETATM   25  C14 UNL     1      -2.450  50.350 -26.166  1.00  0.00     0.004 A 
HETATM   26  C28 UNL     1      -1.629  50.559 -24.098  1.00  0.00     0.078 C 
HETATM   27  C9  UNL     1      -2.938  49.282 -25.381  1.00  0.00     0.049 A 
HETATM   28  C13 UNL     1      -2.879  50.443 -27.508  1.00  0.00     0.014 A 
HETATM   29  N2  UNL     1      -2.339  49.369 -24.131  1.00  0.00    -0.308 N 
HETATM   30  C10 UNL     1      -3.844  48.342 -25.905  1.00  0.00     0.030 A 
HETATM   31  C11 UNL     1      -4.251  48.470 -27.235  1.00  0.00     0.002 A 
HETATM   32  C12 UNL     1      -3.772  49.503 -28.029  1.00  0.00     0.001 A 
HETATM   33  O3  UNL     1      -0.964  53.023 -27.683  1.00  0.00    -0.267 OA
HETATM   34  N3  UNL     1       0.266  54.252 -26.148  1.00  0.00    -0.303 N 
ATOM     35  H3  UNL     1       0.621  55.015 -26.725  1.00  0.00     0.171 HD
HETATM   36  C23 UNL     1       1.300  53.753 -19.720  1.00  0.00     0.001 A 
HETATM   37  C24 UNL     1       0.758  52.774 -18.893  1.00  0.00     0.002 A 
BRANCH  22  38
HETATM   38  O4  UNL     1       1.218  54.897 -24.169  1.00  0.00    -0.345 OA
HETATM   39  H20 UNL     1       1.536  55.604 -24.756  1.00  0.00     0.219 HD
ENDBRANCH  22  38
ENDBRANCH   3  13
TORSDOF 6
ENDMDL
MODEL 2
REMARK minimizedAffinity -11.8022423
REMARK  6 active torsions:
REMARK  status: ('A' for Active; 'I' for Inactive)
REMARK    1  A    between atoms: N1_2  and  C2_3 
REMARK    2  A    between atoms: C4_5  and  N4_35 
REMARK    3  A    between atoms: C5_7  and  N2_12 
REMARK    4  A    between atoms: C7_9  and  O2_10 
REMARK    5  A    between atoms: C18_25  and  O4_26 
REMARK    6  A    between atoms: C27_36  and  C28_37 
ROOT
HETATM    1  C2  UNL     1      -2.753  47.841 -20.742  1.00  0.00     0.257 C 
HETATM    2  C3  UNL     1      -2.441  47.754 -22.290  1.00  0.00     0.092 C 
HETATM    3  C4  UNL     1      -2.997  49.029 -22.838  1.00  0.00     0.234 C 
HETATM    4  O1  UNL     1      -4.394  48.945 -22.528  1.00  0.00    -0.333 OA
HETATM    5  C5  UNL     1      -4.657  49.664 -21.319  1.00  0.00     0.168 C 
HETATM    6  C6  UNL     1      -6.118  49.320 -20.985  1.00  0.00     0.074 C 
HETATM    7  C7  UNL     1      -3.604  49.141 -20.251  1.00  0.00     0.209 C 
ENDROOT
BRANCH   1   8
HETATM    8  N1  UNL     1      -3.120  46.522 -20.191  1.00  0.00     0.086 N 
HETATM    9  C1  UNL     1      -4.192  45.844 -20.906  1.00  0.00     0.307 C 
HETATM   10  H4  UNL     1      -3.437  46.647 -19.228  1.00  0.00     0.316 HD
ENDBRANCH   1   8
BRANCH   7  11
HETATM   11  O2  UNL     1      -4.203  48.914 -18.962  1.00  0.00    -0.384 OA
HETATM   12  C8  UNL     1      -3.611  49.685 -17.922  1.00  0.00     0.202 C 
ENDBRANCH   7  11
BRANCH   3  13
HETATM   13  N4  UNL     1      -2.966  49.667 -24.106  1.00  0.00    -0.316 N 
HETATM   14  C26 UNL     1      -3.409  49.361 -25.357  1.00  0.00     0.048 A 
HETATM   15  C21 UNL     1      -2.850  50.330 -26.228  1.00  0.00     0.004 A 
HETATM   16  C25 UNL     1      -4.234  48.325 -25.815  1.00  0.00     0.030 A 
HETATM   17  C20 UNL     1      -2.042  51.222 -25.447  1.00  0.00     0.021 A 
HETATM   18  C22 UNL     1      -3.149  50.228 -27.604  1.00  0.00     0.014 A 
HETATM   19  C19 UNL     1      -1.180  52.315 -25.556  1.00  0.00     0.045 A 
HETATM   20  C27 UNL     1      -2.188  50.790 -24.152  1.00  0.00     0.077 A 
HETATM   21  C16 UNL     1      -0.475  52.903 -24.470  1.00  0.00     0.061 A 
HETATM   22  C18 UNL     1      -0.725  53.074 -26.685  1.00  0.00     0.155 A 
HETATM   23  C15 UNL     1      -0.568  52.488 -23.129  1.00  0.00     0.022 C 
HETATM   24  C17 UNL     1       0.346  53.966 -25.066  1.00  0.00     0.259 A 
HETATM   25  C14 UNL     1       0.009  52.759 -21.851  1.00  0.00     0.004 A 
HETATM   26  C28 UNL     1      -1.462  51.457 -22.917  1.00  0.00     0.078 C 
HETATM   27  C9  UNL     1      -0.587  51.893 -20.907  1.00  0.00     0.049 A 
HETATM   28  C13 UNL     1       1.010  53.648 -21.403  1.00  0.00     0.014 A 
HETATM   29  N2  UNL     1      -1.569  51.163 -21.565  1.00  0.00    -0.308 N 
HETATM   30  C10 UNL     1      -0.187  51.892 -19.559  1.00  0.00     0.030 A 
HETATM   31  C11 UNL     1       0.811  52.781 -19.153  1.00  0.00     0.002 A 
HETATM   32  C12 UNL     1       1.400  53.651 -20.060  1.00  0.00     0.001 A 
HETATM   33  O3  UNL     1       1.098  54.693 -24.445  1.00  0.00    -0.267 OA
HETATM   34  N3  UNL     1       0.130  54.006 -26.438  1.00  0.00    -0.303 N 
ATOM     35  H3  UNL     1       0.559  54.641 -27.110  1.00  0.00     0.171 HD
HETATM   36  C23 UNL     1      -3.978  49.198 -28.065  1.00  0.00     0.001 A 
HETATM   37  C24 UNL     1      -4.509  48.263 -27.184  1.00  0.00     0.002 A 
BRANCH  22  38
HETATM   38  O4  UNL     1      -1.162  52.825 -27.913  1.00  0.00    -0.345 OA
HETATM   39  H20 UNL     1      -0.732  53.453 -28.519  1.00  0.00     0.219 HD
ENDBRANCH  22  38
ENDBRANCH   3  13
TORSDOF 6
ENDMDL
MODEL 3
REMARK minimizedAffinity -11.4700928
REMARK  6 active torsions:
REMARK  status: ('A' for Active; 'I' for Inactive)
REMARK    1  A    between atoms: N1_2  and  C2_3 
REMARK    2  A    between atoms: C4_5  and  N4_35 
REMARK    3  A    between atoms: C5_7  and  N2_12 
REMARK    4  A    between atoms: C7_9  and  O2_10 
REMARK    5  A    between atoms: C18_25  and  O4_26 
REMARK    6  A    between atoms: C27_36  and  C28_37 
ROOT
HETATM    1  C2  UNL     1      -4.421  48.625 -20.447  1.00  0.00     0.257 C 
HETATM    2  C3  UNL     1      -4.531  49.777 -21.526  1.00  0.00     0.092 C 
HETATM    3  C4  UNL     1      -3.713  49.272 -22.672  1.00  0.00     0.234 C 
HETATM    4  O1  UNL     1      -2.402  49.134 -22.110  1.00  0.00    -0.333 OA
HETATM    5  C5  UNL     1      -2.195  47.774 -21.713  1.00  0.00     0.168 C 
HETATM    6  C6  UNL     1      -0.864  47.804 -20.943  1.00  0.00     0.074 C 
HETATM    7  C7  UNL     1      -3.452  47.373 -20.828  1.00  0.00     0.209 C 
ENDROOT
BRANCH   1   8
HETATM    8  N1  UNL     1      -4.343  49.173 -19.079  1.00  0.00     0.086 N 
HETATM    9  C1  UNL     1      -3.746  50.499 -18.991  1.00  0.00     0.307 C 
HETATM   10  H4  UNL     1      -3.768  48.550 -18.509  1.00  0.00     0.316 HD
ENDBRANCH   1   8
BRANCH   7  11
HETATM   11  O2  UNL     1      -3.075  46.630 -19.654  1.00  0.00    -0.384 OA
HETATM   12  C8  UNL     1      -3.842  45.446 -19.466  1.00  0.00     0.202 C 
ENDBRANCH   7  11
BRANCH   3  13
HETATM   13  N4  UNL     1      -3.473  49.718 -23.998  1.00  0.00    -0.316 N 
HETATM   14  C26 UNL     1      -3.852  49.311 -25.241  1.00  0.00     0.048 A 
HETATM   15  C21 UNL     1      -3.074  50.059 -26.161  1.00  0.00     0.004 A 
HETATM   16  C25 UNL     1      -4.790  48.355 -25.653  1.00  0.00     0.030 A 
HETATM   17  C20 UNL     1      -2.203  50.921 -25.415  1.00  0.00     0.021 A 
HETATM   18  C22 UNL     1      -3.268  49.813 -27.537  1.00  0.00     0.014 A 
HETATM   19  C19 UNL     1      -1.171  51.850 -25.566  1.00  0.00     0.045 A 
HETATM   20  C27 UNL     1      -2.525  50.697 -24.100  1.00  0.00     0.077 A 
HETATM   21  C16 UNL     1      -0.477  52.471 -24.493  1.00  0.00     0.061 A 
HETATM   22  C18 UNL     1      -0.507  52.371 -26.726  1.00  0.00     0.155 A 
HETATM   23  C15 UNL     1      -0.748  52.263 -23.128  1.00  0.00     0.022 C 
HETATM   24  C17 UNL     1       0.551  53.310 -25.126  1.00  0.00     0.259 A 
HETATM   25  C14 UNL     1      -0.246  52.619 -21.840  1.00  0.00     0.004 A 
HETATM   26  C28 UNL     1      -1.810  51.414 -22.886  1.00  0.00     0.078 C 
HETATM   27  C9  UNL     1      -1.049  51.989 -20.864  1.00  0.00     0.049 A 
HETATM   28  C13 UNL     1       0.843  53.405 -21.402  1.00  0.00     0.014 A 
HETATM   29  N2  UNL     1      -2.076  51.328 -21.527  1.00  0.00    -0.308 N 
HETATM   30  C10 UNL     1      -0.771  52.114 -19.492  1.00  0.00     0.030 A 
HETATM   31  C11 UNL     1       0.319  52.894 -19.096  1.00  0.00     0.002 A 
HETATM   32  C12 UNL     1       1.113  53.535 -20.036  1.00  0.00     0.001 A 
HETATM   33  O3  UNL     1       1.354  53.997 -24.523  1.00  0.00    -0.267 OA
HETATM   34  N3  UNL     1       0.461  53.191 -26.507  1.00  0.00    -0.303 N 
ATOM     35  H3  UNL     1       1.042  53.658 -27.204  1.00  0.00     0.171 HD
HETATM   36  C23 UNL     1      -4.208  48.862 -27.954  1.00  0.00     0.001 A 
HETATM   37  C24 UNL     1      -4.955  48.146 -27.025  1.00  0.00     0.002 A 
BRANCH  22  38
HETATM   38  O4  UNL     1      -0.873  52.022 -27.953  1.00  0.00    -0.345 OA
HETATM   39  H20 UNL     1      -0.298  52.490 -28.583  1.00  0.00     0.219 HD
ENDBRANCH  22  38
ENDBRANCH   3  13
TORSDOF 6
ENDMDL
MODEL 4
REMARK minimizedAffinity -11.4370852
REMARK  6 active torsions:
REMARK  status: ('A' for Active; 'I' for Inactive)
REMARK    1  A    between atoms: N1_2  and  C2_3 
REMARK    2  A    between atoms: C4_5  and  N4_35 
REMARK    3  A    between atoms: C5_7  and  N2_12 
REMARK    4  A    between atoms: C7_9  and  O2_10 
REMARK    5  A    between atoms: C18_25  and  O4_26 
REMARK    6  A    between atoms: C27_36  and  C28_37 
ROOT
HETATM    1  C2  UNL     1      -3.343  47.768 -21.003  1.00  0.00     0.257 C 
HETATM    2  C3  UNL     1      -2.007  48.415 -21.549  1.00  0.00     0.092 C 
HETATM    3  C4  UNL     1      -1.861  49.666 -20.742  1.00  0.00     0.234 C 
HETATM    4  O1  UNL     1      -3.039  50.414 -21.071  1.00  0.00    -0.333 OA
HETATM    5  C5  UNL     1      -4.034  50.202 -20.065  1.00  0.00     0.168 C 
HETATM    6  C6  UNL     1      -5.296  50.869 -20.636  1.00  0.00     0.074 C 
HETATM    7  C7  UNL     1      -4.155  48.628 -19.883  1.00  0.00     0.209 C 
ENDROOT
BRANCH   1   8
HETATM    8  N1  UNL     1      -4.117  47.134 -22.088  1.00  0.00     0.086 N 
HETATM    9  C1  UNL     1      -4.836  48.068 -22.944  1.00  0.00     0.307 C 
HETATM   10  H4  UNL     1      -4.814  46.513 -21.673  1.00  0.00     0.316 HD
ENDBRANCH   1   8
BRANCH   7  11
HETATM   11  O2  UNL     1      -5.524  48.195 -19.786  1.00  0.00    -0.384 OA
HETATM   12  C8  UNL     1      -5.940  47.940 -18.448  1.00  0.00     0.202 C 
ENDBRANCH   7  11
BRANCH   3  13
HETATM   13  N4  UNL     1      -0.851  50.656 -20.610  1.00  0.00    -0.316 N 
HETATM   14  C26 UNL     1      -0.197  51.240 -19.569  1.00  0.00     0.048 A 
HETATM   15  C21 UNL     1       0.535  52.325 -20.115  1.00  0.00     0.004 A 
HETATM   16  C25 UNL     1      -0.180  50.935 -18.202  1.00  0.00     0.030 A 
HETATM   17  C20 UNL     1       0.279  52.374 -21.526  1.00  0.00     0.021 A 
HETATM   18  C22 UNL     1       1.300  53.114 -19.229  1.00  0.00     0.014 A 
HETATM   19  C19 UNL     1       0.550  53.122 -22.674  1.00  0.00     0.045 A 
HETATM   20  C27 UNL     1      -0.542  51.302 -21.774  1.00  0.00     0.077 A 
HETATM   21  C16 UNL     1       0.008  52.856 -23.960  1.00  0.00     0.061 A 
HETATM   22  C18 UNL     1       1.327  54.309 -22.888  1.00  0.00     0.155 A 
HETATM   23  C15 UNL     1      -0.854  51.788 -24.268  1.00  0.00     0.022 C 
HETATM   24  C17 UNL     1       0.517  53.928 -24.828  1.00  0.00     0.259 A 
HETATM   25  C14 UNL     1      -1.623  51.272 -25.355  1.00  0.00     0.004 A 
HETATM   26  C28 UNL     1      -1.116  50.948 -23.203  1.00  0.00     0.078 C 
HETATM   27  C9  UNL     1      -2.300  50.116 -24.907  1.00  0.00     0.049 A 
HETATM   28  C13 UNL     1      -1.834  51.695 -26.686  1.00  0.00     0.014 A 
HETATM   29  N2  UNL     1      -1.895  49.871 -23.601  1.00  0.00    -0.308 N 
HETATM   30  C10 UNL     1      -3.178  49.409 -25.746  1.00  0.00     0.030 A 
HETATM   31  C11 UNL     1      -3.367  49.861 -27.055  1.00  0.00     0.002 A 
HETATM   32  C12 UNL     1      -2.701  50.985 -27.522  1.00  0.00     0.001 A 
HETATM   33  O3  UNL     1       0.261  54.042 -26.012  1.00  0.00    -0.267 OA
HETATM   34  N3  UNL     1       1.326  54.780 -24.087  1.00  0.00    -0.303 N 
ATOM     35  H3  UNL     1       1.817  55.608 -24.423  1.00  0.00     0.171 HD
HETATM   36  C23 UNL     1       1.324  52.809 -17.862  1.00  0.00     0.001 A 
HETATM   37  C24 UNL     1       0.595  51.737 -17.360  1.00  0.00     0.002 A 
BRANCH  22  38
HETATM   38  O4  UNL     1       2.005  54.884 -21.904  1.00  0.00    -0.345 OA
HETATM   39  H20 UNL     1       2.459  55.664 -22.267  1.00  0.00     0.219 HD
ENDBRANCH  22  38
ENDBRANCH   3  13
TORSDOF 6
ENDMDL
MODEL 5
REMARK minimizedAffinity -11.1258593
REMARK  6 active torsions:
REMARK  status: ('A' for Active; 'I' for Inactive)
REMARK    1  A    between atoms: N1_2  and  C2_3 
REMARK    2  A    between atoms: C4_5  and  N4_35 
REMARK    3  A    between atoms: C5_7  and  N2_12 
REMARK    4  A    between atoms: C7_9  and  O2_10 
REMARK    5  A    between atoms: C18_25  and  O4_26 
REMARK    6  A    between atoms: C27_36  and  C28_37 
ROOT
HETATM    1  C2  UNL     1      -4.060  48.302 -21.655  1.00  0.00     0.257 C 
HETATM    2  C3  UNL     1      -3.604  49.810 -21.516  1.00  0.00     0.092 C 
HETATM    3  C4  UNL     1      -2.196  49.714 -21.023  1.00  0.00     0.234 C 
HETATM    4  O1  UNL     1      -2.328  49.035 -19.767  1.00  0.00    -0.333 OA
HETATM    5  C5  UNL     1      -2.075  47.638 -19.952  1.00  0.00     0.168 C 
HETATM    6  C6  UNL     1      -2.455  47.005 -18.603  1.00  0.00     0.074 C 
HETATM    7  C7  UNL     1      -2.986  47.178 -21.169  1.00  0.00     0.209 C 
ENDROOT
BRANCH   1   8
HETATM    8  N1  UNL     1      -5.473  48.128 -21.265  1.00  0.00     0.086 N 
HETATM    9  C1  UNL     1      -6.398  48.000 -22.383  1.00  0.00     0.307 C 
HETATM   10  H4  UNL     1      -5.767  48.946 -20.727  1.00  0.00     0.316 HD
ENDBRANCH   1   8
BRANCH   7  11
HETATM   11  O2  UNL     1      -3.631  45.916 -20.918  1.00  0.00    -0.384 OA
HETATM   12  C8  UNL     1      -4.594  45.973 -19.871  1.00  0.00     0.202 C 
ENDBRANCH   7  11
BRANCH   3  13
HETATM   13  N4  UNL     1      -1.151  50.649 -20.800  1.00  0.00    -0.316 N 
HETATM   14  C26 UNL     1      -0.534  51.169 -19.703  1.00  0.00     0.048 A 
HETATM   15  C21 UNL     1       0.280  52.233 -20.169  1.00  0.00     0.004 A 
HETATM   16  C25 UNL     1      -0.614  50.822 -18.348  1.00  0.00     0.030 A 
HETATM   17  C20 UNL     1       0.112  52.337 -21.591  1.00  0.00     0.021 A 
HETATM   18  C22 UNL     1       1.026  52.956 -19.214  1.00  0.00     0.014 A 
HETATM   19  C19 UNL     1       0.487  53.104 -22.695  1.00  0.00     0.045 A 
HETATM   20  C27 UNL     1      -0.741  51.313 -21.922  1.00  0.00     0.077 A 
HETATM   21  C16 UNL     1       0.011  52.904 -24.019  1.00  0.00     0.061 A 
HETATM   22  C18 UNL     1       1.330  54.257 -22.825  1.00  0.00     0.155 A 
HETATM   23  C15 UNL     1      -0.880  51.888 -24.412  1.00  0.00     0.022 C 
HETATM   24  C17 UNL     1       0.621  53.975 -24.820  1.00  0.00     0.259 A 
HETATM   25  C14 UNL     1      -1.605  51.444 -25.559  1.00  0.00     0.004 A 
HETATM   26  C28 UNL     1      -1.244  51.030 -23.393  1.00  0.00     0.078 C 
HETATM   27  C9  UNL     1      -2.361  50.309 -25.190  1.00  0.00     0.049 A 
HETATM   28  C13 UNL     1      -1.714  51.915 -26.886  1.00  0.00     0.014 A 
HETATM   29  N2  UNL     1      -2.047  50.005 -23.870  1.00  0.00    -0.308 N 
HETATM   30  C10 UNL     1      -3.219  49.671 -26.102  1.00  0.00     0.030 A 
HETATM   31  C11 UNL     1      -3.307  50.170 -27.404  1.00  0.00     0.002 A 
HETATM   32  C12 UNL     1      -2.562  51.274 -27.794  1.00  0.00     0.001 A 
HETATM   33  O3  UNL     1       0.444  54.137 -26.013  1.00  0.00    -0.267 OA
HETATM   34  N3  UNL     1       1.423  54.764 -24.005  1.00  0.00    -0.303 N 
ATOM     35  H3  UNL     1       1.972  55.577 -24.284  1.00  0.00     0.171 HD
HETATM   36  C23 UNL     1       0.953  52.610 -17.859  1.00  0.00     0.001 A 
HETATM   37  C24 UNL     1       0.145  51.560 -17.436  1.00  0.00     0.002 A 
BRANCH  22  38
HETATM   38  O4  UNL     1       1.973  54.770 -21.784  1.00  0.00    -0.345 OA
HETATM   39  H20 UNL     1       2.484  55.537 -22.094  1.00  0.00     0.219 HD
ENDBRANCH  22  38
ENDBRANCH   3  13
TORSDOF 6
ENDMDL
MODEL 6
REMARK minimizedAffinity -10.7928915
REMARK  6 active torsions:
REMARK  status: ('A' for Active; 'I' for Inactive)
REMARK    1  A    between atoms: N1_2  and  C2_3 
REMARK    2  A    between atoms: C4_5  and  N4_35 
REMARK    3  A    between atoms: C5_7  and  N2_12 
REMARK    4  A    between atoms: C7_9  and  O2_10 
REMARK    5  A    between atoms: C18_25  and  O4_26 
REMARK    6  A    between atoms: C27_36  and  C28_37 
ROOT
HETATM    1  C2  UNL     1       0.032  53.058 -25.188  1.00  0.00     0.257 C 
HETATM    2  C3  UNL     1      -1.456  52.617 -24.882  1.00  0.00     0.092 C 
HETATM    3  C4  UNL     1      -1.500  51.185 -25.314  1.00  0.00     0.234 C 
HETATM    4  O1  UNL     1      -1.195  51.250 -26.713  1.00  0.00    -0.333 OA
HETATM    5  C5  UNL     1       0.198  50.986 -26.910  1.00  0.00     0.168 C 
HETATM    6  C6  UNL     1       0.435  51.294 -28.397  1.00  0.00     0.074 C 
HETATM    7  C7  UNL     1       0.978  51.947 -25.913  1.00  0.00     0.209 C 
ENDROOT
BRANCH   1   8
HETATM    8  N1  UNL     1       0.092  54.448 -25.679  1.00  0.00     0.086 N 
HETATM    9  C1  UNL     1      -0.200  54.602 -27.098  1.00  0.00     0.307 C 
HETATM   10  H4  UNL     1       1.037  54.807 -25.530  1.00  0.00     0.316 HD
ENDBRANCH   1   8
BRANCH   7  11
HETATM   11  O2  UNL     1       2.122  52.562 -26.534  1.00  0.00    -0.384 OA
HETATM   12  C8  UNL     1       3.057  51.620 -27.049  1.00  0.00     0.202 C 
ENDBRANCH   7  11
BRANCH   3  13
HETATM   13  N4  UNL     1      -2.460  50.144 -25.219  1.00  0.00    -0.316 N 
HETATM   14  C26 UNL     1      -3.317  49.534 -26.084  1.00  0.00     0.048 A 
HETATM   15  C21 UNL     1      -4.170  48.721 -25.296  1.00  0.00     0.004 A 
HETATM   16  C25 UNL     1      -3.438  49.620 -27.477  1.00  0.00     0.030 A 
HETATM   17  C20 UNL     1      -3.797  48.882 -23.919  1.00  0.00     0.021 A 
HETATM   18  C22 UNL     1      -5.172  47.982 -25.960  1.00  0.00     0.014 A 
HETATM   19  C19 UNL     1      -4.157  48.504 -22.624  1.00  0.00     0.045 A 
HETATM   20  C27 UNL     1      -2.718  49.731 -23.942  1.00  0.00     0.077 A 
HETATM   21  C16 UNL     1      -3.528  48.972 -21.439  1.00  0.00     0.061 A 
HETATM   22  C18 UNL     1      -5.206  47.663 -22.124  1.00  0.00     0.155 A 
HETATM   23  C15 UNL     1      -2.436  49.858 -21.401  1.00  0.00     0.022 C 
HETATM   24  C17 UNL     1      -4.276  48.361 -20.331  1.00  0.00     0.259 A 
HETATM   25  C14 UNL     1      -1.634  50.576 -20.463  1.00  0.00     0.004 A 
HETATM   26  C28 UNL     1      -1.962  50.226 -22.645  1.00  0.00     0.078 C 
HETATM   27  C9  UNL     1      -0.682  51.331 -21.184  1.00  0.00     0.049 A 
HETATM   28  C13 UNL     1      -1.639  50.681 -19.055  1.00  0.00     0.014 A 
HETATM   29  N2  UNL     1      -0.834  51.024 -22.531  1.00  0.00    -0.308 N 
HETATM   30  C10 UNL     1       0.226  52.183 -20.531  1.00  0.00     0.030 A 
HETATM   31  C11 UNL     1       0.186  52.266 -19.137  1.00  0.00     0.002 A 
HETATM   32  C12 UNL     1      -0.730  51.522 -18.407  1.00  0.00     0.001 A 
HETATM   33  O3  UNL     1      -4.034  48.533 -19.152  1.00  0.00    -0.267 OA
HETATM   34  N3  UNL     1      -5.294  47.566 -20.842  1.00  0.00    -0.303 N 
ATOM     35  H3  UNL     1      -5.971  47.017 -20.312  1.00  0.00     0.171 HD
HETATM   36  C23 UNL     1      -5.293  48.060 -27.353  1.00  0.00     0.001 A 
HETATM   37  C24 UNL     1      -4.439  48.868 -28.097  1.00  0.00     0.002 A 
BRANCH  22  38
HETATM   38  O4  UNL     1      -6.037  47.026 -22.939  1.00  0.00    -0.345 OA
HETATM   39  H20 UNL     1      -6.661  46.516 -22.394  1.00  0.00     0.219 HD
ENDBRANCH  22  38
ENDBRANCH   3  13
TORSDOF 6
ENDMDL
MODEL 7
REMARK minimizedAffinity -10.6847982
REMARK  6 active torsions:
REMARK  status: ('A' for Active; 'I' for Inactive)
REMARK    1  A    between atoms: N1_2  and  C2_3 
REMARK    2  A    between atoms: C4_5  and  N4_35 
REMARK    3  A    between atoms: C5_7  and  N2_12 
REMARK    4  A    between atoms: C7_9  and  O2_10 
REMARK    5  A    between atoms: C18_25  and  O4_26 
REMARK    6  A    between atoms: C27_36  and  C28_37 
ROOT
HETATM    1  C2  UNL     1      -3.908  48.508 -24.551  1.00  0.00     0.257 C 
HETATM    2  C3  UNL     1      -2.593  49.082 -23.886  1.00  0.00     0.092 C 
HETATM    3  C4  UNL     1      -2.942  49.183 -22.435  1.00  0.00     0.234 C 
HETATM    4  O1  UNL     1      -4.043  50.102 -22.420  1.00  0.00    -0.333 OA
HETATM    5  C5  UNL     1      -5.272  49.370 -22.389  1.00  0.00     0.168 C 
HETATM    6  C6  UNL     1      -6.355  50.443 -22.593  1.00  0.00     0.074 C 
HETATM    7  C7  UNL     1      -5.185  48.302 -23.561  1.00  0.00     0.209 C 
ENDROOT
BRANCH   1   8
HETATM    8  N1  UNL     1      -4.147  49.108 -25.878  1.00  0.00     0.086 N 
HETATM    9  C1  UNL     1      -3.420  48.473 -26.969  1.00  0.00     0.307 C 
HETATM   10  H4  UNL     1      -3.851  50.085 -25.853  1.00  0.00     0.316 HD
ENDBRANCH   1   8
BRANCH   7  11
HETATM   11  O2  UNL     1      -6.413  48.211 -24.307  1.00  0.00    -0.384 OA
HETATM   12  C8  UNL     1      -7.233  47.117 -23.910  1.00  0.00     0.202 C 
ENDBRANCH   7  11
BRANCH   3  13
HETATM   13  N4  UNL     1      -2.218  49.496 -21.255  1.00  0.00    -0.316 N 
HETATM   14  C26 UNL     1      -2.292  49.128 -19.946  1.00  0.00     0.048 A 
HETATM   15  C21 UNL     1      -1.412  49.986 -19.238  1.00  0.00     0.004 A 
HETATM   16  C25 UNL     1      -3.049  48.136 -19.308  1.00  0.00     0.030 A 
HETATM   17  C20 UNL     1      -0.819  50.894 -20.178  1.00  0.00     0.021 A 
HETATM   18  C22 UNL     1      -1.313  49.818 -17.841  1.00  0.00     0.014 A 
HETATM   19  C19 UNL     1       0.036  51.995 -20.264  1.00  0.00     0.045 A 
HETATM   20  C27 UNL     1      -1.319  50.516 -21.400  1.00  0.00     0.077 A 
HETATM   21  C16 UNL     1       0.332  52.699 -21.462  1.00  0.00     0.061 A 
HETATM   22  C18 UNL     1       0.761  52.730 -19.268  1.00  0.00     0.155 A 
HETATM   23  C15 UNL     1      -0.168  52.371 -22.736  1.00  0.00     0.022 C 
HETATM   24  C17 UNL     1       1.213  53.804 -21.059  1.00  0.00     0.259 A 
HETATM   25  C14 UNL     1      -0.164  52.858 -24.078  1.00  0.00     0.004 A 
HETATM   26  C28 UNL     1      -0.965  51.243 -22.757  1.00  0.00     0.078 C 
HETATM   27  C9  UNL     1      -0.941  51.980 -24.867  1.00  0.00     0.049 A 
HETATM   28  C13 UNL     1       0.410  53.986 -24.704  1.00  0.00     0.014 A 
HETATM   29  N2  UNL     1      -1.346  50.929 -24.053  1.00  0.00    -0.308 N 
HETATM   30  C10 UNL     1      -1.162  52.224 -26.234  1.00  0.00     0.030 A 
HETATM   31  C11 UNL     1      -0.584  53.355 -26.817  1.00  0.00     0.002 A 
HETATM   32  C12 UNL     1       0.196  54.222 -26.065  1.00  0.00     0.001 A 
HETATM   33  O3  UNL     1       1.675  54.635 -21.818  1.00  0.00    -0.267 OA
HETATM   34  N3  UNL     1       1.430  53.749 -19.688  1.00  0.00    -0.303 N 
ATOM     35  H3  UNL     1       2.000  54.383 -19.129  1.00  0.00     0.171 HD
HETATM   36  C23 UNL     1      -2.063  48.825 -17.200  1.00  0.00     0.001 A 
HETATM   37  C24 UNL     1      -2.917  47.999 -17.923  1.00  0.00     0.002 A 
BRANCH  22  38
HETATM   38  O4  UNL     1       0.739  52.379 -17.990  1.00  0.00    -0.345 OA
HETATM   39  H20 UNL     1       1.296  53.006 -17.496  1.00  0.00     0.219 HD
ENDBRANCH  22  38
ENDBRANCH   3  13
TORSDOF 6
ENDMDL
MODEL 8
REMARK minimizedAffinity -10.5283375
REMARK  6 active torsions:
REMARK  status: ('A' for Active; 'I' for Inactive)
REMARK    1  A    between atoms: N1_2  and  C2_3 
REMARK    2  A    between atoms: C4_5  and  N4_35 
REMARK    3  A    between atoms: C5_7  and  N2_12 
REMARK    4  A    between atoms: C7_9  and  O2_10 
REMARK    5  A    between atoms: C18_25  and  O4_26 
REMARK    6  A    between atoms: C27_36  and  C28_37 
ROOT
HETATM    1  C2  UNL     1       1.051  52.087 -26.021  1.00  0.00     0.257 C 
HETATM    2  C3  UNL     1       1.140  51.412 -24.593  1.00  0.00     0.092 C 
HETATM    3  C4  UNL     1       0.122  52.151 -23.784  1.00  0.00     0.234 C 
HETATM    4  O1  UNL     1       0.594  53.504 -23.811  1.00  0.00    -0.333 OA
HETATM    5  C5  UNL     1      -0.092  54.227 -24.839  1.00  0.00     0.168 C 
HETATM    6  C6  UNL     1       0.645  55.575 -24.908  1.00  0.00     0.074 C 
HETATM    7  C7  UNL     1       0.030  53.349 -26.157  1.00  0.00     0.209 C 
ENDROOT
BRANCH   1   8
HETATM    8  N1  UNL     1       2.382  52.198 -26.649  1.00  0.00     0.086 N 
HETATM    9  C1  UNL     1       2.463  51.650 -27.996  1.00  0.00     0.307 C 
HETATM   10  H4  UNL     1       3.056  51.685 -26.078  1.00  0.00     0.316 HD
ENDBRANCH   1   8
BRANCH   7  11
HETATM   11  O2  UNL     1       0.340  54.146 -27.314  1.00  0.00    -0.384 OA
HETATM   12  C8  UNL     1      -0.675  54.112 -28.311  1.00  0.00     0.202 C 
ENDBRANCH   7  11
BRANCH   3  13
HETATM   13  N4  UNL     1      -0.415  52.000 -22.478  1.00  0.00    -0.316 N 
HETATM   14  C26 UNL     1       0.001  52.306 -21.218  1.00  0.00     0.048 A 
HETATM   15  C21 UNL     1      -0.912  51.678 -20.333  1.00  0.00     0.004 A 
HETATM   16  C25 UNL     1       1.091  53.060 -20.764  1.00  0.00     0.030 A 
HETATM   17  C20 UNL     1      -1.884  50.971 -21.117  1.00  0.00     0.021 A 
HETATM   18  C22 UNL     1      -0.694  51.831 -18.947  1.00  0.00     0.014 A 
HETATM   19  C19 UNL     1      -2.988  50.123 -21.009  1.00  0.00     0.045 A 
HETATM   20  C27 UNL     1      -1.551  51.242 -22.421  1.00  0.00     0.077 A 
HETATM   21  C16 UNL     1      -3.677  49.546 -22.109  1.00  0.00     0.061 A 
HETATM   22  C18 UNL     1      -3.667  49.568 -19.874  1.00  0.00     0.155 A 
HETATM   23  C15 UNL     1      -3.366  49.769 -23.463  1.00  0.00     0.022 C 
HETATM   24  C17 UNL     1      -4.712  48.687 -21.516  1.00  0.00     0.259 A 
HETATM   25  C14 UNL     1      -3.752  49.332 -24.767  1.00  0.00     0.004 A 
HETATM   26  C28 UNL     1      -2.332  50.661 -23.666  1.00  0.00     0.078 C 
HETATM   27  C9  UNL     1      -2.947  50.006 -25.713  1.00  0.00     0.049 A 
HETATM   28  C13 UNL     1      -4.700  48.400 -25.242  1.00  0.00     0.014 A 
HETATM   29  N2  UNL     1      -2.142  50.901 -25.019  1.00  0.00    -0.308 N 
HETATM   30  C10 UNL     1      -3.063  49.748 -27.090  1.00  0.00     0.030 A 
HETATM   31  C11 UNL     1      -4.007  48.814 -27.522  1.00  0.00     0.002 A 
HETATM   32  C12 UNL     1      -4.819  48.151 -26.612  1.00  0.00     0.001 A 
HETATM   33  O3  UNL     1      -5.505  48.018 -22.150  1.00  0.00    -0.267 OA
HETATM   34  N3  UNL     1      -4.638  48.761 -20.131  1.00  0.00    -0.303 N 
ATOM     35  H3  UNL     1      -5.230  48.277 -19.456  1.00  0.00     0.171 HD
HETATM   36  C23 UNL     1       0.391  52.589 -18.488  1.00  0.00     0.001 A 
HETATM   37  C24 UNL     1       1.267  53.191 -19.384  1.00  0.00     0.002 A 
BRANCH  22  38
HETATM   38  O4  UNL     1      -3.311  49.872 -18.632  1.00  0.00    -0.345 OA
HETATM   39  H20 UNL     1      -3.901  49.392 -18.025  1.00  0.00     0.219 HD
ENDBRANCH  22  38
ENDBRANCH   3  13
TORSDOF 6
ENDMDL
MODEL 9
REMARK minimizedAffinity -10.5057611
REMARK  6 active torsions:
REMARK  status: ('A' for Active; 'I' for Inactive)
REMARK    1  A    between atoms: N1_2  and  C2_3 
REMARK    2  A    between atoms: C4_5  and  N4_35 
REMARK    3  A    between atoms: C5_7  and  N2_12 
REMARK    4  A    between atoms: C7_9  and  O2_10 
REMARK    5  A    between atoms: C18_25  and  O4_26 
REMARK    6  A    between atoms: C27_36  and  C28_37 
ROOT
HETATM    1  C2  UNL     1      -2.823  46.854 -20.310  1.00  0.00     0.257 C 
HETATM    2  C3  UNL     1      -2.220  47.085 -21.755  1.00  0.00     0.092 C 
HETATM    3  C4  UNL     1      -2.668  48.466 -22.111  1.00  0.00     0.234 C 
HETATM    4  O1  UNL     1      -4.098  48.368 -22.094  1.00  0.00    -0.333 OA
HETATM    5  C5  UNL     1      -4.592  48.825 -20.830  1.00  0.00     0.168 C 
HETATM    6  C6  UNL     1      -6.088  48.471 -20.858  1.00  0.00     0.074 C 
HETATM    7  C7  UNL     1      -3.759  48.050 -19.721  1.00  0.00     0.209 C 
ENDROOT
BRANCH   1   8
HETATM    8  N1  UNL     1      -3.281  45.462 -20.134  1.00  0.00     0.086 N 
HETATM    9  C1  UNL     1      -4.397  45.079 -20.988  1.00  0.00     0.307 C 
HETATM   10  H4  UNL     1      -3.591  45.339 -19.168  1.00  0.00     0.316 HD
ENDBRANCH   1   8
BRANCH   7  11
HETATM   11  O2  UNL     1      -4.592  47.578 -18.647  1.00  0.00    -0.384 OA
HETATM   12  C8  UNL     1      -4.829  48.560 -17.644  1.00  0.00     0.202 C 
ENDBRANCH   7  11
BRANCH   3  13
HETATM   13  N4  UNL     1      -2.398  49.356 -23.184  1.00  0.00    -0.316 N 
HETATM   14  C26 UNL     1      -2.586  49.334 -24.533  1.00  0.00     0.048 A 
HETATM   15  C21 UNL     1      -1.881  50.449 -25.053  1.00  0.00     0.004 A 
HETATM   16  C25 UNL     1      -3.294  48.444 -25.351  1.00  0.00     0.030 A 
HETATM   17  C20 UNL     1      -1.250  51.131 -23.959  1.00  0.00     0.021 A 
HETATM   18  C22 UNL     1      -1.905  50.648 -26.450  1.00  0.00     0.014 A 
HETATM   19  C19 UNL     1      -0.396  52.196 -23.665  1.00  0.00     0.045 A 
HETATM   20  C27 UNL     1      -1.640  50.440 -22.839  1.00  0.00     0.077 A 
HETATM   21  C16 UNL     1       0.077  52.519 -22.365  1.00  0.00     0.061 A 
HETATM   22  C18 UNL     1       0.261  53.162 -24.498  1.00  0.00     0.155 A 
HETATM   23  C15 UNL     1      -0.270  51.833 -21.186  1.00  0.00     0.022 C 
HETATM   24  C17 UNL     1       0.986  53.659 -22.551  1.00  0.00     0.259 A 
HETATM   25  C14 UNL     1       0.044  51.811 -19.793  1.00  0.00     0.004 A 
HETATM   26  C28 UNL     1      -1.176  50.808 -21.374  1.00  0.00     0.078 C 
HETATM   27  C9  UNL     1      -0.713  50.784 -19.188  1.00  0.00     0.049 A 
HETATM   28  C13 UNL     1       0.929  52.555 -18.982  1.00  0.00     0.014 A 
HETATM   29  N2  UNL     1      -1.540  50.239 -20.163  1.00  0.00    -0.308 N 
HETATM   30  C10 UNL     1      -0.583  50.486 -17.820  1.00  0.00     0.030 A 
HETATM   31  C11 UNL     1       0.307  51.239 -17.050  1.00  0.00     0.002 A 
HETATM   32  C12 UNL     1       1.050  52.263 -17.620  1.00  0.00     0.001 A 
HETATM   33  O3  UNL     1       1.594  54.216 -21.656  1.00  0.00    -0.267 OA
HETATM   34  N3  UNL     1       1.040  53.994 -23.898  1.00  0.00    -0.303 N 
ATOM     35  H3  UNL     1       1.584  54.744 -24.325  1.00  0.00     0.171 HD
HETATM   36  C23 UNL     1      -2.616  49.764 -27.271  1.00  0.00     0.001 A 
HETATM   37  C24 UNL     1      -3.298  48.680 -26.728  1.00  0.00     0.002 A 
BRANCH  22  38
HETATM   38  O4  UNL     1       0.073  53.191 -25.811  1.00  0.00    -0.345 OA
HETATM   39  H20 UNL     1       0.606  53.919 -26.175  1.00  0.00     0.219 HD
ENDBRANCH  22  38
ENDBRANCH   3  13
TORSDOF 6
ENDMDL
