MODEL 1
REMARK minimizedAffinity -7.95877934
REMARK CNNscore 0.585840046
REMARK CNNaffinity 6.47632217
REMARK  8 active torsions:
REMARK  status: ('A' for Active; 'I' for Inactive)
REMARK    1  A    between atoms: C2_2  and  C3_3 
REMARK    2  A    between atoms: C2_2  and  C9_11 
REMARK    3  A    between atoms: C3_3  and  C4_4 
REMARK    4  A    between atoms: C4_4  and  C5_5 
REMARK    5  A    between atoms: C6_6  and  C7_7 
REMARK    6  A    between atoms: C6_6  and  C8_9 
REMARK    7  A    between atoms: C7_7  and  O1_8 
REMARK    8  A    between atoms: C8_9  and  O2_10 
ROOT
HETATM    1  C9  UNL     1       7.193  10.234  15.405  1.00  0.00    -0.002 C 
HETATM    2  C10 UNL     1       8.384   9.748  14.533  1.00  0.00     0.007 C 
HETATM    3  C11 UNL     1       7.805   9.219  13.209  1.00  0.00     0.015 C 
HETATM    4  C12 UNL     1       6.345   9.711  13.181  1.00  0.00    -0.005 C 
HETATM    5  C13 UNL     1       6.369  11.176  12.647  1.00  0.00     0.021 C 
HETATM    6  C14 UNL     1       5.307   9.002  12.318  1.00  0.00    -0.000 C 
HETATM    7  C15 UNL     1       3.996   8.973  12.679  1.00  0.00    -0.060 C 
HETATM    8  C16 UNL     1       3.533   9.616  13.993  1.00  0.00     0.036 C 
HETATM    9  C17 UNL     1       4.609  10.222  14.918  1.00  0.00     0.015 C 
HETATM   10  C18 UNL     1       5.973   9.556  14.710  1.00  0.00    -0.028 C 
HETATM   11  C19 UNL     1       5.875   8.069  15.175  1.00  0.00     0.016 C 
HETATM   12  C20 UNL     1       2.910   8.248  11.839  1.00  0.00    -0.014 C 
HETATM   13  C21 UNL     1       2.805   6.826  12.439  1.00  0.00     0.020 C 
HETATM   14  C22 UNL     1       1.534   8.954  11.939  1.00  0.00     0.021 C 
HETATM   15  C23 UNL     1       0.474   8.345  11.035  1.00  0.00     0.080 C 
HETATM   16  C24 UNL     1       0.915   8.367   9.594  1.00  0.00     0.135 C 
HETATM   17  O3  UNL     1       0.128   8.733   8.720  1.00  0.00    -0.297 OA
HETATM   18  C25 UNL     1       2.307   7.806   9.263  1.00  0.00     0.018 C 
HETATM   19  C26 UNL     1       2.183   6.283   9.115  1.00  0.00     0.023 C 
HETATM   20  C27 UNL     1       2.713   8.365   7.874  1.00  0.00     0.023 C 
HETATM   21  C28 UNL     1       3.347   8.291  10.335  1.00  0.00     0.020 C 
HETATM   22  C29 UNL     1       4.734   7.660  10.174  1.00  0.00     0.090 C 
HETATM   23  C30 UNL     1       5.754   8.366  11.035  1.00  0.00     0.157 C 
HETATM   24  O4  UNL     1       6.932   8.388  10.687  1.00  0.00    -0.293 OA
ENDROOT
BRANCH   1  25
HETATM   25  C2  UNL     1       7.448  10.001  16.922  1.00  0.00    -0.014 C 
HETATM   26  C1  UNL     1       6.848  11.104  17.800  1.00  0.00     0.010 C 
BRANCH  25  27
HETATM   27  C3  UNL     1       8.951   9.819  17.263  1.00  0.00     0.008 C 
BRANCH  27  28
HETATM   28  C4  UNL     1       9.533  10.848  18.236  1.00  0.00     0.028 C 
BRANCH  28  29
HETATM   29  C5  UNL     1      10.941  11.210  17.847  1.00  0.00    -0.020 C 
HETATM   30  C6  UNL     1      11.972  11.538  18.655  1.00  0.00    -0.037 C 
BRANCH  30  31
HETATM   31  C7  UNL     1      13.354  11.871  18.130  1.00  0.00     0.200 C 
BRANCH  31  32
HETATM   32  O1  UNL     1      14.089  10.706  17.777  1.00  0.00    -0.397 OA
HETATM   33  H12 UNL     1      13.610  10.313  17.027  1.00  0.00     0.209 HD
ENDBRANCH  31  32
ENDBRANCH  30  31
BRANCH  30  34
HETATM   34  C8  UNL     1      11.888  11.596  20.158  1.00  0.00     0.200 C 
BRANCH  34  35
HETATM   35  O2  UNL     1      13.097  12.149  20.660  1.00  0.00    -0.397 OA
HETATM   36  H15 UNL     1      12.984  12.243  21.620  1.00  0.00     0.209 HD
ENDBRANCH  34  35
ENDBRANCH  30  34
ENDBRANCH  28  29
ENDBRANCH  27  28
ENDBRANCH  25  27
ENDBRANCH   1  25
TORSDOF 8
ENDMDL
MODEL 2
REMARK minimizedAffinity -9.14321136
REMARK CNNscore 0.566480458
REMARK CNNaffinity 7.02726746
REMARK  8 active torsions:
REMARK  status: ('A' for Active; 'I' for Inactive)
REMARK    1  A    between atoms: C2_2  and  C3_3 
REMARK    2  A    between atoms: C2_2  and  C9_11 
REMARK    3  A    between atoms: C3_3  and  C4_4 
REMARK    4  A    between atoms: C4_4  and  C5_5 
REMARK    5  A    between atoms: C6_6  and  C7_7 
REMARK    6  A    between atoms: C6_6  and  C8_9 
REMARK    7  A    between atoms: C7_7  and  O1_8 
REMARK    8  A    between atoms: C8_9  and  O2_10 
ROOT
HETATM    1  C9  UNL     1      -2.863   8.357  15.231  1.00  0.00    -0.002 C 
HETATM    2  C10 UNL     1      -1.804   8.018  16.315  1.00  0.00     0.007 C 
HETATM    3  C11 UNL     1      -0.443   7.882  15.608  1.00  0.00     0.015 C 
HETATM    4  C12 UNL     1      -0.658   8.473  14.201  1.00  0.00    -0.005 C 
HETATM    5  C13 UNL     1      -0.499  10.019  14.327  1.00  0.00     0.021 C 
HETATM    6  C14 UNL     1       0.262   8.082  13.050  1.00  0.00    -0.000 C 
HETATM    7  C15 UNL     1      -0.189   8.061  11.767  1.00  0.00    -0.060 C 
HETATM    8  C16 UNL     1      -1.654   8.386  11.448  1.00  0.00     0.036 C 
HETATM    9  C17 UNL     1      -2.606   8.659  12.631  1.00  0.00     0.015 C 
HETATM   10  C18 UNL     1      -2.128   7.967  13.912  1.00  0.00    -0.028 C 
HETATM   11  C19 UNL     1      -2.222   6.422  13.706  1.00  0.00     0.016 C 
HETATM   12  C20 UNL     1       0.710   7.651  10.568  1.00  0.00    -0.014 C 
HETATM   13  C21 UNL     1       0.470   6.137  10.369  1.00  0.00     0.020 C 
HETATM   14  C22 UNL     1       0.326   8.410   9.272  1.00  0.00     0.021 C 
HETATM   15  C23 UNL     1       1.260   8.128   8.106  1.00  0.00     0.080 C 
HETATM   16  C24 UNL     1       2.683   8.477   8.456  1.00  0.00     0.135 C 
HETATM   17  O3  UNL     1       3.373   9.109   7.654  1.00  0.00    -0.297 OA
HETATM   18  C25 UNL     1       3.256   7.916   9.768  1.00  0.00     0.018 C 
HETATM   19  C26 UNL     1       3.762   6.492   9.494  1.00  0.00     0.023 C 
HETATM   20  C27 UNL     1       4.495   8.774  10.136  1.00  0.00     0.023 C 
HETATM   21  C28 UNL     1       2.189   8.038  10.913  1.00  0.00     0.020 C 
HETATM   22  C29 UNL     1       2.614   7.366  12.222  1.00  0.00     0.090 C 
HETATM   23  C30 UNL     1       1.694   7.756  13.355  1.00  0.00     0.157 C 
HETATM   24  O4  UNL     1       2.124   7.778  14.506  1.00  0.00    -0.293 OA
ENDROOT
BRANCH   1  25
HETATM   25  C2  UNL     1      -4.251   7.733  15.556  1.00  0.00    -0.014 C 
HETATM   26  C1  UNL     1      -4.209   6.204  15.637  1.00  0.00     0.010 C 
BRANCH  25  27
HETATM   27  C3  UNL     1      -5.361   8.175  14.566  1.00  0.00     0.008 C 
BRANCH  27  28
HETATM   28  C4  UNL     1      -5.556   7.266  13.349  1.00  0.00     0.028 C 
BRANCH  28  29
HETATM   29  C5  UNL     1      -6.003   5.895  13.778  1.00  0.00    -0.020 C 
HETATM   30  C6  UNL     1      -7.202   5.306  13.575  1.00  0.00    -0.037 C 
BRANCH  30  31
HETATM   31  C7  UNL     1      -7.520   3.904  14.053  1.00  0.00     0.200 C 
BRANCH  31  32
HETATM   32  O1  UNL     1      -8.545   3.292  13.280  1.00  0.00    -0.397 OA
HETATM   33  H12 UNL     1      -8.170   3.188  12.388  1.00  0.00     0.209 HD
ENDBRANCH  31  32
ENDBRANCH  30  31
BRANCH  30  34
HETATM   34  C8  UNL     1      -8.351   5.950  12.844  1.00  0.00     0.200 C 
BRANCH  34  35
HETATM   35  O2  UNL     1      -9.450   6.067  13.738  1.00  0.00    -0.397 OA
HETATM   36  H15 UNL     1     -10.146   6.551  13.263  1.00  0.00     0.209 HD
ENDBRANCH  34  35
ENDBRANCH  30  34
ENDBRANCH  28  29
ENDBRANCH  27  28
ENDBRANCH  25  27
ENDBRANCH   1  25
TORSDOF 8
ENDMDL
MODEL 3
REMARK minimizedAffinity -6.62224102
REMARK CNNscore 0.51346004
REMARK CNNaffinity 7.27973604
REMARK  8 active torsions:
REMARK  status: ('A' for Active; 'I' for Inactive)
REMARK    1  A    between atoms: C2_2  and  C3_3 
REMARK    2  A    between atoms: C2_2  and  C9_11 
REMARK    3  A    between atoms: C3_3  and  C4_4 
REMARK    4  A    between atoms: C4_4  and  C5_5 
REMARK    5  A    between atoms: C6_6  and  C7_7 
REMARK    6  A    between atoms: C6_6  and  C8_9 
REMARK    7  A    between atoms: C7_7  and  O1_8 
REMARK    8  A    between atoms: C8_9  and  O2_10 
ROOT
HETATM    1  C9  UNL     1      -7.799   5.215  13.821  1.00  0.00    -0.002 C 
HETATM    2  C10 UNL     1      -6.630   6.202  14.091  1.00  0.00     0.007 C 
HETATM    3  C11 UNL     1      -7.248   7.558  14.475  1.00  0.00     0.015 C 
HETATM    4  C12 UNL     1      -8.734   7.261  14.757  1.00  0.00    -0.005 C 
HETATM    5  C13 UNL     1      -8.824   6.745  16.225  1.00  0.00     0.021 C 
HETATM    6  C14 UNL     1      -9.774   8.373  14.674  1.00  0.00    -0.000 C 
HETATM    7  C15 UNL     1     -11.059   8.106  14.320  1.00  0.00    -0.060 C 
HETATM    8  C16 UNL     1     -11.488   6.680  13.948  1.00  0.00     0.036 C 
HETATM    9  C17 UNL     1     -10.401   5.586  13.915  1.00  0.00     0.015 C 
HETATM   10  C18 UNL     1      -9.014   6.176  13.641  1.00  0.00    -0.028 C 
HETATM   11  C19 UNL     1      -8.999   6.759  12.193  1.00  0.00     0.016 C 
HETATM   12  C20 UNL     1     -12.145   9.210  14.205  1.00  0.00    -0.014 C 
HETATM   13  C21 UNL     1     -12.136   9.648  12.722  1.00  0.00     0.020 C 
HETATM   14  C22 UNL     1     -13.553   8.679  14.578  1.00  0.00     0.021 C 
HETATM   15  C23 UNL     1     -14.623   9.758  14.596  1.00  0.00     0.080 C 
HETATM   16  C24 UNL     1     -14.262  10.861  15.559  1.00  0.00     0.135 C 
HETATM   17  O3  UNL     1     -15.115  11.300  16.332  1.00  0.00    -0.297 OA
HETATM   18  C25 UNL     1     -12.859  11.479  15.446  1.00  0.00     0.018 C 
HETATM   19  C26 UNL     1     -12.902  12.559  14.356  1.00  0.00     0.023 C 
HETATM   20  C27 UNL     1     -12.562  12.200  16.787  1.00  0.00     0.023 C 
HETATM   21  C28 UNL     1     -11.793  10.348  15.225  1.00  0.00     0.020 C 
HETATM   22  C29 UNL     1     -10.383  10.879  14.949  1.00  0.00     0.090 C 
HETATM   23  C30 UNL     1      -9.361   9.771  15.029  1.00  0.00     0.157 C 
HETATM   24  O4  UNL     1      -8.206  10.031  15.360  1.00  0.00    -0.293 OA
ENDROOT
BRANCH   1  25
HETATM   25  C2  UNL     1      -7.450   4.191  12.703  1.00  0.00    -0.014 C 
HETATM   26  C1  UNL     1      -7.573   2.737  13.170  1.00  0.00     0.010 C 
BRANCH  25  27
HETATM   27  C3  UNL     1      -6.046   4.426  12.083  1.00  0.00     0.008 C 
BRANCH  27  28
HETATM   28  C4  UNL     1      -4.924   3.553  12.651  1.00  0.00     0.028 C 
BRANCH  28  29
HETATM   29  C5  UNL     1      -3.613   4.292  12.626  1.00  0.00    -0.020 C 
HETATM   30  C6  UNL     1      -2.503   3.999  11.914  1.00  0.00    -0.037 C 
BRANCH  30  31
HETATM   31  C7  UNL     1      -1.244   4.841  11.972  1.00  0.00     0.200 C 
BRANCH  31  32
HETATM   32  O1  UNL     1      -0.322   4.500  10.944  1.00  0.00    -0.397 OA
HETATM   33  H12 UNL     1      -0.762   4.740  10.110  1.00  0.00     0.209 HD
ENDBRANCH  31  32
ENDBRANCH  30  31
BRANCH  30  34
HETATM   34  C8  UNL     1      -2.383   2.830  10.973  1.00  0.00     0.200 C 
BRANCH  34  35
HETATM   35  O2  UNL     1      -2.937   3.199   9.717  1.00  0.00    -0.397 OA
HETATM   36  H15 UNL     1      -2.779   2.456   9.112  1.00  0.00     0.209 HD
ENDBRANCH  34  35
ENDBRANCH  30  34
ENDBRANCH  28  29
ENDBRANCH  27  28
ENDBRANCH  25  27
ENDBRANCH   1  25
TORSDOF 8
ENDMDL
MODEL 4
REMARK minimizedAffinity -8.84659004
REMARK CNNscore 0.480127573
REMARK CNNaffinity 6.96719885
REMARK  8 active torsions:
REMARK  status: ('A' for Active; 'I' for Inactive)
REMARK    1  A    between atoms: C2_2  and  C3_3 
REMARK    2  A    between atoms: C2_2  and  C9_11 
REMARK    3  A    between atoms: C3_3  and  C4_4 
REMARK    4  A    between atoms: C4_4  and  C5_5 
REMARK    5  A    between atoms: C6_6  and  C7_7 
REMARK    6  A    between atoms: C6_6  and  C8_9 
REMARK    7  A    between atoms: C7_7  and  O1_8 
REMARK    8  A    between atoms: C8_9  and  O2_10 
ROOT
HETATM    1  C9  UNL     1      -3.610   7.413  14.895  1.00  0.00    -0.002 C 
HETATM    2  C10 UNL     1      -4.206   6.099  14.317  1.00  0.00     0.007 C 
HETATM    3  C11 UNL     1      -3.200   5.544  13.294  1.00  0.00     0.015 C 
HETATM    4  C12 UNL     1      -1.900   6.335  13.534  1.00  0.00    -0.005 C 
HETATM    5  C13 UNL     1      -1.158   5.644  14.718  1.00  0.00     0.021 C 
HETATM    6  C14 UNL     1      -0.850   6.450  12.433  1.00  0.00    -0.000 C 
HETATM    7  C15 UNL     1      -0.046   7.542  12.343  1.00  0.00    -0.060 C 
HETATM    8  C16 UNL     1      -0.205   8.714  13.319  1.00  0.00     0.036 C 
HETATM    9  C17 UNL     1      -1.351   8.643  14.350  1.00  0.00     0.015 C 
HETATM   10  C18 UNL     1      -2.502   7.762  13.854  1.00  0.00    -0.028 C 
HETATM   11  C19 UNL     1      -3.157   8.451  12.616  1.00  0.00     0.016 C 
HETATM   12  C20 UNL     1       1.023   7.706  11.228  1.00  0.00    -0.014 C 
HETATM   13  C21 UNL     1       0.322   8.490  10.094  1.00  0.00     0.020 C 
HETATM   14  C22 UNL     1       2.257   8.505  11.722  1.00  0.00     0.021 C 
HETATM   15  C23 UNL     1       3.378   8.583  10.698  1.00  0.00     0.080 C 
HETATM   16  C24 UNL     1       3.836   7.206  10.293  1.00  0.00     0.135 C 
HETATM   17  O3  UNL     1       5.041   6.958  10.225  1.00  0.00    -0.297 OA
HETATM   18  C25 UNL     1       2.764   6.193   9.858  1.00  0.00     0.018 C 
HETATM   19  C26 UNL     1       2.455   6.437   8.373  1.00  0.00     0.023 C 
HETATM   20  C27 UNL     1       3.392   4.779   9.964  1.00  0.00     0.023 C 
HETATM   21  C28 UNL     1       1.527   6.279  10.821  1.00  0.00     0.020 C 
HETATM   22  C29 UNL     1       0.343   5.414  10.377  1.00  0.00     0.090 C 
HETATM   23  C30 UNL     1      -0.693   5.311  11.470  1.00  0.00     0.157 C 
HETATM   24  O4  UNL     1      -1.405   4.311  11.541  1.00  0.00    -0.293 OA
ENDROOT
BRANCH   1  25
HETATM   25  C2  UNL     1      -4.714   8.456  15.229  1.00  0.00    -0.014 C 
HETATM   26  C1  UNL     1      -4.230   9.544  16.192  1.00  0.00     0.010 C 
BRANCH  25  27
HETATM   27  C3  UNL     1      -6.013   7.809  15.780  1.00  0.00     0.008 C 
BRANCH  27  28
HETATM   28  C4  UNL     1      -7.251   7.963  14.892  1.00  0.00     0.028 C 
BRANCH  28  29
HETATM   29  C5  UNL     1      -7.450   6.737  14.042  1.00  0.00    -0.020 C 
HETATM   30  C6  UNL     1      -8.608   6.230  13.567  1.00  0.00    -0.037 C 
BRANCH  30  31
HETATM   31  C7  UNL     1      -8.667   4.985  12.705  1.00  0.00     0.200 C 
BRANCH  31  32
HETATM   32  O1  UNL     1      -8.587   3.793  13.477  1.00  0.00    -0.397 OA
HETATM   33  H12 UNL     1      -9.397   3.778  14.017  1.00  0.00     0.209 HD
ENDBRANCH  31  32
ENDBRANCH  30  31
BRANCH  30  34
HETATM   34  C8  UNL     1      -9.965   6.837  13.813  1.00  0.00     0.200 C 
BRANCH  34  35
HETATM   35  O2  UNL     1     -10.424   6.420  15.092  1.00  0.00    -0.397 OA
HETATM   36  H15 UNL     1     -11.262   6.885  15.253  1.00  0.00     0.209 HD
ENDBRANCH  34  35
ENDBRANCH  30  34
ENDBRANCH  28  29
ENDBRANCH  27  28
ENDBRANCH  25  27
ENDBRANCH   1  25
TORSDOF 8
ENDMDL
MODEL 5
REMARK minimizedAffinity -6.61587238
REMARK CNNscore 0.415681899
REMARK CNNaffinity 6.79093695
REMARK  8 active torsions:
REMARK  status: ('A' for Active; 'I' for Inactive)
REMARK    1  A    between atoms: C2_2  and  C3_3 
REMARK    2  A    between atoms: C2_2  and  C9_11 
REMARK    3  A    between atoms: C3_3  and  C4_4 
REMARK    4  A    between atoms: C4_4  and  C5_5 
REMARK    5  A    between atoms: C6_6  and  C7_7 
REMARK    6  A    between atoms: C6_6  and  C8_9 
REMARK    7  A    between atoms: C7_7  and  O1_8 
REMARK    8  A    between atoms: C8_9  and  O2_10 
ROOT
HETATM    1  C9  UNL     1      -9.096   7.263  15.366  1.00  0.00    -0.002 C 
HETATM    2  C10 UNL     1      -8.158   8.499  15.286  1.00  0.00     0.007 C 
HETATM    3  C11 UNL     1      -9.040   9.738  15.058  1.00  0.00     0.015 C 
HETATM    4  C12 UNL     1     -10.479   9.270  15.348  1.00  0.00    -0.005 C 
HETATM    5  C13 UNL     1     -10.679   9.345  16.893  1.00  0.00     0.021 C 
HETATM    6  C14 UNL     1     -11.670  10.024  14.766  1.00  0.00    -0.000 C 
HETATM    7  C15 UNL     1     -12.832   9.381  14.475  1.00  0.00    -0.060 C 
HETATM    8  C16 UNL     1     -12.962   7.866  14.681  1.00  0.00     0.036 C 
HETATM    9  C17 UNL     1     -11.712   7.094  15.152  1.00  0.00     0.015 C 
HETATM   10  C18 UNL     1     -10.419   7.809  14.746  1.00  0.00    -0.028 C 
HETATM   11  C19 UNL     1     -10.307   7.785  13.189  1.00  0.00     0.016 C 
HETATM   12  C20 UNL     1     -14.063  10.107  13.865  1.00  0.00    -0.014 C 
HETATM   13  C21 UNL     1     -13.926   9.938  12.334  1.00  0.00     0.020 C 
HETATM   14  C22 UNL     1     -15.399   9.478  14.337  1.00  0.00     0.021 C 
HETATM   15  C23 UNL     1     -16.627  10.235  13.859  1.00  0.00     0.080 C 
HETATM   16  C24 UNL     1     -16.590  11.670  14.319  1.00  0.00     0.135 C 
HETATM   17  O3  UNL     1     -17.602  12.183  14.801  1.00  0.00    -0.297 OA
HETATM   18  C25 UNL     1     -15.309  12.475  14.050  1.00  0.00     0.018 C 
HETATM   19  C26 UNL     1     -15.384  13.024  12.618  1.00  0.00     0.023 C 
HETATM   20  C27 UNL     1     -15.321  13.697  15.005  1.00  0.00     0.023 C 
HETATM   21  C28 UNL     1     -14.048  11.593  14.363  1.00  0.00     0.020 C 
HETATM   22  C29 UNL     1     -12.723  12.259  13.980  1.00  0.00     0.090 C 
HETATM   23  C30 UNL     1     -11.549  11.504  14.556  1.00  0.00     0.157 C 
HETATM   24  O4  UNL     1     -10.510  12.105  14.822  1.00  0.00    -0.293 OA
ENDROOT
BRANCH   1  25
HETATM   25  C2  UNL     1      -8.432   5.987  14.773  1.00  0.00    -0.014 C 
HETATM   26  C1  UNL     1      -7.856   5.064  15.851  1.00  0.00     0.010 C 
BRANCH  25  27
HETATM   27  C3  UNL     1      -7.340   6.308  13.718  1.00  0.00     0.008 C 
BRANCH  27  28
HETATM   28  C4  UNL     1      -6.006   5.581  13.912  1.00  0.00     0.028 C 
BRANCH  28  29
HETATM   29  C5  UNL     1      -5.745   4.637  12.769  1.00  0.00    -0.020 C 
HETATM   30  C6  UNL     1      -6.300   3.426  12.543  1.00  0.00    -0.037 C 
BRANCH  30  31
HETATM   31  C7  UNL     1      -5.954   2.578  11.336  1.00  0.00     0.200 C 
BRANCH  31  32
HETATM   32  O1  UNL     1      -6.602   1.312  11.367  1.00  0.00    -0.397 OA
HETATM   33  H12 UNL     1      -7.553   1.505  11.290  1.00  0.00     0.209 HD
ENDBRANCH  31  32
ENDBRANCH  30  31
BRANCH  30  34
HETATM   34  C8  UNL     1      -7.329   2.785  13.435  1.00  0.00     0.200 C 
BRANCH  34  35
HETATM   35  O2  UNL     1      -8.621   3.055  12.906  1.00  0.00    -0.397 OA
HETATM   36  H15 UNL     1      -9.256   2.569  13.457  1.00  0.00     0.209 HD
ENDBRANCH  34  35
ENDBRANCH  30  34
ENDBRANCH  28  29
ENDBRANCH  27  28
ENDBRANCH  25  27
ENDBRANCH   1  25
TORSDOF 8
ENDMDL
MODEL 6
REMARK minimizedAffinity -7.73694372
REMARK CNNscore 0.38702938
REMARK CNNaffinity 6.64726782
REMARK  8 active torsions:
REMARK  status: ('A' for Active; 'I' for Inactive)
REMARK    1  A    between atoms: C2_2  and  C3_3 
REMARK    2  A    between atoms: C2_2  and  C9_11 
REMARK    3  A    between atoms: C3_3  and  C4_4 
REMARK    4  A    between atoms: C4_4  and  C5_5 
REMARK    5  A    between atoms: C6_6  and  C7_7 
REMARK    6  A    between atoms: C6_6  and  C8_9 
REMARK    7  A    between atoms: C7_7  and  O1_8 
REMARK    8  A    between atoms: C8_9  and  O2_10 
ROOT
HETATM    1  C9  UNL     1      -5.021   6.628  14.639  1.00  0.00    -0.002 C 
HETATM    2  C10 UNL     1      -5.362   5.389  13.764  1.00  0.00     0.007 C 
HETATM    3  C11 UNL     1      -4.142   5.102  12.872  1.00  0.00     0.015 C 
HETATM    4  C12 UNL     1      -2.997   5.943  13.468  1.00  0.00    -0.005 C 
HETATM    5  C13 UNL     1      -2.394   5.121  14.648  1.00  0.00     0.021 C 
HETATM    6  C14 UNL     1      -1.795   6.329  12.612  1.00  0.00    -0.000 C 
HETATM    7  C15 UNL     1      -1.113   7.483  12.842  1.00  0.00    -0.060 C 
HETATM    8  C16 UNL     1      -1.563   8.453  13.942  1.00  0.00     0.036 C 
HETATM    9  C17 UNL     1      -2.852   8.113  14.718  1.00  0.00     0.015 C 
HETATM   10  C18 UNL     1      -3.799   7.240  13.888  1.00  0.00    -0.028 C 
HETATM   11  C19 UNL     1      -4.306   8.076  12.671  1.00  0.00     0.016 C 
HETATM   12  C20 UNL     1       0.105   7.923  11.984  1.00  0.00    -0.014 C 
HETATM   13  C21 UNL     1      -0.477   8.830  10.875  1.00  0.00     0.020 C 
HETATM   14  C22 UNL     1       1.141   8.722  12.815  1.00  0.00     0.021 C 
HETATM   15  C23 UNL     1       2.403   9.065  12.041  1.00  0.00     0.080 C 
HETATM   16  C24 UNL     1       3.073   7.820  11.520  1.00  0.00     0.135 C 
HETATM   17  O3  UNL     1       4.292   7.686  11.639  1.00  0.00    -0.297 OA
HETATM   18  C25 UNL     1       2.208   6.814  10.742  1.00  0.00     0.018 C 
HETATM   19  C26 UNL     1       2.131   7.283   9.282  1.00  0.00     0.023 C 
HETATM   20  C27 UNL     1       2.962   5.458  10.744  1.00  0.00     0.023 C 
HETATM   21  C28 UNL     1       0.825   6.632  11.461  1.00  0.00     0.020 C 
HETATM   22  C29 UNL     1      -0.164   5.763  10.677  1.00  0.00     0.090 C 
HETATM   23  C30 UNL     1      -1.353   5.389  11.531  1.00  0.00     0.157 C 
HETATM   24  O4  UNL     1      -1.951   4.338  11.313  1.00  0.00    -0.293 OA
ENDROOT
BRANCH   1  25
HETATM   25  C2  UNL     1      -6.275   7.505  14.920  1.00  0.00    -0.014 C 
HETATM   26  C1  UNL     1      -5.980   8.674  15.865  1.00  0.00     0.010 C 
BRANCH  25  27
HETATM   27  C3  UNL     1      -7.479   6.687  15.458  1.00  0.00     0.008 C 
BRANCH  27  28
HETATM   28  C4  UNL     1      -8.215   7.307  16.649  1.00  0.00     0.028 C 
BRANCH  28  29
HETATM   29  C5  UNL     1      -9.364   8.158  16.178  1.00  0.00    -0.020 C 
HETATM   30  C6  UNL     1     -10.158   7.966  15.102  1.00  0.00    -0.037 C 
BRANCH  30  31
HETATM   31  C7  UNL     1     -11.296   8.900  14.745  1.00  0.00     0.200 C 
BRANCH  31  32
HETATM   32  O1  UNL     1     -10.870   9.974  13.916  1.00  0.00    -0.397 OA
HETATM   33  H12 UNL     1     -10.595   9.562  13.078  1.00  0.00     0.209 HD
ENDBRANCH  31  32
ENDBRANCH  30  31
BRANCH  30  34
HETATM   34  C8  UNL     1     -10.028   6.809  14.147  1.00  0.00     0.200 C 
BRANCH  34  35
HETATM   35  O2  UNL     1     -10.589   7.188  12.897  1.00  0.00    -0.397 OA
HETATM   36  H15 UNL     1     -10.424   6.453  12.282  1.00  0.00     0.209 HD
ENDBRANCH  34  35
ENDBRANCH  30  34
ENDBRANCH  28  29
ENDBRANCH  27  28
ENDBRANCH  25  27
ENDBRANCH   1  25
TORSDOF 8
ENDMDL
MODEL 7
REMARK minimizedAffinity -6.57685375
REMARK CNNscore 0.343402505
REMARK CNNaffinity 6.71241236
REMARK  8 active torsions:
REMARK  status: ('A' for Active; 'I' for Inactive)
REMARK    1  A    between atoms: C2_2  and  C3_3 
REMARK    2  A    between atoms: C2_2  and  C9_11 
REMARK    3  A    between atoms: C3_3  and  C4_4 
REMARK    4  A    between atoms: C4_4  and  C5_5 
REMARK    5  A    between atoms: C6_6  and  C7_7 
REMARK    6  A    between atoms: C6_6  and  C8_9 
REMARK    7  A    between atoms: C7_7  and  O1_8 
REMARK    8  A    between atoms: C8_9  and  O2_10 
ROOT
HETATM    1  C9  UNL     1      -5.508   4.296  13.626  1.00  0.00    -0.002 C 
HETATM    2  C10 UNL     1      -5.561   3.601  12.238  1.00  0.00     0.007 C 
HETATM    3  C11 UNL     1      -4.223   3.874  11.530  1.00  0.00     0.015 C 
HETATM    4  C12 UNL     1      -3.289   4.421  12.627  1.00  0.00    -0.005 C 
HETATM    5  C13 UNL     1      -2.700   3.189  13.379  1.00  0.00     0.021 C 
HETATM    6  C14 UNL     1      -2.074   5.266  12.257  1.00  0.00    -0.000 C 
HETATM    7  C15 UNL     1      -1.603   6.222  13.101  1.00  0.00    -0.060 C 
HETATM    8  C16 UNL     1      -2.310   6.511  14.431  1.00  0.00     0.036 C 
HETATM    9  C17 UNL     1      -3.609   5.737  14.739  1.00  0.00     0.015 C 
HETATM   10  C18 UNL     1      -4.318   5.290  13.456  1.00  0.00    -0.028 C 
HETATM   11  C19 UNL     1      -4.812   6.560  12.693  1.00  0.00     0.016 C 
HETATM   12  C20 UNL     1      -0.380   7.116  12.756  1.00  0.00    -0.014 C 
HETATM   13  C21 UNL     1      -0.969   8.391  12.109  1.00  0.00     0.020 C 
HETATM   14  C22 UNL     1       0.428   7.505  14.021  1.00  0.00     0.021 C 
HETATM   15  C23 UNL     1       1.700   8.278  13.713  1.00  0.00     0.080 C 
HETATM   16  C24 UNL     1       2.602   7.492  12.798  1.00  0.00     0.135 C 
HETATM   17  O3  UNL     1       3.808   7.418  13.043  1.00  0.00    -0.297 OA
HETATM   18  C25 UNL     1       1.988   6.910  11.514  1.00  0.00     0.018 C 
HETATM   19  C26 UNL     1       1.998   8.010  10.442  1.00  0.00     0.023 C 
HETATM   20  C27 UNL     1       2.933   5.785  11.017  1.00  0.00     0.023 C 
HETATM   21  C28 UNL     1       0.578   6.295  11.827  1.00  0.00     0.020 C 
HETATM   22  C29 UNL     1      -0.177   5.826  10.580  1.00  0.00     0.090 C 
HETATM   23  C30 UNL     1      -1.381   4.995  10.955  1.00  0.00     0.157 C 
HETATM   24  O4  UNL     1      -1.786   4.128  10.183  1.00  0.00    -0.293 OA
ENDROOT
BRANCH   1  25
HETATM   25  C2  UNL     1      -6.902   4.827  14.066  1.00  0.00    -0.014 C 
HETATM   26  C1  UNL     1      -7.640   5.560  12.941  1.00  0.00     0.010 C 
BRANCH  25  27
HETATM   27  C3  UNL     1      -6.836   5.733  15.326  1.00  0.00     0.008 C 
BRANCH  27  28
HETATM   28  C4  UNL     1      -7.064   7.226  15.074  1.00  0.00     0.028 C 
BRANCH  28  29
HETATM   29  C5  UNL     1      -6.165   8.055  15.952  1.00  0.00    -0.020 C 
HETATM   30  C6  UNL     1      -5.166   8.883  15.578  1.00  0.00    -0.037 C 
BRANCH  30  31
HETATM   31  C7  UNL     1      -4.340   9.674  16.572  1.00  0.00     0.200 C 
BRANCH  31  32
HETATM   32  O1  UNL     1      -3.150   8.992  16.946  1.00  0.00    -0.397 OA
HETATM   33  H12 UNL     1      -2.612   8.944  16.136  1.00  0.00     0.209 HD
ENDBRANCH  31  32
ENDBRANCH  30  31
BRANCH  30  34
HETATM   34  C8  UNL     1      -4.763   9.136  14.149  1.00  0.00     0.200 C 
BRANCH  34  35
HETATM   35  O2  UNL     1      -3.491   9.771  14.142  1.00  0.00    -0.397 OA
HETATM   36  H15 UNL     1      -3.225   9.854  13.211  1.00  0.00     0.209 HD
ENDBRANCH  34  35
ENDBRANCH  30  34
ENDBRANCH  28  29
ENDBRANCH  27  28
ENDBRANCH  25  27
ENDBRANCH   1  25
TORSDOF 8
ENDMDL
MODEL 8
REMARK minimizedAffinity -8.62584114
REMARK CNNscore 0.326007098
REMARK CNNaffinity 6.56296349
REMARK  8 active torsions:
REMARK  status: ('A' for Active; 'I' for Inactive)
REMARK    1  A    between atoms: C2_2  and  C3_3 
REMARK    2  A    between atoms: C2_2  and  C9_11 
REMARK    3  A    between atoms: C3_3  and  C4_4 
REMARK    4  A    between atoms: C4_4  and  C5_5 
REMARK    5  A    between atoms: C6_6  and  C7_7 
REMARK    6  A    between atoms: C6_6  and  C8_9 
REMARK    7  A    between atoms: C7_7  and  O1_8 
REMARK    8  A    between atoms: C8_9  and  O2_10 
ROOT
HETATM    1  C9  UNL     1      -6.157   7.292  15.047  1.00  0.00    -0.002 C 
HETATM    2  C10 UNL     1      -5.791   8.729  15.510  1.00  0.00     0.007 C 
HETATM    3  C11 UNL     1      -4.388   9.049  14.966  1.00  0.00     0.015 C 
HETATM    4  C12 UNL     1      -4.099   7.952  13.922  1.00  0.00    -0.005 C 
HETATM    5  C13 UNL     1      -4.775   8.401  12.591  1.00  0.00     0.021 C 
HETATM    6  C14 UNL     1      -2.664   7.614  13.533  1.00  0.00    -0.000 C 
HETATM    7  C15 UNL     1      -2.322   6.359  13.136  1.00  0.00    -0.060 C 
HETATM    8  C16 UNL     1      -3.365   5.234  13.114  1.00  0.00     0.036 C 
HETATM    9  C17 UNL     1      -4.783   5.556  13.628  1.00  0.00     0.015 C 
HETATM   10  C18 UNL     1      -4.770   6.710  14.636  1.00  0.00    -0.028 C 
HETATM   11  C19 UNL     1      -4.007   6.244  15.915  1.00  0.00     0.016 C 
HETATM   12  C20 UNL     1      -0.870   5.969  12.747  1.00  0.00    -0.014 C 
HETATM   13  C21 UNL     1      -0.229   5.419  14.042  1.00  0.00     0.020 C 
HETATM   14  C22 UNL     1      -0.838   4.874  11.650  1.00  0.00     0.021 C 
HETATM   15  C23 UNL     1       0.562   4.551  11.156  1.00  0.00     0.080 C 
HETATM   16  C24 UNL     1       1.242   5.783  10.616  1.00  0.00     0.135 C 
HETATM   17  O3  UNL     1       1.852   5.726   9.547  1.00  0.00    -0.297 OA
HETATM   18  C25 UNL     1       1.247   7.043  11.497  1.00  0.00     0.018 C 
HETATM   19  C26 UNL     1       2.419   6.930  12.482  1.00  0.00     0.023 C 
HETATM   20  C27 UNL     1       1.546   8.253  10.574  1.00  0.00     0.023 C 
HETATM   21  C28 UNL     1      -0.164   7.238  12.157  1.00  0.00     0.020 C 
HETATM   22  C29 UNL     1      -0.213   8.383  13.174  1.00  0.00     0.090 C 
HETATM   23  C30 UNL     1      -1.637   8.707  13.558  1.00  0.00     0.157 C 
HETATM   24  O4  UNL     1      -1.928   9.850  13.905  1.00  0.00    -0.293 OA
ENDROOT
BRANCH   1  25
HETATM   25  C2  UNL     1      -7.029   6.546  16.098  1.00  0.00    -0.014 C 
HETATM   26  C1  UNL     1      -7.432   5.140  15.643  1.00  0.00     0.010 C 
BRANCH  25  27
HETATM   27  C3  UNL     1      -8.292   7.345  16.515  1.00  0.00     0.008 C 
BRANCH  27  28
HETATM   28  C4  UNL     1      -9.093   7.956  15.361  1.00  0.00     0.028 C 
BRANCH  28  29
HETATM   29  C5  UNL     1      -9.138   9.455  15.482  1.00  0.00    -0.020 C 
HETATM   30  C6  UNL     1     -10.125  10.294  15.099  1.00  0.00    -0.037 C 
BRANCH  30  31
HETATM   31  C7  UNL     1     -10.048  11.795  15.291  1.00  0.00     0.200 C 
BRANCH  31  32
HETATM   32  O1  UNL     1      -9.784  12.480  14.073  1.00  0.00    -0.397 OA
HETATM   33  H12 UNL     1     -10.565  12.326  13.514  1.00  0.00     0.209 HD
ENDBRANCH  31  32
ENDBRANCH  30  31
BRANCH  30  34
HETATM   34  C8  UNL     1     -11.416   9.852  14.461  1.00  0.00     0.200 C 
BRANCH  34  35
HETATM   35  O2  UNL     1     -11.360  10.147  13.072  1.00  0.00    -0.397 OA
HETATM   36  H15 UNL     1     -12.170   9.784  12.676  1.00  0.00     0.209 HD
ENDBRANCH  34  35
ENDBRANCH  30  34
ENDBRANCH  28  29
ENDBRANCH  27  28
ENDBRANCH  25  27
ENDBRANCH   1  25
TORSDOF 8
ENDMDL
MODEL 9
REMARK minimizedAffinity -7.46870041
REMARK CNNscore 0.322032511
REMARK CNNaffinity 6.61560011
REMARK  8 active torsions:
REMARK  status: ('A' for Active; 'I' for Inactive)
REMARK    1  A    between atoms: C2_2  and  C3_3 
REMARK    2  A    between atoms: C2_2  and  C9_11 
REMARK    3  A    between atoms: C3_3  and  C4_4 
REMARK    4  A    between atoms: C4_4  and  C5_5 
REMARK    5  A    between atoms: C6_6  and  C7_7 
REMARK    6  A    between atoms: C6_6  and  C8_9 
REMARK    7  A    between atoms: C7_7  and  O1_8 
REMARK    8  A    between atoms: C8_9  and  O2_10 
ROOT
HETATM    1  C9  UNL     1      -0.628   9.503  14.477  1.00  0.00    -0.002 C 
HETATM    2  C10 UNL     1       0.096   8.323  13.771  1.00  0.00     0.007 C 
HETATM    3  C11 UNL     1      -0.973   7.287  13.384  1.00  0.00     0.015 C 
HETATM    4  C12 UNL     1      -2.321   8.013  13.554  1.00  0.00    -0.005 C 
HETATM    5  C13 UNL     1      -2.566   8.831  12.249  1.00  0.00     0.021 C 
HETATM    6  C14 UNL     1      -3.607   7.220  13.760  1.00  0.00    -0.000 C 
HETATM    7  C15 UNL     1      -4.641   7.733  14.479  1.00  0.00    -0.060 C 
HETATM    8  C16 UNL     1      -4.523   9.110  15.144  1.00  0.00     0.036 C 
HETATM    9  C17 UNL     1      -3.174   9.851  15.034  1.00  0.00     0.015 C 
HETATM   10  C18 UNL     1      -2.008   8.876  14.843  1.00  0.00    -0.028 C 
HETATM   11  C19 UNL     1      -1.859   8.019  16.140  1.00  0.00     0.016 C 
HETATM   12  C20 UNL     1      -5.960   6.951  14.727  1.00  0.00    -0.014 C 
HETATM   13  C21 UNL     1      -5.763   6.226  16.079  1.00  0.00     0.020 C 
HETATM   14  C22 UNL     1      -7.184   7.897  14.823  1.00  0.00     0.021 C 
HETATM   15  C23 UNL     1      -8.509   7.163  14.944  1.00  0.00     0.080 C 
HETATM   16  C24 UNL     1      -8.720   6.231  13.778  1.00  0.00     0.135 C 
HETATM   17  O3  UNL     1      -9.812   6.201  13.209  1.00  0.00    -0.297 OA
HETATM   18  C25 UNL     1      -7.582   5.259  13.424  1.00  0.00     0.018 C 
HETATM   19  C26 UNL     1      -7.715   4.024  14.327  1.00  0.00     0.023 C 
HETATM   20  C27 UNL     1      -7.817   4.783  11.967  1.00  0.00     0.023 C 
HETATM   21  C28 UNL     1      -6.201   6.001  13.505  1.00  0.00     0.020 C 
HETATM   22  C29 UNL     1      -4.996   5.075  13.316  1.00  0.00     0.090 C 
HETATM   23  C30 UNL     1      -3.727   5.869  13.118  1.00  0.00     0.157 C 
HETATM   24  O4  UNL     1      -2.807   5.391  12.457  1.00  0.00    -0.293 OA
ENDROOT
BRANCH   1  25
HETATM   25  C2  UNL     1       0.250  10.143  15.591  1.00  0.00    -0.014 C 
HETATM   26  C1  UNL     1       1.197   9.136  16.251  1.00  0.00     0.010 C 
BRANCH  25  27
HETATM   27  C3  UNL     1      -0.586  10.868  16.679  1.00  0.00     0.008 C 
BRANCH  27  28
HETATM   28  C4  UNL     1      -0.445  12.393  16.707  1.00  0.00     0.028 C 
BRANCH  28  29
HETATM   29  C5  UNL     1      -0.542  12.959  15.316  1.00  0.00    -0.020 C 
HETATM   30  C6  UNL     1      -0.883  14.213  14.947  1.00  0.00    -0.037 C 
BRANCH  30  31
HETATM   31  C7  UNL     1      -0.930  14.660  13.500  1.00  0.00     0.200 C 
BRANCH  31  32
HETATM   32  O1  UNL     1      -2.217  14.479  12.923  1.00  0.00    -0.397 OA
HETATM   33  H12 UNL     1      -2.806  15.085  13.405  1.00  0.00     0.209 HD
ENDBRANCH  31  32
ENDBRANCH  30  31
BRANCH  30  34
HETATM   34  C8  UNL     1      -1.236  15.315  15.911  1.00  0.00     0.200 C 
BRANCH  34  35
HETATM   35  O2  UNL     1      -2.575  15.124  16.349  1.00  0.00    -0.397 OA
HETATM   36  H15 UNL     1      -2.748  15.802  17.023  1.00  0.00     0.209 HD
ENDBRANCH  34  35
ENDBRANCH  30  34
ENDBRANCH  28  29
ENDBRANCH  27  28
ENDBRANCH  25  27
ENDBRANCH   1  25
TORSDOF 8
ENDMDL
