MODEL 1
REMARK minimizedAffinity -7.69135857
REMARK CNNscore 0.754169047
REMARK CNNaffinity 7.10807085
REMARK  7 active torsions:
REMARK  status: ('A' for Active; 'I' for Inactive)
REMARK    1  A    between atoms: C4_4  and  C5_5 
REMARK    2  A    between atoms: C5_5  and  O1_6 
REMARK    3  A    between atoms: C5_5  and  C6_7 
REMARK    4  A    between atoms: C6_7  and  C7_8 
REMARK    5  A    between atoms: C7_8  and  C8_10 
REMARK    6  A    between atoms: C8_10  and  C10_12 
REMARK    7  A    between atoms: C18_20  and  O3_21 
ROOT
HETATM    1  C10 UNL     1       0.154  53.081 -11.244  1.00  0.00     0.008 C 
HETATM    2  C11 UNL     1      -0.070  54.507 -10.700  1.00  0.00     0.007 C 
HETATM    3  C12 UNL     1       1.247  55.257 -10.491  1.00  0.00     0.006 C 
HETATM    4  C13 UNL     1       2.251  54.497  -9.596  1.00  0.00     0.003 C 
HETATM    5  C14 UNL     1       3.573  55.317  -9.239  1.00  0.00    -0.035 C 
HETATM    6  C15 UNL     1       4.399  55.650 -10.503  1.00  0.00     0.016 C 
HETATM    7  C16 UNL     1       3.168  56.671  -8.577  1.00  0.00     0.012 C 
HETATM    8  C17 UNL     1       4.321  57.418  -7.911  1.00  0.00     0.033 C 
HETATM    9  C18 UNL     1       5.056  56.556  -6.891  1.00  0.00     0.126 C 
HETATM   10  C19 UNL     1       5.569  55.200  -7.461  1.00  0.00    -0.017 C 
HETATM   11  C20 UNL     1       6.057  54.354  -6.250  1.00  0.00     0.018 C 
HETATM   12  C21 UNL     1       6.802  55.388  -8.368  1.00  0.00     0.018 C 
HETATM   13  C22 UNL     1       4.362  54.474  -8.167  1.00  0.00     0.004 C 
HETATM   14  C23 UNL     1       4.680  53.060  -8.689  1.00  0.00     0.007 C 
HETATM   15  C24 UNL     1       3.403  52.291  -9.051  1.00  0.00     0.011 C 
HETATM   16  C25 UNL     1       2.469  52.997 -10.075  1.00  0.00    -0.029 C 
HETATM   17  C26 UNL     1       3.182  52.947 -11.464  1.00  0.00     0.016 C 
HETATM   18  C27 UNL     1       1.009  52.251 -10.195  1.00  0.00     0.002 C 
HETATM   19  C28 UNL     1       0.325  52.132  -8.813  1.00  0.00     0.190 C 
HETATM   20  O4  UNL     1       0.721  50.886  -8.238  1.00  0.00    -0.321 OA
HETATM   21  C29 UNL     1       1.177  50.060  -9.212  1.00  0.00     0.259 C 
HETATM   22  O5  UNL     1       1.528  48.908  -9.026  1.00  0.00    -0.265 OA
HETATM   23  C30 UNL     1       1.131  50.755 -10.538  1.00  0.00     0.124 C 
ENDROOT
BRANCH   1  24
HETATM   24  C8  UNL     1      -1.181  52.523 -11.864  1.00  0.00     0.056 C 
HETATM   25  C9  UNL     1      -2.047  51.673 -10.945  1.00  0.00     0.018 C 
BRANCH  24  26
HETATM   26  C7  UNL     1      -0.956  51.864 -13.243  1.00  0.00     0.133 C 
HETATM   27  O2  UNL     1      -1.754  51.039 -13.697  1.00  0.00    -0.297 OA
BRANCH  26  28
HETATM   28  C6  UNL     1       0.295  52.198 -14.038  1.00  0.00     0.114 C 
BRANCH  28  29
HETATM   29  C5  UNL     1       1.258  51.028 -14.224  1.00  0.00     0.148 C 
BRANCH  29  30
HETATM   30  C4  UNL     1       2.627  51.418 -14.707  1.00  0.00     0.007 C 
HETATM   31  C2  UNL     1       2.962  52.078 -15.834  1.00  0.00    -0.089 C 
HETATM   32  C1  UNL     1       2.003  52.583 -16.876  1.00  0.00     0.042 C 
HETATM   33  C3  UNL     1       4.409  52.362 -16.148  1.00  0.00     0.042 C 
ENDBRANCH  29  30
BRANCH  29  34
HETATM   34  O1  UNL     1       0.718  50.096 -15.155  1.00  0.00    -0.391 OA
HETATM   35  H9  UNL     1       1.377  49.382 -15.244  1.00  0.00     0.210 HD
ENDBRANCH  29  34
ENDBRANCH  28  29
ENDBRANCH  26  28
ENDBRANCH  24  26
ENDBRANCH   1  24
BRANCH   9  36
HETATM   36  O3  UNL     1       6.114  57.324  -6.319  1.00  0.00    -0.395 OA
HETATM   37  H30 UNL     1       6.679  57.649  -7.038  1.00  0.00     0.210 HD
ENDBRANCH   9  36
TORSDOF 7
ENDMDL
MODEL 2
REMARK minimizedAffinity -7.21388626
REMARK CNNscore 0.708581626
REMARK CNNaffinity 6.52690268
REMARK  7 active torsions:
REMARK  status: ('A' for Active; 'I' for Inactive)
REMARK    1  A    between atoms: C4_4  and  C5_5 
REMARK    2  A    between atoms: C5_5  and  O1_6 
REMARK    3  A    between atoms: C5_5  and  C6_7 
REMARK    4  A    between atoms: C6_7  and  C7_8 
REMARK    5  A    between atoms: C7_8  and  C8_10 
REMARK    6  A    between atoms: C8_10  and  C10_12 
REMARK    7  A    between atoms: C18_20  and  O3_21 
ROOT
HETATM    1  C10 UNL     1       4.362  55.109  -8.940  1.00  0.00     0.008 C 
HETATM    2  C11 UNL     1       5.833  55.414  -9.292  1.00  0.00     0.007 C 
HETATM    3  C12 UNL     1       6.785  55.055  -8.150  1.00  0.00     0.006 C 
HETATM    4  C13 UNL     1       6.409  55.720  -6.806  1.00  0.00     0.003 C 
HETATM    5  C14 UNL     1       7.465  55.483  -5.633  1.00  0.00    -0.035 C 
HETATM    6  C15 UNL     1       7.594  53.985  -5.271  1.00  0.00     0.016 C 
HETATM    7  C16 UNL     1       8.870  55.969  -6.108  1.00  0.00     0.012 C 
HETATM    8  C17 UNL     1       9.907  56.087  -4.994  1.00  0.00     0.033 C 
HETATM    9  C18 UNL     1       9.427  56.971  -3.848  1.00  0.00     0.126 C 
HETATM   10  C19 UNL     1       8.058  56.537  -3.246  1.00  0.00    -0.017 C 
HETATM   11  C20 UNL     1       7.605  57.672  -2.284  1.00  0.00     0.018 C 
HETATM   12  C21 UNL     1       8.189  55.272  -2.374  1.00  0.00     0.018 C 
HETATM   13  C22 UNL     1       7.024  56.394  -4.426  1.00  0.00     0.004 C 
HETATM   14  C23 UNL     1       5.583  56.077  -3.982  1.00  0.00     0.007 C 
HETATM   15  C24 UNL     1       4.580  56.284  -5.125  1.00  0.00     0.011 C 
HETATM   16  C25 UNL     1       4.883  55.490  -6.427  1.00  0.00    -0.029 C 
HETATM   17  C26 UNL     1       4.597  53.984  -6.127  1.00  0.00     0.016 C 
HETATM   18  C27 UNL     1       3.937  55.975  -7.681  1.00  0.00     0.002 C 
HETATM   19  C28 UNL     1       4.062  57.498  -7.920  1.00  0.00     0.190 C 
HETATM   20  O4  UNL     1       3.059  58.146  -7.137  1.00  0.00    -0.321 OA
HETATM   21  C29 UNL     1       2.093  57.252  -6.808  1.00  0.00     0.259 C 
HETATM   22  O5  UNL     1       1.080  57.535  -6.192  1.00  0.00    -0.265 OA
HETATM   23  C30 UNL     1       2.433  55.901  -7.355  1.00  0.00     0.124 C 
ENDROOT
BRANCH   1  24
HETATM   24  C8  UNL     1       3.493  55.054 -10.251  1.00  0.00     0.056 C 
HETATM   25  C9  UNL     1       3.353  56.359 -11.021  1.00  0.00     0.018 C 
BRANCH  24  26
HETATM   26  C7  UNL     1       2.136  54.351 -10.026  1.00  0.00     0.133 C 
HETATM   27  O2  UNL     1       2.069  53.244  -9.483  1.00  0.00    -0.297 OA
BRANCH  26  28
HETATM   28  C6  UNL     1       0.859  55.010 -10.521  1.00  0.00     0.114 C 
BRANCH  28  29
HETATM   29  C5  UNL     1      -0.341  54.844  -9.591  1.00  0.00     0.148 C 
BRANCH  29  30
HETATM   30  C4  UNL     1      -1.660  54.695 -10.296  1.00  0.00     0.007 C 
HETATM   31  C2  UNL     1      -2.547  53.684 -10.213  1.00  0.00    -0.089 C 
HETATM   32  C1  UNL     1      -2.398  52.450  -9.365  1.00  0.00     0.042 C 
HETATM   33  C3  UNL     1      -3.819  53.718 -11.021  1.00  0.00     0.042 C 
ENDBRANCH  29  30
BRANCH  29  34
HETATM   34  O1  UNL     1      -0.438  55.964  -8.718  1.00  0.00    -0.391 OA
HETATM   35  H9  UNL     1      -1.224  55.811  -8.161  1.00  0.00     0.210 HD
ENDBRANCH  29  34
ENDBRANCH  28  29
ENDBRANCH  26  28
ENDBRANCH  24  26
ENDBRANCH   1  24
BRANCH   9  36
HETATM   36  O3  UNL     1      10.449  57.028  -2.853  1.00  0.00    -0.395 OA
HETATM   37  H30 UNL     1      10.665  56.120  -2.586  1.00  0.00     0.210 HD
ENDBRANCH   9  36
TORSDOF 7
ENDMDL
MODEL 3
REMARK minimizedAffinity -9.68037033
REMARK CNNscore 0.601267099
REMARK CNNaffinity 7.37597609
REMARK  7 active torsions:
REMARK  status: ('A' for Active; 'I' for Inactive)
REMARK    1  A    between atoms: C4_4  and  C5_5 
REMARK    2  A    between atoms: C5_5  and  O1_6 
REMARK    3  A    between atoms: C5_5  and  C6_7 
REMARK    4  A    between atoms: C6_7  and  C7_8 
REMARK    5  A    between atoms: C7_8  and  C8_10 
REMARK    6  A    between atoms: C8_10  and  C10_12 
REMARK    7  A    between atoms: C18_20  and  O3_21 
ROOT
HETATM    1  C10 UNL     1      -3.371  49.582 -24.827  1.00  0.00     0.008 C 
HETATM    2  C11 UNL     1      -2.227  50.605 -24.667  1.00  0.00     0.007 C 
HETATM    3  C12 UNL     1      -1.374  50.326 -23.429  1.00  0.00     0.006 C 
HETATM    4  C13 UNL     1      -2.197  50.238 -22.124  1.00  0.00     0.003 C 
HETATM    5  C14 UNL     1      -1.321  50.095 -20.797  1.00  0.00    -0.035 C 
HETATM    6  C15 UNL     1      -0.498  48.786 -20.793  1.00  0.00     0.016 C 
HETATM    7  C16 UNL     1      -0.309  51.281 -20.726  1.00  0.00     0.012 C 
HETATM    8  C17 UNL     1       0.378  51.443 -19.372  1.00  0.00     0.033 C 
HETATM    9  C18 UNL     1      -0.621  51.560 -18.226  1.00  0.00     0.126 C 
HETATM   10  C19 UNL     1      -1.644  50.388 -18.157  1.00  0.00    -0.017 C 
HETATM   11  C20 UNL     1      -2.723  50.789 -17.112  1.00  0.00     0.018 C 
HETATM   12  C21 UNL     1      -0.999  49.094 -17.621  1.00  0.00     0.018 C 
HETATM   13  C22 UNL     1      -2.308  50.229 -19.577  1.00  0.00     0.004 C 
HETATM   14  C23 UNL     1      -3.432  49.178 -19.646  1.00  0.00     0.007 C 
HETATM   15  C24 UNL     1      -4.252  49.310 -20.936  1.00  0.00     0.011 C 
HETATM   16  C25 UNL     1      -3.430  49.243 -22.255  1.00  0.00    -0.029 C 
HETATM   17  C26 UNL     1      -2.948  47.767 -22.426  1.00  0.00     0.016 C 
HETATM   18  C27 UNL     1      -4.329  49.669 -23.565  1.00  0.00     0.002 C 
HETATM   19  C28 UNL     1      -4.963  51.067 -23.378  1.00  0.00     0.190 C 
HETATM   20  O4  UNL     1      -6.244  50.887 -22.773  1.00  0.00    -0.321 OA
HETATM   21  C29 UNL     1      -6.657  49.608 -22.957  1.00  0.00     0.259 C 
HETATM   22  O5  UNL     1      -7.741  49.179 -22.599  1.00  0.00    -0.265 OA
HETATM   23  C30 UNL     1      -5.615  48.832 -23.701  1.00  0.00     0.124 C 
ENDROOT
BRANCH   1  24
HETATM   24  C8  UNL     1      -3.924  49.615 -26.301  1.00  0.00     0.056 C 
HETATM   25  C9  UNL     1      -4.247  48.267 -26.929  1.00  0.00     0.018 C 
BRANCH  24  26
HETATM   26  C7  UNL     1      -3.071  50.511 -27.226  1.00  0.00     0.133 C 
HETATM   27  O2  UNL     1      -2.817  50.176 -28.387  1.00  0.00    -0.297 OA
BRANCH  26  28
HETATM   28  C6  UNL     1      -2.492  51.809 -26.688  1.00  0.00     0.114 C 
BRANCH  28  29
HETATM   29  C5  UNL     1      -1.388  52.416 -27.552  1.00  0.00     0.148 C 
BRANCH  29  30
HETATM   30  C4  UNL     1      -0.030  51.804 -27.348  1.00  0.00     0.007 C 
HETATM   31  C2  UNL     1       0.836  52.002 -26.335  1.00  0.00    -0.089 C 
HETATM   32  C1  UNL     1       0.616  52.906 -25.153  1.00  0.00     0.042 C 
HETATM   33  C3  UNL     1       2.169  51.297 -26.323  1.00  0.00     0.042 C 
ENDBRANCH  29  30
BRANCH  29  34
HETATM   34  O1  UNL     1      -1.279  53.812 -27.292  1.00  0.00    -0.391 OA
HETATM   35  H9  UNL     1      -0.555  54.141 -27.857  1.00  0.00     0.210 HD
ENDBRANCH  29  34
ENDBRANCH  28  29
ENDBRANCH  26  28
ENDBRANCH  24  26
ENDBRANCH   1  24
BRANCH   9  36
HETATM   36  O3  UNL     1       0.100  51.707 -17.003  1.00  0.00    -0.395 OA
HETATM   37  H30 UNL     1       0.711  50.958 -16.917  1.00  0.00     0.210 HD
ENDBRANCH   9  36
TORSDOF 7
ENDMDL
MODEL 4
REMARK minimizedAffinity -8.72310734
REMARK CNNscore 0.515382409
REMARK CNNaffinity 6.82402563
REMARK  7 active torsions:
REMARK  status: ('A' for Active; 'I' for Inactive)
REMARK    1  A    between atoms: C4_4  and  C5_5 
REMARK    2  A    between atoms: C5_5  and  O1_6 
REMARK    3  A    between atoms: C5_5  and  C6_7 
REMARK    4  A    between atoms: C6_7  and  C7_8 
REMARK    5  A    between atoms: C7_8  and  C8_10 
REMARK    6  A    between atoms: C8_10  and  C10_12 
REMARK    7  A    between atoms: C18_20  and  O3_21 
ROOT
HETATM    1  C10 UNL     1      -4.104  49.966 -25.184  1.00  0.00     0.008 C 
HETATM    2  C11 UNL     1      -4.428  48.458 -25.229  1.00  0.00     0.007 C 
HETATM    3  C12 UNL     1      -5.418  48.049 -24.138  1.00  0.00     0.006 C 
HETATM    4  C13 UNL     1      -4.969  48.456 -22.716  1.00  0.00     0.003 C 
HETATM    5  C14 UNL     1      -5.907  47.914 -21.545  1.00  0.00    -0.035 C 
HETATM    6  C15 UNL     1      -7.340  48.487 -21.647  1.00  0.00     0.016 C 
HETATM    7  C16 UNL     1      -6.018  46.362 -21.659  1.00  0.00     0.012 C 
HETATM    8  C17 UNL     1      -6.629  45.681 -20.436  1.00  0.00     0.033 C 
HETATM    9  C18 UNL     1      -5.898  46.043 -19.147  1.00  0.00     0.126 C 
HETATM   10  C19 UNL     1      -5.787  47.575 -18.893  1.00  0.00    -0.017 C 
HETATM   11  C20 UNL     1      -4.812  47.767 -17.697  1.00  0.00     0.018 C 
HETATM   12  C21 UNL     1      -7.131  48.183 -18.443  1.00  0.00     0.018 C 
HETATM   13  C22 UNL     1      -5.185  48.247 -20.185  1.00  0.00     0.004 C 
HETATM   14  C23 UNL     1      -4.905  49.756 -20.053  1.00  0.00     0.007 C 
HETATM   15  C24 UNL     1      -4.022  50.270 -21.198  1.00  0.00     0.011 C 
HETATM   16  C25 UNL     1      -4.561  49.990 -22.630  1.00  0.00    -0.029 C 
HETATM   17  C26 UNL     1      -5.800  50.915 -22.848  1.00  0.00     0.016 C 
HETATM   18  C27 UNL     1      -3.439  50.315 -23.787  1.00  0.00     0.002 C 
HETATM   19  C28 UNL     1      -2.126  49.539 -23.528  1.00  0.00     0.190 C 
HETATM   20  O4  UNL     1      -1.284  50.365 -22.722  1.00  0.00    -0.321 OA
HETATM   21  C29 UNL     1      -1.692  51.655 -22.813  1.00  0.00     0.259 C 
HETATM   22  O5  UNL     1      -1.125  52.592 -22.279  1.00  0.00    -0.265 OA
HETATM   23  C30 UNL     1      -2.895  51.754 -23.700  1.00  0.00     0.124 C 
ENDROOT
BRANCH   1  24
HETATM   24  C8  UNL     1      -3.471  50.423 -26.551  1.00  0.00     0.056 C 
HETATM   25  C9  UNL     1      -3.730  49.521 -27.748  1.00  0.00     0.018 C 
BRANCH  24  26
HETATM   26  C7  UNL     1      -1.981  50.805 -26.408  1.00  0.00     0.133 C 
HETATM   27  O2  UNL     1      -1.108  49.943 -26.277  1.00  0.00    -0.297 OA
BRANCH  26  28
HETATM   28  C6  UNL     1      -1.582  52.271 -26.381  1.00  0.00     0.114 C 
BRANCH  28  29
HETATM   29  C5  UNL     1      -0.905  52.766 -27.657  1.00  0.00     0.148 C 
BRANCH  29  30
HETATM   30  C4  UNL     1       0.513  52.300 -27.832  1.00  0.00     0.007 C 
HETATM   31  C2  UNL     1       1.450  52.093 -26.885  1.00  0.00    -0.089 C 
HETATM   32  C1  UNL     1       1.265  52.288 -25.406  1.00  0.00     0.042 C 
HETATM   33  C3  UNL     1       2.834  51.635 -27.272  1.00  0.00     0.042 C 
ENDBRANCH  29  30
BRANCH  29  34
HETATM   34  O1  UNL     1      -0.901  54.190 -27.685  1.00  0.00    -0.391 OA
HETATM   35  H9  UNL     1      -0.448  54.448 -28.509  1.00  0.00     0.210 HD
ENDBRANCH  29  34
ENDBRANCH  28  29
ENDBRANCH  26  28
ENDBRANCH  24  26
ENDBRANCH   1  24
BRANCH   9  36
HETATM   36  O3  UNL     1      -6.529  45.370 -18.058  1.00  0.00    -0.395 OA
HETATM   37  H30 UNL     1      -7.471  45.607 -18.057  1.00  0.00     0.210 HD
ENDBRANCH   9  36
TORSDOF 7
ENDMDL
MODEL 5
REMARK minimizedAffinity -9.04234695
REMARK CNNscore 0.438789457
REMARK CNNaffinity 7.01900148
REMARK  7 active torsions:
REMARK  status: ('A' for Active; 'I' for Inactive)
REMARK    1  A    between atoms: C4_4  and  C5_5 
REMARK    2  A    between atoms: C5_5  and  O1_6 
REMARK    3  A    between atoms: C5_5  and  C6_7 
REMARK    4  A    between atoms: C6_7  and  C7_8 
REMARK    5  A    between atoms: C7_8  and  C8_10 
REMARK    6  A    between atoms: C8_10  and  C10_12 
REMARK    7  A    between atoms: C18_20  and  O3_21 
ROOT
HETATM    1  C10 UNL     1      -1.875  49.932 -20.889  1.00  0.00     0.008 C 
HETATM    2  C11 UNL     1      -1.545  48.639 -20.113  1.00  0.00     0.007 C 
HETATM    3  C12 UNL     1      -1.412  48.888 -18.610  1.00  0.00     0.006 C 
HETATM    4  C13 UNL     1      -0.393  49.996 -18.259  1.00  0.00     0.003 C 
HETATM    5  C14 UNL     1      -0.124  50.176 -16.696  1.00  0.00    -0.035 C 
HETATM    6  C15 UNL     1      -1.402  50.609 -15.941  1.00  0.00     0.016 C 
HETATM    7  C16 UNL     1       0.329  48.808 -16.097  1.00  0.00     0.012 C 
HETATM    8  C17 UNL     1       0.911  48.897 -14.688  1.00  0.00     0.033 C 
HETATM    9  C18 UNL     1       2.061  49.894 -14.599  1.00  0.00     0.126 C 
HETATM   10  C19 UNL     1       1.702  51.321 -15.110  1.00  0.00    -0.017 C 
HETATM   11  C20 UNL     1       3.032  52.123 -15.186  1.00  0.00     0.018 C 
HETATM   12  C21 UNL     1       0.808  52.081 -14.109  1.00  0.00     0.018 C 
HETATM   13  C22 UNL     1       1.076  51.186 -16.549  1.00  0.00     0.004 C 
HETATM   14  C23 UNL     1       0.768  52.527 -17.243  1.00  0.00     0.007 C 
HETATM   15  C24 UNL     1       0.487  52.338 -18.739  1.00  0.00     0.011 C 
HETATM   16  C25 UNL     1      -0.649  51.332 -19.081  1.00  0.00    -0.029 C 
HETATM   17  C26 UNL     1      -1.999  51.999 -18.665  1.00  0.00     0.016 C 
HETATM   18  C27 UNL     1      -0.699  50.977 -20.685  1.00  0.00     0.002 C 
HETATM   19  C28 UNL     1       0.669  50.457 -21.186  1.00  0.00     0.190 C 
HETATM   20  O4  UNL     1       1.425  51.583 -21.634  1.00  0.00    -0.321 OA
HETATM   21  C29 UNL     1       0.589  52.623 -21.880  1.00  0.00     0.259 C 
HETATM   22  O5  UNL     1       0.946  53.698 -22.331  1.00  0.00    -0.265 OA
HETATM   23  C30 UNL     1      -0.823  52.233 -21.569  1.00  0.00     0.124 C 
ENDROOT
BRANCH   1  24
HETATM   24  C8  UNL     1      -2.442  49.577 -22.313  1.00  0.00     0.056 C 
HETATM   25  C9  UNL     1      -2.153  48.172 -22.823  1.00  0.00     0.018 C 
BRANCH  24  26
HETATM   26  C7  UNL     1      -2.118  50.665 -23.361  1.00  0.00     0.133 C 
HETATM   27  O2  UNL     1      -1.040  50.678 -23.961  1.00  0.00    -0.297 OA
BRANCH  26  28
HETATM   28  C6  UNL     1      -3.126  51.771 -23.629  1.00  0.00     0.114 C 
BRANCH  28  29
HETATM   29  C5  UNL     1      -3.723  51.756 -25.035  1.00  0.00     0.148 C 
BRANCH  29  30
HETATM   30  C4  UNL     1      -3.310  50.580 -25.874  1.00  0.00     0.007 C 
HETATM   31  C2  UNL     1      -3.845  49.343 -25.908  1.00  0.00    -0.089 C 
HETATM   32  C1  UNL     1      -5.010  48.866 -25.085  1.00  0.00     0.042 C 
HETATM   33  C3  UNL     1      -3.269  48.289 -26.819  1.00  0.00     0.042 C 
ENDBRANCH  29  30
BRANCH  29  34
HETATM   34  O1  UNL     1      -3.353  52.940 -25.733  1.00  0.00    -0.391 OA
HETATM   35  H9  UNL     1      -3.747  52.870 -26.622  1.00  0.00     0.210 HD
ENDBRANCH  29  34
ENDBRANCH  28  29
ENDBRANCH  26  28
ENDBRANCH  24  26
ENDBRANCH   1  24
BRANCH   9  36
HETATM   36  O3  UNL     1       2.545  49.918 -13.256  1.00  0.00    -0.395 OA
HETATM   37  H30 UNL     1       1.801  50.122 -12.668  1.00  0.00     0.210 HD
ENDBRANCH   9  36
TORSDOF 7
ENDMDL
MODEL 6
REMARK minimizedAffinity -9.48083496
REMARK CNNscore 0.430252403
REMARK CNNaffinity 6.7230649
REMARK  7 active torsions:
REMARK  status: ('A' for Active; 'I' for Inactive)
REMARK    1  A    between atoms: C4_4  and  C5_5 
REMARK    2  A    between atoms: C5_5  and  O1_6 
REMARK    3  A    between atoms: C5_5  and  C6_7 
REMARK    4  A    between atoms: C6_7  and  C7_8 
REMARK    5  A    between atoms: C7_8  and  C8_10 
REMARK    6  A    between atoms: C8_10  and  C10_12 
REMARK    7  A    between atoms: C18_20  and  O3_21 
ROOT
HETATM    1  C10 UNL     1      -1.191  51.169 -21.481  1.00  0.00     0.008 C 
HETATM    2  C11 UNL     1      -1.277  50.764 -22.967  1.00  0.00     0.007 C 
HETATM    3  C12 UNL     1      -2.724  50.587 -23.432  1.00  0.00     0.006 C 
HETATM    4  C13 UNL     1      -3.531  49.597 -22.563  1.00  0.00     0.003 C 
HETATM    5  C14 UNL     1      -4.997  49.279 -23.109  1.00  0.00    -0.035 C 
HETATM    6  C15 UNL     1      -5.886  50.544 -23.135  1.00  0.00     0.016 C 
HETATM    7  C16 UNL     1      -4.890  48.756 -24.576  1.00  0.00     0.012 C 
HETATM    8  C17 UNL     1      -6.172  48.127 -25.117  1.00  0.00     0.033 C 
HETATM    9  C18 UNL     1      -6.693  47.012 -24.218  1.00  0.00     0.126 C 
HETATM   10  C19 UNL     1      -6.905  47.440 -22.736  1.00  0.00    -0.017 C 
HETATM   11  C20 UNL     1      -7.187  46.144 -21.925  1.00  0.00     0.018 C 
HETATM   12  C21 UNL     1      -8.157  48.325 -22.567  1.00  0.00     0.018 C 
HETATM   13  C22 UNL     1      -5.575  48.112 -22.223  1.00  0.00     0.004 C 
HETATM   14  C23 UNL     1      -5.583  48.493 -20.730  1.00  0.00     0.007 C 
HETATM   15  C24 UNL     1      -4.173  48.821 -20.223  1.00  0.00     0.011 C 
HETATM   16  C25 UNL     1      -3.423  49.931 -21.013  1.00  0.00    -0.029 C 
HETATM   17  C26 UNL     1      -4.120  51.288 -20.678  1.00  0.00     0.016 C 
HETATM   18  C27 UNL     1      -1.837  50.025 -20.591  1.00  0.00     0.002 C 
HETATM   19  C28 UNL     1      -1.132  48.657 -20.754  1.00  0.00     0.190 C 
HETATM   20  O4  UNL     1      -1.243  47.960 -19.513  1.00  0.00    -0.321 OA
HETATM   21  C29 UNL     1      -1.517  48.841 -18.519  1.00  0.00     0.259 C 
HETATM   22  O5  UNL     1      -1.608  48.540 -17.341  1.00  0.00    -0.265 OA
HETATM   23  C30 UNL     1      -1.634  50.226 -19.077  1.00  0.00     0.124 C 
ENDROOT
BRANCH   1  24
HETATM   24  C8  UNL     1       0.228  51.774 -21.167  1.00  0.00     0.056 C 
HETATM   25  C9  UNL     1       0.441  52.292 -19.752  1.00  0.00     0.018 C 
BRANCH  24  26
HETATM   26  C7  UNL     1       0.686  52.783 -22.243  1.00  0.00     0.133 C 
HETATM   27  O2  UNL     1       1.009  53.936 -21.944  1.00  0.00    -0.297 OA
BRANCH  26  28
HETATM   28  C6  UNL     1       0.695  52.368 -23.705  1.00  0.00     0.114 C 
BRANCH  28  29
HETATM   29  C5  UNL     1       0.196  53.441 -24.670  1.00  0.00     0.148 C 
BRANCH  29  30
HETATM   30  C4  UNL     1       0.018  52.971 -26.087  1.00  0.00     0.007 C 
HETATM   31  C2  UNL     1       0.850  52.215 -26.831  1.00  0.00    -0.089 C 
HETATM   32  C1  UNL     1       2.174  51.662 -26.381  1.00  0.00     0.042 C 
HETATM   33  C3  UNL     1       0.491  51.861 -28.252  1.00  0.00     0.042 C 
ENDBRANCH  29  30
BRANCH  29  34
HETATM   34  O1  UNL     1       1.102  54.539 -24.688  1.00  0.00    -0.391 OA
HETATM   35  H9  UNL     1       0.742  55.182 -25.327  1.00  0.00     0.210 HD
ENDBRANCH  29  34
ENDBRANCH  28  29
ENDBRANCH  26  28
ENDBRANCH  24  26
ENDBRANCH   1  24
BRANCH   9  36
HETATM   36  O3  UNL     1      -7.888  46.482 -24.792  1.00  0.00    -0.395 OA
HETATM   37  H30 UNL     1      -8.516  47.211 -24.918  1.00  0.00     0.210 HD
ENDBRANCH   9  36
TORSDOF 7
ENDMDL
MODEL 7
REMARK minimizedAffinity -8.05024529
REMARK CNNscore 0.419577152
REMARK CNNaffinity 6.54209852
REMARK  7 active torsions:
REMARK  status: ('A' for Active; 'I' for Inactive)
REMARK    1  A    between atoms: C4_4  and  C5_5 
REMARK    2  A    between atoms: C5_5  and  O1_6 
REMARK    3  A    between atoms: C5_5  and  C6_7 
REMARK    4  A    between atoms: C6_7  and  C7_8 
REMARK    5  A    between atoms: C7_8  and  C8_10 
REMARK    6  A    between atoms: C8_10  and  C10_12 
REMARK    7  A    between atoms: C18_20  and  O3_21 
ROOT
HETATM    1  C10 UNL     1      -3.864  50.720 -22.524  1.00  0.00     0.008 C 
HETATM    2  C11 UNL     1      -4.025  51.186 -21.062  1.00  0.00     0.007 C 
HETATM    3  C12 UNL     1      -3.553  50.127 -20.064  1.00  0.00     0.006 C 
HETATM    4  C13 UNL     1      -4.230  48.752 -20.263  1.00  0.00     0.003 C 
HETATM    5  C14 UNL     1      -3.869  47.670 -19.147  1.00  0.00    -0.035 C 
HETATM    6  C15 UNL     1      -2.360  47.332 -19.143  1.00  0.00     0.016 C 
HETATM    7  C16 UNL     1      -4.218  48.252 -17.742  1.00  0.00     0.012 C 
HETATM    8  C17 UNL     1      -4.213  47.224 -16.613  1.00  0.00     0.033 C 
HETATM    9  C18 UNL     1      -5.122  46.036 -16.908  1.00  0.00     0.126 C 
HETATM   10  C19 UNL     1      -4.819  45.330 -18.262  1.00  0.00    -0.017 C 
HETATM   11  C20 UNL     1      -5.978  44.325 -18.519  1.00  0.00     0.018 C 
HETATM   12  C21 UNL     1      -3.533  44.481 -18.193  1.00  0.00     0.018 C 
HETATM   13  C22 UNL     1      -4.800  46.424 -19.396  1.00  0.00     0.004 C 
HETATM   14  C23 UNL     1      -4.623  45.868 -20.822  1.00  0.00     0.007 C 
HETATM   15  C24 UNL     1      -4.949  46.925 -21.885  1.00  0.00     0.011 C 
HETATM   16  C25 UNL     1      -4.149  48.253 -21.769  1.00  0.00    -0.029 C 
HETATM   17  C26 UNL     1      -2.675  47.944 -22.182  1.00  0.00     0.016 C 
HETATM   18  C27 UNL     1      -4.748  49.423 -22.758  1.00  0.00     0.002 C 
HETATM   19  C28 UNL     1      -6.254  49.659 -22.497  1.00  0.00     0.190 C 
HETATM   20  O4  UNL     1      -6.987  48.792 -23.363  1.00  0.00    -0.321 OA
HETATM   21  C29 UNL     1      -6.191  48.394 -24.387  1.00  0.00     0.259 C 
HETATM   22  O5  UNL     1      -6.564  47.696 -25.314  1.00  0.00    -0.265 OA
HETATM   23  C30 UNL     1      -4.821  48.978 -24.230  1.00  0.00     0.124 C 
ENDROOT
BRANCH   1  24
HETATM   24  C8  UNL     1      -3.919  51.957 -23.495  1.00  0.00     0.056 C 
HETATM   25  C9  UNL     1      -5.306  52.417 -23.921  1.00  0.00     0.018 C 
BRANCH  24  26
HETATM   26  C7  UNL     1      -2.951  51.807 -24.690  1.00  0.00     0.133 C 
HETATM   27  O2  UNL     1      -3.370  51.603 -25.833  1.00  0.00    -0.297 OA
BRANCH  26  28
HETATM   28  C6  UNL     1      -1.452  51.865 -24.452  1.00  0.00     0.114 C 
BRANCH  28  29
HETATM   29  C5  UNL     1      -0.683  52.714 -25.463  1.00  0.00     0.148 C 
BRANCH  29  30
HETATM   30  C4  UNL     1       0.731  52.265 -25.706  1.00  0.00     0.007 C 
HETATM   31  C2  UNL     1       1.301  51.875 -26.863  1.00  0.00    -0.089 C 
HETATM   32  C1  UNL     1       0.617  51.807 -28.201  1.00  0.00     0.042 C 
HETATM   33  C3  UNL     1       2.745  51.443 -26.894  1.00  0.00     0.042 C 
ENDBRANCH  29  30
BRANCH  29  34
HETATM   34  O1  UNL     1      -0.641  54.069 -25.029  1.00  0.00    -0.391 OA
HETATM   35  H9  UNL     1      -0.130  54.557 -25.701  1.00  0.00     0.210 HD
ENDBRANCH  29  34
ENDBRANCH  28  29
ENDBRANCH  26  28
ENDBRANCH  24  26
ENDBRANCH   1  24
BRANCH   9  36
HETATM   36  O3  UNL     1      -5.059  45.126 -15.810  1.00  0.00    -0.395 OA
HETATM   37  H30 UNL     1      -4.130  44.884 -15.667  1.00  0.00     0.210 HD
ENDBRANCH   9  36
TORSDOF 7
ENDMDL
MODEL 8
REMARK minimizedAffinity -8.24902248
REMARK CNNscore 0.3782956
REMARK CNNaffinity 6.38376665
REMARK  7 active torsions:
REMARK  status: ('A' for Active; 'I' for Inactive)
REMARK    1  A    between atoms: C4_4  and  C5_5 
REMARK    2  A    between atoms: C5_5  and  O1_6 
REMARK    3  A    between atoms: C5_5  and  C6_7 
REMARK    4  A    between atoms: C6_7  and  C7_8 
REMARK    5  A    between atoms: C7_8  and  C8_10 
REMARK    6  A    between atoms: C8_10  and  C10_12 
REMARK    7  A    between atoms: C18_20  and  O3_21 
ROOT
HETATM    1  C10 UNL     1      -4.391  50.199 -22.473  1.00  0.00     0.008 C 
HETATM    2  C11 UNL     1      -4.229  48.867 -23.234  1.00  0.00     0.007 C 
HETATM    3  C12 UNL     1      -5.205  47.798 -22.738  1.00  0.00     0.006 C 
HETATM    4  C13 UNL     1      -5.126  47.555 -21.213  1.00  0.00     0.003 C 
HETATM    5  C14 UNL     1      -6.025  46.345 -20.689  1.00  0.00    -0.035 C 
HETATM    6  C15 UNL     1      -7.530  46.601 -20.936  1.00  0.00     0.016 C 
HETATM    7  C16 UNL     1      -5.639  45.050 -21.469  1.00  0.00     0.012 C 
HETATM    8  C17 UNL     1      -6.195  43.761 -20.867  1.00  0.00     0.033 C 
HETATM    9  C18 UNL     1      -5.819  43.599 -19.399  1.00  0.00     0.126 C 
HETATM   10  C19 UNL     1      -6.220  44.810 -18.506  1.00  0.00    -0.017 C 
HETATM   11  C20 UNL     1      -5.547  44.595 -17.120  1.00  0.00     0.018 C 
HETATM   12  C21 UNL     1      -7.738  44.848 -18.236  1.00  0.00     0.018 C 
HETATM   13  C22 UNL     1      -5.658  46.122 -19.173  1.00  0.00     0.004 C 
HETATM   14  C23 UNL     1      -5.875  47.406 -18.349  1.00  0.00     0.007 C 
HETATM   15  C24 UNL     1      -5.024  48.568 -18.878  1.00  0.00     0.011 C 
HETATM   16  C25 UNL     1      -5.223  48.907 -20.383  1.00  0.00    -0.029 C 
HETATM   17  C26 UNL     1      -6.636  49.558 -20.527  1.00  0.00     0.016 C 
HETATM   18  C27 UNL     1      -4.089  49.961 -20.934  1.00  0.00     0.002 C 
HETATM   19  C28 UNL     1      -2.659  49.434 -20.670  1.00  0.00     0.190 C 
HETATM   20  O4  UNL     1      -2.244  49.921 -19.393  1.00  0.00    -0.321 OA
HETATM   21  C29 UNL     1      -3.006  50.988 -19.045  1.00  0.00     0.259 C 
HETATM   22  O5  UNL     1      -2.841  51.646 -18.032  1.00  0.00    -0.265 OA
HETATM   23  C30 UNL     1      -4.029  51.258 -20.104  1.00  0.00     0.124 C 
ENDROOT
BRANCH   1  24
HETATM   24  C8  UNL     1      -3.724  51.370 -23.286  1.00  0.00     0.056 C 
HETATM   25  C9  UNL     1      -4.551  51.959 -24.420  1.00  0.00     0.018 C 
BRANCH  24  26
HETATM   26  C7  UNL     1      -2.280  51.034 -23.720  1.00  0.00     0.133 C 
HETATM   27  O2  UNL     1      -1.365  50.954 -22.895  1.00  0.00    -0.297 OA
BRANCH  26  28
HETATM   28  C6  UNL     1      -1.965  50.842 -25.194  1.00  0.00     0.114 C 
BRANCH  28  29
HETATM   29  C5  UNL     1      -1.132  51.963 -25.814  1.00  0.00     0.148 C 
BRANCH  29  30
HETATM   30  C4  UNL     1       0.350  51.713 -25.808  1.00  0.00     0.007 C 
HETATM   31  C2  UNL     1       1.191  51.629 -26.859  1.00  0.00    -0.089 C 
HETATM   32  C1  UNL     1       0.808  51.775 -28.306  1.00  0.00     0.042 C 
HETATM   33  C3  UNL     1       2.657  51.354 -26.640  1.00  0.00     0.042 C 
ENDBRANCH  29  30
BRANCH  29  34
HETATM   34  O1  UNL     1      -1.370  53.185 -25.123  1.00  0.00    -0.391 OA
HETATM   35  H9  UNL     1      -0.806  53.856 -25.549  1.00  0.00     0.210 HD
ENDBRANCH  29  34
ENDBRANCH  28  29
ENDBRANCH  26  28
ENDBRANCH  24  26
ENDBRANCH   1  24
BRANCH   9  36
HETATM   36  O3  UNL     1      -6.376  42.377 -18.915  1.00  0.00    -0.395 OA
HETATM   37  H30 UNL     1      -7.333  42.393 -19.076  1.00  0.00     0.210 HD
ENDBRANCH   9  36
TORSDOF 7
ENDMDL
MODEL 9
REMARK minimizedAffinity -8.08102322
REMARK CNNscore 0.373096347
REMARK CNNaffinity 6.61462164
REMARK  7 active torsions:
REMARK  status: ('A' for Active; 'I' for Inactive)
REMARK    1  A    between atoms: C4_4  and  C5_5 
REMARK    2  A    between atoms: C5_5  and  O1_6 
REMARK    3  A    between atoms: C5_5  and  C6_7 
REMARK    4  A    between atoms: C6_7  and  C7_8 
REMARK    5  A    between atoms: C7_8  and  C8_10 
REMARK    6  A    between atoms: C8_10  and  C10_12 
REMARK    7  A    between atoms: C18_20  and  O3_21 
ROOT
HETATM    1  C10 UNL     1      -3.402  49.673 -22.047  1.00  0.00     0.008 C 
HETATM    2  C11 UNL     1      -3.392  50.965 -21.203  1.00  0.00     0.007 C 
HETATM    3  C12 UNL     1      -2.547  50.818 -19.936  1.00  0.00     0.006 C 
HETATM    4  C13 UNL     1      -2.957  49.611 -19.061  1.00  0.00     0.003 C 
HETATM    5  C14 UNL     1      -2.193  49.518 -17.663  1.00  0.00    -0.035 C 
HETATM    6  C15 UNL     1      -0.671  49.324 -17.854  1.00  0.00     0.016 C 
HETATM    7  C16 UNL     1      -2.397  50.854 -16.882  1.00  0.00     0.012 C 
HETATM    8  C17 UNL     1      -1.985  50.795 -15.413  1.00  0.00     0.033 C 
HETATM    9  C18 UNL     1      -2.673  49.660 -14.663  1.00  0.00     0.126 C 
HETATM   10  C19 UNL     1      -2.479  48.261 -15.318  1.00  0.00    -0.017 C 
HETATM   11  C20 UNL     1      -3.438  47.280 -14.586  1.00  0.00     0.018 C 
HETATM   12  C21 UNL     1      -1.057  47.710 -15.088  1.00  0.00     0.018 C 
HETATM   13  C22 UNL     1      -2.883  48.367 -16.838  1.00  0.00     0.004 C 
HETATM   14  C23 UNL     1      -2.853  47.032 -17.605  1.00  0.00     0.007 C 
HETATM   15  C24 UNL     1      -3.569  47.141 -18.958  1.00  0.00     0.011 C 
HETATM   16  C25 UNL     1      -3.046  48.263 -19.898  1.00  0.00    -0.029 C 
HETATM   17  C26 UNL     1      -1.636  47.822 -20.407  1.00  0.00     0.016 C 
HETATM   18  C27 UNL     1      -4.034  48.496 -21.192  1.00  0.00     0.002 C 
HETATM   19  C28 UNL     1      -5.486  48.782 -20.743  1.00  0.00     0.190 C 
HETATM   20  O4  UNL     1      -6.171  47.532 -20.662  1.00  0.00    -0.321 OA
HETATM   21  C29 UNL     1      -5.505  46.601 -21.390  1.00  0.00     0.259 C 
HETATM   22  O5  UNL     1      -5.888  45.455 -21.553  1.00  0.00    -0.265 OA
HETATM   23  C30 UNL     1      -4.275  47.204 -21.995  1.00  0.00     0.124 C 
ENDROOT
BRANCH   1  24
HETATM   24  C8  UNL     1      -3.877  49.991 -23.514  1.00  0.00     0.056 C 
HETATM   25  C9  UNL     1      -3.998  48.801 -24.455  1.00  0.00     0.018 C 
BRANCH  24  26
HETATM   26  C7  UNL     1      -3.094  51.165 -24.142  1.00  0.00     0.133 C 
HETATM   27  O2  UNL     1      -3.673  52.171 -24.561  1.00  0.00    -0.297 OA
BRANCH  26  28
HETATM   28  C6  UNL     1      -1.585  51.065 -24.291  1.00  0.00     0.114 C 
BRANCH  28  29
HETATM   29  C5  UNL     1      -0.987  52.014 -25.328  1.00  0.00     0.148 C 
BRANCH  29  30
HETATM   30  C4  UNL     1       0.483  51.822 -25.575  1.00  0.00     0.007 C 
HETATM   31  C2  UNL     1       1.128  51.709 -26.754  1.00  0.00    -0.089 C 
HETATM   32  C1  UNL     1       0.489  51.758 -28.114  1.00  0.00     0.042 C 
HETATM   33  C3  UNL     1       2.621  51.503 -26.788  1.00  0.00     0.042 C 
ENDBRANCH  29  30
BRANCH  29  34
HETATM   34  O1  UNL     1      -1.186  53.365 -24.923  1.00  0.00    -0.391 OA
HETATM   35  H9  UNL     1      -0.776  53.921 -25.610  1.00  0.00     0.210 HD
ENDBRANCH  29  34
ENDBRANCH  28  29
ENDBRANCH  26  28
ENDBRANCH  24  26
ENDBRANCH   1  24
BRANCH   9  36
HETATM   36  O3  UNL     1      -2.234  49.675 -13.305  1.00  0.00    -0.395 OA
HETATM   37  H30 UNL     1      -1.265  49.620 -13.297  1.00  0.00     0.210 HD
ENDBRANCH   9  36
TORSDOF 7
ENDMDL
