MODEL 1
REMARK minimizedAffinity -7.80337334
REMARK CNNscore 0.623366356
REMARK CNNaffinity 6.9822917
REMARK  16 active torsions:
REMARK  status: ('A' for Active; 'I' for Inactive)
REMARK    1  A    between atoms: S1_2  and  C2_3 
REMARK    2  A    between atoms: C2_3  and  C3_4 
REMARK    3  A    between atoms: C3_4  and  C4_5 
REMARK    4  A    between atoms: C4_5  and  N1_6 
REMARK    5  A    between atoms: C4_5  and  C33_44 
REMARK       I    between atoms: N1_6  and  C5_7 
REMARK    6  A    between atoms: C5_7  and  C6_9 
REMARK    7  A    between atoms: C6_9  and  N2_11 
REMARK       I    between atoms: N2_11  and  C8_12 
REMARK    8  A    between atoms: C8_12  and  C9_14 
REMARK    9  A    between atoms: C9_14  and  C10_15 
REMARK   10  A    between atoms: C10_15  and  C11_16 
REMARK   11  A    between atoms: C11_16  and  O4_18 
REMARK   12  A    between atoms: O4_18  and  C12_19 
REMARK   13  A    between atoms: C12_19  and  C13_20 
REMARK   14  A    between atoms: C13_20  and  C14_22 
REMARK   15  A    between atoms: C14_22  and  O6_23 
REMARK   16  A    between atoms: C33_44  and  O10_46 
ROOT
HETATM    1  C12 UNL     1      -0.348  50.943 -16.912  1.00  0.00     0.260 C 
ENDROOT
BRANCH   1   2
HETATM    2  O4  UNL     1      -0.735  51.342 -15.601  1.00  0.00    -0.314 OA
BRANCH   2   3
HETATM    3  C11 UNL     1      -1.510  50.457 -14.923  1.00  0.00     0.259 C 
HETATM    4  O3  UNL     1      -1.353  49.244 -14.942  1.00  0.00    -0.265 OA
BRANCH   3   5
HETATM    5  C10 UNL     1      -2.641  51.158 -14.216  1.00  0.00     0.120 C 
BRANCH   5   6
HETATM    6  C9  UNL     1      -3.283  50.233 -13.189  1.00  0.00     0.112 C 
BRANCH   6   7
HETATM    7  C8  UNL     1      -3.448  50.927 -11.854  1.00  0.00     0.218 C 
HETATM    8  N2  UNL     1      -2.629  52.014 -11.684  1.00  0.00    -0.348 N 
HETATM    9  H14 UNL     1      -1.860  52.156 -12.329  1.00  0.00     0.163 HD
HETATM   10  O2  UNL     1      -4.212  50.531 -10.979  1.00  0.00    -0.274 OA
BRANCH   8  11
HETATM   11  C6  UNL     1      -2.620  52.792 -10.441  1.00  0.00     0.172 C 
HETATM   12  C7  UNL     1      -3.570  53.976 -10.563  1.00  0.00     0.042 C 
BRANCH  11  13
HETATM   13  C5  UNL     1      -1.190  53.260 -10.087  1.00  0.00     0.240 C 
HETATM   14  N1  UNL     1      -1.126  54.202  -9.080  1.00  0.00    -0.345 N 
HETATM   15  H9  UNL     1      -1.989  54.690  -8.842  1.00  0.00     0.163 HD
HETATM   16  O1  UNL     1      -0.192  52.908 -10.713  1.00  0.00    -0.271 OA
BRANCH  14  17
HETATM   17  C4  UNL     1       0.136  54.828  -8.693  1.00  0.00     0.183 C 
BRANCH  17  18
HETATM   18  C3  UNL     1       1.204  53.791  -8.311  1.00  0.00     0.046 C 
BRANCH  18  19
HETATM   19  C2  UNL     1       2.584  54.121  -8.883  1.00  0.00     0.076 C 
BRANCH  19  20
HETATM   20  S1  UNL     1       2.504  55.268 -10.302  1.00  0.00    -0.173 SA
HETATM   21  C1  UNL     1       4.225  55.817 -10.362  1.00  0.00     0.089 C 
ENDBRANCH  19  20
ENDBRANCH  18  19
ENDBRANCH  17  18
BRANCH  17  22
HETATM   22  C33 UNL     1      -0.115  55.808  -7.549  1.00  0.00     0.163 C 
HETATM   23  O9  UNL     1       0.134  55.618  -6.367  1.00  0.00    -0.648 OA
BRANCH  22  24
HETATM   24  O10 UNL     1      -0.637  56.981  -7.958  1.00  0.00    -0.775 OA
HETATM   25  H46 UNL     1      -0.766  57.494  -7.131  1.00  0.00     0.167 HD
ENDBRANCH  22  24
ENDBRANCH  17  22
ENDBRANCH  14  17
ENDBRANCH  11  13
ENDBRANCH   8  11
ENDBRANCH   6   7
ENDBRANCH   5   6
ENDBRANCH   3   5
ENDBRANCH   2   3
ENDBRANCH   1   2
BRANCH   1  26
HETATM   26  C13 UNL     1      -1.331  50.999 -18.088  1.00  0.00     0.185 C 
HETATM   27  O5  UNL     1      -2.406  51.594 -17.957  1.00  0.00    -0.292 OA
BRANCH  26  28
HETATM   28  C14 UNL     1      -0.958  50.318 -19.425  1.00  0.00     0.128 C 
HETATM   29  C15 UNL     1      -0.672  48.792 -19.349  1.00  0.00     0.047 C 
HETATM   30  C16 UNL     1      -1.145  48.170 -20.682  1.00  0.00     0.009 C 
HETATM   31  C17 UNL     1      -1.507  49.373 -21.538  1.00  0.00     0.002 C 
HETATM   32  C18 UNL     1      -2.293  49.173 -22.845  1.00  0.00     0.003 C 
HETATM   33  C31 UNL     1      -2.082  50.395 -20.514  1.00  0.00     0.005 C 
HETATM   34  C19 UNL     1      -3.553  48.290 -22.746  1.00  0.00     0.010 C 
HETATM   35  C28 UNL     1      -2.530  50.557 -23.527  1.00  0.00     0.072 C 
HETATM   36  C20 UNL     1      -4.687  48.725 -23.676  1.00  0.00     0.035 C 
HETATM   37  C21 UNL     1      -4.105  49.159 -24.990  1.00  0.00    -0.067 C 
HETATM   38  C22 UNL     1      -4.281  48.426 -26.102  1.00  0.00     0.053 C 
HETATM   39  C26 UNL     1      -3.238  50.416 -24.932  1.00  0.00    -0.009 C 
HETATM   40  C23 UNL     1      -3.607  48.768 -27.377  1.00  0.00     0.149 C 
HETATM   41  O7  UNL     1      -3.864  48.115 -28.385  1.00  0.00    -0.293 OA
HETATM   42  C24 UNL     1      -2.631  49.918 -27.402  1.00  0.00     0.084 C 
HETATM   43  C25 UNL     1      -2.117  50.266 -26.007  1.00  0.00     0.022 C 
HETATM   44  C27 UNL     1      -4.101  51.639 -25.306  1.00  0.00     0.021 C 
HETATM   45  C29 UNL     1      -3.113  51.517 -22.470  1.00  0.00     0.133 C 
HETATM   46  O8  UNL     1      -4.210  52.061 -22.560  1.00  0.00    -0.297 OA
HETATM   47  C30 UNL     1      -2.240  51.741 -21.239  1.00  0.00     0.091 C 
HETATM   48  C32 UNL     1      -3.451  49.999 -19.901  1.00  0.00     0.019 C 
BRANCH  28  49
HETATM   49  O6  UNL     1       0.218  50.957 -19.946  1.00  0.00    -0.381 OA
HETATM   50  H21 UNL     1       0.743  51.311 -19.195  1.00  0.00     0.211 HD
ENDBRANCH  28  49
ENDBRANCH  26  28
ENDBRANCH   1  26
TORSDOF 16
ENDMDL
MODEL 2
REMARK minimizedAffinity -8.09108353
REMARK CNNscore 0.514168918
REMARK CNNaffinity 6.82717276
REMARK  16 active torsions:
REMARK  status: ('A' for Active; 'I' for Inactive)
REMARK    1  A    between atoms: S1_2  and  C2_3 
REMARK    2  A    between atoms: C2_3  and  C3_4 
REMARK    3  A    between atoms: C3_4  and  C4_5 
REMARK    4  A    between atoms: C4_5  and  N1_6 
REMARK    5  A    between atoms: C4_5  and  C33_44 
REMARK       I    between atoms: N1_6  and  C5_7 
REMARK    6  A    between atoms: C5_7  and  C6_9 
REMARK    7  A    between atoms: C6_9  and  N2_11 
REMARK       I    between atoms: N2_11  and  C8_12 
REMARK    8  A    between atoms: C8_12  and  C9_14 
REMARK    9  A    between atoms: C9_14  and  C10_15 
REMARK   10  A    between atoms: C10_15  and  C11_16 
REMARK   11  A    between atoms: C11_16  and  O4_18 
REMARK   12  A    between atoms: O4_18  and  C12_19 
REMARK   13  A    between atoms: C12_19  and  C13_20 
REMARK   14  A    between atoms: C13_20  and  C14_22 
REMARK   15  A    between atoms: C14_22  and  O6_23 
REMARK   16  A    between atoms: C33_44  and  O10_46 
ROOT
HETATM    1  C12 UNL     1      -3.673  48.785 -27.314  1.00  0.00     0.260 C 
ENDROOT
BRANCH   1   2
HETATM    2  O4  UNL     1      -3.764  48.065 -28.540  1.00  0.00    -0.314 OA
BRANCH   2   3
HETATM    3  C11 UNL     1      -4.962  48.136 -29.175  1.00  0.00     0.259 C 
HETATM    4  O3  UNL     1      -5.118  48.544 -30.317  1.00  0.00    -0.265 OA
BRANCH   3   5
HETATM    5  C10 UNL     1      -6.085  47.730 -28.256  1.00  0.00     0.120 C 
BRANCH   5   6
HETATM    6  C9  UNL     1      -7.433  48.094 -28.868  1.00  0.00     0.112 C 
BRANCH   6   7
HETATM    7  C8  UNL     1      -8.181  46.858 -29.319  1.00  0.00     0.218 C 
HETATM    8  N2  UNL     1      -9.364  47.123 -29.961  1.00  0.00    -0.348 N 
HETATM    9  H14 UNL     1      -9.750  48.059 -29.914  1.00  0.00     0.163 HD
HETATM   10  O2  UNL     1      -7.794  45.715 -29.093  1.00  0.00    -0.274 OA
BRANCH   8  11
HETATM   11  C6  UNL     1     -10.245  46.053 -30.439  1.00  0.00     0.172 C 
HETATM   12  C7  UNL     1     -10.927  46.480 -31.733  1.00  0.00     0.042 C 
BRANCH  11  13
HETATM   13  C5  UNL     1     -11.285  45.666 -29.363  1.00  0.00     0.240 C 
HETATM   14  N1  UNL     1     -11.606  46.680 -28.482  1.00  0.00    -0.345 N 
HETATM   15  H9  UNL     1     -10.973  47.479 -28.441  1.00  0.00     0.163 HD
HETATM   16  O1  UNL     1     -11.722  44.525 -29.228  1.00  0.00    -0.271 OA
BRANCH  14  17
HETATM   17  C4  UNL     1     -12.492  46.457 -27.343  1.00  0.00     0.183 C 
BRANCH  17  18
HETATM   18  C3  UNL     1     -13.966  46.361 -27.766  1.00  0.00     0.046 C 
BRANCH  18  19
HETATM   19  C2  UNL     1     -14.654  45.099 -27.241  1.00  0.00     0.076 C 
BRANCH  19  20
HETATM   20  S1  UNL     1     -16.070  44.586 -28.274  1.00  0.00    -0.173 SA
HETATM   21  C1  UNL     1     -17.428  44.877 -27.116  1.00  0.00     0.089 C 
ENDBRANCH  19  20
ENDBRANCH  18  19
ENDBRANCH  17  18
BRANCH  17  22
HETATM   22  C33 UNL     1     -12.285  47.567 -26.315  1.00  0.00     0.163 C 
HETATM   23  O9  UNL     1     -11.754  48.649 -26.517  1.00  0.00    -0.648 OA
BRANCH  22  24
HETATM   24  O10 UNL     1     -12.783  47.265 -25.099  1.00  0.00    -0.775 OA
HETATM   25  H46 UNL     1     -12.561  48.043 -24.543  1.00  0.00     0.167 HD
ENDBRANCH  22  24
ENDBRANCH  17  22
ENDBRANCH  14  17
ENDBRANCH  11  13
ENDBRANCH   8  11
ENDBRANCH   6   7
ENDBRANCH   5   6
ENDBRANCH   3   5
ENDBRANCH   2   3
ENDBRANCH   1   2
BRANCH   1  26
HETATM   26  C13 UNL     1      -3.146  50.225 -27.271  1.00  0.00     0.185 C 
HETATM   27  O5  UNL     1      -3.379  50.989 -28.213  1.00  0.00    -0.292 OA
BRANCH  26  28
HETATM   28  C14 UNL     1      -2.337  50.702 -26.042  1.00  0.00     0.128 C 
HETATM   29  C15 UNL     1      -2.197  52.242 -25.882  1.00  0.00     0.047 C 
HETATM   30  C16 UNL     1      -2.167  52.544 -24.368  1.00  0.00     0.009 C 
HETATM   31  C17 UNL     1      -2.102  51.170 -23.722  1.00  0.00     0.002 C 
HETATM   32  C18 UNL     1      -2.345  51.023 -22.210  1.00  0.00     0.003 C 
HETATM   33  C31 UNL     1      -2.958  50.277 -24.668  1.00  0.00     0.005 C 
HETATM   34  C19 UNL     1      -3.601  51.725 -21.657  1.00  0.00     0.010 C 
HETATM   35  C28 UNL     1      -2.220  49.520 -21.806  1.00  0.00     0.072 C 
HETATM   36  C20 UNL     1      -4.269  50.978 -20.502  1.00  0.00     0.035 C 
HETATM   37  C21 UNL     1      -3.207  50.401 -19.610  1.00  0.00    -0.067 C 
HETATM   38  C22 UNL     1      -2.994  50.893 -18.379  1.00  0.00     0.053 C 
HETATM   39  C26 UNL     1      -2.350  49.308 -20.247  1.00  0.00    -0.009 C 
HETATM   40  C23 UNL     1      -1.867  50.426 -17.536  1.00  0.00     0.149 C 
HETATM   41  O7  UNL     1      -1.763  50.846 -16.387  1.00  0.00    -0.293 OA
HETATM   42  C24 UNL     1      -0.885  49.436 -18.113  1.00  0.00     0.084 C 
HETATM   43  C25 UNL     1      -0.916  49.418 -19.639  1.00  0.00     0.022 C 
HETATM   44  C27 UNL     1      -2.929  47.930 -19.864  1.00  0.00     0.021 C 
HETATM   45  C29 UNL     1      -3.099  48.692 -22.767  1.00  0.00     0.133 C 
HETATM   46  O8  UNL     1      -4.043  47.993 -22.410  1.00  0.00    -0.297 OA
HETATM   47  C30 UNL     1      -2.745  48.815 -24.246  1.00  0.00     0.091 C 
HETATM   48  C32 UNL     1      -4.479  50.582 -24.649  1.00  0.00     0.019 C 
BRANCH  28  49
HETATM   49  O6  UNL     1      -1.014  50.150 -26.129  1.00  0.00    -0.381 OA
HETATM   50  H21 UNL     1      -0.792  50.012 -27.076  1.00  0.00     0.211 HD
ENDBRANCH  28  49
ENDBRANCH  26  28
ENDBRANCH   1  26
TORSDOF 16
ENDMDL
MODEL 3
REMARK minimizedAffinity -7.46304464
REMARK CNNscore 0.407075733
REMARK CNNaffinity 6.28504372
REMARK  16 active torsions:
REMARK  status: ('A' for Active; 'I' for Inactive)
REMARK    1  A    between atoms: S1_2  and  C2_3 
REMARK    2  A    between atoms: C2_3  and  C3_4 
REMARK    3  A    between atoms: C3_4  and  C4_5 
REMARK    4  A    between atoms: C4_5  and  N1_6 
REMARK    5  A    between atoms: C4_5  and  C33_44 
REMARK       I    between atoms: N1_6  and  C5_7 
REMARK    6  A    between atoms: C5_7  and  C6_9 
REMARK    7  A    between atoms: C6_9  and  N2_11 
REMARK       I    between atoms: N2_11  and  C8_12 
REMARK    8  A    between atoms: C8_12  and  C9_14 
REMARK    9  A    between atoms: C9_14  and  C10_15 
REMARK   10  A    between atoms: C10_15  and  C11_16 
REMARK   11  A    between atoms: C11_16  and  O4_18 
REMARK   12  A    between atoms: O4_18  and  C12_19 
REMARK   13  A    between atoms: C12_19  and  C13_20 
REMARK   14  A    between atoms: C13_20  and  C14_22 
REMARK   15  A    between atoms: C14_22  and  O6_23 
REMARK   16  A    between atoms: C33_44  and  O10_46 
ROOT
HETATM    1  C12 UNL     1      -6.808  48.652 -19.317  1.00  0.00     0.260 C 
ENDROOT
BRANCH   1   2
HETATM    2  O4  UNL     1      -8.143  48.842 -19.775  1.00  0.00    -0.314 OA
BRANCH   2   3
HETATM    3  C11 UNL     1      -9.118  48.544 -18.879  1.00  0.00     0.259 C 
HETATM    4  O3  UNL     1      -9.031  48.731 -17.673  1.00  0.00    -0.265 OA
BRANCH   3   5
HETATM    5  C10 UNL     1     -10.285  47.871 -19.554  1.00  0.00     0.120 C 
BRANCH   5   6
HETATM    6  C9  UNL     1     -11.536  47.978 -18.689  1.00  0.00     0.112 C 
BRANCH   6   7
HETATM    7  C8  UNL     1     -12.792  47.931 -19.534  1.00  0.00     0.218 C 
HETATM    8  N2  UNL     1     -13.306  46.671 -19.701  1.00  0.00    -0.348 N 
HETATM    9  H14 UNL     1     -12.740  45.870 -19.445  1.00  0.00     0.163 HD
HETATM   10  O2  UNL     1     -13.284  48.923 -20.064  1.00  0.00    -0.274 OA
BRANCH   8  11
HETATM   11  C6  UNL     1     -14.499  46.421 -20.517  1.00  0.00     0.172 C 
HETATM   12  C7  UNL     1     -14.505  47.350 -21.725  1.00  0.00     0.042 C 
BRANCH  11  13
HETATM   13  C5  UNL     1     -15.789  46.586 -19.682  1.00  0.00     0.240 C 
HETATM   14  N1  UNL     1     -16.684  45.541 -19.794  1.00  0.00    -0.345 N 
HETATM   15  H9  UNL     1     -16.559  44.901 -20.579  1.00  0.00     0.163 HD
HETATM   16  O1  UNL     1     -16.055  47.606 -19.048  1.00  0.00    -0.271 OA
BRANCH  14  17
HETATM   17  C4  UNL     1     -17.997  45.581 -19.155  1.00  0.00     0.183 C 
BRANCH  17  18
HETATM   18  C3  UNL     1     -18.506  44.179 -18.788  1.00  0.00     0.046 C 
BRANCH  18  19
HETATM   19  C2  UNL     1     -19.750  44.212 -17.896  1.00  0.00     0.076 C 
BRANCH  19  20
HETATM   20  S1  UNL     1     -19.799  42.831 -16.703  1.00  0.00    -0.173 SA
HETATM   21  C1  UNL     1     -21.456  42.188 -17.033  1.00  0.00     0.089 C 
ENDBRANCH  19  20
ENDBRANCH  18  19
ENDBRANCH  17  18
BRANCH  17  22
HETATM   22  C33 UNL     1     -18.983  46.305 -20.069  1.00  0.00     0.163 C 
HETATM   23  O9  UNL     1     -19.240  47.500 -20.053  1.00  0.00    -0.648 OA
BRANCH  22  24
HETATM   24  O10 UNL     1     -19.568  45.491 -20.970  1.00  0.00    -0.775 OA
HETATM   25  H46 UNL     1     -20.183  46.074 -21.465  1.00  0.00     0.167 HD
ENDBRANCH  22  24
ENDBRANCH  17  22
ENDBRANCH  14  17
ENDBRANCH  11  13
ENDBRANCH   8  11
ENDBRANCH   6   7
ENDBRANCH   5   6
ENDBRANCH   3   5
ENDBRANCH   2   3
ENDBRANCH   1   2
BRANCH   1  26
HETATM   26  C13 UNL     1      -5.938  47.505 -19.847  1.00  0.00     0.185 C 
HETATM   27  O5  UNL     1      -6.431  46.382 -19.992  1.00  0.00    -0.292 OA
BRANCH  26  28
HETATM   28  C14 UNL     1      -4.456  47.774 -20.200  1.00  0.00     0.128 C 
HETATM   29  C15 UNL     1      -3.608  46.521 -20.554  1.00  0.00     0.047 C 
HETATM   30  C16 UNL     1      -2.568  46.955 -21.611  1.00  0.00     0.009 C 
HETATM   31  C17 UNL     1      -2.733  48.464 -21.687  1.00  0.00     0.002 C 
HETATM   32  C18 UNL     1      -2.076  49.248 -22.836  1.00  0.00     0.003 C 
HETATM   33  C31 UNL     1      -4.258  48.681 -21.463  1.00  0.00     0.005 C 
HETATM   34  C19 UNL     1      -2.313  48.693 -24.255  1.00  0.00     0.010 C 
HETATM   35  C28 UNL     1      -2.395  50.768 -22.679  1.00  0.00     0.072 C 
HETATM   36  C20 UNL     1      -2.414  49.774 -25.332  1.00  0.00     0.035 C 
HETATM   37  C21 UNL     1      -1.407  50.850 -25.044  1.00  0.00    -0.067 C 
HETATM   38  C22 UNL     1      -0.328  51.017 -25.825  1.00  0.00     0.053 C 
HETATM   39  C26 UNL     1      -1.660  51.648 -23.764  1.00  0.00    -0.009 C 
HETATM   40  C23 UNL     1       0.742  51.985 -25.483  1.00  0.00     0.149 C 
HETATM   41  O7  UNL     1       1.668  52.160 -26.270  1.00  0.00    -0.293 OA
HETATM   42  C24 UNL     1       0.655  52.738 -24.178  1.00  0.00     0.084 C 
HETATM   43  C25 UNL     1      -0.271  52.050 -23.177  1.00  0.00     0.022 C 
HETATM   44  C27 UNL     1      -2.422  52.941 -24.121  1.00  0.00     0.021 C 
HETATM   45  C29 UNL     1      -3.917  50.917 -22.476  1.00  0.00     0.133 C 
HETATM   46  O8  UNL     1      -4.656  51.547 -23.227  1.00  0.00    -0.297 OA
HETATM   47  C30 UNL     1      -4.490  50.187 -21.265  1.00  0.00     0.091 C 
HETATM   48  C32 UNL     1      -5.162  48.188 -22.624  1.00  0.00     0.019 C 
BRANCH  28  49
HETATM   49  O6  UNL     1      -3.834  48.421 -19.079  1.00  0.00    -0.381 OA
HETATM   50  H21 UNL     1      -4.296  48.142 -18.258  1.00  0.00     0.211 HD
ENDBRANCH  28  49
ENDBRANCH  26  28
ENDBRANCH   1  26
TORSDOF 16
ENDMDL
MODEL 4
REMARK minimizedAffinity -7.93567991
REMARK CNNscore 0.401032209
REMARK CNNaffinity 6.51549721
REMARK  16 active torsions:
REMARK  status: ('A' for Active; 'I' for Inactive)
REMARK    1  A    between atoms: S1_2  and  C2_3 
REMARK    2  A    between atoms: C2_3  and  C3_4 
REMARK    3  A    between atoms: C3_4  and  C4_5 
REMARK    4  A    between atoms: C4_5  and  N1_6 
REMARK    5  A    between atoms: C4_5  and  C33_44 
REMARK       I    between atoms: N1_6  and  C5_7 
REMARK    6  A    between atoms: C5_7  and  C6_9 
REMARK    7  A    between atoms: C6_9  and  N2_11 
REMARK       I    between atoms: N2_11  and  C8_12 
REMARK    8  A    between atoms: C8_12  and  C9_14 
REMARK    9  A    between atoms: C9_14  and  C10_15 
REMARK   10  A    between atoms: C10_15  and  C11_16 
REMARK   11  A    between atoms: C11_16  and  O4_18 
REMARK   12  A    between atoms: O4_18  and  C12_19 
REMARK   13  A    between atoms: C12_19  and  C13_20 
REMARK   14  A    between atoms: C13_20  and  C14_22 
REMARK   15  A    between atoms: C14_22  and  O6_23 
REMARK   16  A    between atoms: C33_44  and  O10_46 
ROOT
HETATM    1  C12 UNL     1      -2.433  49.527 -16.350  1.00  0.00     0.260 C 
ENDROOT
BRANCH   1   2
HETATM    2  O4  UNL     1      -2.207  48.878 -15.102  1.00  0.00    -0.314 OA
BRANCH   2   3
HETATM    3  C11 UNL     1      -2.200  49.688 -14.012  1.00  0.00     0.259 C 
HETATM    4  O3  UNL     1      -3.193  49.978 -13.359  1.00  0.00    -0.265 OA
BRANCH   3   5
HETATM    5  C10 UNL     1      -0.825  50.253 -13.768  1.00  0.00     0.120 C 
BRANCH   5   6
HETATM    6  C9  UNL     1      -0.898  51.762 -13.562  1.00  0.00     0.112 C 
BRANCH   6   7
HETATM    7  C8  UNL     1      -1.071  52.107 -12.098  1.00  0.00     0.218 C 
HETATM    8  N2  UNL     1      -2.098  52.981 -11.848  1.00  0.00    -0.348 N 
HETATM    9  H14 UNL     1      -2.520  53.479 -12.623  1.00  0.00     0.163 HD
HETATM   10  O2  UNL     1      -0.333  51.684 -11.214  1.00  0.00    -0.274 OA
BRANCH   8  11
HETATM   11  C6  UNL     1      -2.397  53.461 -10.494  1.00  0.00     0.172 C 
HETATM   12  C7  UNL     1      -3.836  53.956 -10.424  1.00  0.00     0.042 C 
BRANCH  11  13
HETATM   13  C5  UNL     1      -1.407  54.567 -10.065  1.00  0.00     0.240 C 
HETATM   14  N1  UNL     1      -0.491  54.180  -9.107  1.00  0.00    -0.345 N 
HETATM   15  H9  UNL     1      -0.692  53.325  -8.588  1.00  0.00     0.163 HD
HETATM   16  O1  UNL     1      -1.483  55.729 -10.460  1.00  0.00    -0.271 OA
BRANCH  14  17
HETATM   17  C4  UNL     1       0.449  55.128  -8.515  1.00  0.00     0.183 C 
BRANCH  17  18
HETATM   18  C3  UNL     1       1.773  54.458  -8.116  1.00  0.00     0.046 C 
BRANCH  18  19
HETATM   19  C2  UNL     1       2.712  54.241  -9.306  1.00  0.00     0.076 C 
BRANCH  19  20
HETATM   20  S1  UNL     1       2.650  55.611 -10.512  1.00  0.00    -0.173 SA
HETATM   21  C1  UNL     1       4.364  55.603 -11.086  1.00  0.00     0.089 C 
ENDBRANCH  19  20
ENDBRANCH  18  19
ENDBRANCH  17  18
BRANCH  17  22
HETATM   22  C33 UNL     1      -0.207  55.809  -7.316  1.00  0.00     0.163 C 
HETATM   23  O9  UNL     1      -0.368  57.011  -7.168  1.00  0.00    -0.648 OA
BRANCH  22  24
HETATM   24  O10 UNL     1      -0.648  54.939  -6.385  1.00  0.00    -0.775 OA
HETATM   25  H46 UNL     1      -1.018  55.506  -5.675  1.00  0.00     0.167 HD
ENDBRANCH  22  24
ENDBRANCH  17  22
ENDBRANCH  14  17
ENDBRANCH  11  13
ENDBRANCH   8  11
ENDBRANCH   6   7
ENDBRANCH   5   6
ENDBRANCH   3   5
ENDBRANCH   2   3
ENDBRANCH   1   2
BRANCH   1  26
HETATM   26  C13 UNL     1      -1.394  49.473 -17.478  1.00  0.00     0.185 C 
HETATM   27  O5  UNL     1      -0.219  49.767 -17.240  1.00  0.00    -0.292 OA
BRANCH  26  28
HETATM   28  C14 UNL     1      -1.834  49.041 -18.897  1.00  0.00     0.128 C 
HETATM   29  C15 UNL     1      -3.309  48.573 -19.033  1.00  0.00     0.047 C 
HETATM   30  C16 UNL     1      -3.793  48.988 -20.441  1.00  0.00     0.009 C 
HETATM   31  C17 UNL     1      -2.536  49.506 -21.121  1.00  0.00     0.002 C 
HETATM   32  C18 UNL     1      -2.647  50.282 -22.444  1.00  0.00     0.003 C 
HETATM   33  C31 UNL     1      -1.743  50.184 -19.966  1.00  0.00     0.005 C 
HETATM   34  C19 UNL     1      -3.680  51.425 -22.471  1.00  0.00     0.010 C 
HETATM   35  C28 UNL     1      -1.221  50.695 -22.927  1.00  0.00     0.072 C 
HETATM   36  C20 UNL     1      -3.261  52.618 -23.332  1.00  0.00     0.035 C 
HETATM   37  C21 UNL     1      -2.582  52.113 -24.573  1.00  0.00    -0.067 C 
HETATM   38  C22 UNL     1      -3.170  52.217 -25.776  1.00  0.00     0.053 C 
HETATM   39  C26 UNL     1      -1.250  51.402 -24.339  1.00  0.00    -0.009 C 
HETATM   40  C23 UNL     1      -2.575  51.610 -26.991  1.00  0.00     0.149 C 
HETATM   41  O7  UNL     1      -3.108  51.802 -28.080  1.00  0.00    -0.293 OA
HETATM   42  C24 UNL     1      -1.323  50.779 -26.853  1.00  0.00     0.084 C 
HETATM   43  C25 UNL     1      -1.112  50.288 -25.423  1.00  0.00     0.022 C 
HETATM   44  C27 UNL     1      -0.100  52.411 -24.539  1.00  0.00     0.021 C 
HETATM   45  C29 UNL     1      -0.494  51.372 -21.747  1.00  0.00     0.133 C 
HETATM   46  O8  UNL     1      -0.079  52.527 -21.762  1.00  0.00    -0.297 OA
HETATM   47  C30 UNL     1      -0.339  50.513 -20.495  1.00  0.00     0.091 C 
HETATM   48  C32 UNL     1      -2.383  51.485 -19.415  1.00  0.00     0.019 C 
BRANCH  28  49
HETATM   49  O6  UNL     1      -0.991  47.959 -19.322  1.00  0.00    -0.381 OA
HETATM   50  H21 UNL     1      -0.684  47.468 -18.528  1.00  0.00     0.211 HD
ENDBRANCH  28  49
ENDBRANCH  26  28
ENDBRANCH   1  26
TORSDOF 16
ENDMDL
MODEL 5
REMARK minimizedAffinity -7.80874205
REMARK CNNscore 0.388577461
REMARK CNNaffinity 7.11714792
REMARK  16 active torsions:
REMARK  status: ('A' for Active; 'I' for Inactive)
REMARK    1  A    between atoms: S1_2  and  C2_3 
REMARK    2  A    between atoms: C2_3  and  C3_4 
REMARK    3  A    between atoms: C3_4  and  C4_5 
REMARK    4  A    between atoms: C4_5  and  N1_6 
REMARK    5  A    between atoms: C4_5  and  C33_44 
REMARK       I    between atoms: N1_6  and  C5_7 
REMARK    6  A    between atoms: C5_7  and  C6_9 
REMARK    7  A    between atoms: C6_9  and  N2_11 
REMARK       I    between atoms: N2_11  and  C8_12 
REMARK    8  A    between atoms: C8_12  and  C9_14 
REMARK    9  A    between atoms: C9_14  and  C10_15 
REMARK   10  A    between atoms: C10_15  and  C11_16 
REMARK   11  A    between atoms: C11_16  and  O4_18 
REMARK   12  A    between atoms: O4_18  and  C12_19 
REMARK   13  A    between atoms: C12_19  and  C13_20 
REMARK   14  A    between atoms: C13_20  and  C14_22 
REMARK   15  A    between atoms: C14_22  and  O6_23 
REMARK   16  A    between atoms: C33_44  and  O10_46 
ROOT
HETATM    1  C12 UNL     1      -3.143  49.744 -12.776  1.00  0.00     0.260 C 
ENDROOT
BRANCH   1   2
HETATM    2  O4  UNL     1      -2.217  50.132 -13.787  1.00  0.00    -0.314 OA
BRANCH   2   3
HETATM    3  C11 UNL     1      -2.483  49.667 -15.034  1.00  0.00     0.259 C 
HETATM    4  O3  UNL     1      -2.899  48.543 -15.280  1.00  0.00    -0.265 OA
BRANCH   3   5
HETATM    5  C10 UNL     1      -2.112  50.685 -16.081  1.00  0.00     0.120 C 
BRANCH   5   6
HETATM    6  C9  UNL     1      -1.448  50.007 -17.274  1.00  0.00     0.112 C 
BRANCH   6   7
HETATM    7  C8  UNL     1      -0.348  50.871 -17.853  1.00  0.00     0.218 C 
HETATM    8  N2  UNL     1      -0.617  51.351 -19.109  1.00  0.00    -0.348 N 
HETATM    9  H14 UNL     1      -1.390  50.955 -19.632  1.00  0.00     0.163 HD
HETATM   10  O2  UNL     1       0.712  51.089 -17.275  1.00  0.00    -0.274 OA
BRANCH   8  11
HETATM   11  C6  UNL     1       0.344  52.176 -19.847  1.00  0.00     0.172 C 
HETATM   12  C7  UNL     1       0.182  53.639 -19.454  1.00  0.00     0.042 C 
BRANCH  11  13
HETATM   13  C5  UNL     1       0.183  51.989 -21.373  1.00  0.00     0.240 C 
HETATM   14  N1  UNL     1      -1.020  51.432 -21.760  1.00  0.00    -0.345 N 
HETATM   15  H9  UNL     1      -1.570  50.964 -21.040  1.00  0.00     0.163 HD
HETATM   16  O1  UNL     1       1.083  52.218 -22.179  1.00  0.00    -0.271 OA
BRANCH  14  17
HETATM   17  C4  UNL     1      -1.296  51.091 -23.153  1.00  0.00     0.183 C 
BRANCH  17  18
HETATM   18  C3  UNL     1      -1.924  52.263 -23.923  1.00  0.00     0.046 C 
BRANCH  18  19
HETATM   19  C2  UNL     1      -1.014  52.805 -25.027  1.00  0.00     0.076 C 
BRANCH  19  20
HETATM   20  S1  UNL     1      -0.056  51.492 -25.859  1.00  0.00    -0.173 SA
HETATM   21  C1  UNL     1      -1.135  51.162 -27.272  1.00  0.00     0.089 C 
ENDBRANCH  19  20
ENDBRANCH  18  19
ENDBRANCH  17  18
BRANCH  17  22
HETATM   22  C33 UNL     1      -2.191  49.855 -23.204  1.00  0.00     0.163 C 
HETATM   23  O9  UNL     1      -2.072  48.848 -22.522  1.00  0.00    -0.648 OA
BRANCH  22  24
HETATM   24  O10 UNL     1      -3.202  49.966 -24.090  1.00  0.00    -0.775 OA
HETATM   25  H46 UNL     1      -3.672  49.106 -24.035  1.00  0.00     0.167 HD
ENDBRANCH  22  24
ENDBRANCH  17  22
ENDBRANCH  14  17
ENDBRANCH  11  13
ENDBRANCH   8  11
ENDBRANCH   6   7
ENDBRANCH   5   6
ENDBRANCH   3   5
ENDBRANCH   2   3
ENDBRANCH   1   2
BRANCH   1  26
HETATM   26  C13 UNL     1      -3.716  50.765 -11.784  1.00  0.00     0.185 C 
HETATM   27  O5  UNL     1      -4.650  50.439 -11.044  1.00  0.00    -0.292 OA
BRANCH  26  28
HETATM   28  C14 UNL     1      -3.111  52.187 -11.720  1.00  0.00     0.128 C 
HETATM   29  C15 UNL     1      -4.026  53.284 -11.108  1.00  0.00     0.047 C 
HETATM   30  C16 UNL     1      -3.109  54.288 -10.375  1.00  0.00     0.009 C 
HETATM   31  C17 UNL     1      -1.705  53.840 -10.747  1.00  0.00     0.002 C 
HETATM   32  C18 UNL     1      -0.494  54.409  -9.987  1.00  0.00     0.003 C 
HETATM   33  C31 UNL     1      -1.823  52.290 -10.833  1.00  0.00     0.005 C 
HETATM   34  C19 UNL     1      -0.588  54.379  -8.449  1.00  0.00     0.010 C 
HETATM   35  C28 UNL     1       0.819  53.791 -10.562  1.00  0.00     0.072 C 
HETATM   36  C20 UNL     1       0.754  54.144  -7.752  1.00  0.00     0.035 C 
HETATM   37  C21 UNL     1       1.825  54.901  -8.482  1.00  0.00    -0.067 C 
HETATM   38  C22 UNL     1       2.409  55.979  -7.932  1.00  0.00     0.053 C 
HETATM   39  C26 UNL     1       2.111  54.414  -9.902  1.00  0.00    -0.009 C 
HETATM   40  C23 UNL     1       3.373  56.815  -8.687  1.00  0.00     0.149 C 
HETATM   41  O7  UNL     1       3.942  57.740  -8.115  1.00  0.00    -0.293 OA
HETATM   42  C24 UNL     1       3.636  56.496 -10.138  1.00  0.00     0.084 C 
HETATM   43  C25 UNL     1       2.520  55.656 -10.754  1.00  0.00     0.022 C 
HETATM   44  C27 UNL     1       3.308  53.441  -9.867  1.00  0.00     0.021 C 
HETATM   45  C29 UNL     1       0.646  52.259 -10.609  1.00  0.00     0.133 C 
HETATM   46  O8  UNL     1       1.357  51.464 -10.001  1.00  0.00    -0.297 OA
HETATM   47  C30 UNL     1      -0.522  51.758 -11.454  1.00  0.00     0.091 C 
HETATM   48  C32 UNL     1      -2.050  51.579  -9.473  1.00  0.00     0.019 C 
BRANCH  28  49
HETATM   49  O6  UNL     1      -2.772  52.595 -13.055  1.00  0.00    -0.381 OA
HETATM   50  H21 UNL     1      -3.374  52.141 -13.685  1.00  0.00     0.211 HD
ENDBRANCH  28  49
ENDBRANCH  26  28
ENDBRANCH   1  26
TORSDOF 16
ENDMDL
MODEL 6
REMARK minimizedAffinity -7.6007762
REMARK CNNscore 0.357049882
REMARK CNNaffinity 6.74649763
REMARK  16 active torsions:
REMARK  status: ('A' for Active; 'I' for Inactive)
REMARK    1  A    between atoms: S1_2  and  C2_3 
REMARK    2  A    between atoms: C2_3  and  C3_4 
REMARK    3  A    between atoms: C3_4  and  C4_5 
REMARK    4  A    between atoms: C4_5  and  N1_6 
REMARK    5  A    between atoms: C4_5  and  C33_44 
REMARK       I    between atoms: N1_6  and  C5_7 
REMARK    6  A    between atoms: C5_7  and  C6_9 
REMARK    7  A    between atoms: C6_9  and  N2_11 
REMARK       I    between atoms: N2_11  and  C8_12 
REMARK    8  A    between atoms: C8_12  and  C9_14 
REMARK    9  A    between atoms: C9_14  and  C10_15 
REMARK   10  A    between atoms: C10_15  and  C11_16 
REMARK   11  A    between atoms: C11_16  and  O4_18 
REMARK   12  A    between atoms: O4_18  and  C12_19 
REMARK   13  A    between atoms: C12_19  and  C13_20 
REMARK   14  A    between atoms: C13_20  and  C14_22 
REMARK   15  A    between atoms: C14_22  and  O6_23 
REMARK   16  A    between atoms: C33_44  and  O10_46 
ROOT
HETATM    1  C12 UNL     1      -5.295  48.399 -28.810  1.00  0.00     0.260 C 
ENDROOT
BRANCH   1   2
HETATM    2  O4  UNL     1      -3.962  48.137 -28.384  1.00  0.00    -0.314 OA
BRANCH   2   3
HETATM    3  C11 UNL     1      -3.421  49.059 -27.546  1.00  0.00     0.259 C 
HETATM    4  O3  UNL     1      -3.106  50.194 -27.877  1.00  0.00    -0.265 OA
BRANCH   3   5
HETATM    5  C10 UNL     1      -3.178  48.472 -26.180  1.00  0.00     0.120 C 
BRANCH   5   6
HETATM    6  C9  UNL     1      -4.352  48.770 -25.255  1.00  0.00     0.112 C 
BRANCH   6   7
HETATM    7  C8  UNL     1      -3.944  48.669 -23.801  1.00  0.00     0.218 C 
HETATM    8  N2  UNL     1      -2.627  48.335 -23.612  1.00  0.00    -0.348 N 
HETATM    9  H14 UNL     1      -2.089  47.991 -24.399  1.00  0.00     0.163 HD
HETATM   10  O2  UNL     1      -4.727  48.823 -22.869  1.00  0.00    -0.274 OA
BRANCH   8  11
HETATM   11  C6  UNL     1      -2.056  48.155 -22.273  1.00  0.00     0.172 C 
HETATM   12  C7  UNL     1      -3.034  47.389 -21.391  1.00  0.00     0.042 C 
BRANCH  11  13
HETATM   13  C5  UNL     1      -1.682  49.515 -21.640  1.00  0.00     0.240 C 
HETATM   14  N1  UNL     1      -1.681  49.525 -20.259  1.00  0.00    -0.345 N 
HETATM   15  H9  UNL     1      -2.159  48.758 -19.786  1.00  0.00     0.163 HD
HETATM   16  O1  UNL     1      -1.500  50.537 -22.299  1.00  0.00    -0.271 OA
BRANCH  14  17
HETATM   17  C4  UNL     1      -1.452  50.752 -19.500  1.00  0.00     0.183 C 
BRANCH  17  18
HETATM   18  C3  UNL     1      -0.465  50.540 -18.341  1.00  0.00     0.046 C 
BRANCH  18  19
HETATM   19  C2  UNL     1       0.334  51.801 -18.003  1.00  0.00     0.076 C 
BRANCH  19  20
HETATM   20  S1  UNL     1       0.980  51.788 -16.295  1.00  0.00    -0.173 SA
HETATM   21  C1  UNL     1       2.644  52.435 -16.583  1.00  0.00     0.089 C 
ENDBRANCH  19  20
ENDBRANCH  18  19
ENDBRANCH  17  18
BRANCH  17  22
HETATM   22  C33 UNL     1      -2.787  51.292 -18.996  1.00  0.00     0.163 C 
HETATM   23  O9  UNL     1      -3.780  51.512 -19.674  1.00  0.00    -0.648 OA
BRANCH  22  24
HETATM   24  O10 UNL     1      -2.809  51.498 -17.663  1.00  0.00    -0.775 OA
HETATM   25  H46 UNL     1      -3.703  51.861 -17.486  1.00  0.00     0.167 HD
ENDBRANCH  22  24
ENDBRANCH  17  22
ENDBRANCH  14  17
ENDBRANCH  11  13
ENDBRANCH   8  11
ENDBRANCH   6   7
ENDBRANCH   5   6
ENDBRANCH   3   5
ENDBRANCH   2   3
ENDBRANCH   1   2
BRANCH   1  26
HETATM   26  C13 UNL     1      -5.725  48.182 -30.267  1.00  0.00     0.185 C 
HETATM   27  O5  UNL     1      -4.960  48.500 -31.182  1.00  0.00    -0.292 OA
BRANCH  26  28
HETATM   28  C14 UNL     1      -7.110  47.561 -30.567  1.00  0.00     0.128 C 
HETATM   29  C15 UNL     1      -8.009  48.359 -31.551  1.00  0.00     0.047 C 
HETATM   30  C16 UNL     1      -8.841  47.330 -32.349  1.00  0.00     0.009 C 
HETATM   31  C17 UNL     1      -8.530  46.006 -31.671  1.00  0.00     0.002 C 
HETATM   32  C18 UNL     1      -8.940  44.686 -32.347  1.00  0.00     0.003 C 
HETATM   33  C31 UNL     1      -7.040  46.150 -31.245  1.00  0.00     0.005 C 
HETATM   34  C19 UNL     1      -8.552  44.539 -33.832  1.00  0.00     0.010 C 
HETATM   35  C28 UNL     1      -8.509  43.484 -31.449  1.00  0.00     0.072 C 
HETATM   36  C20 UNL     1      -8.198  43.108 -34.240  1.00  0.00     0.035 C 
HETATM   37  C21 UNL     1      -9.133  42.156 -33.551  1.00  0.00    -0.067 C 
HETATM   38  C22 UNL     1     -10.070  41.483 -34.240  1.00  0.00     0.053 C 
HETATM   39  C26 UNL     1      -8.997  42.100 -32.030  1.00  0.00    -0.009 C 
HETATM   40  C23 UNL     1     -11.084  40.641 -33.563  1.00  0.00     0.149 C 
HETATM   41  O7  UNL     1     -11.867  39.982 -34.241  1.00  0.00    -0.293 OA
HETATM   42  C24 UNL     1     -11.118  40.610 -32.054  1.00  0.00     0.084 C 
HETATM   43  C25 UNL     1     -10.413  41.817 -31.439  1.00  0.00     0.022 C 
HETATM   44  C27 UNL     1      -8.076  40.921 -31.652  1.00  0.00     0.021 C 
HETATM   45  C29 UNL     1      -7.025  43.677 -31.074  1.00  0.00     0.133 C 
HETATM   46  O8  UNL     1      -6.131  42.886 -31.362  1.00  0.00    -0.297 OA
HETATM   47  C30 UNL     1      -6.702  44.966 -30.325  1.00  0.00     0.091 C 
HETATM   48  C32 UNL     1      -6.027  46.169 -32.420  1.00  0.00     0.019 C 
BRANCH  28  49
HETATM   49  O6  UNL     1      -7.825  47.431 -29.329  1.00  0.00    -0.381 OA
HETATM   50  H21 UNL     1      -7.514  48.128 -28.710  1.00  0.00     0.211 HD
ENDBRANCH  28  49
ENDBRANCH  26  28
ENDBRANCH   1  26
TORSDOF 16
ENDMDL
MODEL 7
REMARK minimizedAffinity -8.58031559
REMARK CNNscore 0.343835115
REMARK CNNaffinity 6.79662943
REMARK  16 active torsions:
REMARK  status: ('A' for Active; 'I' for Inactive)
REMARK    1  A    between atoms: S1_2  and  C2_3 
REMARK    2  A    between atoms: C2_3  and  C3_4 
REMARK    3  A    between atoms: C3_4  and  C4_5 
REMARK    4  A    between atoms: C4_5  and  N1_6 
REMARK    5  A    between atoms: C4_5  and  C33_44 
REMARK       I    between atoms: N1_6  and  C5_7 
REMARK    6  A    between atoms: C5_7  and  C6_9 
REMARK    7  A    between atoms: C6_9  and  N2_11 
REMARK       I    between atoms: N2_11  and  C8_12 
REMARK    8  A    between atoms: C8_12  and  C9_14 
REMARK    9  A    between atoms: C9_14  and  C10_15 
REMARK   10  A    between atoms: C10_15  and  C11_16 
REMARK   11  A    between atoms: C11_16  and  O4_18 
REMARK   12  A    between atoms: O4_18  and  C12_19 
REMARK   13  A    between atoms: C12_19  and  C13_20 
REMARK   14  A    between atoms: C13_20  and  C14_22 
REMARK   15  A    between atoms: C14_22  and  O6_23 
REMARK   16  A    between atoms: C33_44  and  O10_46 
ROOT
HETATM    1  C12 UNL     1       0.268  52.566 -23.057  1.00  0.00     0.260 C 
ENDROOT
BRANCH   1   2
HETATM    2  O4  UNL     1       1.187  53.417 -22.380  1.00  0.00    -0.314 OA
BRANCH   2   3
HETATM    3  C11 UNL     1       1.026  53.502 -21.034  1.00  0.00     0.259 C 
HETATM    4  O3  UNL     1       1.364  54.462 -20.356  1.00  0.00    -0.265 OA
BRANCH   3   5
HETATM    5  C10 UNL     1       0.457  52.224 -20.476  1.00  0.00     0.120 C 
BRANCH   5   6
HETATM    6  C9  UNL     1      -0.272  52.492 -19.165  1.00  0.00     0.112 C 
BRANCH   6   7
HETATM    7  C8  UNL     1       0.544  52.026 -17.978  1.00  0.00     0.218 C 
HETATM    8  N2  UNL     1       1.234  53.029 -17.346  1.00  0.00    -0.348 N 
HETATM    9  H14 UNL     1       1.323  53.929 -17.803  1.00  0.00     0.163 HD
HETATM   10  O2  UNL     1       0.623  50.850 -17.635  1.00  0.00    -0.274 OA
BRANCH   8  11
HETATM   11  C6  UNL     1       2.108  52.765 -16.198  1.00  0.00     0.172 C 
HETATM   12  C7  UNL     1       3.394  52.095 -16.667  1.00  0.00     0.042 C 
BRANCH  11  13
HETATM   13  C5  UNL     1       1.388  51.904 -15.136  1.00  0.00     0.240 C 
HETATM   14  N1  UNL     1       0.513  52.601 -14.327  1.00  0.00    -0.345 N 
HETATM   15  H9  UNL     1       0.601  53.617 -14.311  1.00  0.00     0.163 HD
HETATM   16  O1  UNL     1       1.640  50.715 -14.949  1.00  0.00    -0.271 OA
BRANCH  14  17
HETATM   17  C4  UNL     1      -0.173  51.963 -13.206  1.00  0.00     0.183 C 
BRANCH  17  18
HETATM   18  C3  UNL     1      -1.698  51.946 -13.393  1.00  0.00     0.046 C 
BRANCH  18  19
HETATM   19  C2  UNL     1      -2.360  50.716 -12.769  1.00  0.00     0.076 C 
BRANCH  19  20
HETATM   20  S1  UNL     1      -2.795  50.964 -11.013  1.00  0.00    -0.173 SA
HETATM   21  C1  UNL     1      -3.941  52.354 -11.165  1.00  0.00     0.089 C 
ENDBRANCH  19  20
ENDBRANCH  18  19
ENDBRANCH  17  18
BRANCH  17  22
HETATM   22  C33 UNL     1       0.216  52.666 -11.908  1.00  0.00     0.163 C 
HETATM   23  O9  UNL     1       1.068  52.296 -11.113  1.00  0.00    -0.648 OA
BRANCH  22  24
HETATM   24  O10 UNL     1      -0.467  53.809 -11.697  1.00  0.00    -0.775 OA
HETATM   25  H46 UNL     1      -0.138  54.135 -10.831  1.00  0.00     0.167 HD
ENDBRANCH  22  24
ENDBRANCH  17  22
ENDBRANCH  14  17
ENDBRANCH  11  13
ENDBRANCH   8  11
ENDBRANCH   6   7
ENDBRANCH   5   6
ENDBRANCH   3   5
ENDBRANCH   2   3
ENDBRANCH   1   2
BRANCH   1  26
HETATM   26  C13 UNL     1      -0.475  53.034 -24.316  1.00  0.00     0.185 C 
HETATM   27  O5  UNL     1      -0.206  54.133 -24.810  1.00  0.00    -0.292 OA
BRANCH  26  28
HETATM   28  C14 UNL     1      -1.546  52.117 -24.952  1.00  0.00     0.128 C 
HETATM   29  C15 UNL     1      -1.005  50.969 -25.850  1.00  0.00     0.047 C 
HETATM   30  C16 UNL     1      -1.969  49.772 -25.693  1.00  0.00     0.009 C 
HETATM   31  C17 UNL     1      -3.116  50.333 -24.868  1.00  0.00     0.002 C 
HETATM   32  C18 UNL     1      -4.152  49.378 -24.250  1.00  0.00     0.003 C 
HETATM   33  C31 UNL     1      -2.422  51.343 -23.909  1.00  0.00     0.005 C 
HETATM   34  C19 UNL     1      -3.581  48.174 -23.475  1.00  0.00     0.010 C 
HETATM   35  C28 UNL     1      -5.216  50.203 -23.461  1.00  0.00     0.072 C 
HETATM   36  C20 UNL     1      -4.427  47.756 -22.271  1.00  0.00     0.035 C 
HETATM   37  C21 UNL     1      -5.881  47.871 -22.629  1.00  0.00    -0.067 C 
HETATM   38  C22 UNL     1      -6.644  46.778 -22.787  1.00  0.00     0.053 C 
HETATM   39  C26 UNL     1      -6.374  49.294 -22.891  1.00  0.00    -0.009 C 
HETATM   40  C23 UNL     1      -8.045  46.865 -23.267  1.00  0.00     0.149 C 
HETATM   41  O7  UNL     1      -8.727  45.846 -23.316  1.00  0.00    -0.293 OA
HETATM   42  C24 UNL     1      -8.595  48.210 -23.672  1.00  0.00     0.084 C 
HETATM   43  C25 UNL     1      -7.488  49.215 -23.981  1.00  0.00     0.022 C 
HETATM   44  C27 UNL     1      -7.007  49.851 -21.598  1.00  0.00     0.021 C 
HETATM   45  C29 UNL     1      -4.469  51.171 -22.521  1.00  0.00     0.133 C 
HETATM   46  O8  UNL     1      -4.576  51.167 -21.298  1.00  0.00    -0.297 OA
HETATM   47  C30 UNL     1      -3.525  52.153 -23.208  1.00  0.00     0.091 C 
HETATM   48  C32 UNL     1      -1.519  50.695 -22.826  1.00  0.00     0.019 C 
BRANCH  28  49
HETATM   49  O6  UNL     1      -2.416  52.928 -25.757  1.00  0.00    -0.381 OA
HETATM   50  H21 UNL     1      -1.911  53.707 -26.079  1.00  0.00     0.211 HD
ENDBRANCH  28  49
ENDBRANCH  26  28
ENDBRANCH   1  26
TORSDOF 16
ENDMDL
MODEL 8
REMARK minimizedAffinity -8.02972412
REMARK CNNscore 0.322477132
REMARK CNNaffinity 6.64683771
REMARK  16 active torsions:
REMARK  status: ('A' for Active; 'I' for Inactive)
REMARK    1  A    between atoms: S1_2  and  C2_3 
REMARK    2  A    between atoms: C2_3  and  C3_4 
REMARK    3  A    between atoms: C3_4  and  C4_5 
REMARK    4  A    between atoms: C4_5  and  N1_6 
REMARK    5  A    between atoms: C4_5  and  C33_44 
REMARK       I    between atoms: N1_6  and  C5_7 
REMARK    6  A    between atoms: C5_7  and  C6_9 
REMARK    7  A    between atoms: C6_9  and  N2_11 
REMARK       I    between atoms: N2_11  and  C8_12 
REMARK    8  A    between atoms: C8_12  and  C9_14 
REMARK    9  A    between atoms: C9_14  and  C10_15 
REMARK   10  A    between atoms: C10_15  and  C11_16 
REMARK   11  A    between atoms: C11_16  and  O4_18 
REMARK   12  A    between atoms: O4_18  and  C12_19 
REMARK   13  A    between atoms: C12_19  and  C13_20 
REMARK   14  A    between atoms: C13_20  and  C14_22 
REMARK   15  A    between atoms: C14_22  and  O6_23 
REMARK   16  A    between atoms: C33_44  and  O10_46 
ROOT
HETATM    1  C12 UNL     1      -1.324  49.029 -17.885  1.00  0.00     0.260 C 
ENDROOT
BRANCH   1   2
HETATM    2  O4  UNL     1      -1.385  50.343 -17.338  1.00  0.00    -0.314 OA
BRANCH   2   3
HETATM    3  C11 UNL     1      -1.221  50.426 -15.993  1.00  0.00     0.259 C 
HETATM    4  O3  UNL     1      -0.151  50.637 -15.438  1.00  0.00    -0.265 OA
BRANCH   3   5
HETATM    5  C10 UNL     1      -2.511  50.137 -15.271  1.00  0.00     0.120 C 
BRANCH   5   6
HETATM    6  C9  UNL     1      -3.085  51.415 -14.670  1.00  0.00     0.112 C 
BRANCH   6   7
HETATM    7  C8  UNL     1      -2.952  51.418 -13.162  1.00  0.00     0.218 C 
HETATM    8  N2  UNL     1      -3.008  52.668 -12.599  1.00  0.00    -0.348 N 
HETATM    9  H14 UNL     1      -2.927  53.481 -13.198  1.00  0.00     0.163 HD
HETATM   10  O2  UNL     1      -2.765  50.402 -12.500  1.00  0.00    -0.274 OA
BRANCH   8  11
HETATM   11  C6  UNL     1      -2.862  52.875 -11.154  1.00  0.00     0.172 C 
HETATM   12  C7  UNL     1      -3.825  53.959 -10.685  1.00  0.00     0.042 C 
BRANCH  11  13
HETATM   13  C5  UNL     1      -1.403  53.230 -10.788  1.00  0.00     0.240 C 
HETATM   14  N1  UNL     1      -1.165  53.356  -9.433  1.00  0.00    -0.345 N 
HETATM   15  H9  UNL     1      -1.977  53.465  -8.825  1.00  0.00     0.163 HD
HETATM   16  O1  UNL     1      -0.541  53.484 -11.627  1.00  0.00    -0.271 OA
BRANCH  14  17
HETATM   17  C4  UNL     1       0.132  53.788  -8.918  1.00  0.00     0.183 C 
BRANCH  17  18
HETATM   18  C3  UNL     1       0.791  54.843  -9.821  1.00  0.00     0.046 C 
BRANCH  18  19
HETATM   19  C2  UNL     1       1.894  55.630  -9.108  1.00  0.00     0.076 C 
BRANCH  19  20
HETATM   20  S1  UNL     1       3.291  56.041 -10.210  1.00  0.00    -0.173 SA
HETATM   21  C1  UNL     1       3.685  54.396 -10.848  1.00  0.00     0.089 C 
ENDBRANCH  19  20
ENDBRANCH  18  19
ENDBRANCH  17  18
BRANCH  17  22
HETATM   22  C33 UNL     1       1.037  52.572  -8.740  1.00  0.00     0.163 C 
HETATM   23  O9  UNL     1       1.529  51.900  -9.634  1.00  0.00    -0.648 OA
BRANCH  22  24
HETATM   24  O10 UNL     1       1.295  52.286  -7.448  1.00  0.00    -0.775 OA
HETATM   25  H46 UNL     1       1.858  51.482  -7.482  1.00  0.00     0.167 HD
ENDBRANCH  22  24
ENDBRANCH  17  22
ENDBRANCH  14  17
ENDBRANCH  11  13
ENDBRANCH   8  11
ENDBRANCH   6   7
ENDBRANCH   5   6
ENDBRANCH   3   5
ENDBRANCH   2   3
ENDBRANCH   1   2
BRANCH   1  26
HETATM   26  C13 UNL     1      -2.387  48.523 -18.870  1.00  0.00     0.185 C 
HETATM   27  O5  UNL     1      -3.509  48.222 -18.453  1.00  0.00    -0.292 OA
BRANCH  26  28
HETATM   28  C14 UNL     1      -2.038  48.407 -20.372  1.00  0.00     0.128 C 
HETATM   29  C15 UNL     1      -3.100  47.699 -21.259  1.00  0.00     0.047 C 
HETATM   30  C16 UNL     1      -3.053  48.367 -22.651  1.00  0.00     0.009 C 
HETATM   31  C17 UNL     1      -1.851  49.295 -22.570  1.00  0.00     0.002 C 
HETATM   32  C18 UNL     1      -1.630  50.358 -23.660  1.00  0.00     0.003 C 
HETATM   33  C31 UNL     1      -1.863  49.787 -21.093  1.00  0.00     0.005 C 
HETATM   34  C19 UNL     1      -2.853  51.228 -24.011  1.00  0.00     0.010 C 
HETATM   35  C28 UNL     1      -0.335  51.169 -23.343  1.00  0.00     0.072 C 
HETATM   36  C20 UNL     1      -2.499  52.668 -24.389  1.00  0.00     0.035 C 
HETATM   37  C21 UNL     1      -1.246  52.664 -25.215  1.00  0.00    -0.067 C 
HETATM   38  C22 UNL     1      -1.277  52.963 -26.524  1.00  0.00     0.053 C 
HETATM   39  C26 UNL     1       0.014  52.206 -24.481  1.00  0.00    -0.009 C 
HETATM   40  C23 UNL     1      -0.075  52.839 -27.383  1.00  0.00     0.149 C 
HETATM   41  O7  UNL     1      -0.135  53.202 -28.555  1.00  0.00    -0.293 OA
HETATM   42  C24 UNL     1       1.193  52.278 -26.788  1.00  0.00     0.084 C 
HETATM   43  C25 UNL     1       0.925  51.476 -25.516  1.00  0.00     0.022 C 
HETATM   44  C27 UNL     1       0.773  53.446 -23.964  1.00  0.00     0.021 C 
HETATM   45  C29 UNL     1      -0.413  51.639 -21.876  1.00  0.00     0.133 C 
HETATM   46  O8  UNL     1      -0.405  52.816 -21.526  1.00  0.00    -0.297 OA
HETATM   47  C30 UNL     1      -0.541  50.528 -20.838  1.00  0.00     0.091 C 
HETATM   48  C32 UNL     1      -3.039  50.733 -20.733  1.00  0.00     0.019 C 
BRANCH  28  49
HETATM   49  O6  UNL     1      -0.808  47.675 -20.495  1.00  0.00    -0.381 OA
HETATM   50  H21 UNL     1      -0.727  47.064 -19.730  1.00  0.00     0.211 HD
ENDBRANCH  28  49
ENDBRANCH  26  28
ENDBRANCH   1  26
TORSDOF 16
ENDMDL
MODEL 9
REMARK minimizedAffinity -7.62099075
REMARK CNNscore 0.321590066
REMARK CNNaffinity 6.06942558
REMARK  16 active torsions:
REMARK  status: ('A' for Active; 'I' for Inactive)
REMARK    1  A    between atoms: S1_2  and  C2_3 
REMARK    2  A    between atoms: C2_3  and  C3_4 
REMARK    3  A    between atoms: C3_4  and  C4_5 
REMARK    4  A    between atoms: C4_5  and  N1_6 
REMARK    5  A    between atoms: C4_5  and  C33_44 
REMARK       I    between atoms: N1_6  and  C5_7 
REMARK    6  A    between atoms: C5_7  and  C6_9 
REMARK    7  A    between atoms: C6_9  and  N2_11 
REMARK       I    between atoms: N2_11  and  C8_12 
REMARK    8  A    between atoms: C8_12  and  C9_14 
REMARK    9  A    between atoms: C9_14  and  C10_15 
REMARK   10  A    between atoms: C10_15  and  C11_16 
REMARK   11  A    between atoms: C11_16  and  O4_18 
REMARK   12  A    between atoms: O4_18  and  C12_19 
REMARK   13  A    between atoms: C12_19  and  C13_20 
REMARK   14  A    between atoms: C13_20  and  C14_22 
REMARK   15  A    between atoms: C14_22  and  O6_23 
REMARK   16  A    between atoms: C33_44  and  O10_46 
ROOT
HETATM    1  C12 UNL     1      -7.994  48.612 -19.052  1.00  0.00     0.260 C 
ENDROOT
BRANCH   1   2
HETATM    2  O4  UNL     1      -8.046  48.372 -17.649  1.00  0.00    -0.314 OA
BRANCH   2   3
HETATM    3  C11 UNL     1      -8.923  47.416 -17.250  1.00  0.00     0.259 C 
HETATM    4  O3  UNL     1      -8.633  46.241 -17.073  1.00  0.00    -0.265 OA
BRANCH   3   5
HETATM    5  C10 UNL     1     -10.318  47.974 -17.140  1.00  0.00     0.120 C 
BRANCH   5   6
HETATM    6  C9  UNL     1     -11.332  46.991 -17.713  1.00  0.00     0.112 C 
BRANCH   6   7
HETATM    7  C8  UNL     1     -12.335  47.695 -18.602  1.00  0.00     0.218 C 
HETATM    8  N2  UNL     1     -13.643  47.485 -18.246  1.00  0.00    -0.348 N 
HETATM    9  H14 UNL     1     -13.860  46.750 -17.583  1.00  0.00     0.163 HD
HETATM   10  O2  UNL     1     -12.016  48.359 -19.584  1.00  0.00    -0.274 OA
BRANCH   8  11
HETATM   11  C6  UNL     1     -14.757  48.055 -19.010  1.00  0.00     0.172 C 
HETATM   12  C7  UNL     1     -15.667  48.853 -18.085  1.00  0.00     0.042 C 
BRANCH  11  13
HETATM   13  C5  UNL     1     -15.546  46.952 -19.751  1.00  0.00     0.240 C 
HETATM   14  N1  UNL     1     -16.918  47.099 -19.709  1.00  0.00    -0.345 N 
HETATM   15  H9  UNL     1     -17.298  47.736 -19.009  1.00  0.00     0.163 HD
HETATM   16  O1  UNL     1     -15.013  45.964 -20.253  1.00  0.00    -0.271 OA
BRANCH  14  17
HETATM   17  C4  UNL     1     -17.817  46.093 -20.269  1.00  0.00     0.183 C 
BRANCH  17  18
HETATM   18  C3  UNL     1     -18.383  46.516 -21.633  1.00  0.00     0.046 C 
BRANCH  18  19
HETATM   19  C2  UNL     1     -18.985  45.346 -22.415  1.00  0.00     0.076 C 
BRANCH  19  20
HETATM   20  S1  UNL     1     -19.514  45.821 -24.097  1.00  0.00    -0.173 SA
HETATM   21  C1  UNL     1     -18.124  46.872 -24.581  1.00  0.00     0.089 C 
ENDBRANCH  19  20
ENDBRANCH  18  19
ENDBRANCH  17  18
BRANCH  17  22
HETATM   22  C33 UNL     1     -18.937  45.803 -19.272  1.00  0.00     0.163 C 
HETATM   23  O9  UNL     1     -19.931  46.489 -19.084  1.00  0.00    -0.648 OA
BRANCH  22  24
HETATM   24  O10 UNL     1     -18.757  44.655 -18.589  1.00  0.00    -0.775 OA
HETATM   25  H46 UNL     1     -19.526  44.609 -17.980  1.00  0.00     0.167 HD
ENDBRANCH  22  24
ENDBRANCH  17  22
ENDBRANCH  14  17
ENDBRANCH  11  13
ENDBRANCH   8  11
ENDBRANCH   6   7
ENDBRANCH   5   6
ENDBRANCH   3   5
ENDBRANCH   2   3
ENDBRANCH   1   2
BRANCH   1  26
HETATM   26  C13 UNL     1      -7.222  47.679 -19.994  1.00  0.00     0.185 C 
HETATM   27  O5  UNL     1      -7.826  46.790 -20.602  1.00  0.00    -0.292 OA
BRANCH  26  28
HETATM   28  C14 UNL     1      -5.698  47.872 -20.175  1.00  0.00     0.128 C 
HETATM   29  C15 UNL     1      -4.875  46.572 -20.397  1.00  0.00     0.047 C 
HETATM   30  C16 UNL     1      -3.698  46.929 -21.333  1.00  0.00     0.009 C 
HETATM   31  C17 UNL     1      -3.781  48.441 -21.462  1.00  0.00     0.002 C 
HETATM   32  C18 UNL     1      -2.956  49.162 -22.542  1.00  0.00     0.003 C 
HETATM   33  C31 UNL     1      -5.309  48.733 -21.425  1.00  0.00     0.005 C 
HETATM   34  C19 UNL     1      -3.051  48.580 -23.966  1.00  0.00     0.010 C 
HETATM   35  C28 UNL     1      -3.219  50.699 -22.458  1.00  0.00     0.072 C 
HETATM   36  C20 UNL     1      -2.973  49.633 -25.072  1.00  0.00     0.035 C 
HETATM   37  C21 UNL     1      -1.957  50.671 -24.690  1.00  0.00    -0.067 C 
HETATM   38  C22 UNL     1      -0.786  50.766 -25.341  1.00  0.00     0.053 C 
HETATM   39  C26 UNL     1      -2.319  51.514 -23.468  1.00  0.00    -0.009 C 
HETATM   40  C23 UNL     1       0.281  51.695 -24.896  1.00  0.00     0.149 C 
HETATM   41  O7  UNL     1       1.300  51.806 -25.572  1.00  0.00    -0.293 OA
HETATM   42  C24 UNL     1       0.078  52.488 -23.629  1.00  0.00     0.084 C 
HETATM   43  C25 UNL     1      -0.991  51.870 -22.730  1.00  0.00     0.022 C 
HETATM   44  C27 UNL     1      -2.972  52.829 -23.942  1.00  0.00     0.021 C 
HETATM   45  C29 UNL     1      -4.745  50.922 -22.441  1.00  0.00     0.133 C 
HETATM   46  O8  UNL     1      -5.359  51.564 -23.289  1.00  0.00    -0.297 OA
HETATM   47  C30 UNL     1      -5.490  50.253 -21.291  1.00  0.00     0.091 C 
HETATM   48  C32 UNL     1      -6.093  48.249 -22.674  1.00  0.00     0.019 C 
BRANCH  28  49
HETATM   49  O6  UNL     1      -5.182  48.521 -19.003  1.00  0.00    -0.381 OA
HETATM   50  H21 UNL     1      -5.750  48.286 -18.236  1.00  0.00     0.211 HD
ENDBRANCH  28  49
ENDBRANCH  26  28
ENDBRANCH   1  26
TORSDOF 16
ENDMDL
