MODEL 1
REMARK minimizedAffinity -9.32007694
REMARK  5 active torsions:
REMARK  status: ('A' for Active; 'I' for Inactive)
REMARK    1  A    between atoms: C4_4  and  C5_5 
REMARK    2  A    between atoms: C5_5  and  C6_6 
REMARK    3  A    between atoms: C6_6  and  C7_7 
REMARK    4  A    between atoms: C7_7  and  C9_9 
REMARK    5  A    between atoms: C30_31  and  O2_32 
ROOT
HETATM    1  C9  UNL     1       1.145   6.309  12.840  1.00  0.00    -0.002 C 
HETATM    2  C10 UNL     1       0.574   7.575  13.525  1.00  0.00     0.007 C 
HETATM    3  C11 UNL     1      -0.947   7.347  13.687  1.00  0.00     0.015 C 
HETATM    4  C12 UNL     1      -1.169   5.846  13.407  1.00  0.00    -0.010 C 
HETATM    5  C13 UNL     1      -0.866   5.084  14.738  1.00  0.00     0.021 C 
HETATM    6  C14 UNL     1      -2.541   5.351  12.950  1.00  0.00    -0.039 C 
HETATM    7  C15 UNL     1      -2.623   4.202  12.221  1.00  0.00    -0.066 C 
HETATM    8  C16 UNL     1      -1.363   3.445  11.772  1.00  0.00     0.036 C 
HETATM    9  C17 UNL     1       0.010   4.104  12.033  1.00  0.00     0.015 C 
HETATM   10  C18 UNL     1      -0.121   5.614  12.256  1.00  0.00    -0.029 C 
HETATM   11  C19 UNL     1      -0.531   6.270  10.904  1.00  0.00     0.016 C 
HETATM   12  C20 UNL     1      -3.989   3.626  11.756  1.00  0.00    -0.015 C 
HETATM   13  C21 UNL     1      -4.152   4.077  10.286  1.00  0.00     0.020 C 
HETATM   14  C22 UNL     1      -4.007   2.079  11.830  1.00  0.00     0.021 C 
HETATM   15  C23 UNL     1      -5.358   1.476  11.480  1.00  0.00     0.080 C 
HETATM   16  C24 UNL     1      -6.455   2.015  12.365  1.00  0.00     0.135 C 
HETATM   17  O1  UNL     1      -7.302   1.243  12.822  1.00  0.00    -0.297 OA
HETATM   18  C25 UNL     1      -6.551   3.538  12.549  1.00  0.00     0.018 C 
HETATM   19  C26 UNL     1      -7.370   4.108  11.381  1.00  0.00     0.023 C 
HETATM   20  C27 UNL     1      -7.366   3.797  13.845  1.00  0.00     0.023 C 
HETATM   21  C28 UNL     1      -5.116   4.143  12.725  1.00  0.00     0.016 C 
HETATM   22  C29 UNL     1      -5.081   5.682  12.780  1.00  0.00     0.043 C 
HETATM   23  C30 UNL     1      -3.747   6.170  13.356  1.00  0.00     0.148 C 
ENDROOT
BRANCH   1  24
HETATM   24  C7  UNL     1       2.385   6.501  11.915  1.00  0.00    -0.014 C 
HETATM   25  C8  UNL     1       2.415   7.957  11.415  1.00  0.00     0.010 C 
BRANCH  24  26
HETATM   26  C6  UNL     1       2.475   5.534  10.709  1.00  0.00     0.008 C 
BRANCH  26  27
HETATM   27  C5  UNL     1       3.347   6.046   9.550  1.00  0.00     0.028 C 
BRANCH  27  28
HETATM   28  C4  UNL     1       2.602   6.160   8.247  1.00  0.00    -0.025 C 
HETATM   29  C2  UNL     1       2.399   7.277   7.523  1.00  0.00    -0.091 C 
HETATM   30  C1  UNL     1       1.587   7.238   6.256  1.00  0.00     0.042 C 
HETATM   31  C3  UNL     1       2.944   8.635   7.869  1.00  0.00     0.042 C 
ENDBRANCH  27  28
ENDBRANCH  26  27
ENDBRANCH  24  26
ENDBRANCH   1  24
BRANCH  23  32
HETATM   32  O2  UNL     1      -3.837   6.140  14.778  1.00  0.00    -0.391 OA
HETATM   33  H48 UNL     1      -4.525   6.772  15.039  1.00  0.00     0.210 HD
ENDBRANCH  23  32
TORSDOF 5
ENDMDL
MODEL 2
REMARK minimizedAffinity -9.15225792
REMARK  5 active torsions:
REMARK  status: ('A' for Active; 'I' for Inactive)
REMARK    1  A    between atoms: C4_4  and  C5_5 
REMARK    2  A    between atoms: C5_5  and  C6_6 
REMARK    3  A    between atoms: C6_6  and  C7_7 
REMARK    4  A    between atoms: C7_7  and  C9_9 
REMARK    5  A    between atoms: C30_31  and  O2_32 
ROOT
HETATM    1  C9  UNL     1      -2.360   5.707  12.885  1.00  0.00    -0.002 C 
HETATM    2  C10 UNL     1      -2.340   4.947  11.535  1.00  0.00     0.007 C 
HETATM    3  C11 UNL     1      -0.885   5.002  11.015  1.00  0.00     0.015 C 
HETATM    4  C12 UNL     1      -0.040   5.490  12.209  1.00  0.00    -0.010 C 
HETATM    5  C13 UNL     1       0.274   4.237  13.090  1.00  0.00     0.021 C 
HETATM    6  C14 UNL     1       1.308   6.170  11.963  1.00  0.00    -0.039 C 
HETATM    7  C15 UNL     1       1.792   7.040  12.894  1.00  0.00    -0.066 C 
HETATM    8  C16 UNL     1       0.975   7.421  14.139  1.00  0.00     0.036 C 
HETATM    9  C17 UNL     1      -0.482   6.914  14.233  1.00  0.00     0.015 C 
HETATM   10  C18 UNL     1      -1.034   6.523  12.857  1.00  0.00    -0.029 C 
HETATM   11  C19 UNL     1      -1.208   7.825  12.019  1.00  0.00     0.016 C 
HETATM   12  C20 UNL     1       3.170   7.736  12.722  1.00  0.00    -0.015 C 
HETATM   13  C21 UNL     1       2.857   9.148  12.174  1.00  0.00     0.020 C 
HETATM   14  C22 UNL     1       3.919   7.857  14.072  1.00  0.00     0.021 C 
HETATM   15  C23 UNL     1       5.316   8.442  13.935  1.00  0.00     0.080 C 
HETATM   16  C24 UNL     1       6.165   7.639  12.982  1.00  0.00     0.135 C 
HETATM   17  O1  UNL     1       7.337   7.387  13.275  1.00  0.00    -0.297 OA
HETATM   18  C25 UNL     1       5.571   7.281  11.611  1.00  0.00     0.018 C 
HETATM   19  C26 UNL     1       5.822   8.462  10.660  1.00  0.00     0.023 C 
HETATM   20  C27 UNL     1       6.374   6.073  11.058  1.00  0.00     0.023 C 
HETATM   21  C28 UNL     1       4.071   6.857  11.777  1.00  0.00     0.016 C 
HETATM   22  C29 UNL     1       3.333   6.609  10.448  1.00  0.00     0.043 C 
HETATM   23  C30 UNL     1       2.042   5.818  10.688  1.00  0.00     0.148 C 
ENDROOT
BRANCH   1  24
HETATM   24  C7  UNL     1      -3.682   6.443  13.264  1.00  0.00    -0.014 C 
HETATM   25  C8  UNL     1      -3.335   7.743  14.011  1.00  0.00     0.010 C 
BRANCH  24  26
HETATM   26  C6  UNL     1      -4.691   5.616  14.098  1.00  0.00     0.008 C 
BRANCH  26  27
HETATM   27  C5  UNL     1      -5.901   5.102  13.301  1.00  0.00     0.028 C 
BRANCH  27  28
HETATM   28  C4  UNL     1      -5.570   3.952  12.386  1.00  0.00    -0.025 C 
HETATM   29  C2  UNL     1      -6.288   2.828  12.202  1.00  0.00    -0.091 C 
HETATM   30  C1  UNL     1      -5.798   1.741  11.283  1.00  0.00     0.042 C 
HETATM   31  C3  UNL     1      -7.613   2.540  12.853  1.00  0.00     0.042 C 
ENDBRANCH  27  28
ENDBRANCH  26  27
ENDBRANCH  24  26
ENDBRANCH   1  24
BRANCH  23  32
HETATM   32  O2  UNL     1       2.371   4.432  10.743  1.00  0.00    -0.391 OA
HETATM   33  H48 UNL     1       2.718   4.182   9.872  1.00  0.00     0.210 HD
ENDBRANCH  23  32
TORSDOF 5
ENDMDL
MODEL 3
REMARK minimizedAffinity -9.05181313
REMARK  5 active torsions:
REMARK  status: ('A' for Active; 'I' for Inactive)
REMARK    1  A    between atoms: C4_4  and  C5_5 
REMARK    2  A    between atoms: C5_5  and  C6_6 
REMARK    3  A    between atoms: C6_6  and  C7_7 
REMARK    4  A    between atoms: C7_7  and  C9_9 
REMARK    5  A    between atoms: C30_31  and  O2_32 
ROOT
HETATM    1  C9  UNL     1      -2.820   8.382  15.271  1.00  0.00    -0.002 C 
HETATM    2  C10 UNL     1      -1.730   8.193  16.355  1.00  0.00     0.007 C 
HETATM    3  C11 UNL     1      -0.375   8.113  15.616  1.00  0.00     0.015 C 
HETATM    4  C12 UNL     1      -0.663   8.586  14.176  1.00  0.00    -0.010 C 
HETATM    5  C13 UNL     1      -0.616  10.149  14.191  1.00  0.00     0.021 C 
HETATM    6  C14 UNL     1       0.256   8.155  13.033  1.00  0.00    -0.039 C 
HETATM    7  C15 UNL     1      -0.241   8.106  11.765  1.00  0.00    -0.066 C 
HETATM    8  C16 UNL     1      -1.724   8.385  11.472  1.00  0.00     0.036 C 
HETATM    9  C17 UNL     1      -2.677   8.570  12.673  1.00  0.00     0.015 C 
HETATM   10  C18 UNL     1      -2.094   7.968  13.956  1.00  0.00    -0.029 C 
HETATM   11  C19 UNL     1      -2.082   6.418  13.802  1.00  0.00     0.016 C 
HETATM   12  C20 UNL     1       0.650   7.710  10.554  1.00  0.00    -0.015 C 
HETATM   13  C21 UNL     1       0.346   6.218  10.285  1.00  0.00     0.020 C 
HETATM   14  C22 UNL     1       0.303   8.547   9.297  1.00  0.00     0.021 C 
HETATM   15  C23 UNL     1       1.218   8.264   8.116  1.00  0.00     0.080 C 
HETATM   16  C24 UNL     1       2.667   8.494   8.466  1.00  0.00     0.135 C 
HETATM   17  O1  UNL     1       3.400   9.081   7.666  1.00  0.00    -0.297 OA
HETATM   18  C25 UNL     1       3.208   7.861   9.758  1.00  0.00     0.018 C 
HETATM   19  C26 UNL     1       3.632   6.419   9.439  1.00  0.00     0.023 C 
HETATM   20  C27 UNL     1       4.494   8.636  10.151  1.00  0.00     0.023 C 
HETATM   21  C28 UNL     1       2.153   8.015  10.907  1.00  0.00     0.016 C 
HETATM   22  C29 UNL     1       2.532   7.294  12.214  1.00  0.00     0.043 C 
HETATM   23  C30 UNL     1       1.690   7.820  13.382  1.00  0.00     0.148 C 
ENDROOT
BRANCH   1  24
HETATM   24  C7  UNL     1      -4.228   7.781  15.567  1.00  0.00    -0.014 C 
HETATM   25  C8  UNL     1      -4.096   6.256  15.734  1.00  0.00     0.010 C 
BRANCH  24  26
HETATM   26  C6  UNL     1      -5.323   8.098  14.520  1.00  0.00     0.008 C 
BRANCH  26  27
HETATM   27  C5  UNL     1      -5.476   7.032  13.422  1.00  0.00     0.028 C 
BRANCH  27  28
HETATM   28  C4  UNL     1      -6.534   6.006  13.727  1.00  0.00    -0.025 C 
HETATM   29  C2  UNL     1      -6.502   4.693  13.426  1.00  0.00    -0.091 C 
HETATM   30  C1  UNL     1      -7.666   3.798  13.756  1.00  0.00     0.042 C 
HETATM   31  C3  UNL     1      -5.348   3.992  12.764  1.00  0.00     0.042 C 
ENDBRANCH  27  28
ENDBRANCH  26  27
ENDBRANCH  24  26
ENDBRANCH   1  24
BRANCH  23  32
HETATM   32  O2  UNL     1       2.306   9.005  13.879  1.00  0.00    -0.391 OA
HETATM   33  H48 UNL     1       3.178   8.755  14.226  1.00  0.00     0.210 HD
ENDBRANCH  23  32
TORSDOF 5
ENDMDL
MODEL 4
REMARK minimizedAffinity -8.98904514
REMARK  5 active torsions:
REMARK  status: ('A' for Active; 'I' for Inactive)
REMARK    1  A    between atoms: C4_4  and  C5_5 
REMARK    2  A    between atoms: C5_5  and  C6_6 
REMARK    3  A    between atoms: C6_6  and  C7_7 
REMARK    4  A    between atoms: C7_7  and  C9_9 
REMARK    5  A    between atoms: C30_31  and  O2_32 
ROOT
HETATM    1  C9  UNL     1      -6.100   7.277  15.244  1.00  0.00    -0.002 C 
HETATM    2  C10 UNL     1      -5.773   8.742  15.625  1.00  0.00     0.007 C 
HETATM    3  C11 UNL     1      -4.396   9.068  15.001  1.00  0.00     0.015 C 
HETATM    4  C12 UNL     1      -4.113   7.922  14.008  1.00  0.00    -0.010 C 
HETATM    5  C13 UNL     1      -4.852   8.277  12.677  1.00  0.00     0.021 C 
HETATM    6  C14 UNL     1      -2.674   7.597  13.608  1.00  0.00    -0.039 C 
HETATM    7  C15 UNL     1      -2.369   6.336  13.192  1.00  0.00    -0.066 C 
HETATM    8  C16 UNL     1      -3.417   5.211  13.202  1.00  0.00     0.036 C 
HETATM    9  C17 UNL     1      -4.789   5.507  13.847  1.00  0.00     0.015 C 
HETATM   10  C18 UNL     1      -4.721   6.705  14.800  1.00  0.00    -0.029 C 
HETATM   11  C19 UNL     1      -3.875   6.289  16.040  1.00  0.00     0.016 C 
HETATM   12  C20 UNL     1      -0.934   5.951  12.737  1.00  0.00    -0.015 C 
HETATM   13  C21 UNL     1      -0.284   5.256  13.957  1.00  0.00     0.020 C 
HETATM   14  C22 UNL     1      -0.961   4.973  11.536  1.00  0.00     0.021 C 
HETATM   15  C23 UNL     1       0.421   4.647  10.994  1.00  0.00     0.080 C 
HETATM   16  C24 UNL     1       1.168   5.893  10.586  1.00  0.00     0.135 C 
HETATM   17  O1  UNL     1       1.804   5.903   9.529  1.00  0.00    -0.297 OA
HETATM   18  C25 UNL     1       1.217   7.064  11.581  1.00  0.00     0.018 C 
HETATM   19  C26 UNL     1       2.386   6.818  12.547  1.00  0.00     0.023 C 
HETATM   20  C27 UNL     1       1.557   8.345  10.773  1.00  0.00     0.023 C 
HETATM   21  C28 UNL     1      -0.187   7.248  12.254  1.00  0.00     0.016 C 
HETATM   22  C29 UNL     1      -0.218   8.307  13.372  1.00  0.00     0.043 C 
HETATM   23  C30 UNL     1      -1.661   8.719  13.683  1.00  0.00     0.148 C 
ENDROOT
BRANCH   1  24
HETATM   24  C7  UNL     1      -6.958   6.457  16.255  1.00  0.00    -0.014 C 
HETATM   25  C8  UNL     1      -7.273   5.080  15.643  1.00  0.00     0.010 C 
BRANCH  24  26
HETATM   26  C6  UNL     1      -8.272   7.133  16.718  1.00  0.00     0.008 C 
BRANCH  26  27
HETATM   27  C5  UNL     1      -9.355   7.222  15.630  1.00  0.00     0.028 C 
BRANCH  27  28
HETATM   28  C4  UNL     1      -8.912   6.679  14.298  1.00  0.00    -0.025 C 
HETATM   29  C2  UNL     1      -9.644   6.598  13.170  1.00  0.00    -0.091 C 
HETATM   30  C1  UNL     1      -9.071   5.980  11.922  1.00  0.00     0.042 C 
HETATM   31  C3  UNL     1     -11.052   7.102  13.023  1.00  0.00     0.042 C 
ENDBRANCH  27  28
ENDBRANCH  26  27
ENDBRANCH  24  26
ENDBRANCH   1  24
BRANCH  23  32
HETATM   32  O2  UNL     1      -2.051   9.722  12.749  1.00  0.00    -0.391 OA
HETATM   33  H48 UNL     1      -1.480  10.493  12.896  1.00  0.00     0.210 HD
ENDBRANCH  23  32
TORSDOF 5
ENDMDL
MODEL 5
REMARK minimizedAffinity -8.87144661
REMARK  5 active torsions:
REMARK  status: ('A' for Active; 'I' for Inactive)
REMARK    1  A    between atoms: C4_4  and  C5_5 
REMARK    2  A    between atoms: C5_5  and  C6_6 
REMARK    3  A    between atoms: C6_6  and  C7_7 
REMARK    4  A    between atoms: C7_7  and  C9_9 
REMARK    5  A    between atoms: C30_31  and  O2_32 
ROOT
HETATM    1  C9  UNL     1      -6.165   7.171  14.295  1.00  0.00    -0.002 C 
HETATM    2  C10 UNL     1      -6.107   8.554  14.991  1.00  0.00     0.007 C 
HETATM    3  C11 UNL     1      -4.647   9.051  14.873  1.00  0.00     0.015 C 
HETATM    4  C12 UNL     1      -3.979   8.122  13.838  1.00  0.00    -0.010 C 
HETATM    5  C13 UNL     1      -4.334   8.684  12.423  1.00  0.00     0.021 C 
HETATM    6  C14 UNL     1      -2.461   7.942  13.843  1.00  0.00    -0.039 C 
HETATM    7  C15 UNL     1      -1.927   6.795  13.338  1.00  0.00    -0.066 C 
HETATM    8  C16 UNL     1      -2.819   5.642  12.847  1.00  0.00     0.036 C 
HETATM    9  C17 UNL     1      -4.341   5.751  13.088  1.00  0.00     0.015 C 
HETATM   10  C18 UNL     1      -4.668   6.754  14.200  1.00  0.00    -0.029 C 
HETATM   11  C19 UNL     1      -4.179   6.153  15.552  1.00  0.00     0.016 C 
HETATM   12  C20 UNL     1      -0.392   6.565  13.280  1.00  0.00    -0.015 C 
HETATM   13  C21 UNL     1      -0.056   5.686  14.508  1.00  0.00     0.020 C 
HETATM   14  C22 UNL     1       0.024   5.826  11.984  1.00  0.00     0.021 C 
HETATM   15  C23 UNL     1       1.529   5.669  11.837  1.00  0.00     0.080 C 
HETATM   16  C24 UNL     1       2.236   7.001  11.883  1.00  0.00     0.135 C 
HETATM   17  O1  UNL     1       3.146   7.234  11.083  1.00  0.00    -0.297 OA
HETATM   18  C25 UNL     1       1.882   7.968  13.023  1.00  0.00     0.018 C 
HETATM   19  C26 UNL     1       2.740   7.600  14.243  1.00  0.00     0.023 C 
HETATM   20  C27 UNL     1       2.313   9.390  12.576  1.00  0.00     0.023 C 
HETATM   21  C28 UNL     1       0.332   7.962  13.263  1.00  0.00     0.016 C 
HETATM   22  C29 UNL     1      -0.123   8.793  14.477  1.00  0.00     0.043 C 
HETATM   23  C30 UNL     1      -1.628   9.075  14.402  1.00  0.00     0.148 C 
ENDROOT
BRANCH   1  24
HETATM   24  C7  UNL     1      -7.194   6.140  14.852  1.00  0.00    -0.014 C 
HETATM   25  C8  UNL     1      -7.240   6.259  16.386  1.00  0.00     0.010 C 
BRANCH  24  26
HETATM   26  C6  UNL     1      -6.946   4.666  14.451  1.00  0.00     0.008 C 
BRANCH  26  27
HETATM   27  C5  UNL     1      -7.429   4.304  13.037  1.00  0.00     0.028 C 
BRANCH  27  28
HETATM   28  C4  UNL     1      -7.097   2.893  12.633  1.00  0.00    -0.025 C 
HETATM   29  C2  UNL     1      -6.238   2.505  11.670  1.00  0.00    -0.091 C 
HETATM   30  C1  UNL     1      -6.048   1.046  11.349  1.00  0.00     0.042 C 
HETATM   31  C3  UNL     1      -5.396   3.437  10.845  1.00  0.00     0.042 C 
ENDBRANCH  27  28
ENDBRANCH  26  27
ENDBRANCH  24  26
ENDBRANCH   1  24
BRANCH  23  32
HETATM   32  O2  UNL     1      -1.828  10.215  13.571  1.00  0.00    -0.391 OA
HETATM   33  H48 UNL     1      -1.402  10.970  14.007  1.00  0.00     0.210 HD
ENDBRANCH  23  32
TORSDOF 5
ENDMDL
MODEL 6
REMARK minimizedAffinity -8.62488461
REMARK  5 active torsions:
REMARK  status: ('A' for Active; 'I' for Inactive)
REMARK    1  A    between atoms: C4_4  and  C5_5 
REMARK    2  A    between atoms: C5_5  and  C6_6 
REMARK    3  A    between atoms: C6_6  and  C7_7 
REMARK    4  A    between atoms: C7_7  and  C9_9 
REMARK    5  A    between atoms: C30_31  and  O2_32 
ROOT
HETATM    1  C9  UNL     1      -3.376   7.863  14.900  1.00  0.00    -0.002 C 
HETATM    2  C10 UNL     1      -3.960   6.472  14.547  1.00  0.00     0.007 C 
HETATM    3  C11 UNL     1      -2.945   5.790  13.601  1.00  0.00     0.015 C 
HETATM    4  C12 UNL     1      -1.662   6.641  13.692  1.00  0.00    -0.010 C 
HETATM    5  C13 UNL     1      -0.880   6.156  14.956  1.00  0.00     0.021 C 
HETATM    6  C14 UNL     1      -0.650   6.619  12.546  1.00  0.00    -0.039 C 
HETATM    7  C15 UNL     1       0.165   7.695  12.361  1.00  0.00    -0.066 C 
HETATM    8  C16 UNL     1       0.029   8.964  13.219  1.00  0.00     0.036 C 
HETATM    9  C17 UNL     1      -1.164   9.052  14.196  1.00  0.00     0.015 C 
HETATM   10  C18 UNL     1      -2.285   8.081  13.810  1.00  0.00    -0.029 C 
HETATM   11  C19 UNL     1      -2.928   8.588  12.485  1.00  0.00     0.016 C 
HETATM   12  C20 UNL     1       1.239   7.722  11.238  1.00  0.00    -0.015 C 
HETATM   13  C21 UNL     1       0.608   8.527  10.078  1.00  0.00     0.020 C 
HETATM   14  C22 UNL     1       2.538   8.423  11.710  1.00  0.00     0.021 C 
HETATM   15  C23 UNL     1       3.652   8.383  10.677  1.00  0.00     0.080 C 
HETATM   16  C24 UNL     1       3.986   6.969  10.271  1.00  0.00     0.135 C 
HETATM   17  O1  UNL     1       5.167   6.632  10.155  1.00  0.00    -0.297 OA
HETATM   18  C25 UNL     1       2.828   6.037   9.882  1.00  0.00     0.018 C 
HETATM   19  C26 UNL     1       2.510   6.267   8.396  1.00  0.00     0.023 C 
HETATM   20  C27 UNL     1       3.341   4.578  10.016  1.00  0.00     0.023 C 
HETATM   21  C28 UNL     1       1.626   6.242  10.868  1.00  0.00     0.016 C 
HETATM   22  C29 UNL     1       0.357   5.457  10.490  1.00  0.00     0.043 C 
HETATM   23  C30 UNL     1      -0.602   5.377  11.683  1.00  0.00     0.148 C 
ENDROOT
BRANCH   1  24
HETATM   24  C7  UNL     1      -4.395   9.010  15.178  1.00  0.00    -0.014 C 
HETATM   25  C8  UNL     1      -3.857   9.892  16.319  1.00  0.00     0.010 C 
BRANCH  24  26
HETATM   26  C6  UNL     1      -5.838   8.556  15.506  1.00  0.00     0.008 C 
BRANCH  26  27
HETATM   27  C5  UNL     1      -6.160   7.113  15.081  1.00  0.00     0.028 C 
BRANCH  27  28
HETATM   28  C4  UNL     1      -7.523   6.962  14.460  1.00  0.00    -0.025 C 
HETATM   29  C2  UNL     1      -7.902   6.046  13.548  1.00  0.00    -0.091 C 
HETATM   30  C1  UNL     1      -9.297   6.054  12.982  1.00  0.00     0.042 C 
HETATM   31  C3  UNL     1      -7.023   4.948  13.018  1.00  0.00     0.042 C 
ENDBRANCH  27  28
ENDBRANCH  26  27
ENDBRANCH  24  26
ENDBRANCH   1  24
BRANCH  23  32
HETATM   32  O2  UNL     1      -0.197   4.288  12.509  1.00  0.00    -0.391 OA
HETATM   33  H48 UNL     1      -0.299   3.475  11.988  1.00  0.00     0.210 HD
ENDBRANCH  23  32
TORSDOF 5
ENDMDL
MODEL 7
REMARK minimizedAffinity -8.59452248
REMARK  5 active torsions:
REMARK  status: ('A' for Active; 'I' for Inactive)
REMARK    1  A    between atoms: C4_4  and  C5_5 
REMARK    2  A    between atoms: C5_5  and  C6_6 
REMARK    3  A    between atoms: C6_6  and  C7_7 
REMARK    4  A    between atoms: C7_7  and  C9_9 
REMARK    5  A    between atoms: C30_31  and  O2_32 
ROOT
HETATM    1  C9  UNL     1      -2.620   5.513  13.363  1.00  0.00    -0.002 C 
HETATM    2  C10 UNL     1      -2.669   4.769  12.005  1.00  0.00     0.007 C 
HETATM    3  C11 UNL     1      -1.260   4.889  11.380  1.00  0.00     0.015 C 
HETATM    4  C12 UNL     1      -0.349   5.398  12.517  1.00  0.00    -0.010 C 
HETATM    5  C13 UNL     1       0.078   4.148  13.354  1.00  0.00     0.021 C 
HETATM    6  C14 UNL     1       0.949   6.134  12.182  1.00  0.00    -0.039 C 
HETATM    7  C15 UNL     1       1.465   7.012  13.088  1.00  0.00    -0.066 C 
HETATM    8  C16 UNL     1       0.728   7.346  14.395  1.00  0.00     0.036 C 
HETATM    9  C17 UNL     1      -0.697   6.779  14.587  1.00  0.00     0.015 C 
HETATM   10  C18 UNL     1      -1.333   6.382  13.250  1.00  0.00    -0.029 C 
HETATM   11  C19 UNL     1      -1.620   7.685  12.445  1.00  0.00     0.016 C 
HETATM   12  C20 UNL     1       2.799   7.766  12.825  1.00  0.00    -0.015 C 
HETATM   13  C21 UNL     1       2.390   9.170  12.322  1.00  0.00     0.020 C 
HETATM   14  C22 UNL     1       3.639   7.902  14.119  1.00  0.00     0.021 C 
HETATM   15  C23 UNL     1       4.998   8.544  13.888  1.00  0.00     0.080 C 
HETATM   16  C24 UNL     1       5.806   7.788  12.864  1.00  0.00     0.135 C 
HETATM   17  O1  UNL     1       7.005   7.581  13.067  1.00  0.00    -0.297 OA
HETATM   18  C25 UNL     1       5.127   7.422  11.535  1.00  0.00     0.018 C 
HETATM   19  C26 UNL     1       5.261   8.622  10.586  1.00  0.00     0.023 C 
HETATM   20  C27 UNL     1       5.935   6.254  10.908  1.00  0.00     0.023 C 
HETATM   21  C28 UNL     1       3.661   6.935  11.804  1.00  0.00     0.016 C 
HETATM   22  C29 UNL     1       2.838   6.672  10.529  1.00  0.00     0.043 C 
HETATM   23  C30 UNL     1       1.601   5.827  10.852  1.00  0.00     0.148 C 
ENDROOT
BRANCH   1  24
HETATM   24  C7  UNL     1      -3.939   6.189  13.848  1.00  0.00    -0.014 C 
HETATM   25  C8  UNL     1      -3.944   6.230  15.387  1.00  0.00     0.010 C 
BRANCH  24  26
HETATM   26  C6  UNL     1      -5.249   5.540  13.339  1.00  0.00     0.008 C 
BRANCH  26  27
HETATM   27  C5  UNL     1      -6.426   5.633  14.325  1.00  0.00     0.028 C 
BRANCH  27  28
HETATM   28  C4  UNL     1      -7.723   6.031  13.671  1.00  0.00    -0.025 C 
HETATM   29  C2  UNL     1      -8.839   6.468  14.284  1.00  0.00    -0.091 C 
HETATM   30  C1  UNL     1     -10.081   6.782  13.492  1.00  0.00     0.042 C 
HETATM   31  C3  UNL     1      -8.973   6.697  15.764  1.00  0.00     0.042 C 
ENDBRANCH  27  28
ENDBRANCH  26  27
ENDBRANCH  24  26
ENDBRANCH   1  24
BRANCH  23  32
HETATM   32  O2  UNL     1       1.987   4.455  10.863  1.00  0.00    -0.391 OA
HETATM   33  H48 UNL     1       2.279   4.229   9.965  1.00  0.00     0.210 HD
ENDBRANCH  23  32
TORSDOF 5
ENDMDL
MODEL 8
REMARK minimizedAffinity -8.55394268
REMARK  5 active torsions:
REMARK  status: ('A' for Active; 'I' for Inactive)
REMARK    1  A    between atoms: C4_4  and  C5_5 
REMARK    2  A    between atoms: C5_5  and  C6_6 
REMARK    3  A    between atoms: C6_6  and  C7_7 
REMARK    4  A    between atoms: C7_7  and  C9_9 
REMARK    5  A    between atoms: C30_31  and  O2_32 
ROOT
HETATM    1  C9  UNL     1      -2.002   6.039  12.394  1.00  0.00    -0.002 C 
HETATM    2  C10 UNL     1      -2.515   6.781  13.654  1.00  0.00     0.007 C 
HETATM    3  C11 UNL     1      -1.432   7.816  14.033  1.00  0.00     0.015 C 
HETATM    4  C12 UNL     1      -0.487   7.887  12.815  1.00  0.00    -0.010 C 
HETATM    5  C13 UNL     1      -1.136   8.872  11.790  1.00  0.00     0.021 C 
HETATM    6  C14 UNL     1       0.954   8.367  12.995  1.00  0.00    -0.039 C 
HETATM    7  C15 UNL     1       1.906   7.953  12.112  1.00  0.00    -0.066 C 
HETATM    8  C16 UNL     1       1.583   6.946  10.996  1.00  0.00     0.036 C 
HETATM    9  C17 UNL     1       0.185   6.289  10.995  1.00  0.00     0.015 C 
HETATM   10  C18 UNL     1      -0.482   6.377  12.373  1.00  0.00    -0.029 C 
HETATM   11  C19 UNL     1       0.300   5.448  13.349  1.00  0.00     0.016 C 
HETATM   12  C20 UNL     1       3.380   8.432  12.217  1.00  0.00    -0.015 C 
HETATM   13  C21 UNL     1       4.139   7.288  12.929  1.00  0.00     0.020 C 
HETATM   14  C22 UNL     1       4.000   8.675  10.818  1.00  0.00     0.021 C 
HETATM   15  C23 UNL     1       5.410   9.241  10.875  1.00  0.00     0.080 C 
HETATM   16  C24 UNL     1       5.462  10.530  11.657  1.00  0.00     0.135 C 
HETATM   17  O1  UNL     1       6.128  11.475  11.228  1.00  0.00    -0.297 OA
HETATM   18  C25 UNL     1       4.788  10.564  13.038  1.00  0.00     0.018 C 
HETATM   19  C26 UNL     1       5.792  10.030  14.071  1.00  0.00     0.023 C 
HETATM   20  C27 UNL     1       4.525  12.054  13.388  1.00  0.00     0.023 C 
HETATM   21  C28 UNL     1       3.416   9.809  12.978  1.00  0.00     0.016 C 
HETATM   22  C29 UNL     1       2.715   9.661  14.342  1.00  0.00     0.043 C 
HETATM   23  C30 UNL     1       1.238   9.300  14.152  1.00  0.00     0.148 C 
ENDROOT
BRANCH   1  24
HETATM   24  C7  UNL     1      -2.440   4.552  12.220  1.00  0.00    -0.014 C 
HETATM   25  C8  UNL     1      -1.733   3.964  10.986  1.00  0.00     0.010 C 
BRANCH  24  26
HETATM   26  C6  UNL     1      -3.965   4.314  12.110  1.00  0.00     0.008 C 
BRANCH  26  27
HETATM   27  C5  UNL     1      -4.756   4.677  13.378  1.00  0.00     0.028 C 
BRANCH  27  28
HETATM   28  C4  UNL     1      -6.137   5.205  13.091  1.00  0.00    -0.025 C 
HETATM   29  C2  UNL     1      -7.258   4.483  12.900  1.00  0.00    -0.091 C 
HETATM   30  C1  UNL     1      -8.563   5.158  12.572  1.00  0.00     0.042 C 
HETATM   31  C3  UNL     1      -7.341   2.985  12.999  1.00  0.00     0.042 C 
ENDBRANCH  27  28
ENDBRANCH  26  27
ENDBRANCH  24  26
ENDBRANCH   1  24
BRANCH  23  32
HETATM   32  O2  UNL     1       0.509  10.504  13.929  1.00  0.00    -0.391 OA
HETATM   33  H48 UNL     1       0.585  11.043  14.733  1.00  0.00     0.210 HD
ENDBRANCH  23  32
TORSDOF 5
ENDMDL
MODEL 9
REMARK minimizedAffinity -8.51272964
REMARK  5 active torsions:
REMARK  status: ('A' for Active; 'I' for Inactive)
REMARK    1  A    between atoms: C4_4  and  C5_5 
REMARK    2  A    between atoms: C5_5  and  C6_6 
REMARK    3  A    between atoms: C6_6  and  C7_7 
REMARK    4  A    between atoms: C7_7  and  C9_9 
REMARK    5  A    between atoms: C30_31  and  O2_32 
ROOT
HETATM    1  C9  UNL     1      -2.567   4.694  13.100  1.00  0.00    -0.002 C 
HETATM    2  C10 UNL     1      -1.724   5.187  11.898  1.00  0.00     0.007 C 
HETATM    3  C11 UNL     1      -1.303   6.641  12.214  1.00  0.00     0.015 C 
HETATM    4  C12 UNL     1      -1.618   6.843  13.711  1.00  0.00    -0.010 C 
HETATM    5  C13 UNL     1      -0.406   6.268  14.514  1.00  0.00     0.021 C 
HETATM    6  C14 UNL     1      -1.846   8.251  14.260  1.00  0.00    -0.039 C 
HETATM    7  C15 UNL     1      -2.609   8.413  15.377  1.00  0.00    -0.066 C 
HETATM    8  C16 UNL     1      -3.317   7.223  16.046  1.00  0.00     0.036 C 
HETATM    9  C17 UNL     1      -3.273   5.857  15.326  1.00  0.00     0.015 C 
HETATM   10  C18 UNL     1      -2.949   6.013  13.835  1.00  0.00    -0.029 C 
HETATM   11  C19 UNL     1      -4.169   6.692  13.144  1.00  0.00     0.016 C 
HETATM   12  C20 UNL     1      -2.850   9.813  16.006  1.00  0.00    -0.015 C 
HETATM   13  C21 UNL     1      -4.241  10.262  15.500  1.00  0.00     0.020 C 
HETATM   14  C22 UNL     1      -2.857   9.748  17.553  1.00  0.00     0.021 C 
HETATM   15  C23 UNL     1      -2.989  11.112  18.212  1.00  0.00     0.080 C 
HETATM   16  C24 UNL     1      -1.895  12.052  17.773  1.00  0.00     0.135 C 
HETATM   17  O1  UNL     1      -1.334  12.766  18.608  1.00  0.00    -0.297 OA
HETATM   18  C25 UNL     1      -1.615  12.182  16.267  1.00  0.00     0.018 C 
HETATM   19  C26 UNL     1      -2.585  13.225  15.691  1.00  0.00     0.023 C 
HETATM   20  C27 UNL     1      -0.182  12.758  16.109  1.00  0.00     0.023 C 
HETATM   21  C28 UNL     1      -1.668  10.767  15.593  1.00  0.00     0.016 C 
HETATM   22  C29 UNL     1      -1.539  10.792  14.059  1.00  0.00     0.043 C 
HETATM   23  C30 UNL     1      -1.187   9.399  13.525  1.00  0.00     0.148 C 
ENDROOT
BRANCH   1  24
HETATM   24  C7  UNL     1      -3.688   3.653  12.801  1.00  0.00    -0.014 C 
HETATM   25  C8  UNL     1      -3.136   2.584  11.840  1.00  0.00     0.010 C 
BRANCH  24  26
HETATM   26  C6  UNL     1      -5.004   4.236  12.230  1.00  0.00     0.008 C 
BRANCH  26  27
HETATM   27  C5  UNL     1      -6.281   3.622  12.828  1.00  0.00     0.028 C 
BRANCH  27  28
HETATM   28  C4  UNL     1      -7.019   4.556  13.749  1.00  0.00    -0.025 C 
HETATM   29  C2  UNL     1      -7.981   5.436  13.411  1.00  0.00    -0.091 C 
HETATM   30  C1  UNL     1      -8.595   6.342  14.446  1.00  0.00     0.042 C 
HETATM   31  C3  UNL     1      -8.542   5.605  12.027  1.00  0.00     0.042 C 
ENDBRANCH  27  28
ENDBRANCH  26  27
ENDBRANCH  24  26
ENDBRANCH   1  24
BRANCH  23  32
HETATM   32  O2  UNL     1       0.224   9.226  13.623  1.00  0.00    -0.391 OA
HETATM   33  H48 UNL     1       0.638   9.883  13.041  1.00  0.00     0.210 HD
ENDBRANCH  23  32
TORSDOF 5
ENDMDL
