MODEL 1
REMARK minimizedAffinity -7.17360353
REMARK CNNscore 0.823489845
REMARK CNNaffinity 7.36364031
REMARK  6 active torsions:
REMARK  status: ('A' for Active; 'I' for Inactive)
REMARK    1  A    between atoms: C2_2  and  C30_32 
REMARK    2  A    between atoms: C3_3  and  C4_4 
REMARK    3  A    between atoms: C4_4  and  C5_6 
REMARK    4  A    between atoms: C5_6  and  C6_7 
REMARK    5  A    between atoms: C6_7  and  C8_9 
REMARK    6  A    between atoms: C30_32  and  O4_34 
ROOT
HETATM    1  C8  UNL     1       3.682  55.418  -8.263  1.00  0.00    -0.001 C 
HETATM    2  C9  UNL     1       2.726  56.416  -7.542  1.00  0.00     0.007 C 
HETATM    3  C10 UNL     1       1.294  56.113  -8.018  1.00  0.00     0.015 C 
HETATM    4  C11 UNL     1       1.397  54.746  -8.722  1.00  0.00    -0.013 C 
HETATM    5  C12 UNL     1       1.325  53.671  -7.594  1.00  0.00     0.021 C 
HETATM    6  C13 UNL     1       0.321  54.370  -9.730  1.00  0.00    -0.070 C 
HETATM    7  C14 UNL     1      -0.911  54.911  -9.739  1.00  0.00    -0.022 C 
HETATM    8  C15 UNL     1      -1.969  54.435 -10.688  1.00  0.00     0.034 C 
HETATM    9  C16 UNL     1      -1.858  52.908 -10.817  1.00  0.00     0.013 C 
HETATM   10  C17 UNL     1      -3.089  52.212 -11.477  1.00  0.00     0.018 C 
HETATM   11  C18 UNL     1      -4.221  52.052 -10.439  1.00  0.00     0.023 C 
HETATM   12  C19 UNL     1      -3.666  52.989 -12.675  1.00  0.00     0.023 C 
HETATM   13  C20 UNL     1      -2.702  50.792 -11.915  1.00  0.00     0.135 C 
HETATM   14  O2  UNL     1      -3.341  50.178 -12.771  1.00  0.00    -0.297 OA
HETATM   15  C21 UNL     1      -1.567  50.110 -11.181  1.00  0.00     0.080 C 
HETATM   16  C22 UNL     1      -0.313  50.970 -10.991  1.00  0.00     0.017 C 
HETATM   17  C23 UNL     1      -0.462  52.463 -11.387  1.00  0.00    -0.031 C 
HETATM   18  C24 UNL     1      -0.371  52.559 -12.934  1.00  0.00     0.016 C 
HETATM   19  C25 UNL     1       0.719  53.385 -10.832  1.00  0.00     0.024 C 
HETATM   20  C26 UNL     1       2.052  52.646 -10.560  1.00  0.00     0.010 C 
HETATM   21  C27 UNL     1       3.211  53.512 -10.015  1.00  0.00     0.011 C 
HETATM   22  C28 UNL     1       2.792  54.880  -9.433  1.00  0.00    -0.029 C 
HETATM   23  C29 UNL     1       2.797  55.935 -10.585  1.00  0.00     0.016 C 
ENDROOT
BRANCH   1  24
HETATM   24  C6  UNL     1       5.065  56.057  -8.577  1.00  0.00    -0.007 C 
HETATM   25  C7  UNL     1       6.100  55.015  -9.018  1.00  0.00     0.011 C 
BRANCH  24  26
HETATM   26  C5  UNL     1       5.620  56.808  -7.343  1.00  0.00     0.087 C 
BRANCH  26  27
HETATM   27  C4  UNL     1       6.274  55.858  -6.356  1.00  0.00     0.150 C 
HETATM   28  O1  UNL     1       5.622  55.049  -5.701  1.00  0.00    -0.293 OA
BRANCH  27  29
HETATM   29  C3  UNL     1       7.761  55.907  -6.256  1.00  0.00     0.063 C 
HETATM   30  C2  UNL     1       8.430  56.695  -5.398  1.00  0.00     0.015 C 
HETATM   31  C1  UNL     1       9.917  56.649  -5.241  1.00  0.00     0.055 C 
BRANCH  30  32
HETATM   32  C30 UNL     1       7.755  57.670  -4.521  1.00  0.00     0.171 C 
HETATM   33  O3  UNL     1       7.387  57.461  -3.380  1.00  0.00    -0.646 OA
BRANCH  32  34
HETATM   34  O4  UNL     1       7.699  58.891  -5.079  1.00  0.00    -0.773 OA
HETATM   35  H44 UNL     1       7.187  59.416  -4.429  1.00  0.00     0.167 HD
ENDBRANCH  32  34
ENDBRANCH  30  32
ENDBRANCH  27  29
ENDBRANCH  26  27
ENDBRANCH  24  26
ENDBRANCH   1  24
TORSDOF 6
ENDMDL
MODEL 2
REMARK minimizedAffinity -7.70477057
REMARK CNNscore 0.723528743
REMARK CNNaffinity 6.53090906
REMARK  6 active torsions:
REMARK  status: ('A' for Active; 'I' for Inactive)
REMARK    1  A    between atoms: C2_2  and  C30_32 
REMARK    2  A    between atoms: C3_3  and  C4_4 
REMARK    3  A    between atoms: C4_4  and  C5_6 
REMARK    4  A    between atoms: C5_6  and  C6_7 
REMARK    5  A    between atoms: C6_7  and  C8_9 
REMARK    6  A    between atoms: C30_32  and  O4_34 
ROOT
HETATM    1  C8  UNL     1     -13.458  45.289 -26.860  1.00  0.00    -0.001 C 
HETATM    2  C9  UNL     1     -14.280  46.175 -27.843  1.00  0.00     0.007 C 
HETATM    3  C10 UNL     1     -13.293  46.780 -28.858  1.00  0.00     0.015 C 
HETATM    4  C11 UNL     1     -11.993  45.975 -28.667  1.00  0.00    -0.013 C 
HETATM    5  C12 UNL     1     -12.164  44.671 -29.506  1.00  0.00     0.021 C 
HETATM    6  C13 UNL     1     -10.684  46.600 -29.125  1.00  0.00    -0.070 C 
HETATM    7  C14 UNL     1     -10.607  47.572 -30.052  1.00  0.00    -0.022 C 
HETATM    8  C15 UNL     1      -9.287  48.084 -30.544  1.00  0.00     0.034 C 
HETATM    9  C16 UNL     1      -8.319  46.897 -30.670  1.00  0.00     0.013 C 
HETATM   10  C17 UNL     1      -7.027  47.188 -31.496  1.00  0.00     0.018 C 
HETATM   11  C18 UNL     1      -7.339  47.108 -33.006  1.00  0.00     0.023 C 
HETATM   12  C19 UNL     1      -6.421  48.577 -31.222  1.00  0.00     0.023 C 
HETATM   13  C20 UNL     1      -5.982  46.099 -31.213  1.00  0.00     0.135 C 
HETATM   14  O2  UNL     1      -4.782  46.278 -31.426  1.00  0.00    -0.297 OA
HETATM   15  C21 UNL     1      -6.479  44.741 -30.764  1.00  0.00     0.080 C 
HETATM   16  C22 UNL     1      -7.529  44.775 -29.648  1.00  0.00     0.017 C 
HETATM   17  C23 UNL     1      -8.077  46.183 -29.291  1.00  0.00    -0.031 C 
HETATM   18  C24 UNL     1      -7.021  46.898 -28.406  1.00  0.00     0.016 C 
HETATM   19  C25 UNL     1      -9.410  46.138 -28.411  1.00  0.00     0.024 C 
HETATM   20  C26 UNL     1      -9.595  44.851 -27.571  1.00  0.00     0.010 C 
HETATM   21  C27 UNL     1     -10.880  44.776 -26.715  1.00  0.00     0.011 C 
HETATM   22  C28 UNL     1     -11.991  45.775 -27.109  1.00  0.00    -0.029 C 
HETATM   23  C29 UNL     1     -11.769  47.104 -26.318  1.00  0.00     0.016 C 
ENDROOT
BRANCH   1  24
HETATM   24  C6  UNL     1     -14.044  45.314 -25.419  1.00  0.00    -0.007 C 
HETATM   25  C7  UNL     1     -13.949  43.948 -24.728  1.00  0.00     0.011 C 
BRANCH  24  26
HETATM   26  C5  UNL     1     -15.528  45.754 -25.434  1.00  0.00     0.087 C 
BRANCH  26  27
HETATM   27  C4  UNL     1     -15.817  46.784 -24.357  1.00  0.00     0.150 C 
HETATM   28  O1  UNL     1     -15.403  47.938 -24.431  1.00  0.00    -0.293 OA
BRANCH  27  29
HETATM   29  C3  UNL     1     -16.683  46.350 -23.224  1.00  0.00     0.063 C 
HETATM   30  C2  UNL     1     -18.022  46.256 -23.295  1.00  0.00     0.015 C 
HETATM   31  C1  UNL     1     -18.860  45.716 -22.180  1.00  0.00     0.055 C 
BRANCH  30  32
HETATM   32  C30 UNL     1     -18.786  46.665 -24.488  1.00  0.00     0.171 C 
HETATM   33  O3  UNL     1     -19.039  47.811 -24.810  1.00  0.00    -0.646 OA
BRANCH  32  34
HETATM   34  O4  UNL     1     -19.075  45.619 -25.281  1.00  0.00    -0.773 OA
HETATM   35  H44 UNL     1     -19.620  46.014 -25.992  1.00  0.00     0.167 HD
ENDBRANCH  32  34
ENDBRANCH  30  32
ENDBRANCH  27  29
ENDBRANCH  26  27
ENDBRANCH  24  26
ENDBRANCH   1  24
TORSDOF 6
ENDMDL
MODEL 3
REMARK minimizedAffinity -6.86616564
REMARK CNNscore 0.718353629
REMARK CNNaffinity 6.92521286
REMARK  6 active torsions:
REMARK  status: ('A' for Active; 'I' for Inactive)
REMARK    1  A    between atoms: C2_2  and  C30_32 
REMARK    2  A    between atoms: C3_3  and  C4_4 
REMARK    3  A    between atoms: C4_4  and  C5_6 
REMARK    4  A    between atoms: C5_6  and  C6_7 
REMARK    5  A    between atoms: C6_7  and  C8_9 
REMARK    6  A    between atoms: C30_32  and  O4_34 
ROOT
HETATM    1  C8  UNL     1       5.322  56.151  -8.348  1.00  0.00    -0.001 C 
HETATM    2  C9  UNL     1       6.064  55.171  -9.307  1.00  0.00     0.007 C 
HETATM    3  C10 UNL     1       5.008  54.236  -9.921  1.00  0.00     0.015 C 
HETATM    4  C11 UNL     1       3.656  54.899  -9.588  1.00  0.00    -0.013 C 
HETATM    5  C12 UNL     1       3.428  55.988 -10.681  1.00  0.00     0.021 C 
HETATM    6  C13 UNL     1       2.407  54.031  -9.593  1.00  0.00    -0.070 C 
HETATM    7  C14 UNL     1       2.307  52.872 -10.269  1.00  0.00    -0.022 C 
HETATM    8  C15 UNL     1       1.021  52.105 -10.324  1.00  0.00     0.034 C 
HETATM    9  C16 UNL     1      -0.139  53.105 -10.447  1.00  0.00     0.013 C 
HETATM   10  C17 UNL     1      -1.505  52.479 -10.870  1.00  0.00     0.018 C 
HETATM   11  C18 UNL     1      -1.527  52.251 -12.397  1.00  0.00     0.023 C 
HETATM   12  C19 UNL     1      -1.797  51.126 -10.195  1.00  0.00     0.023 C 
HETATM   13  C20 UNL     1      -2.638  53.469 -10.565  1.00  0.00     0.135 C 
HETATM   14  O2  UNL     1      -3.809  53.101 -10.450  1.00  0.00    -0.297 OA
HETATM   15  C21 UNL     1      -2.297  54.943 -10.520  1.00  0.00     0.080 C 
HETATM   16  C22 UNL     1      -1.051  55.292  -9.700  1.00  0.00     0.017 C 
HETATM   17  C23 UNL     1      -0.211  54.080  -9.216  1.00  0.00    -0.031 C 
HETATM   18  C24 UNL     1      -0.927  53.463  -7.984  1.00  0.00     0.016 C 
HETATM   19  C25 UNL     1       1.247  54.485  -8.702  1.00  0.00     0.024 C 
HETATM   20  C26 UNL     1       1.379  55.942  -8.197  1.00  0.00     0.010 C 
HETATM   21  C27 UNL     1       2.780  56.366  -7.701  1.00  0.00     0.011 C 
HETATM   22  C28 UNL     1       3.940  55.447  -8.143  1.00  0.00    -0.029 C 
HETATM   23  C29 UNL     1       4.114  54.316  -7.079  1.00  0.00     0.016 C 
ENDROOT
BRANCH   1  24
HETATM   24  C6  UNL     1       6.188  56.527  -7.111  1.00  0.00    -0.007 C 
HETATM   25  C7  UNL     1       7.125  55.389  -6.690  1.00  0.00     0.011 C 
BRANCH  24  26
HETATM   26  C5  UNL     1       5.293  56.898  -5.903  1.00  0.00     0.087 C 
BRANCH  26  27
HETATM   27  C4  UNL     1       6.006  57.837  -4.946  1.00  0.00     0.150 C 
HETATM   28  O1  UNL     1       6.832  58.659  -5.335  1.00  0.00    -0.293 OA
BRANCH  27  29
HETATM   29  C3  UNL     1       5.615  57.760  -3.510  1.00  0.00     0.063 C 
HETATM   30  C2  UNL     1       4.549  58.390  -2.988  1.00  0.00     0.015 C 
HETATM   31  C1  UNL     1       4.114  58.212  -1.567  1.00  0.00     0.055 C 
BRANCH  30  32
HETATM   32  C30 UNL     1       3.700  59.304  -3.775  1.00  0.00     0.171 C 
HETATM   33  O3  UNL     1       3.958  60.464  -4.033  1.00  0.00    -0.646 OA
BRANCH  32  34
HETATM   34  O4  UNL     1       2.639  58.671  -4.304  1.00  0.00    -0.773 OA
HETATM   35  H44 UNL     1       2.141  59.390  -4.745  1.00  0.00     0.167 HD
ENDBRANCH  32  34
ENDBRANCH  30  32
ENDBRANCH  27  29
ENDBRANCH  26  27
ENDBRANCH  24  26
ENDBRANCH   1  24
TORSDOF 6
ENDMDL
MODEL 4
REMARK minimizedAffinity -7.05629778
REMARK CNNscore 0.631118953
REMARK CNNaffinity 7.00344086
REMARK  6 active torsions:
REMARK  status: ('A' for Active; 'I' for Inactive)
REMARK    1  A    between atoms: C2_2  and  C30_32 
REMARK    2  A    between atoms: C3_3  and  C4_4 
REMARK    3  A    between atoms: C4_4  and  C5_6 
REMARK    4  A    between atoms: C5_6  and  C6_7 
REMARK    5  A    between atoms: C6_7  and  C8_9 
REMARK    6  A    between atoms: C30_32  and  O4_34 
ROOT
HETATM    1  C8  UNL     1      -1.788  52.448 -10.569  1.00  0.00    -0.001 C 
HETATM    2  C9  UNL     1      -1.172  51.022 -10.449  1.00  0.00     0.007 C 
HETATM    3  C10 UNL     1       0.283  51.184  -9.974  1.00  0.00     0.015 C 
HETATM    4  C11 UNL     1       0.379  52.647  -9.498  1.00  0.00    -0.013 C 
HETATM    5  C12 UNL     1      -0.173  52.664  -8.039  1.00  0.00     0.021 C 
HETATM    6  C13 UNL     1       1.753  53.296  -9.435  1.00  0.00    -0.070 C 
HETATM    7  C14 UNL     1       2.901  52.601  -9.338  1.00  0.00    -0.022 C 
HETATM    8  C15 UNL     1       4.223  53.290  -9.177  1.00  0.00     0.034 C 
HETATM    9  C16 UNL     1       4.035  54.495  -8.242  1.00  0.00     0.013 C 
HETATM   10  C17 UNL     1       5.357  55.109  -7.686  1.00  0.00     0.018 C 
HETATM   11  C18 UNL     1       5.874  54.260  -6.505  1.00  0.00     0.023 C 
HETATM   12  C19 UNL     1       6.487  55.185  -8.730  1.00  0.00     0.023 C 
HETATM   13  C20 UNL     1       5.076  56.508  -7.122  1.00  0.00     0.135 C 
HETATM   14  O2  UNL     1       5.972  57.342  -6.971  1.00  0.00    -0.297 OA
HETATM   15  C21 UNL     1       3.671  56.808  -6.642  1.00  0.00     0.080 C 
HETATM   16  C22 UNL     1       2.557  56.389  -7.607  1.00  0.00     0.017 C 
HETATM   17  C23 UNL     1       3.014  55.540  -8.823  1.00  0.00    -0.031 C 
HETATM   18  C24 UNL     1       3.644  56.500  -9.868  1.00  0.00     0.016 C 
HETATM   19  C25 UNL     1       1.805  54.820  -9.581  1.00  0.00     0.024 C 
HETATM   20  C26 UNL     1       0.430  55.511  -9.420  1.00  0.00     0.010 C 
HETATM   21  C27 UNL     1      -0.761  54.833 -10.136  1.00  0.00     0.011 C 
HETATM   22  C28 UNL     1      -0.522  53.368 -10.565  1.00  0.00    -0.029 C 
HETATM   23  C29 UNL     1       0.099  53.363 -11.999  1.00  0.00     0.016 C 
ENDROOT
BRANCH   1  24
HETATM   24  C6  UNL     1      -2.810  52.548 -11.738  1.00  0.00    -0.007 C 
HETATM   25  C7  UNL     1      -4.213  52.935 -11.254  1.00  0.00     0.011 C 
BRANCH  24  26
HETATM   26  C5  UNL     1      -2.907  51.206 -12.503  1.00  0.00     0.087 C 
BRANCH  26  27
HETATM   27  C4  UNL     1      -2.799  51.409 -14.004  1.00  0.00     0.150 C 
HETATM   28  O1  UNL     1      -3.644  52.035 -14.639  1.00  0.00    -0.293 OA
BRANCH  27  29
HETATM   29  C3  UNL     1      -1.584  50.863 -14.673  1.00  0.00     0.063 C 
HETATM   30  C2  UNL     1      -1.537  49.666 -15.283  1.00  0.00     0.015 C 
HETATM   31  C1  UNL     1      -0.339  49.185 -16.040  1.00  0.00     0.055 C 
BRANCH  30  32
HETATM   32  C30 UNL     1      -2.671  48.723 -15.274  1.00  0.00     0.171 C 
HETATM   33  O3  UNL     1      -2.902  47.902 -14.407  1.00  0.00    -0.646 OA
BRANCH  32  34
HETATM   34  O4  UNL     1      -3.523  48.954 -16.287  1.00  0.00    -0.773 OA
HETATM   35  H44 UNL     1      -4.185  48.238 -16.197  1.00  0.00     0.167 HD
ENDBRANCH  32  34
ENDBRANCH  30  32
ENDBRANCH  27  29
ENDBRANCH  26  27
ENDBRANCH  24  26
ENDBRANCH   1  24
TORSDOF 6
ENDMDL
MODEL 5
REMARK minimizedAffinity -7.36520481
REMARK CNNscore 0.629547954
REMARK CNNaffinity 6.68419504
REMARK  6 active torsions:
REMARK  status: ('A' for Active; 'I' for Inactive)
REMARK    1  A    between atoms: C2_2  and  C30_32 
REMARK    2  A    between atoms: C3_3  and  C4_4 
REMARK    3  A    between atoms: C4_4  and  C5_6 
REMARK    4  A    between atoms: C5_6  and  C6_7 
REMARK    5  A    between atoms: C6_7  and  C8_9 
REMARK    6  A    between atoms: C30_32  and  O4_34 
ROOT
HETATM    1  C8  UNL     1       6.115  55.829  -7.986  1.00  0.00    -0.001 C 
HETATM    2  C9  UNL     1       6.749  54.749  -8.914  1.00  0.00     0.007 C 
HETATM    3  C10 UNL     1       5.599  53.922  -9.515  1.00  0.00     0.015 C 
HETATM    4  C11 UNL     1       4.328  54.738  -9.209  1.00  0.00    -0.013 C 
HETATM    5  C12 UNL     1       4.228  55.819 -10.329  1.00  0.00     0.021 C 
HETATM    6  C13 UNL     1       2.990  54.014  -9.204  1.00  0.00    -0.070 C 
HETATM    7  C14 UNL     1       2.766  52.857  -9.852  1.00  0.00    -0.022 C 
HETATM    8  C15 UNL     1       1.403  52.235  -9.900  1.00  0.00     0.034 C 
HETATM    9  C16 UNL     1       0.362  53.354 -10.056  1.00  0.00     0.013 C 
HETATM   10  C17 UNL     1      -1.062  52.873 -10.476  1.00  0.00     0.018 C 
HETATM   11  C18 UNL     1      -1.101  52.611 -11.996  1.00  0.00     0.023 C 
HETATM   12  C19 UNL     1      -1.506  51.578  -9.771  1.00  0.00     0.023 C 
HETATM   13  C20 UNL     1      -2.081  53.989 -10.204  1.00  0.00     0.135 C 
HETATM   14  O2  UNL     1      -3.286  53.756 -10.089  1.00  0.00    -0.297 OA
HETATM   15  C21 UNL     1      -1.579  55.417 -10.191  1.00  0.00     0.080 C 
HETATM   16  C22 UNL     1      -0.307  55.646  -9.369  1.00  0.00     0.017 C 
HETATM   17  C23 UNL     1       0.391  54.361  -8.849  1.00  0.00    -0.031 C 
HETATM   18  C24 UNL     1      -0.395  53.857  -7.609  1.00  0.00     0.016 C 
HETATM   19  C25 UNL     1       1.882  54.615  -8.333  1.00  0.00     0.024 C 
HETATM   20  C26 UNL     1       2.172  56.061  -7.862  1.00  0.00     0.010 C 
HETATM   21  C27 UNL     1       3.609  56.340  -7.364  1.00  0.00     0.011 C 
HETATM   22  C28 UNL     1       4.662  55.287  -7.775  1.00  0.00    -0.029 C 
HETATM   23  C29 UNL     1       4.703  54.170  -6.683  1.00  0.00     0.016 C 
ENDROOT
BRANCH   1  24
HETATM   24  C6  UNL     1       7.010  56.137  -6.750  1.00  0.00    -0.007 C 
HETATM   25  C7  UNL     1       7.333  54.877  -5.937  1.00  0.00     0.011 C 
BRANCH  24  26
HETATM   26  C5  UNL     1       6.326  57.163  -5.815  1.00  0.00     0.087 C 
BRANCH  26  27
HETATM   27  C4  UNL     1       7.334  57.869  -4.925  1.00  0.00     0.150 C 
HETATM   28  O1  UNL     1       8.402  57.348  -4.611  1.00  0.00    -0.293 OA
BRANCH  27  29
HETATM   29  C3  UNL     1       6.999  59.256  -4.495  1.00  0.00     0.063 C 
HETATM   30  C2  UNL     1       7.875  60.276  -4.500  1.00  0.00     0.015 C 
HETATM   31  C1  UNL     1       7.488  61.682  -4.166  1.00  0.00     0.055 C 
BRANCH  30  32
HETATM   32  C30 UNL     1       9.296  60.102  -4.852  1.00  0.00     0.171 C 
HETATM   33  O3  UNL     1       9.809  60.416  -5.910  1.00  0.00    -0.646 OA
BRANCH  32  34
HETATM   34  O4  UNL     1      10.021  59.665  -3.808  1.00  0.00    -0.773 OA
HETATM   35  H44 UNL     1      10.916  59.541  -4.186  1.00  0.00     0.167 HD
ENDBRANCH  32  34
ENDBRANCH  30  32
ENDBRANCH  27  29
ENDBRANCH  26  27
ENDBRANCH  24  26
ENDBRANCH   1  24
TORSDOF 6
ENDMDL
MODEL 6
REMARK minimizedAffinity -7.43764734
REMARK CNNscore 0.610662818
REMARK CNNaffinity 6.7418294
REMARK  6 active torsions:
REMARK  status: ('A' for Active; 'I' for Inactive)
REMARK    1  A    between atoms: C2_2  and  C30_32 
REMARK    2  A    between atoms: C3_3  and  C4_4 
REMARK    3  A    between atoms: C4_4  and  C5_6 
REMARK    4  A    between atoms: C5_6  and  C6_7 
REMARK    5  A    between atoms: C6_7  and  C8_9 
REMARK    6  A    between atoms: C30_32  and  O4_34 
ROOT
HETATM    1  C8  UNL     1       5.526  56.040  -7.816  1.00  0.00    -0.001 C 
HETATM    2  C9  UNL     1       6.331  55.176  -8.832  1.00  0.00     0.007 C 
HETATM    3  C10 UNL     1       5.325  54.292  -9.590  1.00  0.00     0.015 C 
HETATM    4  C11 UNL     1       3.946  54.895  -9.255  1.00  0.00    -0.013 C 
HETATM    5  C12 UNL     1       3.745  56.087 -10.241  1.00  0.00     0.021 C 
HETATM    6  C13 UNL     1       2.717  54.012  -9.409  1.00  0.00    -0.070 C 
HETATM    7  C14 UNL     1       2.674  52.927 -10.204  1.00  0.00    -0.022 C 
HETATM    8  C15 UNL     1       1.408  52.148 -10.399  1.00  0.00     0.034 C 
HETATM    9  C16 UNL     1       0.234  53.136 -10.474  1.00  0.00     0.013 C 
HETATM   10  C17 UNL     1      -1.097  52.535 -11.024  1.00  0.00     0.018 C 
HETATM   11  C18 UNL     1      -1.045  52.465 -12.565  1.00  0.00     0.023 C 
HETATM   12  C19 UNL     1      -1.391  51.115 -10.506  1.00  0.00     0.023 C 
HETATM   13  C20 UNL     1      -2.265  53.468 -10.674  1.00  0.00     0.135 C 
HETATM   14  O2  UNL     1      -3.431  53.071 -10.653  1.00  0.00    -0.297 OA
HETATM   15  C21 UNL     1      -1.958  54.936 -10.462  1.00  0.00     0.080 C 
HETATM   16  C22 UNL     1      -0.758  55.218  -9.551  1.00  0.00     0.017 C 
HETATM   17  C23 UNL     1       0.084  53.977  -9.154  1.00  0.00    -0.031 C 
HETATM   18  C24 UNL     1      -0.674  53.224  -8.028  1.00  0.00     0.016 C 
HETATM   19  C25 UNL     1       1.508  54.352  -8.533  1.00  0.00     0.024 C 
HETATM   20  C26 UNL     1       1.585  55.751  -7.875  1.00  0.00     0.010 C 
HETATM   21  C27 UNL     1       2.953  56.145  -7.272  1.00  0.00     0.011 C 
HETATM   22  C28 UNL     1       4.151  55.295  -7.750  1.00  0.00    -0.029 C 
HETATM   23  C29 UNL     1       4.300  54.063  -6.801  1.00  0.00     0.016 C 
ENDROOT
BRANCH   1  24
HETATM   24  C6  UNL     1       6.326  56.300  -6.506  1.00  0.00    -0.007 C 
HETATM   25  C7  UNL     1       6.216  57.755  -6.036  1.00  0.00     0.011 C 
BRANCH  24  26
HETATM   26  C5  UNL     1       7.823  55.956  -6.695  1.00  0.00     0.087 C 
BRANCH  26  27
HETATM   27  C4  UNL     1       8.588  56.048  -5.387  1.00  0.00     0.150 C 
HETATM   28  O1  UNL     1       8.657  55.104  -4.605  1.00  0.00    -0.293 OA
BRANCH  27  29
HETATM   29  C3  UNL     1       9.310  57.324  -5.117  1.00  0.00     0.063 C 
HETATM   30  C2  UNL     1      10.609  57.395  -4.780  1.00  0.00     0.015 C 
HETATM   31  C1  UNL     1      11.338  58.692  -4.618  1.00  0.00     0.055 C 
BRANCH  30  32
HETATM   32  C30 UNL     1      11.438  56.197  -4.554  1.00  0.00     0.171 C 
HETATM   33  O3  UNL     1      11.735  55.735  -3.468  1.00  0.00    -0.646 OA
BRANCH  32  34
HETATM   34  O4  UNL     1      11.739  55.571  -5.704  1.00  0.00    -0.773 OA
HETATM   35  H44 UNL     1      12.327  54.841  -5.421  1.00  0.00     0.167 HD
ENDBRANCH  32  34
ENDBRANCH  30  32
ENDBRANCH  27  29
ENDBRANCH  26  27
ENDBRANCH  24  26
ENDBRANCH   1  24
TORSDOF 6
ENDMDL
MODEL 7
REMARK minimizedAffinity -7.84722471
REMARK CNNscore 0.607699156
REMARK CNNaffinity 6.12806273
REMARK  6 active torsions:
REMARK  status: ('A' for Active; 'I' for Inactive)
REMARK    1  A    between atoms: C2_2  and  C30_32 
REMARK    2  A    between atoms: C3_3  and  C4_4 
REMARK    3  A    between atoms: C4_4  and  C5_6 
REMARK    4  A    between atoms: C5_6  and  C6_7 
REMARK    5  A    between atoms: C6_7  and  C8_9 
REMARK    6  A    between atoms: C30_32  and  O4_34 
ROOT
HETATM    1  C8  UNL     1     -13.173  45.348 -27.021  1.00  0.00    -0.001 C 
HETATM    2  C9  UNL     1     -13.277  44.048 -27.875  1.00  0.00     0.007 C 
HETATM    3  C10 UNL     1     -12.150  44.088 -28.921  1.00  0.00     0.015 C 
HETATM    4  C11 UNL     1     -11.214  45.216 -28.444  1.00  0.00    -0.013 C 
HETATM    5  C12 UNL     1     -10.284  44.579 -27.366  1.00  0.00     0.021 C 
HETATM    6  C13 UNL     1     -10.290  45.866 -29.464  1.00  0.00    -0.070 C 
HETATM    7  C14 UNL     1      -9.909  45.272 -30.609  1.00  0.00    -0.022 C 
HETATM    8  C15 UNL     1      -8.917  45.912 -31.532  1.00  0.00     0.034 C 
HETATM    9  C16 UNL     1      -7.832  46.595 -30.686  1.00  0.00     0.013 C 
HETATM   10  C17 UNL     1      -6.545  47.000 -31.469  1.00  0.00     0.018 C 
HETATM   11  C18 UNL     1      -5.635  45.768 -31.661  1.00  0.00     0.023 C 
HETATM   12  C19 UNL     1      -6.833  47.584 -32.865  1.00  0.00     0.023 C 
HETATM   13  C20 UNL     1      -5.736  48.009 -30.641  1.00  0.00     0.135 C 
HETATM   14  O2  UNL     1      -4.904  48.757 -31.158  1.00  0.00    -0.297 OA
HETATM   15  C21 UNL     1      -5.906  47.986 -29.136  1.00  0.00     0.080 C 
HETATM   16  C22 UNL     1      -7.359  47.942 -28.652  1.00  0.00     0.017 C 
HETATM   17  C23 UNL     1      -8.424  47.718 -29.759  1.00  0.00    -0.031 C 
HETATM   18  C24 UNL     1      -8.643  49.068 -30.493  1.00  0.00     0.016 C 
HETATM   19  C25 UNL     1      -9.858  47.308 -29.184  1.00  0.00     0.024 C 
HETATM   20  C26 UNL     1     -10.137  47.775 -27.735  1.00  0.00     0.010 C 
HETATM   21  C27 UNL     1     -11.514  47.387 -27.148  1.00  0.00     0.011 C 
HETATM   22  C28 UNL     1     -12.254  46.260 -27.901  1.00  0.00    -0.029 C 
HETATM   23  C29 UNL     1     -13.127  46.902 -29.027  1.00  0.00     0.016 C 
ENDROOT
BRANCH   1  24
HETATM   24  C6  UNL     1     -14.569  45.865 -26.570  1.00  0.00    -0.007 C 
HETATM   25  C7  UNL     1     -14.470  46.892 -25.435  1.00  0.00     0.011 C 
BRANCH  24  26
HETATM   26  C5  UNL     1     -15.466  44.696 -26.097  1.00  0.00     0.087 C 
BRANCH  26  27
HETATM   27  C4  UNL     1     -16.862  45.171 -25.737  1.00  0.00     0.150 C 
HETATM   28  O1  UNL     1     -17.682  45.490 -26.594  1.00  0.00    -0.293 OA
BRANCH  27  29
HETATM   29  C3  UNL     1     -17.221  45.177 -24.290  1.00  0.00     0.063 C 
HETATM   30  C2  UNL     1     -18.348  45.719 -23.798  1.00  0.00     0.015 C 
HETATM   31  C1  UNL     1     -18.738  45.618 -22.357  1.00  0.00     0.055 C 
BRANCH  30  32
HETATM   32  C30 UNL     1     -19.312  46.451 -24.641  1.00  0.00     0.171 C 
HETATM   33  O3  UNL     1     -20.387  46.027 -25.020  1.00  0.00    -0.646 OA
BRANCH  32  34
HETATM   34  O4  UNL     1     -18.930  47.723 -24.849  1.00  0.00    -0.773 OA
HETATM   35  H44 UNL     1     -19.615  48.071 -25.456  1.00  0.00     0.167 HD
ENDBRANCH  32  34
ENDBRANCH  30  32
ENDBRANCH  27  29
ENDBRANCH  26  27
ENDBRANCH  24  26
ENDBRANCH   1  24
TORSDOF 6
ENDMDL
MODEL 8
REMARK minimizedAffinity -7.37382555
REMARK CNNscore 0.518806636
REMARK CNNaffinity 6.102211
REMARK  6 active torsions:
REMARK  status: ('A' for Active; 'I' for Inactive)
REMARK    1  A    between atoms: C2_2  and  C30_32 
REMARK    2  A    between atoms: C3_3  and  C4_4 
REMARK    3  A    between atoms: C4_4  and  C5_6 
REMARK    4  A    between atoms: C5_6  and  C6_7 
REMARK    5  A    between atoms: C6_7  and  C8_9 
REMARK    6  A    between atoms: C30_32  and  O4_34 
ROOT
HETATM    1  C8  UNL     1     -13.149  45.905 -26.221  1.00  0.00    -0.001 C 
HETATM    2  C9  UNL     1     -12.140  45.671 -25.057  1.00  0.00     0.007 C 
HETATM    3  C10 UNL     1     -10.724  45.690 -25.660  1.00  0.00     0.015 C 
HETATM    4  C11 UNL     1     -10.910  46.272 -27.075  1.00  0.00    -0.013 C 
HETATM    5  C12 UNL     1     -10.933  47.823 -26.906  1.00  0.00     0.021 C 
HETATM    6  C13 UNL     1      -9.843  45.980 -28.120  1.00  0.00    -0.070 C 
HETATM    7  C14 UNL     1      -8.576  45.642 -27.817  1.00  0.00    -0.022 C 
HETATM    8  C15 UNL     1      -7.537  45.464 -28.882  1.00  0.00     0.034 C 
HETATM    9  C16 UNL     1      -7.752  46.538 -29.960  1.00  0.00     0.013 C 
HETATM   10  C17 UNL     1      -6.560  46.724 -30.950  1.00  0.00     0.018 C 
HETATM   11  C18 UNL     1      -5.462  47.588 -30.294  1.00  0.00     0.023 C 
HETATM   12  C19 UNL     1      -5.908  45.398 -31.384  1.00  0.00     0.023 C 
HETATM   13  C20 UNL     1      -7.037  47.499 -32.186  1.00  0.00     0.135 C 
HETATM   14  O2  UNL     1      -6.426  47.458 -33.256  1.00  0.00    -0.297 OA
HETATM   15  C21 UNL     1      -8.231  48.418 -32.029  1.00  0.00     0.080 C 
HETATM   16  C22 UNL     1      -9.425  47.802 -31.292  1.00  0.00     0.017 C 
HETATM   17  C23 UNL     1      -9.164  46.419 -30.639  1.00  0.00    -0.031 C 
HETATM   18  C24 UNL     1      -9.220  45.343 -31.758  1.00  0.00     0.016 C 
HETATM   19  C25 UNL     1     -10.288  45.995 -29.585  1.00  0.00     0.024 C 
HETATM   20  C26 UNL     1     -11.674  46.647 -29.811  1.00  0.00     0.010 C 
HETATM   21  C27 UNL     1     -12.780  46.262 -28.802  1.00  0.00     0.011 C 
HETATM   22  C28 UNL     1     -12.278  45.621 -27.490  1.00  0.00    -0.029 C 
HETATM   23  C29 UNL     1     -12.187  44.074 -27.692  1.00  0.00     0.016 C 
ENDROOT
BRANCH   1  24
HETATM   24  C6  UNL     1     -14.479  45.126 -26.008  1.00  0.00    -0.007 C 
HETATM   25  C7  UNL     1     -15.634  45.710 -26.830  1.00  0.00     0.011 C 
BRANCH  24  26
HETATM   26  C5  UNL     1     -14.888  45.128 -24.515  1.00  0.00     0.087 C 
BRANCH  26  27
HETATM   27  C4  UNL     1     -15.469  46.466 -24.096  1.00  0.00     0.150 C 
HETATM   28  O1  UNL     1     -15.182  47.511 -24.675  1.00  0.00    -0.293 OA
BRANCH  27  29
HETATM   29  C3  UNL     1     -16.458  46.452 -22.980  1.00  0.00     0.063 C 
HETATM   30  C2  UNL     1     -17.787  46.357 -23.157  1.00  0.00     0.015 C 
HETATM   31  C1  UNL     1     -18.752  46.237 -22.019  1.00  0.00     0.055 C 
BRANCH  30  32
HETATM   32  C30 UNL     1     -18.414  46.349 -24.491  1.00  0.00     0.171 C 
HETATM   33  O3  UNL     1     -18.607  45.362 -25.177  1.00  0.00    -0.646 OA
BRANCH  32  34
HETATM   34  O4  UNL     1     -18.883  47.561 -24.833  1.00  0.00    -0.773 OA
HETATM   35  H44 UNL     1     -19.216  47.429 -25.744  1.00  0.00     0.167 HD
ENDBRANCH  32  34
ENDBRANCH  30  32
ENDBRANCH  27  29
ENDBRANCH  26  27
ENDBRANCH  24  26
ENDBRANCH   1  24
TORSDOF 6
ENDMDL
MODEL 9
REMARK minimizedAffinity -7.26419926
REMARK CNNscore 0.488469034
REMARK CNNaffinity 6.79398584
REMARK  6 active torsions:
REMARK  status: ('A' for Active; 'I' for Inactive)
REMARK    1  A    between atoms: C2_2  and  C30_32 
REMARK    2  A    between atoms: C3_3  and  C4_4 
REMARK    3  A    between atoms: C4_4  and  C5_6 
REMARK    4  A    between atoms: C5_6  and  C6_7 
REMARK    5  A    between atoms: C6_7  and  C8_9 
REMARK    6  A    between atoms: C30_32  and  O4_34 
ROOT
HETATM    1  C8  UNL     1      -1.867  52.051 -10.716  1.00  0.00    -0.001 C 
HETATM    2  C9  UNL     1      -1.183  50.657 -10.586  1.00  0.00     0.007 C 
HETATM    3  C10 UNL     1       0.271  50.892 -10.144  1.00  0.00     0.015 C 
HETATM    4  C11 UNL     1       0.309  52.367  -9.694  1.00  0.00    -0.013 C 
HETATM    5  C12 UNL     1      -0.213  52.384  -8.224  1.00  0.00     0.021 C 
HETATM    6  C13 UNL     1       1.654  53.079  -9.670  1.00  0.00    -0.070 C 
HETATM    7  C14 UNL     1       2.834  52.439  -9.585  1.00  0.00    -0.022 C 
HETATM    8  C15 UNL     1       4.125  53.190  -9.462  1.00  0.00     0.034 C 
HETATM    9  C16 UNL     1       3.901  54.401  -8.544  1.00  0.00     0.013 C 
HETATM   10  C17 UNL     1       5.205  55.084  -8.025  1.00  0.00     0.018 C 
HETATM   11  C18 UNL     1       5.783  54.280  -6.841  1.00  0.00     0.023 C 
HETATM   12  C19 UNL     1       6.309  55.193  -9.094  1.00  0.00     0.023 C 
HETATM   13  C20 UNL     1       4.871  56.478  -7.478  1.00  0.00     0.135 C 
HETATM   14  O2  UNL     1       5.730  57.354  -7.360  1.00  0.00    -0.297 OA
HETATM   15  C21 UNL     1       3.463  56.723  -6.975  1.00  0.00     0.080 C 
HETATM   16  C22 UNL     1       2.351  56.236  -7.910  1.00  0.00     0.017 C 
HETATM   17  C23 UNL     1       2.822  55.388  -9.121  1.00  0.00    -0.031 C 
HETATM   18  C24 UNL     1       3.386  56.357 -10.194  1.00  0.00     0.016 C 
HETATM   19  C25 UNL     1       1.633  54.600  -9.842  1.00  0.00     0.024 C 
HETATM   20  C26 UNL     1       0.230  55.231  -9.664  1.00  0.00     0.010 C 
HETATM   21  C27 UNL     1      -0.942  54.487 -10.344  1.00  0.00     0.011 C 
HETATM   22  C28 UNL     1      -0.644  53.027 -10.753  1.00  0.00    -0.029 C 
HETATM   23  C29 UNL     1      -0.053  53.026 -12.200  1.00  0.00     0.016 C 
ENDROOT
BRANCH   1  24
HETATM   24  C6  UNL     1      -2.915  52.084 -11.866  1.00  0.00    -0.007 C 
HETATM   25  C7  UNL     1      -4.107  52.992 -11.541  1.00  0.00     0.011 C 
BRANCH  24  26
HETATM   26  C5  UNL     1      -3.449  50.663 -12.168  1.00  0.00     0.087 C 
BRANCH  26  27
HETATM   27  C4  UNL     1      -4.380  50.170 -11.075  1.00  0.00     0.150 C 
HETATM   28  O1  UNL     1      -4.740  50.894 -10.150  1.00  0.00    -0.293 OA
BRANCH  27  29
HETATM   29  C3  UNL     1      -4.892  48.776 -11.202  1.00  0.00     0.063 C 
HETATM   30  C2  UNL     1      -6.150  48.408 -10.905  1.00  0.00     0.015 C 
HETATM   31  C1  UNL     1      -6.671  47.026 -11.143  1.00  0.00     0.055 C 
BRANCH  30  32
HETATM   32  C30 UNL     1      -7.136  49.340 -10.329  1.00  0.00     0.171 C 
HETATM   33  O3  UNL     1      -8.131  49.757 -10.893  1.00  0.00    -0.646 OA
BRANCH  32  34
HETATM   34  O4  UNL     1      -6.889  49.595  -9.033  1.00  0.00    -0.773 OA
HETATM   35  H44 UNL     1      -7.570  50.257  -8.795  1.00  0.00     0.167 HD
ENDBRANCH  32  34
ENDBRANCH  30  32
ENDBRANCH  27  29
ENDBRANCH  26  27
ENDBRANCH  24  26
ENDBRANCH   1  24
TORSDOF 6
ENDMDL
