MODEL 1
REMARK minimizedAffinity -10.2851448
REMARK  4 active torsions:
REMARK  status: ('A' for Active; 'I' for Inactive)
REMARK    1  A    between atoms: C2_2  and  C4_4 
REMARK    2  A    between atoms: C4_4  and  C5_5 
REMARK    3  A    between atoms: C5_5  and  O1_6 
REMARK    4  A    between atoms: C8_9  and  C9_10 
ROOT
HETATM    1  C9  UNL     1      -2.233  50.794 -22.793  1.00  0.00     0.001 C 
HETATM    2  C10 UNL     1      -3.514  51.648 -22.765  1.00  0.00     0.007 C 
HETATM    3  C11 UNL     1      -4.593  50.795 -22.089  1.00  0.00     0.011 C 
HETATM    4  C12 UNL     1      -3.874  49.570 -21.477  1.00  0.00    -0.032 C 
HETATM    5  C13 UNL     1      -4.870  48.382 -21.419  1.00  0.00     0.016 C 
HETATM    6  C14 UNL     1      -3.400  49.826 -19.987  1.00  0.00     0.004 C 
HETATM    7  C15 UNL     1      -3.055  51.258 -19.526  1.00  0.00     0.007 C 
HETATM    8  C16 UNL     1      -2.902  51.358 -17.991  1.00  0.00     0.007 C 
HETATM    9  C17 UNL     1      -2.752  50.004 -17.245  1.00  0.00     0.010 C 
HETATM   10  C18 UNL     1      -2.291  50.153 -15.764  1.00  0.00     0.018 C 
HETATM   11  C19 UNL     1      -2.477  48.833 -14.992  1.00  0.00     0.023 C 
HETATM   12  C20 UNL     1      -3.112  51.231 -15.030  1.00  0.00     0.023 C 
HETATM   13  C21 UNL     1      -0.809  50.538 -15.707  1.00  0.00     0.135 C 
HETATM   14  O2  UNL     1      -0.326  51.121 -14.735  1.00  0.00    -0.297 OA
HETATM   15  C22 UNL     1       0.062  50.210 -16.894  1.00  0.00     0.080 C 
HETATM   16  C23 UNL     1      -0.415  48.950 -17.592  1.00  0.00     0.018 C 
HETATM   17  C24 UNL     1      -1.857  49.056 -18.064  1.00  0.00    -0.026 A 
HETATM   18  C25 UNL     1      -2.485  47.788 -18.612  1.00  0.00     0.021 A 
HETATM   19  C26 UNL     1      -2.227  48.933 -19.558  1.00  0.00    -0.027 A 
HETATM   20  C27 UNL     1      -1.111  48.811 -20.570  1.00  0.00     0.011 C 
HETATM   21  C28 UNL     1      -1.621  48.415 -21.942  1.00  0.00     0.011 C 
HETATM   22  C29 UNL     1      -2.716  49.333 -22.517  1.00  0.00    -0.032 C 
HETATM   23  C30 UNL     1      -3.206  48.642 -23.814  1.00  0.00     0.016 C 
ENDROOT
BRANCH   1  24
HETATM   24  C8  UNL     1      -1.270  51.065 -23.983  1.00  0.00     0.014 C 
HETATM   25  C7  UNL     1      -0.014  51.797 -23.466  1.00  0.00     0.010 C 
HETATM   26  C6  UNL     1       0.802  52.357 -24.625  1.00  0.00     0.041 C 
HETATM   27  C4  UNL     1      -0.014  53.356 -25.489  1.00  0.00     0.085 C 
HETATM   28  O3  UNL     1      -1.432  53.170 -25.252  1.00  0.00    -0.377 OA
HETATM   29  C31 UNL     1      -1.856  51.810 -25.195  1.00  0.00     0.174 C 
BRANCH  27  30
HETATM   30  C2  UNL     1       0.314  53.171 -27.009  1.00  0.00     0.014 C 
HETATM   31  C1  UNL     1       0.946  51.810 -27.333  1.00  0.00     0.012 C 
HETATM   32  C3  UNL     1      -0.890  53.404 -27.929  1.00  0.00     0.012 C 
ENDBRANCH  27  30
BRANCH  27  33
HETATM   33  C5  UNL     1       0.262  54.814 -25.028  1.00  0.00     0.202 C 
BRANCH  33  34
HETATM   34  O1  UNL     1       0.288  55.702 -26.148  1.00  0.00    -0.398 OA
HETATM   35  H10 UNL     1       0.880  55.263 -26.791  1.00  0.00     0.209 HD
ENDBRANCH  33  34
ENDBRANCH  27  33
ENDBRANCH   1  24
TORSDOF 4
ENDMDL
MODEL 2
REMARK minimizedAffinity -9.57930851
REMARK  4 active torsions:
REMARK  status: ('A' for Active; 'I' for Inactive)
REMARK    1  A    between atoms: C2_2  and  C4_4 
REMARK    2  A    between atoms: C4_4  and  C5_5 
REMARK    3  A    between atoms: C5_5  and  O1_6 
REMARK    4  A    between atoms: C8_9  and  C9_10 
ROOT
HETATM    1  C9  UNL     1      -3.145  51.164 -22.577  1.00  0.00     0.001 C 
HETATM    2  C10 UNL     1      -4.559  51.677 -22.245  1.00  0.00     0.007 C 
HETATM    3  C11 UNL     1      -5.276  50.539 -21.511  1.00  0.00     0.011 C 
HETATM    4  C12 UNL     1      -4.200  49.481 -21.169  1.00  0.00    -0.032 C 
HETATM    5  C13 UNL     1      -4.875  48.087 -21.094  1.00  0.00     0.016 C 
HETATM    6  C14 UNL     1      -3.533  49.730 -19.754  1.00  0.00     0.004 C 
HETATM    7  C15 UNL     1      -3.442  51.163 -19.188  1.00  0.00     0.007 C 
HETATM    8  C16 UNL     1      -3.038  51.179 -17.697  1.00  0.00     0.007 C 
HETATM    9  C17 UNL     1      -2.453  49.848 -17.149  1.00  0.00     0.010 C 
HETATM   10  C18 UNL     1      -1.776  49.991 -15.753  1.00  0.00     0.018 C 
HETATM   11  C19 UNL     1      -1.516  48.610 -15.121  1.00  0.00     0.023 C 
HETATM   12  C20 UNL     1      -2.671  50.778 -14.775  1.00  0.00     0.023 C 
HETATM   13  C21 UNL     1      -0.434  50.719 -15.886  1.00  0.00     0.135 C 
HETATM   14  O2  UNL     1       0.074  51.324 -14.942  1.00  0.00    -0.297 OA
HETATM   15  C22 UNL     1       0.258  50.703 -17.227  1.00  0.00     0.080 C 
HETATM   16  C23 UNL     1      -0.042  49.422 -17.984  1.00  0.00     0.018 C 
HETATM   17  C24 UNL     1      -1.532  49.212 -18.204  1.00  0.00    -0.026 A 
HETATM   18  C25 UNL     1      -1.947  47.875 -18.791  1.00  0.00     0.021 A 
HETATM   19  C26 UNL     1      -2.130  49.117 -19.625  1.00  0.00    -0.027 A 
HETATM   20  C27 UNL     1      -1.220  49.347 -20.808  1.00  0.00     0.011 C 
HETATM   21  C28 UNL     1      -1.868  48.946 -22.120  1.00  0.00     0.011 C 
HETATM   22  C29 UNL     1      -3.228  49.613 -22.401  1.00  0.00    -0.032 C 
HETATM   23  C30 UNL     1      -3.777  48.925 -23.676  1.00  0.00     0.016 C 
ENDROOT
BRANCH   1  24
HETATM   24  C8  UNL     1      -2.501  51.751 -23.865  1.00  0.00     0.014 C 
HETATM   25  C7  UNL     1      -3.597  51.969 -24.928  1.00  0.00     0.010 C 
HETATM   26  C6  UNL     1      -2.979  52.240 -26.294  1.00  0.00     0.041 C 
HETATM   27  C4  UNL     1      -2.071  51.075 -26.771  1.00  0.00     0.085 C 
HETATM   28  O3  UNL     1      -1.694  50.248 -25.641  1.00  0.00    -0.377 OA
HETATM   29  C31 UNL     1      -1.322  50.970 -24.469  1.00  0.00     0.174 C 
BRANCH  27  30
HETATM   30  C2  UNL     1      -0.795  51.625 -27.493  1.00  0.00     0.014 C 
HETATM   31  C1  UNL     1      -0.676  53.154 -27.435  1.00  0.00     0.012 C 
HETATM   32  C3  UNL     1       0.512  50.994 -26.997  1.00  0.00     0.012 C 
ENDBRANCH  27  30
BRANCH  27  33
HETATM   33  C5  UNL     1      -2.871  50.115 -27.696  1.00  0.00     0.202 C 
BRANCH  33  34
HETATM   34  O1  UNL     1      -3.348  50.809 -28.852  1.00  0.00    -0.398 OA
HETATM   35  H10 UNL     1      -3.766  51.617 -28.492  1.00  0.00     0.209 HD
ENDBRANCH  33  34
ENDBRANCH  27  33
ENDBRANCH   1  24
TORSDOF 4
ENDMDL
MODEL 3
REMARK minimizedAffinity -9.47374058
REMARK  4 active torsions:
REMARK  status: ('A' for Active; 'I' for Inactive)
REMARK    1  A    between atoms: C2_2  and  C4_4 
REMARK    2  A    between atoms: C4_4  and  C5_5 
REMARK    3  A    between atoms: C5_5  and  O1_6 
REMARK    4  A    between atoms: C8_9  and  C9_10 
ROOT
HETATM    1  C9  UNL     1      -2.192  51.000 -23.286  1.00  0.00     0.001 C 
HETATM    2  C10 UNL     1      -2.762  52.253 -22.596  1.00  0.00     0.007 C 
HETATM    3  C11 UNL     1      -4.288  52.110 -22.622  1.00  0.00     0.011 C 
HETATM    4  C12 UNL     1      -4.592  50.660 -23.068  1.00  0.00    -0.032 C 
HETATM    5  C13 UNL     1      -5.971  50.633 -23.777  1.00  0.00     0.016 C 
HETATM    6  C14 UNL     1      -4.702  49.660 -21.844  1.00  0.00     0.004 C 
HETATM    7  C15 UNL     1      -3.911  49.940 -20.549  1.00  0.00     0.007 C 
HETATM    8  C16 UNL     1      -4.363  49.036 -19.380  1.00  0.00     0.007 C 
HETATM    9  C17 UNL     1      -5.222  47.806 -19.780  1.00  0.00     0.010 C 
HETATM   10  C18 UNL     1      -5.391  46.762 -18.635  1.00  0.00     0.018 C 
HETATM   11  C19 UNL     1      -6.502  45.749 -18.971  1.00  0.00     0.023 C 
HETATM   12  C20 UNL     1      -5.782  47.445 -17.310  1.00  0.00     0.023 C 
HETATM   13  C21 UNL     1      -4.085  45.989 -18.425  1.00  0.00     0.135 C 
HETATM   14  O2  UNL     1      -3.816  45.446 -17.353  1.00  0.00    -0.297 OA
HETATM   15  C22 UNL     1      -3.100  45.925 -19.567  1.00  0.00     0.080 C 
HETATM   16  C23 UNL     1      -3.812  45.953 -20.906  1.00  0.00     0.018 C 
HETATM   17  C24 UNL     1      -4.676  47.192 -21.081  1.00  0.00    -0.026 A 
HETATM   18  C25 UNL     1      -5.568  47.228 -22.308  1.00  0.00     0.021 A 
HETATM   19  C26 UNL     1      -4.418  48.199 -22.223  1.00  0.00    -0.027 A 
HETATM   20  C27 UNL     1      -3.214  47.990 -23.112  1.00  0.00     0.011 C 
HETATM   21  C28 UNL     1      -3.249  48.874 -24.344  1.00  0.00     0.011 C 
HETATM   22  C29 UNL     1      -3.401  50.379 -24.058  1.00  0.00    -0.032 C 
HETATM   23  C30 UNL     1      -3.598  51.052 -25.440  1.00  0.00     0.016 C 
ENDROOT
BRANCH   1  24
HETATM   24  C8  UNL     1      -0.837  51.196 -24.023  1.00  0.00     0.014 C 
HETATM   25  C7  UNL     1      -0.344  52.642 -23.807  1.00  0.00     0.010 C 
HETATM   26  C6  UNL     1       0.801  52.970 -24.757  1.00  0.00     0.041 C 
HETATM   27  C4  UNL     1       0.391  52.820 -26.246  1.00  0.00     0.085 C 
HETATM   28  O3  UNL     1      -0.800  52.000 -26.351  1.00  0.00    -0.377 OA
HETATM   29  C31 UNL     1      -0.804  50.842 -25.519  1.00  0.00     0.174 C 
BRANCH  27  30
HETATM   30  C2  UNL     1       1.559  52.195 -27.082  1.00  0.00     0.014 C 
HETATM   31  C1  UNL     1       2.406  51.191 -26.287  1.00  0.00     0.012 C 
HETATM   32  C3  UNL     1       1.096  51.544 -28.391  1.00  0.00     0.012 C 
ENDBRANCH  27  30
BRANCH  27  33
HETATM   33  C5  UNL     1      -0.040  54.196 -26.826  1.00  0.00     0.202 C 
BRANCH  33  34
HETATM   34  O1  UNL     1      -1.225  54.064 -27.615  1.00  0.00    -0.398 OA
HETATM   35  H10 UNL     1      -1.036  53.311 -28.210  1.00  0.00     0.209 HD
ENDBRANCH  33  34
ENDBRANCH  27  33
ENDBRANCH   1  24
TORSDOF 4
ENDMDL
MODEL 4
REMARK minimizedAffinity -9.42147636
REMARK  4 active torsions:
REMARK  status: ('A' for Active; 'I' for Inactive)
REMARK    1  A    between atoms: C2_2  and  C4_4 
REMARK    2  A    between atoms: C4_4  and  C5_5 
REMARK    3  A    between atoms: C5_5  and  O1_6 
REMARK    4  A    between atoms: C8_9  and  C9_10 
ROOT
HETATM    1  C9  UNL     1      -2.345  50.213 -23.660  1.00  0.00     0.001 C 
HETATM    2  C10 UNL     1      -1.613  49.605 -22.450  1.00  0.00     0.007 C 
HETATM    3  C11 UNL     1      -2.474  49.911 -21.219  1.00  0.00     0.011 C 
HETATM    4  C12 UNL     1      -3.829  50.443 -21.744  1.00  0.00    -0.032 C 
HETATM    5  C13 UNL     1      -4.441  51.391 -20.681  1.00  0.00     0.016 C 
HETATM    6  C14 UNL     1      -4.888  49.286 -21.971  1.00  0.00     0.004 C 
HETATM    7  C15 UNL     1      -4.407  47.862 -22.321  1.00  0.00     0.007 C 
HETATM    8  C16 UNL     1      -5.541  46.819 -22.215  1.00  0.00     0.007 C 
HETATM    9  C17 UNL     1      -6.980  47.400 -22.150  1.00  0.00     0.010 C 
HETATM   10  C18 UNL     1      -8.097  46.333 -22.358  1.00  0.00     0.018 C 
HETATM   11  C19 UNL     1      -9.476  46.892 -21.960  1.00  0.00     0.023 C 
HETATM   12  C20 UNL     1      -7.843  45.083 -21.493  1.00  0.00     0.023 C 
HETATM   13  C21 UNL     1      -8.157  45.910 -23.830  1.00  0.00     0.135 C 
HETATM   14  O2  UNL     1      -8.619  44.822 -24.175  1.00  0.00    -0.297 OA
HETATM   15  C22 UNL     1      -7.607  46.855 -24.869  1.00  0.00     0.080 C 
HETATM   16  C23 UNL     1      -7.776  48.300 -24.440  1.00  0.00     0.018 C 
HETATM   17  C24 UNL     1      -7.101  48.597 -23.110  1.00  0.00    -0.026 A 
HETATM   18  C25 UNL     1      -7.364  49.964 -22.507  1.00  0.00     0.021 A 
HETATM   19  C26 UNL     1      -5.974  49.646 -22.995  1.00  0.00    -0.027 A 
HETATM   20  C27 UNL     1      -5.471  50.307 -24.257  1.00  0.00     0.011 C 
HETATM   21  C28 UNL     1      -4.582  51.501 -23.967  1.00  0.00     0.011 C 
HETATM   22  C29 UNL     1      -3.383  51.208 -23.046  1.00  0.00    -0.032 C 
HETATM   23  C30 UNL     1      -2.739  52.585 -22.743  1.00  0.00     0.016 C 
ENDROOT
BRANCH   1  24
HETATM   24  C8  UNL     1      -1.435  50.686 -24.828  1.00  0.00     0.014 C 
HETATM   25  C7  UNL     1      -0.116  51.243 -24.253  1.00  0.00     0.010 C 
HETATM   26  C6  UNL     1       0.664  51.999 -25.322  1.00  0.00     0.041 C 
HETATM   27  C4  UNL     1      -0.144  53.187 -25.909  1.00  0.00     0.085 C 
HETATM   28  O3  UNL     1      -1.554  53.014 -25.626  1.00  0.00    -0.377 OA
HETATM   29  C31 UNL     1      -2.046  51.689 -25.822  1.00  0.00     0.174 C 
BRANCH  27  30
HETATM   30  C2  UNL     1       0.092  53.309 -27.452  1.00  0.00     0.014 C 
HETATM   31  C1  UNL     1       0.725  52.056 -28.072  1.00  0.00     0.012 C 
HETATM   32  C3  UNL     1      -1.171  53.682 -28.238  1.00  0.00     0.012 C 
ENDBRANCH  27  30
BRANCH  27  33
HETATM   33  C5  UNL     1       0.234  54.506 -25.177  1.00  0.00     0.202 C 
BRANCH  33  34
HETATM   34  O1  UNL     1       0.255  55.604 -26.092  1.00  0.00    -0.398 OA
HETATM   35  H10 UNL     1       0.790  55.281 -26.844  1.00  0.00     0.209 HD
ENDBRANCH  33  34
ENDBRANCH  27  33
ENDBRANCH   1  24
TORSDOF 4
ENDMDL
MODEL 5
REMARK minimizedAffinity -9.23492908
REMARK  4 active torsions:
REMARK  status: ('A' for Active; 'I' for Inactive)
REMARK    1  A    between atoms: C2_2  and  C4_4 
REMARK    2  A    between atoms: C4_4  and  C5_5 
REMARK    3  A    between atoms: C5_5  and  O1_6 
REMARK    4  A    between atoms: C8_9  and  C9_10 
ROOT
HETATM    1  C9  UNL     1      -1.138  49.456 -18.769  1.00  0.00     0.001 C 
HETATM    2  C10 UNL     1      -1.805  48.068 -18.796  1.00  0.00     0.007 C 
HETATM    3  C11 UNL     1      -3.242  48.283 -19.283  1.00  0.00     0.011 C 
HETATM    4  C12 UNL     1      -3.324  49.738 -19.801  1.00  0.00    -0.032 C 
HETATM    5  C13 UNL     1      -4.782  50.245 -19.642  1.00  0.00     0.016 C 
HETATM    6  C14 UNL     1      -2.980  49.853 -21.343  1.00  0.00     0.004 C 
HETATM    7  C15 UNL     1      -2.021  48.833 -21.994  1.00  0.00     0.007 C 
HETATM    8  C16 UNL     1      -2.034  48.919 -23.537  1.00  0.00     0.007 C 
HETATM    9  C17 UNL     1      -2.684  50.200 -24.129  1.00  0.00     0.010 C 
HETATM   10  C18 UNL     1      -2.403  50.398 -25.649  1.00  0.00     0.018 C 
HETATM   11  C19 UNL     1      -3.326  51.478 -26.245  1.00  0.00     0.023 C 
HETATM   12  C20 UNL     1      -2.653  49.098 -26.438  1.00  0.00     0.023 C 
HETATM   13  C21 UNL     1      -0.950  50.835 -25.867  1.00  0.00     0.135 C 
HETATM   14  O2  UNL     1      -0.368  50.644 -26.934  1.00  0.00    -0.297 OA
HETATM   15  C22 UNL     1      -0.222  51.493 -24.721  1.00  0.00     0.080 C 
HETATM   16  C23 UNL     1      -1.176  52.282 -23.846  1.00  0.00     0.018 C 
HETATM   17  C24 UNL     1      -2.294  51.421 -23.278  1.00  0.00    -0.026 A 
HETATM   18  C25 UNL     1      -3.401  52.149 -22.539  1.00  0.00     0.021 A 
HETATM   19  C26 UNL     1      -2.483  51.246 -21.755  1.00  0.00    -0.027 A 
HETATM   20  C27 UNL     1      -1.464  51.864 -20.826  1.00  0.00     0.011 C 
HETATM   21  C28 UNL     1      -1.924  51.857 -19.381  1.00  0.00     0.011 C 
HETATM   22  C29 UNL     1      -2.323  50.474 -18.834  1.00  0.00    -0.032 C 
HETATM   23  C30 UNL     1      -2.926  50.735 -17.431  1.00  0.00     0.016 C 
ENDROOT
BRANCH   1  24
HETATM   24  C8  UNL     1      -0.028  49.648 -17.698  1.00  0.00     0.014 C 
HETATM   25  C7  UNL     1      -0.564  49.199 -16.322  1.00  0.00     0.010 C 
HETATM   26  C6  UNL     1       0.364  49.658 -15.204  1.00  0.00     0.041 C 
HETATM   27  C4  UNL     1       0.532  51.201 -15.175  1.00  0.00     0.085 C 
HETATM   28  O3  UNL     1       0.137  51.765 -16.450  1.00  0.00    -0.377 OA
HETATM   29  C31 UNL     1       0.600  51.048 -17.592  1.00  0.00     0.174 C 
BRANCH  27  30
HETATM   30  C2  UNL     1       2.012  51.591 -14.841  1.00  0.00     0.014 C 
HETATM   31  C1  UNL     1       2.856  50.408 -14.348  1.00  0.00     0.012 C 
HETATM   32  C3  UNL     1       2.739  52.287 -15.999  1.00  0.00     0.012 C 
ENDBRANCH  27  30
BRANCH  27  33
HETATM   33  C5  UNL     1      -0.458  51.829 -14.155  1.00  0.00     0.202 C 
BRANCH  33  34
HETATM   34  O1  UNL     1       0.108  52.996 -13.553  1.00  0.00    -0.398 OA
HETATM   35  H10 UNL     1       1.000  52.713 -13.271  1.00  0.00     0.209 HD
ENDBRANCH  33  34
ENDBRANCH  27  33
ENDBRANCH   1  24
TORSDOF 4
ENDMDL
MODEL 6
REMARK minimizedAffinity -8.97351551
REMARK  4 active torsions:
REMARK  status: ('A' for Active; 'I' for Inactive)
REMARK    1  A    between atoms: C2_2  and  C4_4 
REMARK    2  A    between atoms: C4_4  and  C5_5 
REMARK    3  A    between atoms: C5_5  and  O1_6 
REMARK    4  A    between atoms: C8_9  and  C9_10 
ROOT
HETATM    1  C9  UNL     1      -3.030  48.898 -21.850  1.00  0.00     0.001 C 
HETATM    2  C10 UNL     1      -3.826  48.021 -22.834  1.00  0.00     0.007 C 
HETATM    3  C11 UNL     1      -4.643  48.976 -23.710  1.00  0.00     0.011 C 
HETATM    4  C12 UNL     1      -4.114  50.403 -23.427  1.00  0.00    -0.032 C 
HETATM    5  C13 UNL     1      -5.258  51.419 -23.678  1.00  0.00     0.016 C 
HETATM    6  C14 UNL     1      -2.932  50.814 -24.398  1.00  0.00     0.004 C 
HETATM    7  C15 UNL     1      -2.006  49.729 -24.985  1.00  0.00     0.007 C 
HETATM    8  C16 UNL     1      -1.113  50.273 -26.123  1.00  0.00     0.007 C 
HETATM    9  C17 UNL     1      -1.028  51.821 -26.223  1.00  0.00     0.010 C 
HETATM   10  C18 UNL     1       0.108  52.325 -27.163  1.00  0.00     0.018 C 
HETATM   11  C19 UNL     1      -0.063  53.823 -27.481  1.00  0.00     0.023 C 
HETATM   12  C20 UNL     1       0.097  51.570 -28.507  1.00  0.00     0.023 C 
HETATM   13  C21 UNL     1       1.474  52.127 -26.498  1.00  0.00     0.135 C 
HETATM   14  O2  UNL     1       2.510  52.034 -27.156  1.00  0.00    -0.297 OA
HETATM   15  C22 UNL     1       1.528  52.022 -24.994  1.00  0.00     0.080 C 
HETATM   16  C23 UNL     1       0.429  52.843 -24.346  1.00  0.00     0.018 C 
HETATM   17  C24 UNL     1      -0.959  52.429 -24.812  1.00  0.00    -0.026 A 
HETATM   18  C25 UNL     1      -2.113  53.306 -24.363  1.00  0.00     0.021 A 
HETATM   19  C26 UNL     1      -2.018  51.904 -23.819  1.00  0.00    -0.027 A 
HETATM   20  C27 UNL     1      -1.617  51.702 -22.376  1.00  0.00     0.011 C 
HETATM   21  C28 UNL     1      -2.814  51.461 -21.475  1.00  0.00     0.011 C 
HETATM   22  C29 UNL     1      -3.726  50.297 -21.905  1.00  0.00    -0.032 C 
HETATM   23  C30 UNL     1      -4.956  50.358 -20.965  1.00  0.00     0.016 C 
ENDROOT
BRANCH   1  24
HETATM   24  C8  UNL     1      -2.726  48.253 -20.469  1.00  0.00     0.014 C 
HETATM   25  C7  UNL     1      -3.942  48.444 -19.538  1.00  0.00     0.010 C 
HETATM   26  C6  UNL     1      -3.576  48.113 -18.096  1.00  0.00     0.041 C 
HETATM   27  C4  UNL     1      -2.420  49.002 -17.564  1.00  0.00     0.085 C 
HETATM   28  O3  UNL     1      -1.701  49.595 -18.675  1.00  0.00    -0.377 OA
HETATM   29  C31 UNL     1      -1.439  48.707 -19.760  1.00  0.00     0.174 C 
BRANCH  27  30
HETATM   30  C2  UNL     1      -1.446  48.166 -16.667  1.00  0.00     0.014 C 
HETATM   31  C1  UNL     1      -0.190  48.942 -16.247  1.00  0.00     0.012 C 
HETATM   32  C3  UNL     1      -2.116  47.572 -15.422  1.00  0.00     0.012 C 
ENDBRANCH  27  30
BRANCH  27  33
HETATM   33  C5  UNL     1      -2.994  50.220 -16.787  1.00  0.00     0.202 C 
BRANCH  33  34
HETATM   34  O1  UNL     1      -2.928  51.405 -17.584  1.00  0.00    -0.398 OA
HETATM   35  H10 UNL     1      -2.011  51.418 -17.922  1.00  0.00     0.209 HD
ENDBRANCH  33  34
ENDBRANCH  27  33
ENDBRANCH   1  24
TORSDOF 4
ENDMDL
MODEL 7
REMARK minimizedAffinity -8.8389473
REMARK  4 active torsions:
REMARK  status: ('A' for Active; 'I' for Inactive)
REMARK    1  A    between atoms: C2_2  and  C4_4 
REMARK    2  A    between atoms: C4_4  and  C5_5 
REMARK    3  A    between atoms: C5_5  and  O1_6 
REMARK    4  A    between atoms: C8_9  and  C9_10 
ROOT
HETATM    1  C9  UNL     1      -7.622  49.185 -24.112  1.00  0.00     0.001 C 
HETATM    2  C10 UNL     1      -7.599  49.822 -22.710  1.00  0.00     0.007 C 
HETATM    3  C11 UNL     1      -6.351  49.280 -22.004  1.00  0.00     0.011 C 
HETATM    4  C12 UNL     1      -5.508  48.558 -23.082  1.00  0.00    -0.032 C 
HETATM    5  C13 UNL     1      -4.674  47.441 -22.401  1.00  0.00     0.016 C 
HETATM    6  C14 UNL     1      -4.467  49.524 -23.786  1.00  0.00     0.004 C 
HETATM    7  C15 UNL     1      -4.774  51.032 -23.899  1.00  0.00     0.007 C 
HETATM    8  C16 UNL     1      -3.539  51.849 -24.340  1.00  0.00     0.007 C 
HETATM    9  C17 UNL     1      -2.365  51.020 -24.931  1.00  0.00     0.010 C 
HETATM   10  C18 UNL     1      -1.284  51.886 -25.643  1.00  0.00     0.018 C 
HETATM   11  C19 UNL     1      -0.007  51.066 -25.910  1.00  0.00     0.023 C 
HETATM   12  C20 UNL     1      -0.876  53.095 -24.777  1.00  0.00     0.023 C 
HETATM   13  C21 UNL     1      -1.815  52.399 -26.986  1.00  0.00     0.135 C 
HETATM   14  O2  UNL     1      -1.362  53.411 -27.520  1.00  0.00    -0.297 OA
HETATM   15  C22 UNL     1      -2.944  51.644 -27.643  1.00  0.00     0.080 C 
HETATM   16  C23 UNL     1      -2.877  50.164 -27.317  1.00  0.00     0.018 C 
HETATM   17  C24 UNL     1      -2.921  49.895 -25.821  1.00  0.00    -0.026 A 
HETATM   18  C25 UNL     1      -2.678  48.462 -25.384  1.00  0.00     0.021 A 
HETATM   19  C26 UNL     1      -4.051  49.054 -25.187  1.00  0.00    -0.027 A 
HETATM   20  C27 UNL     1      -5.185  48.587 -26.070  1.00  0.00     0.011 C 
HETATM   21  C28 UNL     1      -6.055  47.550 -25.386  1.00  0.00     0.011 C 
HETATM   22  C29 UNL     1      -6.630  47.981 -24.024  1.00  0.00    -0.032 C 
HETATM   23  C30 UNL     1      -7.315  46.720 -23.439  1.00  0.00     0.016 C 
ENDROOT
BRANCH   1  24
HETATM   24  C8  UNL     1      -9.034  48.966 -24.727  1.00  0.00     0.014 C 
HETATM   25  C7  UNL     1      -9.491  47.519 -24.449  1.00  0.00     0.010 C 
HETATM   26  C6  UNL     1     -10.711  47.166 -25.292  1.00  0.00     0.041 C 
HETATM   27  C4  UNL     1     -10.432  47.299 -26.813  1.00  0.00     0.085 C 
HETATM   28  O3  UNL     1      -9.263  48.127 -27.031  1.00  0.00    -0.377 OA
HETATM   29  C31 UNL     1      -9.199  49.298 -26.219  1.00  0.00     0.174 C 
BRANCH  27  30
HETATM   30  C2  UNL     1     -11.674  47.901 -27.553  1.00  0.00     0.014 C 
HETATM   31  C1  UNL     1     -11.634  47.695 -29.074  1.00  0.00     0.012 C 
HETATM   32  C3  UNL     1     -13.016  47.398 -27.008  1.00  0.00     0.012 C 
ENDBRANCH  27  30
BRANCH  27  33
HETATM   33  C5  UNL     1     -10.038  45.918 -27.409  1.00  0.00     0.202 C 
BRANCH  33  34
HETATM   34  O1  UNL     1      -8.621  45.823 -27.570  1.00  0.00    -0.398 OA
HETATM   35  H10 UNL     1      -8.374  46.650 -28.028  1.00  0.00     0.209 HD
ENDBRANCH  33  34
ENDBRANCH  27  33
ENDBRANCH   1  24
TORSDOF 4
ENDMDL
MODEL 8
REMARK minimizedAffinity -8.83500004
REMARK  4 active torsions:
REMARK  status: ('A' for Active; 'I' for Inactive)
REMARK    1  A    between atoms: C2_2  and  C4_4 
REMARK    2  A    between atoms: C4_4  and  C5_5 
REMARK    3  A    between atoms: C5_5  and  O1_6 
REMARK    4  A    between atoms: C8_9  and  C9_10 
ROOT
HETATM    1  C9  UNL     1      -5.030  49.430 -21.213  1.00  0.00     0.001 C 
HETATM    2  C10 UNL     1      -4.056  49.785 -20.075  1.00  0.00     0.007 C 
HETATM    3  C11 UNL     1      -2.755  49.025 -20.358  1.00  0.00     0.011 C 
HETATM    4  C12 UNL     1      -2.874  48.459 -21.793  1.00  0.00    -0.032 C 
HETATM    5  C13 UNL     1      -2.013  47.173 -21.896  1.00  0.00     0.016 C 
HETATM    6  C14 UNL     1      -2.315  49.459 -22.887  1.00  0.00     0.004 C 
HETATM    7  C15 UNL     1      -2.355  50.980 -22.631  1.00  0.00     0.007 C 
HETATM    8  C16 UNL     1      -1.512  51.769 -23.658  1.00  0.00     0.007 C 
HETATM    9  C17 UNL     1      -1.099  50.980 -24.931  1.00  0.00     0.010 C 
HETATM   10  C18 UNL     1      -0.530  51.881 -26.068  1.00  0.00     0.018 C 
HETATM   11  C19 UNL     1       0.159  51.032 -27.153  1.00  0.00     0.023 C 
HETATM   12  C20 UNL     1       0.522  52.869 -25.525  1.00  0.00     0.023 C 
HETATM   13  C21 UNL     1      -1.660  52.679 -26.728  1.00  0.00     0.135 C 
HETATM   14  O2  UNL     1      -1.449  53.736 -27.321  1.00  0.00    -0.297 OA
HETATM   15  C22 UNL     1      -3.069  52.150 -26.614  1.00  0.00     0.080 C 
HETATM   16  C23 UNL     1      -3.083  50.635 -26.554  1.00  0.00     0.018 C 
HETATM   17  C24 UNL     1      -2.266  50.090 -25.392  1.00  0.00    -0.026 A 
HETATM   18  C25 UNL     1      -2.068  48.587 -25.349  1.00  0.00     0.021 A 
HETATM   19  C26 UNL     1      -2.915  49.233 -24.283  1.00  0.00    -0.027 A 
HETATM   20  C27 UNL     1      -4.412  49.030 -24.311  1.00  0.00     0.011 C 
HETATM   21  C28 UNL     1      -4.864  47.951 -23.345  1.00  0.00     0.011 C 
HETATM   22  C29 UNL     1      -4.417  48.159 -21.886  1.00  0.00    -0.032 C 
HETATM   23  C30 UNL     1      -4.823  46.866 -21.134  1.00  0.00     0.016 C 
ENDROOT
BRANCH   1  24
HETATM   24  C8  UNL     1      -6.538  49.439 -20.836  1.00  0.00     0.014 C 
HETATM   25  C7  UNL     1      -6.692  49.078 -19.344  1.00  0.00     0.010 C 
HETATM   26  C6  UNL     1      -8.147  48.769 -19.010  1.00  0.00     0.041 C 
HETATM   27  C4  UNL     1      -8.705  47.589 -19.851  1.00  0.00     0.085 C 
HETATM   28  O3  UNL     1      -7.873  47.377 -21.019  1.00  0.00    -0.377 OA
HETATM   29  C31 UNL     1      -7.473  48.569 -21.693  1.00  0.00     0.174 C 
BRANCH  27  30
HETATM   30  C2  UNL     1     -10.186  47.865 -20.278  1.00  0.00     0.014 C 
HETATM   31  C1  UNL     1     -10.768  46.777 -21.190  1.00  0.00     0.012 C 
HETATM   32  C3  UNL     1     -11.133  48.096 -19.094  1.00  0.00     0.012 C 
ENDBRANCH  27  30
BRANCH  27  33
HETATM   33  C5  UNL     1      -8.589  46.260 -19.053  1.00  0.00     0.202 C 
BRANCH  33  34
HETATM   34  O1  UNL     1      -7.275  45.710 -19.175  1.00  0.00    -0.398 OA
HETATM   35  H10 UNL     1      -7.093  45.731 -20.136  1.00  0.00     0.209 HD
ENDBRANCH  33  34
ENDBRANCH  27  33
ENDBRANCH   1  24
TORSDOF 4
ENDMDL
MODEL 9
REMARK minimizedAffinity -8.71625233
REMARK  4 active torsions:
REMARK  status: ('A' for Active; 'I' for Inactive)
REMARK    1  A    between atoms: C2_2  and  C4_4 
REMARK    2  A    between atoms: C4_4  and  C5_5 
REMARK    3  A    between atoms: C5_5  and  O1_6 
REMARK    4  A    between atoms: C8_9  and  C9_10 
ROOT
HETATM    1  C9  UNL     1      -1.028  50.487 -18.494  1.00  0.00     0.001 C 
HETATM    2  C10 UNL     1      -2.021  51.611 -18.149  1.00  0.00     0.007 C 
HETATM    3  C11 UNL     1      -2.778  51.938 -19.441  1.00  0.00     0.011 C 
HETATM    4  C12 UNL     1      -2.429  50.824 -20.456  1.00  0.00    -0.032 C 
HETATM    5  C13 UNL     1      -2.539  51.402 -21.891  1.00  0.00     0.016 C 
HETATM    6  C14 UNL     1      -3.438  49.604 -20.388  1.00  0.00     0.004 C 
HETATM    7  C15 UNL     1      -4.153  49.271 -19.062  1.00  0.00     0.007 C 
HETATM    8  C16 UNL     1      -5.301  48.255 -19.256  1.00  0.00     0.007 C 
HETATM    9  C17 UNL     1      -5.298  47.493 -20.609  1.00  0.00     0.010 C 
HETATM   10  C18 UNL     1      -6.267  46.273 -20.642  1.00  0.00     0.018 C 
HETATM   11  C19 UNL     1      -6.468  45.766 -22.083  1.00  0.00     0.023 C 
HETATM   12  C20 UNL     1      -7.657  46.648 -20.092  1.00  0.00     0.023 C 
HETATM   13  C21 UNL     1      -5.699  45.122 -19.804  1.00  0.00     0.135 C 
HETATM   14  O2  UNL     1      -6.423  44.251 -19.321  1.00  0.00    -0.297 OA
HETATM   15  C22 UNL     1      -4.212  45.087 -19.552  1.00  0.00     0.080 C 
HETATM   16  C23 UNL     1      -3.445  45.691 -20.713  1.00  0.00     0.018 C 
HETATM   17  C24 UNL     1      -3.854  47.129 -20.997  1.00  0.00    -0.026 A 
HETATM   18  C25 UNL     1      -3.277  47.762 -22.249  1.00  0.00     0.021 A 
HETATM   19  C26 UNL     1      -2.839  48.288 -20.906  1.00  0.00    -0.027 A 
HETATM   20  C27 UNL     1      -1.440  47.986 -20.421  1.00  0.00     0.011 C 
HETATM   21  C28 UNL     1      -0.488  49.145 -20.654  1.00  0.00     0.011 C 
HETATM   22  C29 UNL     1      -0.944  50.488 -20.055  1.00  0.00    -0.032 C 
HETATM   23  C30 UNL     1       0.070  51.542 -20.569  1.00  0.00     0.016 C 
ENDROOT
BRANCH   1  24
HETATM   24  C8  UNL     1       0.285  50.470 -17.661  1.00  0.00     0.014 C 
HETATM   25  C7  UNL     1       0.063  49.643 -16.378  1.00  0.00     0.010 C 
HETATM   26  C6  UNL     1       1.205  49.858 -15.392  1.00  0.00     0.041 C 
HETATM   27  C4  UNL     1       1.356  51.348 -14.983  1.00  0.00     0.085 C 
HETATM   28  O3  UNL     1       0.688  52.195 -15.950  1.00  0.00    -0.377 OA
HETATM   29  C31 UNL     1       0.904  51.834 -17.313  1.00  0.00     0.174 C 
BRANCH  27  30
HETATM   30  C2  UNL     1       2.868  51.740 -14.866  1.00  0.00     0.014 C 
HETATM   31  C1  UNL     1       3.750  50.605 -14.328  1.00  0.00     0.012 C 
HETATM   32  C3  UNL     1       3.466  52.272 -16.174  1.00  0.00     0.012 C 
ENDBRANCH  27  30
BRANCH  27  33
HETATM   33  C5  UNL     1       0.601  51.618 -13.651  1.00  0.00     0.202 C 
BRANCH  33  34
HETATM   34  O1  UNL     1       0.296  53.008 -13.516  1.00  0.00    -0.398 OA
HETATM   35  H10 UNL     1       1.141  53.461 -13.710  1.00  0.00     0.209 HD
ENDBRANCH  33  34
ENDBRANCH  27  33
ENDBRANCH   1  24
TORSDOF 4
ENDMDL
