MODEL 1
REMARK minimizedAffinity -6.71168756
REMARK  7 active torsions:
REMARK  status: ('A' for Active; 'I' for Inactive)
REMARK    1  A    between atoms: C2_2  and  N1_3 
REMARK    2  A    between atoms: N1_3  and  C3_4 
REMARK    3  A    between atoms: N1_3  and  C5_6 
REMARK    4  A    between atoms: C5_6  and  C6_7 
REMARK    5  A    between atoms: C6_7  and  N2_8 
REMARK       I    between atoms: N2_8  and  C7_9 
REMARK    6  A    between atoms: C7_9  and  C8_11 
REMARK    7  A    between atoms: C11_14  and  N3_15 
REMARK       I    between atoms: N3_15  and  C12_16 
ROOT
HETATM    1  C8  UNL     1       0.749  53.281 -22.757  1.00  0.00     0.032 A 
HETATM    2  C9  UNL     1       0.260  52.185 -22.040  1.00  0.00     0.019 A 
HETATM    3  C10 UNL     1       0.481  52.088 -20.659  1.00  0.00     0.030 A 
HETATM    4  C11 UNL     1       1.183  53.085 -19.979  1.00  0.00     0.034 A 
HETATM    5  C14 UNL     1       1.656  54.189 -20.700  1.00  0.00     0.030 A 
HETATM    6  C15 UNL     1       1.439  54.289 -22.077  1.00  0.00     0.019 A 
ENDROOT
BRANCH   1   7
HETATM    7  C7  UNL     1       0.540  53.429 -24.226  1.00  0.00     0.251 C 
HETATM    8  N2  UNL     1       0.274  52.270 -24.926  1.00  0.00    -0.355 N 
HETATM    9  H15 UNL     1       0.568  51.399 -24.500  1.00  0.00     0.162 HD
HETATM   10  O1  UNL     1       0.642  54.530 -24.754  1.00  0.00    -0.268 OA
BRANCH   8  11
HETATM   11  C6  UNL     1       0.304  52.264 -26.379  1.00  0.00     0.153 C 
BRANCH  11  12
HETATM   12  C5  UNL     1      -0.183  50.915 -26.944  1.00  0.00     0.292 C 
BRANCH  12  13
HETATM   13  N1  UNL     1      -1.661  50.784 -26.978  1.00  0.00     0.089 N 
BRANCH  13  14
HETATM   14  C2  UNL     1      -2.322  52.100 -26.940  1.00  0.00     0.268 C 
HETATM   15  C1  UNL     1      -3.293  52.226 -25.771  1.00  0.00     0.037 C 
ENDBRANCH  13  14
BRANCH  13  16
HETATM   16  C3  UNL     1      -2.196  49.884 -25.942  1.00  0.00     0.268 C 
HETATM   17  C4  UNL     1      -2.821  48.579 -26.426  1.00  0.00     0.037 C 
ENDBRANCH  13  16
ENDBRANCH  12  13
ENDBRANCH  11  12
ENDBRANCH   8  11
ENDBRANCH   1   7
BRANCH   4  18
HETATM   18  N3  UNL     1       1.445  53.060 -18.594  1.00  0.00    -0.328 N 
HETATM   19  C12 UNL     1       0.838  52.269 -17.635  1.00  0.00     0.218 C 
HETATM   20  C13 UNL     1       1.387  52.537 -16.257  1.00  0.00     0.117 C 
HETATM   21  O2  UNL     1      -0.039  51.432 -17.814  1.00  0.00    -0.274 OA
HETATM   22  H18 UNL     1       2.165  53.693 -18.269  1.00  0.00     0.169 HD
ENDBRANCH   4  18
TORSDOF 7
ENDMDL
MODEL 2
REMARK minimizedAffinity -6.70786333
REMARK  7 active torsions:
REMARK  status: ('A' for Active; 'I' for Inactive)
REMARK    1  A    between atoms: C2_2  and  N1_3 
REMARK    2  A    between atoms: N1_3  and  C3_4 
REMARK    3  A    between atoms: N1_3  and  C5_6 
REMARK    4  A    between atoms: C5_6  and  C6_7 
REMARK    5  A    between atoms: C6_7  and  N2_8 
REMARK       I    between atoms: N2_8  and  C7_9 
REMARK    6  A    between atoms: C7_9  and  C8_11 
REMARK    7  A    between atoms: C11_14  and  N3_15 
REMARK       I    between atoms: N3_15  and  C12_16 
ROOT
HETATM    1  C8  UNL     1       0.197  52.641 -22.073  1.00  0.00     0.032 A 
HETATM    2  C9  UNL     1       1.148  53.546 -21.593  1.00  0.00     0.019 A 
HETATM    3  C10 UNL     1       1.418  53.625 -20.219  1.00  0.00     0.030 A 
HETATM    4  C11 UNL     1       0.749  52.798 -19.314  1.00  0.00     0.034 A 
HETATM    5  C14 UNL     1      -0.191  51.882 -19.803  1.00  0.00     0.030 A 
HETATM    6  C15 UNL     1      -0.464  51.801 -21.172  1.00  0.00     0.019 A 
ENDROOT
BRANCH   1   7
HETATM    7  C7  UNL     1      -0.125  52.520 -23.524  1.00  0.00     0.251 C 
HETATM    8  N2  UNL     1      -0.930  51.459 -23.886  1.00  0.00    -0.355 N 
HETATM    9  H15 UNL     1      -0.963  50.671 -23.250  1.00  0.00     0.162 HD
HETATM   10  O1  UNL     1       0.347  53.317 -24.328  1.00  0.00    -0.268 OA
BRANCH   8  11
HETATM   11  C6  UNL     1      -1.096  51.105 -25.286  1.00  0.00     0.153 C 
BRANCH  11  12
HETATM   12  C5  UNL     1       0.267  50.955 -25.990  1.00  0.00     0.292 C 
BRANCH  12  13
HETATM   13  N1  UNL     1       0.232  51.304 -27.432  1.00  0.00     0.089 N 
BRANCH  13  14
HETATM   14  C2  UNL     1       1.564  51.689 -27.929  1.00  0.00     0.268 C 
HETATM   15  C1  UNL     1       2.637  51.584 -26.849  1.00  0.00     0.037 C 
ENDBRANCH  13  14
BRANCH  13  16
HETATM   16  C3  UNL     1      -0.780  52.321 -27.766  1.00  0.00     0.268 C 
HETATM   17  C4  UNL     1      -0.311  53.773 -27.782  1.00  0.00     0.037 C 
ENDBRANCH  13  16
ENDBRANCH  12  13
ENDBRANCH  11  12
ENDBRANCH   8  11
ENDBRANCH   1   7
BRANCH   4  18
HETATM   18  N3  UNL     1       0.965  52.818 -17.921  1.00  0.00    -0.328 N 
HETATM   19  C12 UNL     1       0.912  51.750 -17.044  1.00  0.00     0.218 C 
HETATM   20  C13 UNL     1       1.196  52.175 -15.625  1.00  0.00     0.117 C 
HETATM   21  O2  UNL     1       0.675  50.579 -17.317  1.00  0.00    -0.274 OA
HETATM   22  H18 UNL     1       1.189  53.721 -17.521  1.00  0.00     0.169 HD
ENDBRANCH   4  18
TORSDOF 7
ENDMDL
MODEL 3
REMARK minimizedAffinity -6.5545826
REMARK  7 active torsions:
REMARK  status: ('A' for Active; 'I' for Inactive)
REMARK    1  A    between atoms: C2_2  and  N1_3 
REMARK    2  A    between atoms: N1_3  and  C3_4 
REMARK    3  A    between atoms: N1_3  and  C5_6 
REMARK    4  A    between atoms: C5_6  and  C6_7 
REMARK    5  A    between atoms: C6_7  and  N2_8 
REMARK       I    between atoms: N2_8  and  C7_9 
REMARK    6  A    between atoms: C7_9  and  C8_11 
REMARK    7  A    between atoms: C11_14  and  N3_15 
REMARK       I    between atoms: N3_15  and  C12_16 
ROOT
HETATM    1  C8  UNL     1       0.262  52.663 -22.043  1.00  0.00     0.032 A 
HETATM    2  C9  UNL     1       0.691  53.240 -23.242  1.00  0.00     0.019 A 
HETATM    3  C10 UNL     1       0.159  52.809 -24.465  1.00  0.00     0.030 A 
HETATM    4  C11 UNL     1      -0.811  51.804 -24.505  1.00  0.00     0.034 A 
HETATM    5  C14 UNL     1      -1.249  51.241 -23.300  1.00  0.00     0.030 A 
HETATM    6  C15 UNL     1      -0.721  51.668 -22.078  1.00  0.00     0.019 A 
ENDROOT
BRANCH   1   7
HETATM    7  C7  UNL     1       0.797  53.087 -20.718  1.00  0.00     0.251 C 
HETATM    8  N2  UNL     1       0.477  52.284 -19.643  1.00  0.00    -0.355 N 
HETATM    9  H15 UNL     1      -0.340  51.693 -19.740  1.00  0.00     0.162 HD
HETATM   10  O1  UNL     1       1.452  54.120 -20.621  1.00  0.00    -0.268 OA
BRANCH   8  11
HETATM   11  C6  UNL     1       0.730  52.736 -18.285  1.00  0.00     0.153 C 
BRANCH  11  12
HETATM   12  C5  UNL     1       0.805  51.549 -17.305  1.00  0.00     0.292 C 
BRANCH  12  13
HETATM   13  N1  UNL     1       1.772  51.752 -16.198  1.00  0.00     0.089 N 
BRANCH  13  14
HETATM   14  C2  UNL     1       1.090  52.104 -14.941  1.00  0.00     0.268 C 
HETATM   15  C1  UNL     1       1.565  51.254 -13.767  1.00  0.00     0.037 C 
ENDBRANCH  13  14
BRANCH  13  16
HETATM   16  C3  UNL     1       2.838  52.717 -16.519  1.00  0.00     0.268 C 
HETATM   17  C4  UNL     1       4.254  52.338 -16.095  1.00  0.00     0.037 C 
ENDBRANCH  13  16
ENDBRANCH  12  13
ENDBRANCH  11  12
ENDBRANCH   8  11
ENDBRANCH   1   7
BRANCH   4  18
HETATM   18  N3  UNL     1      -1.393  51.318 -25.693  1.00  0.00    -0.328 N 
HETATM   19  C12 UNL     1      -2.476  51.839 -26.376  1.00  0.00     0.218 C 
HETATM   20  C13 UNL     1      -2.806  51.031 -27.606  1.00  0.00     0.117 C 
HETATM   21  O2  UNL     1      -3.130  52.833 -26.080  1.00  0.00    -0.274 OA
HETATM   22  H18 UNL     1      -0.962  50.493 -26.091  1.00  0.00     0.169 HD
ENDBRANCH   4  18
TORSDOF 7
ENDMDL
MODEL 4
REMARK minimizedAffinity -6.50991583
REMARK  7 active torsions:
REMARK  status: ('A' for Active; 'I' for Inactive)
REMARK    1  A    between atoms: C2_2  and  N1_3 
REMARK    2  A    between atoms: N1_3  and  C3_4 
REMARK    3  A    between atoms: N1_3  and  C5_6 
REMARK    4  A    between atoms: C5_6  and  C6_7 
REMARK    5  A    between atoms: C6_7  and  N2_8 
REMARK       I    between atoms: N2_8  and  C7_9 
REMARK    6  A    between atoms: C7_9  and  C8_11 
REMARK    7  A    between atoms: C11_14  and  N3_15 
REMARK       I    between atoms: N3_15  and  C12_16 
ROOT
HETATM    1  C8  UNL     1       0.521  52.844 -22.622  1.00  0.00     0.032 A 
HETATM    2  C9  UNL     1      -0.057  51.869 -21.803  1.00  0.00     0.019 A 
HETATM    3  C10 UNL     1       0.152  51.895 -20.417  1.00  0.00     0.030 A 
HETATM    4  C11 UNL     1       0.931  52.896 -19.833  1.00  0.00     0.034 A 
HETATM    5  C14 UNL     1       1.494  53.880 -20.656  1.00  0.00     0.030 A 
HETATM    6  C15 UNL     1       1.288  53.857 -22.039  1.00  0.00     0.019 A 
ENDROOT
BRANCH   1   7
HETATM    7  C7  UNL     1       0.327  52.859 -24.100  1.00  0.00     0.251 C 
HETATM    8  N2  UNL     1      -0.204  51.716 -24.659  1.00  0.00    -0.355 N 
HETATM    9  H15 UNL     1      -0.107  50.858 -24.129  1.00  0.00     0.162 HD
HETATM   10  O1  UNL     1       0.667  53.839 -24.755  1.00  0.00    -0.268 OA
BRANCH   8  11
HETATM   11  C6  UNL     1      -0.198  51.530 -26.101  1.00  0.00     0.153 C 
BRANCH  11  12
HETATM   12  C5  UNL     1      -1.629  51.560 -26.675  1.00  0.00     0.292 C 
BRANCH  12  13
HETATM   13  N1  UNL     1      -2.661  51.088 -25.720  1.00  0.00     0.089 N 
BRANCH  13  14
HETATM   14  C2  UNL     1      -3.472  50.000 -26.294  1.00  0.00     0.268 C 
HETATM   15  C1  UNL     1      -3.050  48.628 -25.776  1.00  0.00     0.037 C 
ENDBRANCH  13  14
BRANCH  13  16
HETATM   16  C3  UNL     1      -3.511  52.168 -25.191  1.00  0.00     0.268 C 
HETATM   17  C4  UNL     1      -4.703  51.745 -24.337  1.00  0.00     0.037 C 
ENDBRANCH  13  16
ENDBRANCH  12  13
ENDBRANCH  11  12
ENDBRANCH   8  11
ENDBRANCH   1   7
BRANCH   4  18
HETATM   18  N3  UNL     1       1.187  52.990 -18.450  1.00  0.00    -0.328 N 
HETATM   19  C12 UNL     1       0.883  52.061 -17.472  1.00  0.00     0.218 C 
HETATM   20  C13 UNL     1       1.310  52.527 -16.103  1.00  0.00     0.117 C 
HETATM   21  O2  UNL     1       0.341  50.973 -17.627  1.00  0.00    -0.274 OA
HETATM   22  H18 UNL     1       1.650  53.835 -18.142  1.00  0.00     0.169 HD
ENDBRANCH   4  18
TORSDOF 7
ENDMDL
MODEL 5
REMARK minimizedAffinity -6.24464083
REMARK  7 active torsions:
REMARK  status: ('A' for Active; 'I' for Inactive)
REMARK    1  A    between atoms: C2_2  and  N1_3 
REMARK    2  A    between atoms: N1_3  and  C3_4 
REMARK    3  A    between atoms: N1_3  and  C5_6 
REMARK    4  A    between atoms: C5_6  and  C6_7 
REMARK    5  A    between atoms: C6_7  and  N2_8 
REMARK       I    between atoms: N2_8  and  C7_9 
REMARK    6  A    between atoms: C7_9  and  C8_11 
REMARK    7  A    between atoms: C11_14  and  N3_15 
REMARK       I    between atoms: N3_15  and  C12_16 
ROOT
HETATM    1  C8  UNL     1       0.057  52.585 -21.290  1.00  0.00     0.032 A 
HETATM    2  C9  UNL     1       0.934  53.423 -21.984  1.00  0.00     0.019 A 
HETATM    3  C10 UNL     1       0.984  53.389 -23.385  1.00  0.00     0.030 A 
HETATM    4  C11 UNL     1       0.156  52.527 -24.107  1.00  0.00     0.034 A 
HETATM    5  C14 UNL     1      -0.733  51.701 -23.406  1.00  0.00     0.030 A 
HETATM    6  C15 UNL     1      -0.785  51.731 -22.009  1.00  0.00     0.019 A 
ENDROOT
BRANCH   1   7
HETATM    7  C7  UNL     1      -0.034  52.584 -19.802  1.00  0.00     0.251 C 
HETATM    8  N2  UNL     1      -0.142  51.349 -19.196  1.00  0.00    -0.355 N 
HETATM    9  H15 UNL     1      -0.490  50.588 -19.766  1.00  0.00     0.162 HD
HETATM   10  O1  UNL     1      -0.046  53.644 -19.186  1.00  0.00    -0.268 OA
BRANCH   8  11
HETATM   11  C6  UNL     1      -0.487  51.248 -17.787  1.00  0.00     0.153 C 
BRANCH  11  12
HETATM   12  C5  UNL     1       0.752  50.921 -16.930  1.00  0.00     0.292 C 
BRANCH  12  13
HETATM   13  N1  UNL     1       1.282  52.088 -16.183  1.00  0.00     0.089 N 
BRANCH  13  14
HETATM   14  C2  UNL     1       2.458  52.671 -16.853  1.00  0.00     0.268 C 
HETATM   15  C1  UNL     1       3.736  52.490 -16.042  1.00  0.00     0.037 C 
ENDBRANCH  13  14
BRANCH  13  16
HETATM   16  C3  UNL     1       1.560  51.802 -14.765  1.00  0.00     0.268 C 
HETATM   17  C4  UNL     1       1.165  50.418 -14.257  1.00  0.00     0.037 C 
ENDBRANCH  13  16
ENDBRANCH  12  13
ENDBRANCH  11  12
ENDBRANCH   8  11
ENDBRANCH   1   7
BRANCH   4  18
HETATM   18  N3  UNL     1       0.149  52.435 -25.513  1.00  0.00    -0.328 N 
HETATM   19  C12 UNL     1       0.113  53.474 -26.426  1.00  0.00     0.218 C 
HETATM   20  C13 UNL     1       0.109  52.971 -27.848  1.00  0.00     0.117 C 
HETATM   21  O2  UNL     1       0.090  54.674 -26.180  1.00  0.00    -0.274 OA
HETATM   22  H18 UNL     1       0.177  51.498 -25.895  1.00  0.00     0.169 HD
ENDBRANCH   4  18
TORSDOF 7
ENDMDL
MODEL 6
REMARK minimizedAffinity -6.23600101
REMARK  7 active torsions:
REMARK  status: ('A' for Active; 'I' for Inactive)
REMARK    1  A    between atoms: C2_2  and  N1_3 
REMARK    2  A    between atoms: N1_3  and  C3_4 
REMARK    3  A    between atoms: N1_3  and  C5_6 
REMARK    4  A    between atoms: C5_6  and  C6_7 
REMARK    5  A    between atoms: C6_7  and  N2_8 
REMARK       I    between atoms: N2_8  and  C7_9 
REMARK    6  A    between atoms: C7_9  and  C8_11 
REMARK    7  A    between atoms: C11_14  and  N3_15 
REMARK       I    between atoms: N3_15  and  C12_16 
ROOT
HETATM    1  C8  UNL     1       0.195  52.798 -22.810  1.00  0.00     0.032 A 
HETATM    2  C9  UNL     1       0.981  53.878 -22.397  1.00  0.00     0.019 A 
HETATM    3  C10 UNL     1       1.401  53.976 -21.063  1.00  0.00     0.030 A 
HETATM    4  C11 UNL     1       1.049  52.997 -20.131  1.00  0.00     0.034 A 
HETATM    5  C14 UNL     1       0.275  51.909 -20.555  1.00  0.00     0.030 A 
HETATM    6  C15 UNL     1      -0.147  51.808 -21.885  1.00  0.00     0.019 A 
ENDROOT
BRANCH   1   7
HETATM    7  C7  UNL     1      -0.275  52.649 -24.217  1.00  0.00     0.251 C 
HETATM    8  N2  UNL     1      -0.379  51.359 -24.694  1.00  0.00    -0.355 N 
HETATM    9  H15 UNL     1       0.171  50.650 -24.223  1.00  0.00     0.162 HD
HETATM   10  O1  UNL     1      -0.513  53.643 -24.895  1.00  0.00    -0.268 OA
BRANCH   8  11
HETATM   11  C6  UNL     1      -0.582  51.112 -26.112  1.00  0.00     0.153 C 
BRANCH  11  12
HETATM   12  C5  UNL     1      -2.040  50.708 -26.407  1.00  0.00     0.292 C 
BRANCH  12  13
HETATM   13  N1  UNL     1      -2.432  49.413 -25.798  1.00  0.00     0.089 N 
BRANCH  13  14
HETATM   14  C2  UNL     1      -3.028  48.505 -26.794  1.00  0.00     0.268 C 
HETATM   15  C1  UNL     1      -4.533  48.345 -26.605  1.00  0.00     0.037 C 
ENDBRANCH  13  14
BRANCH  13  16
HETATM   16  C3  UNL     1      -3.300  49.558 -24.617  1.00  0.00     0.268 C 
HETATM   17  C4  UNL     1      -2.806  48.918 -23.323  1.00  0.00     0.037 C 
ENDBRANCH  13  16
ENDBRANCH  12  13
ENDBRANCH  11  12
ENDBRANCH   8  11
ENDBRANCH   1   7
BRANCH   4  18
HETATM   18  N3  UNL     1       1.432  53.025 -18.775  1.00  0.00    -0.328 N 
HETATM   19  C12 UNL     1       0.852  52.344 -17.720  1.00  0.00     0.218 C 
HETATM   20  C13 UNL     1       1.544  52.640 -16.413  1.00  0.00     0.117 C 
HETATM   21  O2  UNL     1      -0.102  51.578 -17.770  1.00  0.00    -0.274 OA
HETATM   22  H18 UNL     1       2.227  53.611 -18.553  1.00  0.00     0.169 HD
ENDBRANCH   4  18
TORSDOF 7
ENDMDL
MODEL 7
REMARK minimizedAffinity -6.2240634
REMARK  7 active torsions:
REMARK  status: ('A' for Active; 'I' for Inactive)
REMARK    1  A    between atoms: C2_2  and  N1_3 
REMARK    2  A    between atoms: N1_3  and  C3_4 
REMARK    3  A    between atoms: N1_3  and  C5_6 
REMARK    4  A    between atoms: C5_6  and  C6_7 
REMARK    5  A    between atoms: C6_7  and  N2_8 
REMARK       I    between atoms: N2_8  and  C7_9 
REMARK    6  A    between atoms: C7_9  and  C8_11 
REMARK    7  A    between atoms: C11_14  and  N3_15 
REMARK       I    between atoms: N3_15  and  C12_16 
ROOT
HETATM    1  C8  UNL     1      -0.688  52.149 -21.172  1.00  0.00     0.032 A 
HETATM    2  C9  UNL     1      -1.791  51.871 -21.984  1.00  0.00     0.019 A 
HETATM    3  C10 UNL     1      -1.681  51.950 -23.379  1.00  0.00     0.030 A 
HETATM    4  C11 UNL     1      -0.469  52.299 -23.979  1.00  0.00     0.034 A 
HETATM    5  C14 UNL     1       0.638  52.560 -23.161  1.00  0.00     0.030 A 
HETATM    6  C15 UNL     1       0.532  52.483 -21.769  1.00  0.00     0.019 A 
ENDROOT
BRANCH   1   7
HETATM    7  C7  UNL     1      -0.755  52.078 -19.685  1.00  0.00     0.251 C 
HETATM    8  N2  UNL     1       0.442  52.211 -19.011  1.00  0.00    -0.355 N 
HETATM    9  H15 UNL     1       1.286  52.004 -19.532  1.00  0.00     0.162 HD
HETATM   10  O1  UNL     1      -1.828  51.876 -19.126  1.00  0.00    -0.268 OA
BRANCH   8  11
HETATM   11  C6  UNL     1       0.525  51.908 -17.592  1.00  0.00     0.153 C 
BRANCH  11  12
HETATM   12  C5  UNL     1       1.801  52.507 -16.966  1.00  0.00     0.292 C 
BRANCH  12  13
HETATM   13  N1  UNL     1       1.878  52.334 -15.495  1.00  0.00     0.089 N 
BRANCH  13  14
HETATM   14  C2  UNL     1       3.220  51.901 -15.070  1.00  0.00     0.268 C 
HETATM   15  C1  UNL     1       4.305  52.329 -16.053  1.00  0.00     0.037 C 
ENDBRANCH  13  14
BRANCH  13  16
HETATM   16  C3  UNL     1       0.831  51.451 -14.951  1.00  0.00     0.268 C 
HETATM   17  C4  UNL     1      -0.041  52.028 -13.840  1.00  0.00     0.037 C 
ENDBRANCH  13  16
ENDBRANCH  12  13
ENDBRANCH  11  12
ENDBRANCH   8  11
ENDBRANCH   1   7
BRANCH   4  18
HETATM   18  N3  UNL     1      -0.279  52.399 -25.372  1.00  0.00    -0.328 N 
HETATM   19  C12 UNL     1      -0.010  53.540 -26.106  1.00  0.00     0.218 C 
HETATM   20  C13 UNL     1       0.120  53.241 -27.579  1.00  0.00     0.117 C 
HETATM   21  O2  UNL     1       0.124  54.680 -25.679  1.00  0.00    -0.274 OA
HETATM   22  H18 UNL     1      -0.345  51.532 -25.891  1.00  0.00     0.169 HD
ENDBRANCH   4  18
TORSDOF 7
ENDMDL
MODEL 8
REMARK minimizedAffinity -6.22120142
REMARK  7 active torsions:
REMARK  status: ('A' for Active; 'I' for Inactive)
REMARK    1  A    between atoms: C2_2  and  N1_3 
REMARK    2  A    between atoms: N1_3  and  C3_4 
REMARK    3  A    between atoms: N1_3  and  C5_6 
REMARK    4  A    between atoms: C5_6  and  C6_7 
REMARK    5  A    between atoms: C6_7  and  N2_8 
REMARK       I    between atoms: N2_8  and  C7_9 
REMARK    6  A    between atoms: C7_9  and  C8_11 
REMARK    7  A    between atoms: C11_14  and  N3_15 
REMARK       I    between atoms: N3_15  and  C12_16 
ROOT
HETATM    1  C8  UNL     1      -0.229  51.464 -22.134  1.00  0.00     0.032 A 
HETATM    2  C9  UNL     1       0.668  52.415 -22.627  1.00  0.00     0.019 A 
HETATM    3  C10 UNL     1       0.675  52.740 -23.991  1.00  0.00     0.030 A 
HETATM    4  C11 UNL     1      -0.218  52.127 -24.873  1.00  0.00     0.034 A 
HETATM    5  C14 UNL     1      -1.126  51.187 -24.370  1.00  0.00     0.030 A 
HETATM    6  C15 UNL     1      -1.135  50.859 -23.011  1.00  0.00     0.019 A 
ENDROOT
BRANCH   1   7
HETATM    7  C7  UNL     1      -0.275  51.085 -20.692  1.00  0.00     0.251 C 
HETATM    8  N2  UNL     1      -0.358  52.125 -19.789  1.00  0.00    -0.355 N 
HETATM    9  H15 UNL     1      -0.044  53.034 -20.106  1.00  0.00     0.162 HD
HETATM   10  O1  UNL     1      -0.204  49.906 -20.363  1.00  0.00    -0.268 OA
BRANCH   8  11
HETATM   11  C6  UNL     1      -0.155  51.884 -18.369  1.00  0.00     0.153 C 
BRANCH  11  12
HETATM   12  C5  UNL     1       1.003  52.739 -17.817  1.00  0.00     0.292 C 
BRANCH  12  13
HETATM   13  N1  UNL     1       1.783  52.064 -16.751  1.00  0.00     0.089 N 
BRANCH  13  14
HETATM   14  C2  UNL     1       0.921  51.648 -15.630  1.00  0.00     0.268 C 
HETATM   15  C1  UNL     1       1.065  50.164 -15.310  1.00  0.00     0.037 C 
ENDBRANCH  13  14
BRANCH  13  16
HETATM   16  C3  UNL     1       2.936  52.850 -16.278  1.00  0.00     0.268 C 
HETATM   17  C4  UNL     1       4.239  52.088 -16.059  1.00  0.00     0.037 C 
ENDBRANCH  13  16
ENDBRANCH  12  13
ENDBRANCH  11  12
ENDBRANCH   8  11
ENDBRANCH   1   7
BRANCH   4  18
HETATM   18  N3  UNL     1      -0.273  52.400 -26.255  1.00  0.00    -0.328 N 
HETATM   19  C12 UNL     1      -0.092  53.619 -26.882  1.00  0.00     0.218 C 
HETATM   20  C13 UNL     1      -0.235  53.508 -28.379  1.00  0.00     0.117 C 
HETATM   21  O2  UNL     1       0.161  54.694 -26.350  1.00  0.00    -0.274 OA
HETATM   22  H18 UNL     1      -0.463  51.607 -26.855  1.00  0.00     0.169 HD
ENDBRANCH   4  18
TORSDOF 7
ENDMDL
MODEL 9
REMARK minimizedAffinity -6.18788195
REMARK  7 active torsions:
REMARK  status: ('A' for Active; 'I' for Inactive)
REMARK    1  A    between atoms: C2_2  and  N1_3 
REMARK    2  A    between atoms: N1_3  and  C3_4 
REMARK    3  A    between atoms: N1_3  and  C5_6 
REMARK    4  A    between atoms: C5_6  and  C6_7 
REMARK    5  A    between atoms: C6_7  and  N2_8 
REMARK       I    between atoms: N2_8  and  C7_9 
REMARK    6  A    between atoms: C7_9  and  C8_11 
REMARK    7  A    between atoms: C11_14  and  N3_15 
REMARK       I    between atoms: N3_15  and  C12_16 
ROOT
HETATM    1  C8  UNL     1      -4.106  48.868 -27.749  1.00  0.00     0.032 A 
HETATM    2  C9  UNL     1      -3.593  48.327 -26.566  1.00  0.00     0.019 A 
HETATM    3  C10 UNL     1      -2.551  48.974 -25.887  1.00  0.00     0.030 A 
HETATM    4  C11 UNL     1      -2.018  50.169 -26.374  1.00  0.00     0.034 A 
HETATM    5  C14 UNL     1      -2.547  50.715 -27.550  1.00  0.00     0.030 A 
HETATM    6  C15 UNL     1      -3.585  50.072 -28.232  1.00  0.00     0.019 A 
ENDROOT
BRANCH   1   7
HETATM    7  C7  UNL     1      -5.213  48.218 -28.507  1.00  0.00     0.251 C 
HETATM    8  N2  UNL     1      -5.406  48.653 -29.802  1.00  0.00    -0.355 N 
HETATM    9  H15 UNL     1      -5.049  49.572 -30.034  1.00  0.00     0.162 HD
HETATM   10  O1  UNL     1      -5.917  47.372 -27.965  1.00  0.00    -0.268 OA
BRANCH   8  11
HETATM   11  C6  UNL     1      -6.602  48.273 -30.536  1.00  0.00     0.153 C 
BRANCH  11  12
HETATM   12  C5  UNL     1      -6.295  47.177 -31.576  1.00  0.00     0.292 C 
BRANCH  12  13
HETATM   13  N1  UNL     1      -4.868  47.124 -31.979  1.00  0.00     0.089 N 
BRANCH  13  14
HETATM   14  C2  UNL     1      -4.585  48.047 -33.092  1.00  0.00     0.268 C 
HETATM   15  C1  UNL     1      -3.310  47.675 -33.842  1.00  0.00     0.037 C 
ENDBRANCH  13  14
BRANCH  13  16
HETATM   16  C3  UNL     1      -4.391  45.762 -32.277  1.00  0.00     0.268 C 
HETATM   17  C4  UNL     1      -5.447  44.662 -32.317  1.00  0.00     0.037 C 
ENDBRANCH  13  16
ENDBRANCH  12  13
ENDBRANCH  11  12
ENDBRANCH   8  11
ENDBRANCH   1   7
BRANCH   4  18
HETATM   18  N3  UNL     1      -0.972  50.878 -25.749  1.00  0.00    -0.328 N 
HETATM   19  C12 UNL     1       0.232  51.270 -26.305  1.00  0.00     0.218 C 
HETATM   20  C13 UNL     1       1.097  52.005 -25.312  1.00  0.00     0.117 C 
HETATM   21  O2  UNL     1       0.612  51.081 -27.455  1.00  0.00    -0.274 OA
HETATM   22  H18 UNL     1      -1.126  51.131 -24.781  1.00  0.00     0.169 HD
ENDBRANCH   4  18
TORSDOF 7
ENDMDL
