MODEL 1
REMARK minimizedAffinity -9.207901
REMARK  4 active torsions:
REMARK  status: ('A' for Active; 'I' for Inactive)
REMARK    1  A    between atoms: C4_4  and  C5_5 
REMARK    2  A    between atoms: C5_5  and  C6_6 
REMARK    3  A    between atoms: C6_6  and  C7_7 
REMARK    4  A    between atoms: C7_7  and  C9_9 
ROOT
HETATM    1  C9  UNL     1      -2.172   8.233  15.102  1.00  0.00    -0.002 C 
HETATM    2  C10 UNL     1      -3.185   8.982  14.182  1.00  0.00     0.006 C 
HETATM    3  C11 UNL     1      -2.722   8.789  12.724  1.00  0.00     0.011 C 
HETATM    4  C12 UNL     1      -1.666   7.672  12.794  1.00  0.00    -0.032 C 
HETATM    5  C13 UNL     1      -2.486   6.332  12.843  1.00  0.00     0.016 C 
HETATM    6  C14 UNL     1      -0.661   7.526  11.603  1.00  0.00     0.004 C 
HETATM    7  C15 UNL     1      -0.584   8.708  10.637  1.00  0.00     0.007 C 
HETATM    8  C16 UNL     1       0.365   8.467   9.452  1.00  0.00     0.007 C 
HETATM    9  C17 UNL     1       1.160   7.135   9.472  1.00  0.00     0.010 C 
HETATM   10  C18 UNL     1       2.297   7.091   8.397  1.00  0.00     0.018 C 
HETATM   11  C19 UNL     1       1.697   7.173   6.979  1.00  0.00     0.023 C 
HETATM   12  C20 UNL     1       3.334   8.219   8.543  1.00  0.00     0.023 C 
HETATM   13  C21 UNL     1       3.040   5.754   8.542  1.00  0.00     0.135 C 
HETATM   14  O1  UNL     1       3.246   4.998   7.593  1.00  0.00    -0.297 OA
HETATM   15  C22 UNL     1       3.569   5.416   9.914  1.00  0.00     0.080 C 
HETATM   16  C23 UNL     1       2.427   5.437  10.910  1.00  0.00     0.018 C 
HETATM   17  C24 UNL     1       1.672   6.752  10.878  1.00  0.00    -0.026 A 
HETATM   18  C25 UNL     1       2.032   7.850  11.840  1.00  0.00     0.021 A 
HETATM   19  C26 UNL     1       0.739   7.066  12.064  1.00  0.00    -0.027 A 
HETATM   20  C27 UNL     1       0.719   6.203  13.318  1.00  0.00     0.011 C 
HETATM   21  C28 UNL     1       0.010   6.865  14.520  1.00  0.00     0.011 C 
HETATM   22  C29 UNL     1      -0.946   8.019  14.150  1.00  0.00    -0.032 C 
HETATM   23  C30 UNL     1      -0.132   9.346  14.106  1.00  0.00     0.016 C 
ENDROOT
BRANCH   1  24
HETATM   24  C7  UNL     1      -1.990   8.941  16.481  1.00  0.00    -0.014 C 
HETATM   25  C8  UNL     1      -3.232   9.747  16.877  1.00  0.00     0.010 C 
BRANCH  24  26
HETATM   26  C6  UNL     1      -0.739   9.865  16.442  1.00  0.00     0.008 C 
BRANCH  26  27
HETATM   27  C5  UNL     1      -0.891  11.171  17.232  1.00  0.00     0.028 C 
BRANCH  27  28
HETATM   28  C4  UNL     1      -0.367  11.009  18.634  1.00  0.00    -0.025 C 
HETATM   29  C2  UNL     1       0.906  10.823  19.036  1.00  0.00    -0.091 C 
HETATM   30  C1  UNL     1       1.234  10.696  20.501  1.00  0.00     0.042 C 
HETATM   31  C3  UNL     1       2.103  10.726  18.130  1.00  0.00     0.042 C 
ENDBRANCH  27  28
ENDBRANCH  26  27
ENDBRANCH  24  26
ENDBRANCH   1  24
TORSDOF 4
ENDMDL
MODEL 2
REMARK minimizedAffinity -9.17914677
REMARK  4 active torsions:
REMARK  status: ('A' for Active; 'I' for Inactive)
REMARK    1  A    between atoms: C4_4  and  C5_5 
REMARK    2  A    between atoms: C5_5  and  C6_6 
REMARK    3  A    between atoms: C6_6  and  C7_7 
REMARK    4  A    between atoms: C7_7  and  C9_9 
ROOT
HETATM    1  C9  UNL     1      -2.837   8.251  15.194  1.00  0.00    -0.002 C 
HETATM    2  C10 UNL     1      -1.700   8.273  16.262  1.00  0.00     0.006 C 
HETATM    3  C11 UNL     1      -0.357   8.376  15.512  1.00  0.00     0.011 C 
HETATM    4  C12 UNL     1      -0.742   8.748  14.070  1.00  0.00    -0.032 C 
HETATM    5  C13 UNL     1      -0.989  10.301  14.097  1.00  0.00     0.016 C 
HETATM    6  C14 UNL     1       0.303   8.492  12.933  1.00  0.00     0.004 C 
HETATM    7  C15 UNL     1       1.477   7.580  13.290  1.00  0.00     0.007 C 
HETATM    8  C16 UNL     1       2.502   7.432  12.154  1.00  0.00     0.007 C 
HETATM    9  C17 UNL     1       2.145   8.130  10.815  1.00  0.00     0.010 C 
HETATM   10  C18 UNL     1       3.086   7.702   9.639  1.00  0.00     0.018 C 
HETATM   11  C19 UNL     1       4.538   8.130   9.934  1.00  0.00     0.023 C 
HETATM   12  C20 UNL     1       3.081   6.189   9.358  1.00  0.00     0.023 C 
HETATM   13  C21 UNL     1       2.610   8.415   8.365  1.00  0.00     0.135 C 
HETATM   14  O1  UNL     1       3.366   9.062   7.639  1.00  0.00    -0.297 OA
HETATM   15  C22 UNL     1       1.157   8.247   7.993  1.00  0.00     0.080 C 
HETATM   16  C23 UNL     1       0.289   8.705   9.147  1.00  0.00     0.018 C 
HETATM   17  C24 UNL     1       0.651   8.003  10.442  1.00  0.00    -0.026 A 
HETATM   18  C25 UNL     1      -0.098   6.769  10.863  1.00  0.00     0.021 A 
HETATM   19  C26 UNL     1      -0.362   8.081  11.601  1.00  0.00    -0.027 A 
HETATM   20  C27 UNL     1      -1.757   8.657  11.408  1.00  0.00     0.011 C 
HETATM   21  C28 UNL     1      -2.735   8.324  12.556  1.00  0.00     0.011 C 
HETATM   22  C29 UNL     1      -2.058   7.905  13.879  1.00  0.00    -0.032 C 
HETATM   23  C30 UNL     1      -1.819   6.367  13.852  1.00  0.00     0.016 C 
ENDROOT
BRANCH   1  24
HETATM   24  C7  UNL     1      -4.055   7.386  15.644  1.00  0.00    -0.014 C 
HETATM   25  C8  UNL     1      -3.741   5.887  15.594  1.00  0.00     0.010 C 
BRANCH  24  26
HETATM   26  C6  UNL     1      -5.291   7.707  14.755  1.00  0.00     0.008 C 
BRANCH  26  27
HETATM   27  C5  UNL     1      -5.442   6.798  13.528  1.00  0.00     0.028 C 
BRANCH  27  28
HETATM   28  C4  UNL     1      -6.479   5.735  13.778  1.00  0.00    -0.025 C 
HETATM   29  C2  UNL     1      -6.458   4.441  13.401  1.00  0.00    -0.091 C 
HETATM   30  C1  UNL     1      -7.596   3.522  13.762  1.00  0.00     0.042 C 
HETATM   31  C3  UNL     1      -5.359   3.776  12.618  1.00  0.00     0.042 C 
ENDBRANCH  27  28
ENDBRANCH  26  27
ENDBRANCH  24  26
ENDBRANCH   1  24
TORSDOF 4
ENDMDL
MODEL 3
REMARK minimizedAffinity -8.79342842
REMARK  4 active torsions:
REMARK  status: ('A' for Active; 'I' for Inactive)
REMARK    1  A    between atoms: C4_4  and  C5_5 
REMARK    2  A    between atoms: C5_5  and  C6_6 
REMARK    3  A    between atoms: C6_6  and  C7_7 
REMARK    4  A    between atoms: C7_7  and  C9_9 
ROOT
HETATM    1  C9  UNL     1       0.440   7.724  13.521  1.00  0.00    -0.002 C 
HETATM    2  C10 UNL     1       0.463   6.883  12.206  1.00  0.00     0.006 C 
HETATM    3  C11 UNL     1      -0.990   6.484  11.883  1.00  0.00     0.011 C 
HETATM    4  C12 UNL     1      -1.852   7.365  12.803  1.00  0.00    -0.032 C 
HETATM    5  C13 UNL     1      -1.940   8.757  12.078  1.00  0.00     0.016 C 
HETATM    6  C14 UNL     1      -3.327   6.924  13.085  1.00  0.00     0.004 C 
HETATM    7  C15 UNL     1      -3.684   5.486  12.707  1.00  0.00     0.007 C 
HETATM    8  C16 UNL     1      -5.166   5.145  12.939  1.00  0.00     0.007 C 
HETATM    9  C17 UNL     1      -6.027   6.251  13.603  1.00  0.00     0.010 C 
HETATM   10  C18 UNL     1      -7.432   5.733  14.059  1.00  0.00     0.018 C 
HETATM   11  C19 UNL     1      -8.254   5.270  12.838  1.00  0.00     0.023 C 
HETATM   12  C20 UNL     1      -7.370   4.569  15.063  1.00  0.00     0.023 C 
HETATM   13  C21 UNL     1      -8.172   6.896  14.738  1.00  0.00     0.135 C 
HETATM   14  O1  UNL     1      -9.314   7.234  14.427  1.00  0.00    -0.297 OA
HETATM   15  C22 UNL     1      -7.451   7.592  15.867  1.00  0.00     0.080 C 
HETATM   16  C23 UNL     1      -6.116   8.105  15.367  1.00  0.00     0.018 C 
HETATM   17  C24 UNL     1      -5.288   7.003  14.732  1.00  0.00    -0.026 A 
HETATM   18  C25 UNL     1      -4.270   6.260  15.550  1.00  0.00     0.021 A 
HETATM   19  C26 UNL     1      -3.787   7.276  14.516  1.00  0.00    -0.027 A 
HETATM   20  C27 UNL     1      -3.104   8.507  15.095  1.00  0.00     0.011 C 
HETATM   21  C28 UNL     1      -1.563   8.427  15.091  1.00  0.00     0.011 C 
HETATM   22  C29 UNL     1      -0.973   7.391  14.109  1.00  0.00    -0.032 C 
HETATM   23  C30 UNL     1      -0.882   6.015  14.832  1.00  0.00     0.016 C 
ENDROOT
BRANCH   1  24
HETATM   24  C7  UNL     1       1.726   7.513  14.379  1.00  0.00    -0.014 C 
HETATM   25  C8  UNL     1       1.478   7.810  15.863  1.00  0.00     0.010 C 
BRANCH  24  26
HETATM   26  C6  UNL     1       2.878   8.406  13.837  1.00  0.00     0.008 C 
BRANCH  26  27
HETATM   27  C5  UNL     1       3.880   7.671  12.935  1.00  0.00     0.028 C 
BRANCH  27  28
HETATM   28  C4  UNL     1       3.791   8.175  11.519  1.00  0.00    -0.025 C 
HETATM   29  C2  UNL     1       3.681   7.459  10.382  1.00  0.00    -0.091 C 
HETATM   30  C1  UNL     1       3.590   8.154   9.048  1.00  0.00     0.042 C 
HETATM   31  C3  UNL     1       3.634   5.958  10.295  1.00  0.00     0.042 C 
ENDBRANCH  27  28
ENDBRANCH  26  27
ENDBRANCH  24  26
ENDBRANCH   1  24
TORSDOF 4
ENDMDL
MODEL 4
REMARK minimizedAffinity -8.72846985
REMARK  4 active torsions:
REMARK  status: ('A' for Active; 'I' for Inactive)
REMARK    1  A    between atoms: C4_4  and  C5_5 
REMARK    2  A    between atoms: C5_5  and  C6_6 
REMARK    3  A    between atoms: C6_6  and  C7_7 
REMARK    4  A    between atoms: C7_7  and  C9_9 
ROOT
HETATM    1  C9  UNL     1       3.307   7.322  10.810  1.00  0.00    -0.002 C 
HETATM    2  C10 UNL     1       3.348   5.798  10.478  1.00  0.00     0.006 C 
HETATM    3  C11 UNL     1       1.941   5.226  10.739  1.00  0.00     0.011 C 
HETATM    4  C12 UNL     1       1.037   6.462  10.888  1.00  0.00    -0.032 C 
HETATM    5  C13 UNL     1       0.716   6.917   9.419  1.00  0.00     0.016 C 
HETATM    6  C14 UNL     1      -0.344   6.289  11.604  1.00  0.00     0.004 C 
HETATM    7  C15 UNL     1      -0.534   4.997  12.399  1.00  0.00     0.007 C 
HETATM    8  C16 UNL     1      -1.937   4.859  13.013  1.00  0.00     0.007 C 
HETATM    9  C17 UNL     1      -2.889   6.070  12.824  1.00  0.00     0.010 C 
HETATM   10  C18 UNL     1      -4.177   5.971  13.706  1.00  0.00     0.018 C 
HETATM   11  C19 UNL     1      -5.014   4.742  13.296  1.00  0.00     0.023 C 
HETATM   12  C20 UNL     1      -3.892   5.872  15.216  1.00  0.00     0.023 C 
HETATM   13  C21 UNL     1      -5.014   7.237  13.472  1.00  0.00     0.135 C 
HETATM   14  O1  UNL     1      -6.210   7.204  13.182  1.00  0.00    -0.297 OA
HETATM   15  C22 UNL     1      -4.315   8.560  13.670  1.00  0.00     0.080 C 
HETATM   16  C23 UNL     1      -3.097   8.621  12.771  1.00  0.00     0.018 C 
HETATM   17  C24 UNL     1      -2.178   7.433  12.980  1.00  0.00    -0.026 A 
HETATM   18  C25 UNL     1      -1.016   7.538  13.928  1.00  0.00     0.021 A 
HETATM   19  C26 UNL     1      -0.745   7.535  12.424  1.00  0.00    -0.027 A 
HETATM   20  C27 UNL     1      -0.192   8.839  11.868  1.00  0.00     0.011 C 
HETATM   21  C28 UNL     1       1.343   8.846  11.702  1.00  0.00     0.011 C 
HETATM   22  C29 UNL     1       1.995   7.447  11.657  1.00  0.00    -0.032 C 
HETATM   23  C30 UNL     1       2.316   7.000  13.113  1.00  0.00     0.016 C 
ENDROOT
BRANCH   1  24
HETATM   24  C7  UNL     1       4.666   7.841  11.374  1.00  0.00    -0.014 C 
HETATM   25  C8  UNL     1       5.257   8.956  10.505  1.00  0.00     0.010 C 
BRANCH  24  26
HETATM   26  C6  UNL     1       5.674   6.662  11.498  1.00  0.00     0.008 C 
BRANCH  26  27
HETATM   27  C5  UNL     1       7.054   7.062  12.037  1.00  0.00     0.028 C 
BRANCH  27  28
HETATM   28  C4  UNL     1       6.954   7.514  13.470  1.00  0.00    -0.025 C 
HETATM   29  C2  UNL     1       7.945   7.916  14.291  1.00  0.00    -0.091 C 
HETATM   30  C1  UNL     1       7.641   8.348  15.702  1.00  0.00     0.042 C 
HETATM   31  C3  UNL     1       9.404   7.987  13.931  1.00  0.00     0.042 C 
ENDBRANCH  27  28
ENDBRANCH  26  27
ENDBRANCH  24  26
ENDBRANCH   1  24
TORSDOF 4
ENDMDL
MODEL 5
REMARK minimizedAffinity -8.66831779
REMARK  4 active torsions:
REMARK  status: ('A' for Active; 'I' for Inactive)
REMARK    1  A    between atoms: C4_4  and  C5_5 
REMARK    2  A    between atoms: C5_5  and  C6_6 
REMARK    3  A    between atoms: C6_6  and  C7_7 
REMARK    4  A    between atoms: C7_7  and  C9_9 
ROOT
HETATM    1  C9  UNL     1      -1.502   6.463  12.144  1.00  0.00    -0.002 C 
HETATM    2  C10 UNL     1      -2.044   7.811  12.713  1.00  0.00     0.006 C 
HETATM    3  C11 UNL     1      -0.890   8.831  12.676  1.00  0.00     0.011 C 
HETATM    4  C12 UNL     1       0.183   8.175  11.790  1.00  0.00    -0.032 C 
HETATM    5  C13 UNL     1      -0.276   8.452  10.313  1.00  0.00     0.016 C 
HETATM    6  C14 UNL     1       1.655   8.699  11.896  1.00  0.00     0.004 C 
HETATM    7  C15 UNL     1       1.973   9.573  13.108  1.00  0.00     0.007 C 
HETATM    8  C16 UNL     1       3.413  10.114  13.110  1.00  0.00     0.007 C 
HETATM    9  C17 UNL     1       4.331   9.617  11.962  1.00  0.00     0.010 C 
HETATM   10  C18 UNL     1       5.836   9.981  12.190  1.00  0.00     0.018 C 
HETATM   11  C19 UNL     1       6.020  11.512  12.209  1.00  0.00     0.023 C 
HETATM   12  C20 UNL     1       6.423   9.414  13.495  1.00  0.00     0.023 C 
HETATM   13  C21 UNL     1       6.649   9.401  11.023  1.00  0.00     0.135 C 
HETATM   14  O1  UNL     1       7.443  10.072  10.363  1.00  0.00    -0.297 OA
HETATM   15  C22 UNL     1       6.478   7.928  10.741  1.00  0.00     0.080 C 
HETATM   16  C23 UNL     1       5.013   7.633  10.493  1.00  0.00     0.018 C 
HETATM   17  C24 UNL     1       4.137   8.120  11.632  1.00  0.00    -0.026 A 
HETATM   18  C25 UNL     1       3.750   7.179  12.739  1.00  0.00     0.021 A 
HETATM   19  C26 UNL     1       2.697   7.576  11.705  1.00  0.00    -0.027 A 
HETATM   20  C27 UNL     1       2.222   6.443  10.805  1.00  0.00     0.011 C 
HETATM   21  C28 UNL     1       0.896   5.797  11.263  1.00  0.00     0.011 C 
HETATM   22  C29 UNL     1       0.049   6.666  12.218  1.00  0.00    -0.032 C 
HETATM   23  C30 UNL     1       0.503   6.386  13.681  1.00  0.00     0.016 C 
ENDROOT
BRANCH   1  24
HETATM   24  C7  UNL     1      -2.172   5.225  12.817  1.00  0.00    -0.014 C 
HETATM   25  C8  UNL     1      -2.259   4.031  11.860  1.00  0.00     0.010 C 
BRANCH  24  26
HETATM   26  C6  UNL     1      -3.589   5.604  13.335  1.00  0.00     0.008 C 
BRANCH  26  27
HETATM   27  C5  UNL     1      -4.640   4.497  13.175  1.00  0.00     0.028 C 
BRANCH  27  28
HETATM   28  C4  UNL     1      -6.022   5.085  13.077  1.00  0.00    -0.025 C 
HETATM   29  C2  UNL     1      -7.204   4.439  13.018  1.00  0.00    -0.091 C 
HETATM   30  C1  UNL     1      -8.495   5.213  12.936  1.00  0.00     0.042 C 
HETATM   31  C3  UNL     1      -7.386   2.946  13.028  1.00  0.00     0.042 C 
ENDBRANCH  27  28
ENDBRANCH  26  27
ENDBRANCH  24  26
ENDBRANCH   1  24
TORSDOF 4
ENDMDL
MODEL 6
REMARK minimizedAffinity -8.63013744
REMARK  4 active torsions:
REMARK  status: ('A' for Active; 'I' for Inactive)
REMARK    1  A    between atoms: C4_4  and  C5_5 
REMARK    2  A    between atoms: C5_5  and  C6_6 
REMARK    3  A    between atoms: C6_6  and  C7_7 
REMARK    4  A    between atoms: C7_7  and  C9_9 
ROOT
HETATM    1  C9  UNL     1      -2.398   6.310  12.906  1.00  0.00    -0.002 C 
HETATM    2  C10 UNL     1      -2.680   7.211  14.148  1.00  0.00     0.006 C 
HETATM    3  C11 UNL     1      -1.492   8.182  14.299  1.00  0.00     0.011 C 
HETATM    4  C12 UNL     1      -0.719   8.063  12.974  1.00  0.00    -0.032 C 
HETATM    5  C13 UNL     1      -1.498   8.976  11.959  1.00  0.00     0.016 C 
HETATM    6  C14 UNL     1       0.771   8.542  12.939  1.00  0.00     0.004 C 
HETATM    7  C15 UNL     1       1.440   8.764  14.296  1.00  0.00     0.007 C 
HETATM    8  C16 UNL     1       2.875   9.306  14.187  1.00  0.00     0.007 C 
HETATM    9  C17 UNL     1       3.448   9.442  12.752  1.00  0.00     0.010 C 
HETATM   10  C18 UNL     1       4.988   9.724  12.739  1.00  0.00     0.018 C 
HETATM   11  C19 UNL     1       5.289  11.077  13.416  1.00  0.00     0.023 C 
HETATM   12  C20 UNL     1       5.825   8.641  13.442  1.00  0.00     0.023 C 
HETATM   13  C21 UNL     1       5.447   9.792  11.274  1.00  0.00     0.135 C 
HETATM   14  O1  UNL     1       6.108  10.728  10.824  1.00  0.00    -0.297 OA
HETATM   15  C22 UNL     1       5.098   8.614  10.398  1.00  0.00     0.080 C 
HETATM   16  C23 UNL     1       3.598   8.404  10.416  1.00  0.00     0.018 C 
HETATM   17  C24 UNL     1       3.063   8.264  11.828  1.00  0.00    -0.026 A 
HETATM   18  C25 UNL     1       2.882   6.900  12.433  1.00  0.00     0.021 A 
HETATM   19  C26 UNL     1       1.646   7.685  11.998  1.00  0.00    -0.027 A 
HETATM   20  C27 UNL     1       0.880   7.083  10.828  1.00  0.00     0.011 C 
HETATM   21  C28 UNL     1      -0.342   6.239  11.250  1.00  0.00     0.011 C 
HETATM   22  C29 UNL     1      -0.863   6.525  12.675  1.00  0.00    -0.032 C 
HETATM   23  C30 UNL     1      -0.094   5.616  13.678  1.00  0.00     0.016 C 
ENDROOT
BRANCH   1  24
HETATM   24  C7  UNL     1      -2.981   4.872  13.074  1.00  0.00    -0.014 C 
HETATM   25  C8  UNL     1      -3.011   4.109  11.745  1.00  0.00     0.010 C 
BRANCH  24  26
HETATM   26  C6  UNL     1      -4.409   4.947  13.685  1.00  0.00     0.008 C 
BRANCH  26  27
HETATM   27  C5  UNL     1      -5.544   4.810  12.661  1.00  0.00     0.028 C 
BRANCH  27  28
HETATM   28  C4  UNL     1      -5.488   3.467  11.982  1.00  0.00    -0.025 C 
HETATM   29  C2  UNL     1      -6.364   2.446  12.073  1.00  0.00    -0.091 C 
HETATM   30  C1  UNL     1      -6.139   1.175  11.296  1.00  0.00     0.042 C 
HETATM   31  C3  UNL     1      -7.614   2.439  12.909  1.00  0.00     0.042 C 
ENDBRANCH  27  28
ENDBRANCH  26  27
ENDBRANCH  24  26
ENDBRANCH   1  24
TORSDOF 4
ENDMDL
MODEL 7
REMARK minimizedAffinity -8.62030888
REMARK  4 active torsions:
REMARK  status: ('A' for Active; 'I' for Inactive)
REMARK    1  A    between atoms: C4_4  and  C5_5 
REMARK    2  A    between atoms: C5_5  and  C6_6 
REMARK    3  A    between atoms: C6_6  and  C7_7 
REMARK    4  A    between atoms: C7_7  and  C9_9 
ROOT
HETATM    1  C9  UNL     1      -2.870   8.364  15.266  1.00  0.00    -0.002 C 
HETATM    2  C10 UNL     1      -1.722   8.328  16.322  1.00  0.00     0.006 C 
HETATM    3  C11 UNL     1      -0.384   8.367  15.558  1.00  0.00     0.011 C 
HETATM    4  C12 UNL     1      -0.766   8.761  14.121  1.00  0.00    -0.032 C 
HETATM    5  C13 UNL     1      -0.936  10.323  14.153  1.00  0.00     0.016 C 
HETATM    6  C14 UNL     1       0.253   8.457  12.973  1.00  0.00     0.004 C 
HETATM    7  C15 UNL     1       1.385   7.488  13.316  1.00  0.00     0.007 C 
HETATM    8  C16 UNL     1       2.390   7.293  12.168  1.00  0.00     0.007 C 
HETATM    9  C17 UNL     1       2.053   8.010  10.834  1.00  0.00     0.010 C 
HETATM   10  C18 UNL     1       2.960   7.540   9.648  1.00  0.00     0.018 C 
HETATM   11  C19 UNL     1       4.434   7.896   9.927  1.00  0.00     0.023 C 
HETATM   12  C20 UNL     1       2.878   6.030   9.363  1.00  0.00     0.023 C 
HETATM   13  C21 UNL     1       2.506   8.279   8.380  1.00  0.00     0.135 C 
HETATM   14  O1  UNL     1       3.285   8.889   7.647  1.00  0.00    -0.297 OA
HETATM   15  C22 UNL     1       1.043   8.182   8.024  1.00  0.00     0.080 C 
HETATM   16  C23 UNL     1       0.210   8.680   9.187  1.00  0.00     0.018 C 
HETATM   17  C24 UNL     1       0.551   7.957  10.477  1.00  0.00    -0.026 A 
HETATM   18  C25 UNL     1      -0.252   6.761  10.904  1.00  0.00     0.021 A 
HETATM   19  C26 UNL     1      -0.444   8.082  11.647  1.00  0.00    -0.027 A 
HETATM   20  C27 UNL     1      -1.812   8.726  11.470  1.00  0.00     0.011 C 
HETATM   21  C28 UNL     1      -2.792   8.438  12.628  1.00  0.00     0.011 C 
HETATM   22  C29 UNL     1      -2.123   7.984  13.943  1.00  0.00    -0.032 C 
HETATM   23  C30 UNL     1      -1.959   6.435  13.910  1.00  0.00     0.016 C 
ENDROOT
BRANCH   1  24
HETATM   24  C7  UNL     1      -4.124   7.558  15.728  1.00  0.00    -0.014 C 
HETATM   25  C8  UNL     1      -3.839   6.054  15.809  1.00  0.00     0.010 C 
BRANCH  24  26
HETATM   26  C6  UNL     1      -5.314   7.829  14.762  1.00  0.00     0.008 C 
BRANCH  26  27
HETATM   27  C5  UNL     1      -6.683   7.405  15.309  1.00  0.00     0.028 C 
BRANCH  27  28
HETATM   28  C4  UNL     1      -7.653   8.556  15.269  1.00  0.00    -0.025 C 
HETATM   29  C2  UNL     1      -8.990   8.518  15.104  1.00  0.00    -0.091 C 
HETATM   30  C1  UNL     1      -9.797   9.791  15.107  1.00  0.00     0.042 C 
HETATM   31  C3  UNL     1      -9.812   7.274  14.910  1.00  0.00     0.042 C 
ENDBRANCH  27  28
ENDBRANCH  26  27
ENDBRANCH  24  26
ENDBRANCH   1  24
TORSDOF 4
ENDMDL
MODEL 8
REMARK minimizedAffinity -8.57761669
REMARK  4 active torsions:
REMARK  status: ('A' for Active; 'I' for Inactive)
REMARK    1  A    between atoms: C4_4  and  C5_5 
REMARK    2  A    between atoms: C5_5  and  C6_6 
REMARK    3  A    between atoms: C6_6  and  C7_7 
REMARK    4  A    between atoms: C7_7  and  C9_9 
ROOT
HETATM    1  C9  UNL     1       0.033   8.459  13.825  1.00  0.00    -0.002 C 
HETATM    2  C10 UNL     1       0.355   7.426  12.701  1.00  0.00     0.006 C 
HETATM    3  C11 UNL     1      -0.973   6.765  12.282  1.00  0.00     0.011 C 
HETATM    4  C12 UNL     1      -2.065   7.646  12.912  1.00  0.00    -0.032 C 
HETATM    5  C13 UNL     1      -2.221   8.869  11.937  1.00  0.00     0.016 C 
HETATM    6  C14 UNL     1      -3.498   7.041  13.087  1.00  0.00     0.004 C 
HETATM    7  C15 UNL     1      -3.611   5.523  12.941  1.00  0.00     0.007 C 
HETATM    8  C16 UNL     1      -5.055   5.006  13.050  1.00  0.00     0.007 C 
HETATM    9  C17 UNL     1      -6.137   6.064  13.387  1.00  0.00     0.010 C 
HETATM   10  C18 UNL     1      -7.517   5.423  13.756  1.00  0.00     0.018 C 
HETATM   11  C19 UNL     1      -8.085   4.646  12.551  1.00  0.00     0.023 C 
HETATM   12  C20 UNL     1      -7.456   4.464  14.957  1.00  0.00     0.023 C 
HETATM   13  C21 UNL     1      -8.489   6.558  14.113  1.00  0.00     0.135 C 
HETATM   14  O1  UNL     1      -9.607   6.664  13.608  1.00  0.00    -0.297 OA
HETATM   15  C22 UNL     1      -8.036   7.532  15.173  1.00  0.00     0.080 C 
HETATM   16  C23 UNL     1      -6.718   8.150  14.755  1.00  0.00     0.018 C 
HETATM   17  C24 UNL     1      -5.673   7.096  14.440  1.00  0.00    -0.026 A 
HETATM   18  C25 UNL     1      -4.701   6.660  15.500  1.00  0.00     0.021 A 
HETATM   19  C26 UNL     1      -4.204   7.551  14.362  1.00  0.00    -0.027 A 
HETATM   20  C27 UNL     1      -3.775   8.950  14.783  1.00  0.00     0.011 C 
HETATM   21  C28 UNL     1      -2.252   9.103  14.982  1.00  0.00     0.011 C 
HETATM   22  C29 UNL     1      -1.397   8.020  14.288  1.00  0.00    -0.032 C 
HETATM   23  C30 UNL     1      -1.240   6.812  15.258  1.00  0.00     0.016 C 
ENDROOT
BRANCH   1  24
HETATM   24  C7  UNL     1       1.195   8.590  14.859  1.00  0.00    -0.014 C 
HETATM   25  C8  UNL     1       2.061   7.326  14.908  1.00  0.00     0.010 C 
BRANCH  24  26
HETATM   26  C6  UNL     1       0.617   8.903  16.269  1.00  0.00     0.008 C 
BRANCH  26  27
HETATM   27  C5  UNL     1       0.734  10.374  16.690  1.00  0.00     0.028 C 
BRANCH  27  28
HETATM   28  C4  UNL     1       1.212  10.484  18.114  1.00  0.00    -0.025 C 
HETATM   29  C2  UNL     1       0.587  11.052  19.164  1.00  0.00    -0.091 C 
HETATM   30  C1  UNL     1       1.228  11.049  20.528  1.00  0.00     0.042 C 
HETATM   31  C3  UNL     1      -0.759  11.723  19.123  1.00  0.00     0.042 C 
ENDBRANCH  27  28
ENDBRANCH  26  27
ENDBRANCH  24  26
ENDBRANCH   1  24
TORSDOF 4
ENDMDL
MODEL 9
REMARK minimizedAffinity -8.55074787
REMARK  4 active torsions:
REMARK  status: ('A' for Active; 'I' for Inactive)
REMARK    1  A    between atoms: C4_4  and  C5_5 
REMARK    2  A    between atoms: C5_5  and  C6_6 
REMARK    3  A    between atoms: C6_6  and  C7_7 
REMARK    4  A    between atoms: C7_7  and  C9_9 
ROOT
HETATM    1  C9  UNL     1      -3.103   7.200  13.756  1.00  0.00    -0.002 C 
HETATM    2  C10 UNL     1      -3.267   5.973  12.806  1.00  0.00     0.006 C 
HETATM    3  C11 UNL     1      -1.863   5.578  12.307  1.00  0.00     0.011 C 
HETATM    4  C12 UNL     1      -0.893   6.347  13.220  1.00  0.00    -0.032 C 
HETATM    5  C13 UNL     1      -0.801   5.494  14.537  1.00  0.00     0.016 C 
HETATM    6  C14 UNL     1       0.580   6.555  12.731  1.00  0.00     0.004 C 
HETATM    7  C15 UNL     1       0.842   6.284  11.250  1.00  0.00     0.007 C 
HETATM    8  C16 UNL     1       2.321   6.434  10.855  1.00  0.00     0.007 C 
HETATM    9  C17 UNL     1       3.280   6.927  11.970  1.00  0.00     0.010 C 
HETATM   10  C18 UNL     1       4.693   7.321  11.423  1.00  0.00     0.018 C 
HETATM   11  C19 UNL     1       5.394   6.090  10.814  1.00  0.00     0.023 C 
HETATM   12  C20 UNL     1       4.660   8.429  10.355  1.00  0.00     0.023 C 
HETATM   13  C21 UNL     1       5.534   7.835  12.602  1.00  0.00     0.135 C 
HETATM   14  O1  UNL     1       6.662   7.410  12.853  1.00  0.00    -0.297 OA
HETATM   15  C22 UNL     1       4.937   8.946  13.429  1.00  0.00     0.080 C 
HETATM   16  C23 UNL     1       3.590   8.505  13.963  1.00  0.00     0.018 C 
HETATM   17  C24 UNL     1       2.667   8.036  12.854  1.00  0.00    -0.026 A 
HETATM   18  C25 UNL     1       1.686   8.993  12.237  1.00  0.00     0.021 A 
HETATM   19  C26 UNL     1       1.167   7.910  13.182  1.00  0.00    -0.027 A 
HETATM   20  C27 UNL     1       0.587   8.424  14.493  1.00  0.00     0.011 C 
HETATM   21  C28 UNL     1      -0.952   8.544  14.490  1.00  0.00     0.011 C 
HETATM   22  C29 UNL     1      -1.663   7.708  13.404  1.00  0.00    -0.032 C 
HETATM   23  C30 UNL     1      -1.756   8.557  12.102  1.00  0.00     0.016 C 
ENDROOT
BRANCH   1  24
HETATM   24  C7  UNL     1      -4.324   8.169  13.686  1.00  0.00    -0.014 C 
HETATM   25  C8  UNL     1      -4.570   8.875  15.024  1.00  0.00     0.010 C 
BRANCH  24  26
HETATM   26  C6  UNL     1      -5.596   7.387  13.248  1.00  0.00     0.008 C 
BRANCH  26  27
HETATM   27  C5  UNL     1      -6.431   6.833  14.410  1.00  0.00     0.028 C 
BRANCH  27  28
HETATM   28  C4  UNL     1      -6.628   5.348  14.263  1.00  0.00    -0.025 C 
HETATM   29  C2  UNL     1      -7.501   4.694  13.471  1.00  0.00    -0.091 C 
HETATM   30  C1  UNL     1      -7.538   3.188  13.453  1.00  0.00     0.042 C 
HETATM   31  C3  UNL     1      -8.497   5.341  12.547  1.00  0.00     0.042 C 
ENDBRANCH  27  28
ENDBRANCH  26  27
ENDBRANCH  24  26
ENDBRANCH   1  24
TORSDOF 4
ENDMDL
