MODEL 1
REMARK minimizedAffinity -10.217658
REMARK  2 active torsions:
REMARK  status: ('A' for Active; 'I' for Inactive)
REMARK    1  A    between atoms: C1_2  and  C2_3 
REMARK       I    between atoms: C1_2  and  N2_16 
REMARK    2  A    between atoms: C10_14  and  O2_15 
ROOT
HETATM    1  O1  UNL     1      -3.968  52.684 -22.594  1.00  0.00    -0.267 OA
HETATM    2  C1  UNL     1      -3.683  51.520 -22.310  1.00  0.00     0.258 C 
HETATM    3  N2  UNL     1      -3.731  50.463 -23.230  1.00  0.00    -0.339 N 
HETATM    4  C11 UNL     1      -4.502  49.275 -22.847  1.00  0.00     0.127 C 
HETATM    5  C12 UNL     1      -4.157  48.067 -23.702  1.00  0.00     0.024 C 
HETATM    6  C13 UNL     1      -4.422  48.367 -25.170  1.00  0.00     0.037 C 
HETATM    7  C14 UNL     1      -3.674  49.601 -25.582  1.00  0.00    -0.060 C 
HETATM    8  C15 UNL     1      -2.822  49.615 -26.661  1.00  0.00    -0.015 C 
HETATM    9  C16 UNL     1      -2.123  50.916 -27.193  1.00  0.00     0.031 C 
HETATM   10  C17 UNL     1      -2.982  52.002 -26.614  1.00  0.00     0.019 C 
HETATM   11  C18 UNL     1      -2.700  51.731 -25.124  1.00  0.00     0.031 C 
HETATM   12  C19 UNL     1      -1.639  52.717 -24.742  1.00  0.00     0.124 C 
HETATM   13  N3  UNL     1      -0.467  52.362 -25.629  1.00  0.00    -0.407 N 
HETATM   14  C20 UNL     1       0.374  53.497 -25.988  1.00  0.00     0.117 C 
HETATM   15  C21 UNL     1       0.036  54.052 -27.368  1.00  0.00     0.019 C 
HETATM   16  C22 UNL     1       0.048  52.982 -28.463  1.00  0.00     0.004 C 
HETATM   17  C23 UNL     1       0.271  51.576 -27.912  1.00  0.00     0.026 C 
HETATM   18  C24 UNL     1      -0.627  51.275 -26.695  1.00  0.00     0.086 C 
HETATM   19  C25 UNL     1      -3.853  50.871 -24.634  1.00  0.00     0.122 C 
ENDROOT
BRANCH   2  20
HETATM   20  C2  UNL     1      -3.224  51.254 -20.929  1.00  0.00     0.081 A 
HETATM   21  C3  UNL     1      -4.072  50.699 -19.987  1.00  0.00     0.108 A 
HETATM   22  N1  UNL     1      -3.710  50.425 -18.709  1.00  0.00    -0.364 N 
HETATM   23  C4  UNL     1      -2.442  50.675 -18.340  1.00  0.00     0.046 A 
ATOM     24  H1  UNL     1      -4.382  50.039 -18.046  1.00  0.00     0.165 HD
HETATM   25  C5  UNL     1      -2.060  50.390 -17.038  1.00  0.00     0.054 A 
HETATM   26  C9  UNL     1      -1.483  51.206 -19.230  1.00  0.00     0.025 A 
HETATM   27  C6  UNL     1      -0.754  50.611 -16.603  1.00  0.00     0.036 A 
HETATM   28 CL1  UNL     1      -0.317  50.235 -14.982  1.00  0.00    -0.084 Cl
HETATM   29  C7  UNL     1       0.199  51.131 -17.468  1.00  0.00     0.025 A 
HETATM   30  C8  UNL     1      -0.164  51.429 -18.779  1.00  0.00     0.018 A 
HETATM   31  C10 UNL     1      -1.902  51.478 -20.547  1.00  0.00     0.095 A 
BRANCH  31  32
HETATM   32  O2  UNL     1      -0.970  51.959 -21.440  1.00  0.00    -0.359 OA
HETATM   33  H5  UNL     1      -1.334  51.852 -22.348  1.00  0.00     0.217 HD
ENDBRANCH  31  32
ENDBRANCH   2  20
TORSDOF 2
ENDMDL
MODEL 2
REMARK minimizedAffinity -9.62402058
REMARK  2 active torsions:
REMARK  status: ('A' for Active; 'I' for Inactive)
REMARK    1  A    between atoms: C1_2  and  C2_3 
REMARK       I    between atoms: C1_2  and  N2_16 
REMARK    2  A    between atoms: C10_14  and  O2_15 
ROOT
HETATM    1  O1  UNL     1      -1.990  52.460 -18.987  1.00  0.00    -0.267 OA
HETATM    2  C1  UNL     1      -1.585  51.304 -18.856  1.00  0.00     0.258 C 
HETATM    3  N2  UNL     1      -1.903  50.266 -19.745  1.00  0.00    -0.339 N 
HETATM    4  C11 UNL     1      -2.457  49.036 -19.168  1.00  0.00     0.127 C 
HETATM    5  C12 UNL     1      -2.378  47.864 -20.133  1.00  0.00     0.024 C 
HETATM    6  C13 UNL     1      -3.132  48.185 -21.415  1.00  0.00     0.037 C 
HETATM    7  C14 UNL     1      -2.611  49.460 -22.009  1.00  0.00    -0.060 C 
HETATM    8  C15 UNL     1      -2.173  49.536 -23.311  1.00  0.00    -0.015 C 
HETATM    9  C16 UNL     1      -1.740  50.879 -23.999  1.00  0.00     0.031 C 
HETATM   10  C17 UNL     1      -2.391  51.912 -23.126  1.00  0.00     0.019 C 
HETATM   11  C18 UNL     1      -1.615  51.621 -21.828  1.00  0.00     0.031 C 
HETATM   12  C19 UNL     1      -0.523  52.645 -21.789  1.00  0.00     0.124 C 
HETATM   13  N3  UNL     1       0.294  52.363 -23.030  1.00  0.00    -0.407 N 
HETATM   14  C20 UNL     1       0.924  53.543 -23.608  1.00  0.00     0.117 C 
HETATM   15  C21 UNL     1       0.123  54.113 -24.774  1.00  0.00     0.019 C 
HETATM   16  C22 UNL     1      -0.197  53.069 -25.847  1.00  0.00     0.004 C 
HETATM   17  C23 UNL     1       0.248  51.663 -25.454  1.00  0.00     0.026 C 
HETATM   18  C24 UNL     1      -0.177  51.295 -24.018  1.00  0.00     0.086 C 
HETATM   19  C25 UNL     1      -2.504  50.699 -21.011  1.00  0.00     0.122 C 
ENDROOT
BRANCH   2  20
HETATM   20  C2  UNL     1      -0.679  51.029 -17.720  1.00  0.00     0.081 A 
HETATM   21  C3  UNL     1      -0.905  49.964 -16.865  1.00  0.00     0.108 A 
HETATM   22  N1  UNL     1      -0.109  49.655 -15.812  1.00  0.00    -0.364 N 
HETATM   23  C4  UNL     1       0.986  50.406 -15.601  1.00  0.00     0.046 A 
ATOM     24  H1  UNL     1      -0.336  48.874 -15.196  1.00  0.00     0.165 HD
HETATM   25  C5  UNL     1       1.811  50.093 -14.532  1.00  0.00     0.054 A 
HETATM   26  C9  UNL     1       1.333  51.493 -16.433  1.00  0.00     0.025 A 
HETATM   27  C6  UNL     1       2.969  50.824 -14.273  1.00  0.00     0.036 A 
HETATM   28 CL1  UNL     1       3.972  50.397 -12.942  1.00  0.00    -0.084 Cl
HETATM   29  C7  UNL     1       3.323  51.894 -15.085  1.00  0.00     0.025 A 
HETATM   30  C8  UNL     1       2.507  52.229 -16.162  1.00  0.00     0.018 A 
HETATM   31  C10 UNL     1       0.477  51.780 -17.515  1.00  0.00     0.095 A 
BRANCH  31  32
HETATM   32  O2  UNL     1       0.821  52.812 -18.360  1.00  0.00    -0.359 OA
HETATM   33  H5  UNL     1       0.289  52.721 -19.183  1.00  0.00     0.217 HD
ENDBRANCH  31  32
ENDBRANCH   2  20
TORSDOF 2
ENDMDL
MODEL 3
REMARK minimizedAffinity -9.3945322
REMARK  2 active torsions:
REMARK  status: ('A' for Active; 'I' for Inactive)
REMARK    1  A    between atoms: C1_2  and  C2_3 
REMARK       I    between atoms: C1_2  and  N2_16 
REMARK    2  A    between atoms: C10_14  and  O2_15 
ROOT
HETATM    1  O1  UNL     1      -1.734  49.100 -22.469  1.00  0.00    -0.267 OA
HETATM    2  C1  UNL     1      -2.104  50.048 -21.776  1.00  0.00     0.258 C 
HETATM    3  N2  UNL     1      -1.321  51.189 -21.542  1.00  0.00    -0.339 N 
HETATM    4  C11 UNL     1      -1.120  51.588 -20.144  1.00  0.00     0.127 C 
HETATM    5  C12 UNL     1      -0.627  53.021 -20.022  1.00  0.00     0.024 C 
HETATM    6  C13 UNL     1       0.685  53.192 -20.772  1.00  0.00     0.037 C 
HETATM    7  C14 UNL     1       0.520  52.756 -22.198  1.00  0.00    -0.060 C 
HETATM    8  C15 UNL     1       0.848  53.571 -23.256  1.00  0.00    -0.015 C 
HETATM    9  C16 UNL     1       0.805  53.102 -24.753  1.00  0.00     0.031 C 
HETATM   10  C17 UNL     1       0.848  51.608 -24.623  1.00  0.00     0.019 C 
HETATM   11  C18 UNL     1      -0.493  51.414 -23.891  1.00  0.00     0.031 C 
HETATM   12  C19 UNL     1      -1.471  51.038 -24.962  1.00  0.00     0.124 C 
HETATM   13  N3  UNL     1      -1.482  52.232 -25.889  1.00  0.00    -0.407 N 
HETATM   14  C20 UNL     1      -1.745  51.901 -27.283  1.00  0.00     0.117 C 
HETATM   15  C21 UNL     1      -0.463  51.804 -28.105  1.00  0.00     0.019 C 
HETATM   16  C22 UNL     1       0.420  53.048 -27.985  1.00  0.00     0.004 C 
HETATM   17  C23 UNL     1      -0.116  54.058 -26.972  1.00  0.00     0.026 C 
HETATM   18  C24 UNL     1      -0.516  53.392 -25.640  1.00  0.00     0.086 C 
HETATM   19  C25 UNL     1      -0.150  51.325 -22.414  1.00  0.00     0.122 C 
ENDROOT
BRANCH   2  20
HETATM   20  C2  UNL     1      -3.467  49.980 -21.208  1.00  0.00     0.081 A 
HETATM   21  C3  UNL     1      -4.494  50.759 -21.712  1.00  0.00     0.108 A 
HETATM   22  N1  UNL     1      -5.765  50.737 -21.241  1.00  0.00    -0.364 N 
HETATM   23  C4  UNL     1      -6.059  49.882 -20.245  1.00  0.00     0.046 A 
ATOM     24  H1  UNL     1      -6.479  51.351 -21.632  1.00  0.00     0.165 HD
HETATM   25  C5  UNL     1      -7.358  49.845 -19.762  1.00  0.00     0.054 A 
HETATM   26  C9  UNL     1      -5.098  49.014 -19.681  1.00  0.00     0.025 A 
HETATM   27  C6  UNL     1      -7.725  48.968 -18.743  1.00  0.00     0.036 A 
HETATM   28 CL1  UNL     1      -9.351  48.946 -18.179  1.00  0.00    -0.084 Cl
HETATM   29  C7  UNL     1      -6.791  48.108 -18.182  1.00  0.00     0.025 A 
HETATM   30  C8  UNL     1      -5.479  48.131 -18.648  1.00  0.00     0.018 A 
HETATM   31  C10 UNL     1      -3.789  49.072 -20.200  1.00  0.00     0.095 A 
BRANCH  31  32
HETATM   32  O2  UNL     1      -2.848  48.205 -19.689  1.00  0.00    -0.359 OA
HETATM   33  H5  UNL     1      -2.085  48.184 -20.309  1.00  0.00     0.217 HD
ENDBRANCH  31  32
ENDBRANCH   2  20
TORSDOF 2
ENDMDL
MODEL 4
REMARK minimizedAffinity -9.15643406
REMARK  2 active torsions:
REMARK  status: ('A' for Active; 'I' for Inactive)
REMARK    1  A    between atoms: C1_2  and  C2_3 
REMARK       I    between atoms: C1_2  and  N2_16 
REMARK    2  A    between atoms: C10_14  and  O2_15 
ROOT
HETATM    1  O1  UNL     1      -0.872  48.977 -18.095  1.00  0.00    -0.267 OA
HETATM    2  C1  UNL     1      -0.975  50.181 -17.861  1.00  0.00     0.258 C 
HETATM    3  N2  UNL     1      -0.660  51.182 -18.791  1.00  0.00    -0.339 N 
HETATM    4  C11 UNL     1       0.267  52.233 -18.357  1.00  0.00     0.127 C 
HETATM    5  C12 UNL     1       0.216  53.453 -19.263  1.00  0.00     0.024 C 
HETATM    6  C13 UNL     1       0.559  53.061 -20.692  1.00  0.00     0.037 C 
HETATM    7  C14 UNL     1      -0.350  51.960 -21.153  1.00  0.00    -0.060 C 
HETATM    8  C15 UNL     1      -1.089  52.055 -22.309  1.00  0.00    -0.015 C 
HETATM    9  C16 UNL     1      -1.951  50.875 -22.882  1.00  0.00     0.031 C 
HETATM   10  C17 UNL     1      -1.351  49.679 -22.204  1.00  0.00     0.019 C 
HETATM   11  C18 UNL     1      -1.717  50.045 -20.753  1.00  0.00     0.031 C 
HETATM   12  C19 UNL     1      -2.963  49.269 -20.458  1.00  0.00     0.124 C 
HETATM   13  N3  UNL     1      -3.969  49.789 -21.460  1.00  0.00    -0.407 N 
HETATM   14  C20 UNL     1      -4.958  48.802 -21.877  1.00  0.00     0.117 C 
HETATM   15  C21 UNL     1      -4.596  48.151 -23.208  1.00  0.00     0.019 C 
HETATM   16  C22 UNL     1      -4.322  49.168 -24.318  1.00  0.00     0.004 C 
HETATM   17  C23 UNL     1      -4.347  50.610 -23.816  1.00  0.00     0.026 C 
HETATM   18  C24 UNL     1      -3.526  50.795 -22.524  1.00  0.00     0.086 C 
HETATM   19  C25 UNL     1      -0.482  50.712 -20.169  1.00  0.00     0.122 C 
ENDROOT
BRANCH   2  20
HETATM   20  C2  UNL     1      -1.506  50.569 -16.536  1.00  0.00     0.081 A 
HETATM   21  C3  UNL     1      -2.846  50.862 -16.358  1.00  0.00     0.108 A 
HETATM   22  N1  UNL     1      -3.394  51.216 -15.170  1.00  0.00    -0.364 N 
HETATM   23  C4  UNL     1      -2.597  51.252 -14.087  1.00  0.00     0.046 A 
ATOM     24  H1  UNL     1      -4.385  51.448 -15.098  1.00  0.00     0.165 HD
HETATM   25  C5  UNL     1      -3.149  51.605 -12.866  1.00  0.00     0.054 A 
HETATM   26  C9  UNL     1      -1.222  50.935 -14.147  1.00  0.00     0.025 A 
HETATM   27  C6  UNL     1      -2.376  51.643 -11.707  1.00  0.00     0.036 A 
HETATM   28 CL1  UNL     1      -3.102  52.075 -10.208  1.00  0.00    -0.084 Cl
HETATM   29  C7  UNL     1      -1.024  51.332 -11.751  1.00  0.00     0.025 A 
HETATM   30  C8  UNL     1      -0.446  50.980 -12.968  1.00  0.00     0.018 A 
HETATM   31  C10 UNL     1      -0.693  50.575 -15.402  1.00  0.00     0.095 A 
BRANCH  31  32
HETATM   32  O2  UNL     1       0.637  50.224 -15.472  1.00  0.00    -0.359 OA
HETATM   33  H5  UNL     1       0.785  49.762 -16.327  1.00  0.00     0.217 HD
ENDBRANCH  31  32
ENDBRANCH   2  20
TORSDOF 2
ENDMDL
MODEL 5
REMARK minimizedAffinity -9.14806557
REMARK  2 active torsions:
REMARK  status: ('A' for Active; 'I' for Inactive)
REMARK    1  A    between atoms: C1_2  and  C2_3 
REMARK       I    between atoms: C1_2  and  N2_16 
REMARK    2  A    between atoms: C10_14  and  O2_15 
ROOT
HETATM    1  O1  UNL     1      -4.820  52.201 -23.457  1.00  0.00    -0.267 OA
HETATM    2  C1  UNL     1      -3.853  51.614 -22.969  1.00  0.00     0.258 C 
HETATM    3  N2  UNL     1      -3.932  50.813 -21.821  1.00  0.00    -0.339 N 
HETATM    4  C11 UNL     1      -2.988  51.102 -20.735  1.00  0.00     0.127 C 
HETATM    5  C12 UNL     1      -2.881  49.951 -19.747  1.00  0.00     0.024 C 
HETATM    6  C13 UNL     1      -4.243  49.650 -19.141  1.00  0.00     0.037 C 
HETATM    7  C14 UNL     1      -5.241  49.385 -20.230  1.00  0.00    -0.060 C 
HETATM    8  C15 UNL     1      -6.002  48.241 -20.264  1.00  0.00    -0.015 C 
HETATM    9  C16 UNL     1      -7.140  47.992 -21.317  1.00  0.00     0.031 C 
HETATM   10  C17 UNL     1      -7.444  49.381 -21.797  1.00  0.00     0.019 C 
HETATM   11  C18 UNL     1      -6.080  49.691 -22.443  1.00  0.00     0.031 C 
HETATM   12  C19 UNL     1      -6.270  49.420 -23.903  1.00  0.00     0.124 C 
HETATM   13  N3  UNL     1      -6.620  47.950 -23.964  1.00  0.00    -0.407 N 
HETATM   14  C20 UNL     1      -7.505  47.594 -25.066  1.00  0.00     0.117 C 
HETATM   15  C21 UNL     1      -8.962  47.494 -24.627  1.00  0.00     0.019 C 
HETATM   16  C22 UNL     1      -9.164  46.564 -23.428  1.00  0.00     0.004 C 
HETATM   17  C23 UNL     1      -7.847  46.041 -22.859  1.00  0.00     0.026 C 
HETATM   18  C24 UNL     1      -6.807  47.163 -22.665  1.00  0.00     0.086 C 
HETATM   19  C25 UNL     1      -5.295  50.469 -21.400  1.00  0.00     0.122 C 
ENDROOT
BRANCH   2  20
HETATM   20  C2  UNL     1      -2.560  51.738 -23.675  1.00  0.00     0.081 A 
HETATM   21  C3  UNL     1      -1.420  52.159 -23.013  1.00  0.00     0.108 A 
HETATM   22  N1  UNL     1      -0.204  52.286 -23.600  1.00  0.00    -0.364 N 
HETATM   23  C4  UNL     1      -0.087  51.951 -24.898  1.00  0.00     0.046 A 
ATOM     24  H1  UNL     1       0.599  52.626 -23.072  1.00  0.00     0.165 HD
HETATM   25  C5  UNL     1       1.153  52.069 -25.505  1.00  0.00     0.054 A 
HETATM   26  C9  UNL     1      -1.177  51.475 -25.660  1.00  0.00     0.025 A 
HETATM   27  C6  UNL     1       1.339  51.722 -26.842  1.00  0.00     0.036 A 
HETATM   28 CL1  UNL     1       2.897  51.873 -27.557  1.00  0.00    -0.084 Cl
HETATM   29  C7  UNL     1       0.277  51.250 -27.602  1.00  0.00     0.025 A 
HETATM   30  C8  UNL     1      -0.979  51.127 -27.014  1.00  0.00     0.018 A 
HETATM   31  C10 UNL     1      -2.421  51.360 -25.010  1.00  0.00     0.095 A 
BRANCH  31  32
HETATM   32  O2  UNL     1      -3.486  50.860 -25.727  1.00  0.00    -0.359 OA
HETATM   33  H5  UNL     1      -4.189  50.603 -25.088  1.00  0.00     0.217 HD
ENDBRANCH  31  32
ENDBRANCH   2  20
TORSDOF 2
ENDMDL
MODEL 6
REMARK minimizedAffinity -9.01438046
REMARK  2 active torsions:
REMARK  status: ('A' for Active; 'I' for Inactive)
REMARK    1  A    between atoms: C1_2  and  C2_3 
REMARK       I    between atoms: C1_2  and  N2_16 
REMARK    2  A    between atoms: C10_14  and  O2_15 
ROOT
HETATM    1  O1  UNL     1      -5.153  50.977 -22.986  1.00  0.00    -0.267 OA
HETATM    2  C1  UNL     1      -4.685  49.968 -23.514  1.00  0.00     0.258 C 
HETATM    3  N2  UNL     1      -3.588  49.987 -24.388  1.00  0.00    -0.339 N 
HETATM    4  C11 UNL     1      -3.756  49.330 -25.689  1.00  0.00     0.127 C 
HETATM    5  C12 UNL     1      -2.424  49.052 -26.367  1.00  0.00     0.024 C 
HETATM    6  C13 UNL     1      -1.656  50.349 -26.571  1.00  0.00     0.037 C 
HETATM    7  C14 UNL     1      -1.500  51.062 -25.261  1.00  0.00    -0.060 C 
HETATM    8  C15 UNL     1      -0.273  51.461 -24.784  1.00  0.00    -0.015 C 
HETATM    9  C16 UNL     1      -0.089  52.317 -23.482  1.00  0.00     0.031 C 
HETATM   10  C17 UNL     1      -1.449  52.923 -23.300  1.00  0.00     0.019 C 
HETATM   11  C18 UNL     1      -2.237  51.621 -23.061  1.00  0.00     0.031 C 
HETATM   12  C19 UNL     1      -2.367  51.512 -21.573  1.00  0.00     0.124 C 
HETATM   13  N3  UNL     1      -0.940  51.426 -21.082  1.00  0.00    -0.407 N 
HETATM   14  C20 UNL     1      -0.728  52.005 -19.761  1.00  0.00     0.117 C 
HETATM   15  C21 UNL     1      -0.174  53.424 -19.836  1.00  0.00     0.019 C 
HETATM   16  C22 UNL     1       1.085  53.530 -20.699  1.00  0.00     0.004 C 
HETATM   17  C23 UNL     1       1.436  52.218 -21.396  1.00  0.00     0.026 C 
HETATM   18  C24 UNL     1       0.213  51.573 -22.078  1.00  0.00     0.086 C 
HETATM   19  C25 UNL     1      -2.835  51.245 -24.407  1.00  0.00     0.122 C 
ENDROOT
BRANCH   2  20
HETATM   20  C2  UNL     1      -5.302  48.672 -23.158  1.00  0.00     0.081 A 
HETATM   21  C3  UNL     1      -4.779  47.882 -22.149  1.00  0.00     0.108 A 
HETATM   22  N1  UNL     1      -5.301  46.690 -21.771  1.00  0.00    -0.364 N 
HETATM   23  C4  UNL     1      -6.416  46.259 -22.389  1.00  0.00     0.046 A 
ATOM     24  H1  UNL     1      -4.861  46.134 -21.038  1.00  0.00     0.165 HD
HETATM   25  C5  UNL     1      -6.963  45.045 -22.004  1.00  0.00     0.054 A 
HETATM   26  C9  UNL     1      -7.054  47.001 -23.407  1.00  0.00     0.025 A 
HETATM   27  C6  UNL     1      -8.125  44.555 -22.596  1.00  0.00     0.036 A 
HETATM   28 CL1  UNL     1      -8.778  43.049 -22.083  1.00  0.00    -0.084 Cl
HETATM   29  C7  UNL     1      -8.764  45.276 -23.596  1.00  0.00     0.025 A 
HETATM   30  C8  UNL     1      -8.230  46.496 -24.002  1.00  0.00     0.018 A 
HETATM   31  C10 UNL     1      -6.476  48.234 -23.770  1.00  0.00     0.095 A 
BRANCH  31  32
HETATM   32  O2  UNL     1      -7.108  48.990 -24.733  1.00  0.00    -0.359 OA
HETATM   33  H5  UNL     1      -6.746  49.904 -24.688  1.00  0.00     0.217 HD
ENDBRANCH  31  32
ENDBRANCH   2  20
TORSDOF 2
ENDMDL
MODEL 7
REMARK minimizedAffinity -9.014081
REMARK  2 active torsions:
REMARK  status: ('A' for Active; 'I' for Inactive)
REMARK    1  A    between atoms: C1_2  and  C2_3 
REMARK       I    between atoms: C1_2  and  N2_16 
REMARK    2  A    between atoms: C10_14  and  O2_15 
ROOT
HETATM    1  O1  UNL     1      -5.284  50.464 -22.517  1.00  0.00    -0.267 OA
HETATM    2  C1  UNL     1      -4.799  49.463 -23.048  1.00  0.00     0.258 C 
HETATM    3  N2  UNL     1      -3.795  49.513 -24.025  1.00  0.00    -0.339 N 
HETATM    4  C11 UNL     1      -4.039  48.786 -25.276  1.00  0.00     0.127 C 
HETATM    5  C12 UNL     1      -2.762  48.564 -26.069  1.00  0.00     0.024 C 
HETATM    6  C13 UNL     1      -2.109  49.898 -26.400  1.00  0.00     0.037 C 
HETATM    7  C14 UNL     1      -1.879  50.681 -25.141  1.00  0.00    -0.060 C 
HETATM    8  C15 UNL     1      -0.643  51.181 -24.804  1.00  0.00    -0.015 C 
HETATM    9  C16 UNL     1      -0.396  52.107 -23.562  1.00  0.00     0.031 C 
HETATM   10  C17 UNL     1      -1.772  52.631 -23.272  1.00  0.00     0.019 C 
HETATM   11  C18 UNL     1      -2.441  51.293 -22.904  1.00  0.00     0.031 C 
HETATM   12  C19 UNL     1      -2.421  51.246 -21.407  1.00  0.00     0.124 C 
HETATM   13  N3  UNL     1      -0.950  51.276 -21.056  1.00  0.00    -0.407 N 
HETATM   14  C20 UNL     1      -0.655  51.929 -19.787  1.00  0.00     0.117 C 
HETATM   15  C21 UNL     1      -0.211  53.377 -19.973  1.00  0.00     0.019 C 
HETATM   16  C22 UNL     1       0.950  53.525 -20.959  1.00  0.00     0.004 C 
HETATM   17  C23 UNL     1       1.324  52.207 -21.633  1.00  0.00     0.026 C 
HETATM   18  C24 UNL     1       0.089  51.452 -22.165  1.00  0.00     0.086 C 
HETATM   19  C25 UNL     1      -3.136  50.816 -24.168  1.00  0.00     0.122 C 
ENDROOT
BRANCH   2  20
HETATM   20  C2  UNL     1      -5.287  48.148 -22.581  1.00  0.00     0.081 A 
HETATM   21  C3  UNL     1      -6.426  47.573 -23.118  1.00  0.00     0.108 A 
HETATM   22  N1  UNL     1      -6.919  46.369 -22.739  1.00  0.00    -0.364 N 
HETATM   23  C4  UNL     1      -6.245  45.670 -21.808  1.00  0.00     0.046 A 
ATOM     24  H1  UNL     1      -7.778  46.002 -23.149  1.00  0.00     0.165 HD
HETATM   25  C5  UNL     1      -6.737  44.434 -21.419  1.00  0.00     0.054 A 
HETATM   26  C9  UNL     1      -5.052  46.144 -21.220  1.00  0.00     0.025 A 
HETATM   27  C6  UNL     1      -6.073  43.657 -20.472  1.00  0.00     0.036 A 
HETATM   28 CL1  UNL     1      -6.710  42.123 -20.024  1.00  0.00    -0.084 Cl
HETATM   29  C7  UNL     1      -4.898  44.110 -19.887  1.00  0.00     0.025 A 
HETATM   30  C8  UNL     1      -4.388  45.351 -20.259  1.00  0.00     0.018 A 
HETATM   31  C10 UNL     1      -4.576  47.401 -21.641  1.00  0.00     0.095 A 
BRANCH  31  32
HETATM   32  O2  UNL     1      -3.393  47.861 -21.108  1.00  0.00    -0.359 OA
HETATM   33  H5  UNL     1      -3.070  48.599 -21.673  1.00  0.00     0.217 HD
ENDBRANCH  31  32
ENDBRANCH   2  20
TORSDOF 2
ENDMDL
MODEL 8
REMARK minimizedAffinity -8.98360348
REMARK  2 active torsions:
REMARK  status: ('A' for Active; 'I' for Inactive)
REMARK    1  A    between atoms: C1_2  and  C2_3 
REMARK       I    between atoms: C1_2  and  N2_16 
REMARK    2  A    between atoms: C10_14  and  O2_15 
ROOT
HETATM    1  O1  UNL     1      -0.849  51.104 -16.235  1.00  0.00    -0.267 OA
HETATM    2  C1  UNL     1       0.183  51.220 -16.898  1.00  0.00     0.258 C 
HETATM    3  N2  UNL     1       1.459  51.348 -16.330  1.00  0.00    -0.339 N 
HETATM    4  C11 UNL     1       2.279  52.480 -16.774  1.00  0.00     0.127 C 
HETATM    5  C12 UNL     1       3.747  52.296 -16.424  1.00  0.00     0.024 C 
HETATM    6  C13 UNL     1       3.914  52.134 -14.921  1.00  0.00     0.037 C 
HETATM    7  C14 UNL     1       3.057  51.004 -14.431  1.00  0.00    -0.060 C 
HETATM    8  C15 UNL     1       3.569  49.962 -13.694  1.00  0.00    -0.015 C 
HETATM    9  C16 UNL     1       2.680  48.833 -13.062  1.00  0.00     0.031 C 
HETATM   10  C17 UNL     1       1.321  49.469 -13.039  1.00  0.00     0.019 C 
HETATM   11  C18 UNL     1       1.123  49.613 -14.560  1.00  0.00     0.031 C 
HETATM   12  C19 UNL     1       0.285  48.436 -14.957  1.00  0.00     0.124 C 
HETATM   13  N3  UNL     1       1.134  47.238 -14.593  1.00  0.00    -0.407 N 
HETATM   14  C20 UNL     1       0.366  46.061 -14.206  1.00  0.00     0.117 C 
HETATM   15  C21 UNL     1       0.256  45.916 -12.692  1.00  0.00     0.019 C 
HETATM   16  C22 UNL     1       1.613  45.953 -11.986  1.00  0.00     0.004 C 
HETATM   17  C23 UNL     1       2.767  46.252 -12.940  1.00  0.00     0.026 C 
HETATM   18  C24 UNL     1       2.464  47.447 -13.866  1.00  0.00     0.086 C 
HETATM   19  C25 UNL     1       1.532  51.036 -14.899  1.00  0.00     0.122 C 
ENDROOT
BRANCH   2  20
HETATM   20  C2  UNL     1       0.050  51.173 -18.370  1.00  0.00     0.081 A 
HETATM   21  C3  UNL     1      -0.396  50.032 -19.013  1.00  0.00     0.108 A 
HETATM   22  N1  UNL     1      -0.546  49.928 -20.357  1.00  0.00    -0.364 N 
HETATM   23  C4  UNL     1      -0.280  51.008 -21.112  1.00  0.00     0.046 A 
ATOM     24  H1  UNL     1      -0.854  49.054 -20.783  1.00  0.00     0.165 HD
HETATM   25  C5  UNL     1      -0.438  50.915 -22.486  1.00  0.00     0.054 A 
HETATM   26  C9  UNL     1       0.146  52.236 -20.557  1.00  0.00     0.025 A 
HETATM   27  C6  UNL     1      -0.193  52.006 -23.317  1.00  0.00     0.036 A 
HETATM   28 CL1  UNL     1      -0.412  51.853 -25.017  1.00  0.00    -0.084 Cl
HETATM   29  C7  UNL     1       0.223  53.219 -22.785  1.00  0.00     0.025 A 
HETATM   30  C8  UNL     1       0.394  53.334 -21.408  1.00  0.00     0.018 A 
HETATM   31  C10 UNL     1       0.291  52.298 -19.157  1.00  0.00     0.095 A 
BRANCH  31  32
HETATM   32  O2  UNL     1       0.666  53.499 -18.595  1.00  0.00    -0.359 OA
HETATM   33  H5  UNL     1       0.475  53.457 -17.631  1.00  0.00     0.217 HD
ENDBRANCH  31  32
ENDBRANCH   2  20
TORSDOF 2
ENDMDL
MODEL 9
REMARK minimizedAffinity -8.98005104
REMARK  2 active torsions:
REMARK  status: ('A' for Active; 'I' for Inactive)
REMARK    1  A    between atoms: C1_2  and  C2_3 
REMARK       I    between atoms: C1_2  and  N2_16 
REMARK    2  A    between atoms: C10_14  and  O2_15 
ROOT
HETATM    1  O1  UNL     1      -1.084  48.303 -21.430  1.00  0.00    -0.267 OA
HETATM    2  C1  UNL     1      -1.106  49.528 -21.299  1.00  0.00     0.258 C 
HETATM    3  N2  UNL     1      -1.610  50.403 -22.272  1.00  0.00    -0.339 N 
HETATM    4  C11 UNL     1      -0.739  51.503 -22.700  1.00  0.00     0.127 C 
HETATM    5  C12 UNL     1      -1.510  52.597 -23.422  1.00  0.00     0.024 C 
HETATM    6  C13 UNL     1      -2.212  52.027 -24.645  1.00  0.00     0.037 C 
HETATM    7  C14 UNL     1      -3.083  50.874 -24.244  1.00  0.00    -0.060 C 
HETATM    8  C15 UNL     1      -4.419  50.818 -24.565  1.00  0.00    -0.015 C 
HETATM    9  C16 UNL     1      -5.328  49.573 -24.270  1.00  0.00     0.031 C 
HETATM   10  C17 UNL     1      -4.320  48.475 -24.094  1.00  0.00     0.019 C 
HETATM   11  C18 UNL     1      -3.619  49.022 -22.837  1.00  0.00     0.031 C 
HETATM   12  C19 UNL     1      -4.242  48.287 -21.691  1.00  0.00     0.124 C 
HETATM   13  N3  UNL     1      -5.703  48.671 -21.755  1.00  0.00    -0.407 N 
HETATM   14  C20 UNL     1      -6.612  47.637 -21.278  1.00  0.00     0.117 C 
HETATM   15  C21 UNL     1      -7.209  46.822 -22.421  1.00  0.00     0.019 C 
HETATM   16  C22 UNL     1      -7.868  47.691 -23.495  1.00  0.00     0.004 C 
HETATM   17  C23 UNL     1      -7.671  49.185 -23.249  1.00  0.00     0.026 C 
HETATM   18  C24 UNL     1      -6.207  49.534 -22.914  1.00  0.00     0.086 C 
HETATM   19  C25 UNL     1      -2.388  49.761 -23.337  1.00  0.00     0.122 C 
ENDROOT
BRANCH   2  20
HETATM   20  C2  UNL     1      -0.611  50.080 -20.019  1.00  0.00     0.081 A 
HETATM   21  C3  UNL     1      -0.110  51.367 -19.940  1.00  0.00     0.108 A 
HETATM   22  N1  UNL     1       0.352  51.933 -18.798  1.00  0.00    -0.364 N 
HETATM   23  C4  UNL     1       0.289  51.215 -17.662  1.00  0.00     0.046 A 
ATOM     24  H1  UNL     1       0.736  52.878 -18.800  1.00  0.00     0.165 HD
HETATM   25  C5  UNL     1       0.750  51.788 -16.487  1.00  0.00     0.054 A 
HETATM   26  C9  UNL     1      -0.238  49.905 -17.621  1.00  0.00     0.025 A 
HETATM   27  C6  UNL     1       0.695  51.098 -15.277  1.00  0.00     0.036 A 
HETATM   28 CL1  UNL     1       1.269  51.848 -13.838  1.00  0.00    -0.084 Cl
HETATM   29  C7  UNL     1       0.177  49.811 -15.221  1.00  0.00     0.025 A 
HETATM   30  C8  UNL     1      -0.288  49.215 -16.391  1.00  0.00     0.018 A 
HETATM   31  C10 UNL     1      -0.705  49.356 -18.831  1.00  0.00     0.095 A 
BRANCH  31  32
HETATM   32  O2  UNL     1      -1.259  48.095 -18.802  1.00  0.00    -0.359 OA
HETATM   33  H5  UNL     1      -1.758  47.962 -19.640  1.00  0.00     0.217 HD
ENDBRANCH  31  32
ENDBRANCH   2  20
TORSDOF 2
ENDMDL
