MODEL 1
REMARK minimizedAffinity -8.48302937
REMARK  13 active torsions:
REMARK  status: ('A' for Active; 'I' for Inactive)
REMARK    1  A    between atoms: C2_2  and  C3_3 
REMARK    2  A    between atoms: C3_3  and  C5_5 
REMARK    3  A    between atoms: C3_3  and  O3_18 
REMARK    4  A    between atoms: C5_5  and  C6_6 
REMARK    5  A    between atoms: C7_7  and  C8_8 
REMARK    6  A    between atoms: C12_12  and  C13_13 
REMARK    7  A    between atoms: C13_13  and  O1_16 
REMARK    8  A    between atoms: O3_18  and  C16_19 
REMARK    9  A    between atoms: C17_21  and  C18_22 
REMARK   10  A    between atoms: C18_22  and  O5_23 
REMARK   11  A    between atoms: C19_24  and  O6_25 
REMARK   12  A    between atoms: C20_26  and  O7_27 
REMARK   13  A    between atoms: C21_28  and  O8_29 
ROOT
HETATM    1  C3  UNL     1       9.084  62.305 -34.566  1.00  0.00     0.081 C 
HETATM    2  C4  UNL     1       8.317  60.974 -34.446  1.00  0.00     0.051 C 
ENDROOT
BRANCH   1   3
HETATM    3  C2  UNL     1       9.907  62.493 -33.296  1.00  0.00     0.001 C 
HETATM    4  C1  UNL     1      10.196  61.598 -32.340  1.00  0.00     0.010 C 
ENDBRANCH   1   3
BRANCH   1   5
HETATM    5  C5  UNL     1       9.896  62.387 -35.901  1.00  0.00     0.068 C 
BRANCH   5   6
HETATM    6  C6  UNL     1      11.254  63.049 -35.993  1.00  0.00    -0.024 C 
HETATM    7  C7  UNL     1      12.410  62.557 -36.474  1.00  0.00     0.006 C 
BRANCH   7   8
HETATM    8  C8  UNL     1      13.723  63.302 -36.573  1.00  0.00     0.075 C 
HETATM    9  C9  UNL     1      13.452  64.807 -36.675  1.00  0.00     0.050 C 
HETATM   10  C10 UNL     1      14.563  62.788 -37.744  1.00  0.00     0.044 C 
HETATM   11  C11 UNL     1      15.976  62.996 -37.252  1.00  0.00     0.038 C 
HETATM   12  C12 UNL     1      15.842  62.657 -35.774  1.00  0.00     0.156 C 
HETATM   13  O2  UNL     1      14.523  63.096 -35.394  1.00  0.00    -0.368 OA
BRANCH  12  14
HETATM   14  C13 UNL     1      16.926  63.260 -34.842  1.00  0.00     0.076 C 
HETATM   15  C14 UNL     1      17.491  64.562 -35.421  1.00  0.00     0.048 C 
HETATM   16  C15 UNL     1      18.066  62.259 -34.623  1.00  0.00     0.048 C 
BRANCH  14  17
HETATM   17  O1  UNL     1      16.392  63.553 -33.542  1.00  0.00    -0.388 OA
HETATM   18  H25 UNL     1      15.771  64.294 -33.618  1.00  0.00     0.210 HD
ENDBRANCH  14  17
ENDBRANCH  12  14
ENDBRANCH   7   8
ENDBRANCH   5   6
ENDBRANCH   1   5
BRANCH   1  19
HETATM   19  O3  UNL     1       8.187  63.440 -34.497  1.00  0.00    -0.344 OA
BRANCH  19  20
HETATM   20  C16 UNL     1       6.780  63.186 -34.528  1.00  0.00     0.293 C 
HETATM   21  O4  UNL     1       6.207  63.718 -33.332  1.00  0.00    -0.348 OA
HETATM   22  C17 UNL     1       4.773  63.806 -33.355  1.00  0.00     0.179 C 
HETATM   23  C19 UNL     1       4.341  64.886 -34.369  1.00  0.00     0.180 C 
HETATM   24  C20 UNL     1       5.437  65.159 -35.421  1.00  0.00     0.183 C 
HETATM   25  C21 UNL     1       6.219  63.890 -35.795  1.00  0.00     0.204 C 
BRANCH  22  26
HETATM   26  C18 UNL     1       4.073  62.442 -33.512  1.00  0.00     0.198 C 
BRANCH  26  27
HETATM   27  O5  UNL     1       3.226  62.201 -32.386  1.00  0.00    -0.398 OA
HETATM   28  H30 UNL     1       2.875  61.299 -32.484  1.00  0.00     0.209 HD
ENDBRANCH  26  27
ENDBRANCH  22  26
BRANCH  23  29
HETATM   29  O6  UNL     1       3.095  64.564 -34.991  1.00  0.00    -0.390 OA
HETATM   30  H32 UNL     1       2.805  65.356 -35.479  1.00  0.00     0.210 HD
ENDBRANCH  23  29
BRANCH  24  31
HETATM   31  O7  UNL     1       6.330  66.173 -34.945  1.00  0.00    -0.390 OA
HETATM   32  H34 UNL     1       6.822  65.795 -34.187  1.00  0.00     0.210 HD
ENDBRANCH  24  31
BRANCH  25  33
HETATM   33  O8  UNL     1       5.375  62.986 -36.527  1.00  0.00    -0.388 OA
HETATM   34  H36 UNL     1       5.113  63.436 -37.350  1.00  0.00     0.210 HD
ENDBRANCH  25  33
ENDBRANCH  19  20
ENDBRANCH   1  19
TORSDOF 13
ENDMDL
MODEL 2
REMARK minimizedAffinity -8.20558071
REMARK  13 active torsions:
REMARK  status: ('A' for Active; 'I' for Inactive)
REMARK    1  A    between atoms: C2_2  and  C3_3 
REMARK    2  A    between atoms: C3_3  and  C5_5 
REMARK    3  A    between atoms: C3_3  and  O3_18 
REMARK    4  A    between atoms: C5_5  and  C6_6 
REMARK    5  A    between atoms: C7_7  and  C8_8 
REMARK    6  A    between atoms: C12_12  and  C13_13 
REMARK    7  A    between atoms: C13_13  and  O1_16 
REMARK    8  A    between atoms: O3_18  and  C16_19 
REMARK    9  A    between atoms: C17_21  and  C18_22 
REMARK   10  A    between atoms: C18_22  and  O5_23 
REMARK   11  A    between atoms: C19_24  and  O6_25 
REMARK   12  A    between atoms: C20_26  and  O7_27 
REMARK   13  A    between atoms: C21_28  and  O8_29 
ROOT
HETATM    1  C3  UNL     1       9.127  62.635 -34.719  1.00  0.00     0.081 C 
HETATM    2  C4  UNL     1       8.469  61.242 -34.757  1.00  0.00     0.051 C 
ENDROOT
BRANCH   1   3
HETATM    3  C2  UNL     1       9.964  62.728 -33.448  1.00  0.00     0.001 C 
HETATM    4  C1  UNL     1      10.190  61.788 -32.518  1.00  0.00     0.010 C 
ENDBRANCH   1   3
BRANCH   1   5
HETATM    5  C5  UNL     1       9.898  62.948 -36.045  1.00  0.00     0.068 C 
BRANCH   5   6
HETATM    6  C6  UNL     1      11.339  62.547 -36.267  1.00  0.00    -0.024 C 
HETATM    7  C7  UNL     1      11.936  62.101 -37.388  1.00  0.00     0.006 C 
BRANCH   7   8
HETATM    8  C8  UNL     1      13.402  61.760 -37.543  1.00  0.00     0.075 C 
HETATM    9  C9  UNL     1      14.197  62.388 -36.393  1.00  0.00     0.050 C 
HETATM   10  C10 UNL     1      13.928  62.196 -38.912  1.00  0.00     0.044 C 
HETATM   11  C11 UNL     1      14.999  61.167 -39.195  1.00  0.00     0.038 C 
HETATM   12  C12 UNL     1      14.374  59.904 -38.618  1.00  0.00     0.156 C 
HETATM   13  O2  UNL     1      13.611  60.338 -37.473  1.00  0.00    -0.368 OA
BRANCH  12  14
HETATM   14  C13 UNL     1      15.366  58.774 -38.236  1.00  0.00     0.076 C 
HETATM   15  C14 UNL     1      16.131  59.119 -36.953  1.00  0.00     0.048 C 
HETATM   16  C15 UNL     1      16.362  58.524 -39.375  1.00  0.00     0.048 C 
BRANCH  14  17
HETATM   17  O1  UNL     1      14.683  57.530 -38.019  1.00  0.00    -0.388 OA
HETATM   18  H25 UNL     1      14.152  57.601 -37.209  1.00  0.00     0.210 HD
ENDBRANCH  14  17
ENDBRANCH  12  14
ENDBRANCH   7   8
ENDBRANCH   5   6
ENDBRANCH   1   5
BRANCH   1  19
HETATM   19  O3  UNL     1       8.147  63.676 -34.494  1.00  0.00    -0.344 OA
BRANCH  19  20
HETATM   20  C16 UNL     1       6.765  63.307 -34.485  1.00  0.00     0.293 C 
HETATM   21  O4  UNL     1       6.183  63.801 -33.277  1.00  0.00    -0.348 OA
HETATM   22  C17 UNL     1       4.746  63.770 -33.261  1.00  0.00     0.179 C 
HETATM   23  C19 UNL     1       4.200  64.802 -34.271  1.00  0.00     0.180 C 
HETATM   24  C20 UNL     1       5.241  65.155 -35.354  1.00  0.00     0.183 C 
HETATM   25  C21 UNL     1       6.115  63.951 -35.741  1.00  0.00     0.204 C 
BRANCH  22  26
HETATM   26  C18 UNL     1       4.157  62.352 -33.390  1.00  0.00     0.198 C 
BRANCH  26  27
HETATM   27  O5  UNL     1       3.087  62.187 -32.456  1.00  0.00    -0.398 OA
HETATM   28  H30 UNL     1       2.805  61.257 -32.511  1.00  0.00     0.209 HD
ENDBRANCH  26  27
ENDBRANCH  22  26
BRANCH  23  29
HETATM   29  O6  UNL     1       2.969  64.373 -34.855  1.00  0.00    -0.390 OA
HETATM   30  H32 UNL     1       2.601  65.133 -35.341  1.00  0.00     0.210 HD
ENDBRANCH  23  29
BRANCH  24  31
HETATM   31  O7  UNL     1       6.060  66.243 -34.909  1.00  0.00    -0.390 OA
HETATM   32  H34 UNL     1       6.601  65.913 -34.162  1.00  0.00     0.210 HD
ENDBRANCH  24  31
BRANCH  25  33
HETATM   33  O8  UNL     1       5.330  62.974 -36.443  1.00  0.00    -0.388 OA
HETATM   34  H36 UNL     1       5.009  63.394 -37.262  1.00  0.00     0.210 HD
ENDBRANCH  25  33
ENDBRANCH  19  20
ENDBRANCH   1  19
TORSDOF 13
ENDMDL
MODEL 3
REMARK minimizedAffinity -8.02670002
REMARK  13 active torsions:
REMARK  status: ('A' for Active; 'I' for Inactive)
REMARK    1  A    between atoms: C2_2  and  C3_3 
REMARK    2  A    between atoms: C3_3  and  C5_5 
REMARK    3  A    between atoms: C3_3  and  O3_18 
REMARK    4  A    between atoms: C5_5  and  C6_6 
REMARK    5  A    between atoms: C7_7  and  C8_8 
REMARK    6  A    between atoms: C12_12  and  C13_13 
REMARK    7  A    between atoms: C13_13  and  O1_16 
REMARK    8  A    between atoms: O3_18  and  C16_19 
REMARK    9  A    between atoms: C17_21  and  C18_22 
REMARK   10  A    between atoms: C18_22  and  O5_23 
REMARK   11  A    between atoms: C19_24  and  O6_25 
REMARK   12  A    between atoms: C20_26  and  O7_27 
REMARK   13  A    between atoms: C21_28  and  O8_29 
ROOT
HETATM    1  C3  UNL     1       6.471  66.959 -35.702  1.00  0.00     0.081 C 
HETATM    2  C4  UNL     1       7.368  68.196 -35.500  1.00  0.00     0.051 C 
ENDROOT
BRANCH   1   3
HETATM    3  C2  UNL     1       5.079  67.443 -36.092  1.00  0.00     0.001 C 
HETATM    4  C1  UNL     1       4.547  68.667 -35.964  1.00  0.00     0.010 C 
ENDBRANCH   1   3
BRANCH   1   5
HETATM    5  C5  UNL     1       7.116  65.930 -36.690  1.00  0.00     0.068 C 
BRANCH   5   6
HETATM    6  C6  UNL     1       8.360  65.140 -36.351  1.00  0.00    -0.024 C 
HETATM    7  C7  UNL     1       8.478  63.847 -35.999  1.00  0.00     0.006 C 
BRANCH   7   8
HETATM    8  C8  UNL     1       9.771  63.113 -35.717  1.00  0.00     0.075 C 
HETATM    9  C9  UNL     1       9.666  61.674 -36.232  1.00  0.00     0.050 C 
HETATM   10  C10 UNL     1      10.123  63.167 -34.229  1.00  0.00     0.044 C 
HETATM   11  C11 UNL     1      11.634  63.147 -34.247  1.00  0.00     0.038 C 
HETATM   12  C12 UNL     1      11.939  63.998 -35.472  1.00  0.00     0.156 C 
HETATM   13  O2  UNL     1      10.874  63.729 -36.406  1.00  0.00    -0.368 OA
BRANCH  12  14
HETATM   14  C13 UNL     1      13.329  63.770 -36.124  1.00  0.00     0.076 C 
HETATM   15  C14 UNL     1      13.730  64.960 -37.003  1.00  0.00     0.048 C 
HETATM   16  C15 UNL     1      13.325  62.488 -36.966  1.00  0.00     0.048 C 
BRANCH  14  17
HETATM   17  O1  UNL     1      14.350  63.595 -35.129  1.00  0.00    -0.388 OA
HETATM   18  H25 UNL     1      14.489  64.439 -34.671  1.00  0.00     0.210 HD
ENDBRANCH  14  17
ENDBRANCH  12  14
ENDBRANCH   7   8
ENDBRANCH   5   6
ENDBRANCH   1   5
BRANCH   1  19
HETATM   19  O3  UNL     1       6.201  66.291 -34.447  1.00  0.00    -0.344 OA
BRANCH  19  20
HETATM   20  C16 UNL     1       5.550  65.018 -34.490  1.00  0.00     0.293 C 
HETATM   21  O4  UNL     1       6.330  64.095 -33.726  1.00  0.00    -0.348 OA
HETATM   22  C17 UNL     1       5.657  62.861 -33.429  1.00  0.00     0.179 C 
HETATM   23  C19 UNL     1       4.504  63.130 -32.439  1.00  0.00     0.180 C 
HETATM   24  C20 UNL     1       4.049  64.605 -32.473  1.00  0.00     0.183 C 
HETATM   25  C21 UNL     1       4.133  65.212 -33.882  1.00  0.00     0.204 C 
BRANCH  22  26
HETATM   26  C18 UNL     1       5.269  62.052 -34.682  1.00  0.00     0.198 C 
BRANCH  26  27
HETATM   27  O5  UNL     1       5.485  60.659 -34.444  1.00  0.00    -0.398 OA
HETATM   28  H30 UNL     1       5.311  60.198 -35.284  1.00  0.00     0.209 HD
ENDBRANCH  26  27
ENDBRANCH  22  26
BRANCH  23  29
HETATM   29  O6  UNL     1       3.404  62.243 -32.651  1.00  0.00    -0.390 OA
HETATM   30  H32 UNL     1       2.798  62.352 -31.896  1.00  0.00     0.210 HD
ENDBRANCH  23  29
BRANCH  24  31
HETATM   31  O7  UNL     1       4.825  65.377 -31.550  1.00  0.00    -0.390 OA
HETATM   32  H34 UNL     1       5.742  65.407 -31.894  1.00  0.00     0.210 HD
ENDBRANCH  24  31
BRANCH  25  33
HETATM   33  O8  UNL     1       3.145  64.615 -34.738  1.00  0.00    -0.388 OA
HETATM   34  H36 UNL     1       2.271  64.829 -34.366  1.00  0.00     0.210 HD
ENDBRANCH  25  33
ENDBRANCH  19  20
ENDBRANCH   1  19
TORSDOF 13
ENDMDL
MODEL 4
REMARK minimizedAffinity -7.96406221
REMARK  13 active torsions:
REMARK  status: ('A' for Active; 'I' for Inactive)
REMARK    1  A    between atoms: C2_2  and  C3_3 
REMARK    2  A    between atoms: C3_3  and  C5_5 
REMARK    3  A    between atoms: C3_3  and  O3_18 
REMARK    4  A    between atoms: C5_5  and  C6_6 
REMARK    5  A    between atoms: C7_7  and  C8_8 
REMARK    6  A    between atoms: C12_12  and  C13_13 
REMARK    7  A    between atoms: C13_13  and  O1_16 
REMARK    8  A    between atoms: O3_18  and  C16_19 
REMARK    9  A    between atoms: C17_21  and  C18_22 
REMARK   10  A    between atoms: C18_22  and  O5_23 
REMARK   11  A    between atoms: C19_24  and  O6_25 
REMARK   12  A    between atoms: C20_26  and  O7_27 
REMARK   13  A    between atoms: C21_28  and  O8_29 
ROOT
HETATM    1  C3  UNL     1      -0.096  52.010 -26.355  1.00  0.00     0.081 C 
HETATM    2  C4  UNL     1      -0.976  52.610 -27.469  1.00  0.00     0.051 C 
ENDROOT
BRANCH   1   3
HETATM    3  C2  UNL     1       1.164  51.444 -27.002  1.00  0.00     0.001 C 
HETATM    4  C1  UNL     1       2.433  51.508 -26.571  1.00  0.00     0.010 C 
ENDBRANCH   1   3
BRANCH   1   5
HETATM    5  C5  UNL     1       0.155  53.034 -25.199  1.00  0.00     0.068 C 
BRANCH   5   6
HETATM    6  C6  UNL     1      -0.286  52.783 -23.774  1.00  0.00    -0.024 C 
HETATM    7  C7  UNL     1       0.382  52.191 -22.768  1.00  0.00     0.006 C 
BRANCH   7   8
HETATM    8  C8  UNL     1      -0.114  52.017 -21.349  1.00  0.00     0.075 C 
HETATM    9  C9  UNL     1       0.222  53.269 -20.531  1.00  0.00     0.050 C 
HETATM   10  C10 UNL     1       0.457  50.746 -20.716  1.00  0.00     0.044 C 
HETATM   11  C11 UNL     1      -0.643  50.327 -19.768  1.00  0.00     0.038 C 
HETATM   12  C12 UNL     1      -1.890  50.683 -20.566  1.00  0.00     0.156 C 
HETATM   13  O2  UNL     1      -1.545  51.864 -21.318  1.00  0.00    -0.368 OA
BRANCH  12  14
HETATM   14  C13 UNL     1      -3.183  50.903 -19.736  1.00  0.00     0.076 C 
HETATM   15  C14 UNL     1      -3.635  49.602 -19.062  1.00  0.00     0.048 C 
HETATM   16  C15 UNL     1      -4.310  51.438 -20.627  1.00  0.00     0.048 C 
BRANCH  14  17
HETATM   17  O1  UNL     1      -2.982  51.884 -18.707  1.00  0.00    -0.388 OA
HETATM   18  H25 UNL     1      -2.384  51.518 -18.037  1.00  0.00     0.210 HD
ENDBRANCH  14  17
ENDBRANCH  12  14
ENDBRANCH   7   8
ENDBRANCH   5   6
ENDBRANCH   1   5
BRANCH   1  19
HETATM   19  O3  UNL     1      -0.692  50.815 -25.796  1.00  0.00    -0.344 OA
BRANCH  19  20
HETATM   20  C16 UNL     1      -2.005  50.454 -26.232  1.00  0.00     0.293 C 
HETATM   21  O4  UNL     1      -2.019  49.046 -26.477  1.00  0.00    -0.348 OA
HETATM   22  C17 UNL     1      -3.334  48.488 -26.632  1.00  0.00     0.179 C 
HETATM   23  C19 UNL     1      -4.074  48.537 -25.278  1.00  0.00     0.180 C 
HETATM   24  C20 UNL     1      -3.479  49.604 -24.335  1.00  0.00     0.183 C 
HETATM   25  C21 UNL     1      -2.986  50.847 -25.092  1.00  0.00     0.204 C 
BRANCH  22  26
HETATM   26  C18 UNL     1      -4.115  49.068 -27.827  1.00  0.00     0.198 C 
BRANCH  26  27
HETATM   27  O5  UNL     1      -3.331  50.076 -28.473  1.00  0.00    -0.398 OA
HETATM   28  H30 UNL     1      -3.893  50.472 -29.162  1.00  0.00     0.209 HD
ENDBRANCH  26  27
ENDBRANCH  22  26
BRANCH  23  29
HETATM   29  O6  UNL     1      -5.481  48.723 -25.449  1.00  0.00    -0.390 OA
HETATM   30  H32 UNL     1      -5.897  48.574 -24.581  1.00  0.00     0.210 HD
ENDBRANCH  23  29
BRANCH  24  31
HETATM   31  O7  UNL     1      -2.414  49.034 -23.564  1.00  0.00    -0.390 OA
HETATM   32  H34 UNL     1      -1.682  48.834 -24.184  1.00  0.00     0.210 HD
ENDBRANCH  24  31
BRANCH  25  33
HETATM   33  O8  UNL     1      -4.103  51.572 -25.633  1.00  0.00    -0.388 OA
HETATM   34  H36 UNL     1      -4.647  51.869 -24.882  1.00  0.00     0.210 HD
ENDBRANCH  25  33
ENDBRANCH  19  20
ENDBRANCH   1  19
TORSDOF 13
ENDMDL
MODEL 5
REMARK minimizedAffinity -7.89277124
REMARK  13 active torsions:
REMARK  status: ('A' for Active; 'I' for Inactive)
REMARK    1  A    between atoms: C2_2  and  C3_3 
REMARK    2  A    between atoms: C3_3  and  C5_5 
REMARK    3  A    between atoms: C3_3  and  O3_18 
REMARK    4  A    between atoms: C5_5  and  C6_6 
REMARK    5  A    between atoms: C7_7  and  C8_8 
REMARK    6  A    between atoms: C12_12  and  C13_13 
REMARK    7  A    between atoms: C13_13  and  O1_16 
REMARK    8  A    between atoms: O3_18  and  C16_19 
REMARK    9  A    between atoms: C17_21  and  C18_22 
REMARK   10  A    between atoms: C18_22  and  O5_23 
REMARK   11  A    between atoms: C19_24  and  O6_25 
REMARK   12  A    between atoms: C20_26  and  O7_27 
REMARK   13  A    between atoms: C21_28  and  O8_29 
ROOT
HETATM    1  C3  UNL     1       9.248  62.656 -34.503  1.00  0.00     0.081 C 
HETATM    2  C4  UNL     1       8.762  61.448 -35.328  1.00  0.00     0.051 C 
ENDROOT
BRANCH   1   3
HETATM    3  C2  UNL     1       9.285  62.242 -33.036  1.00  0.00     0.001 C 
HETATM    4  C1  UNL     1      10.280  61.660 -32.350  1.00  0.00     0.010 C 
ENDBRANCH   1   3
BRANCH   1   5
HETATM    5  C5  UNL     1      10.590  63.238 -35.062  1.00  0.00     0.068 C 
BRANCH   5   6
HETATM    6  C6  UNL     1      11.390  62.552 -36.147  1.00  0.00    -0.024 C 
HETATM    7  C7  UNL     1      11.892  63.062 -37.286  1.00  0.00     0.006 C 
BRANCH   7   8
HETATM    8  C8  UNL     1      12.725  62.317 -38.306  1.00  0.00     0.075 C 
HETATM    9  C9  UNL     1      13.546  61.232 -37.602  1.00  0.00     0.050 C 
HETATM   10  C10 UNL     1      13.607  63.278 -39.107  1.00  0.00     0.044 C 
HETATM   11  C11 UNL     1      13.706  62.591 -40.449  1.00  0.00     0.038 C 
HETATM   12  C12 UNL     1      12.307  62.010 -40.603  1.00  0.00     0.156 C 
HETATM   13  O2  UNL     1      11.887  61.654 -39.270  1.00  0.00    -0.368 OA
BRANCH  12  14
HETATM   14  C13 UNL     1      12.180  60.805 -41.573  1.00  0.00     0.076 C 
HETATM   15  C14 UNL     1      13.164  60.930 -42.742  1.00  0.00     0.048 C 
HETATM   16  C15 UNL     1      10.749  60.700 -42.115  1.00  0.00     0.048 C 
BRANCH  14  17
HETATM   17  O1  UNL     1      12.448  59.564 -40.903  1.00  0.00    -0.388 OA
HETATM   18  H25 UNL     1      13.391  59.529 -40.676  1.00  0.00     0.210 HD
ENDBRANCH  14  17
ENDBRANCH  12  14
ENDBRANCH   7   8
ENDBRANCH   5   6
ENDBRANCH   1   5
BRANCH   1  19
HETATM   19  O3  UNL     1       8.258  63.712 -34.478  1.00  0.00    -0.344 OA
BRANCH  19  20
HETATM   20  C16 UNL     1       6.878  63.338 -34.503  1.00  0.00     0.293 C 
HETATM   21  O4  UNL     1       6.276  63.788 -33.288  1.00  0.00    -0.348 OA
HETATM   22  C17 UNL     1       4.839  63.753 -33.294  1.00  0.00     0.179 C 
HETATM   23  C19 UNL     1       4.304  64.817 -34.276  1.00  0.00     0.180 C 
HETATM   24  C20 UNL     1       5.360  65.209 -35.331  1.00  0.00     0.183 C 
HETATM   25  C21 UNL     1       6.244  64.023 -35.745  1.00  0.00     0.204 C 
BRANCH  22  26
HETATM   26  C18 UNL     1       4.257  62.338 -33.480  1.00  0.00     0.198 C 
BRANCH  26  27
HETATM   27  O5  UNL     1       3.104  62.176 -32.651  1.00  0.00    -0.398 OA
HETATM   28  H30 UNL     1       2.823  61.248 -32.734  1.00  0.00     0.209 HD
ENDBRANCH  26  27
ENDBRANCH  22  26
BRANCH  23  29
HETATM   29  O6  UNL     1       3.083  64.404 -34.894  1.00  0.00    -0.390 OA
HETATM   30  H32 UNL     1       2.720  65.179 -35.358  1.00  0.00     0.210 HD
ENDBRANCH  23  29
BRANCH  24  31
HETATM   31  O7  UNL     1       6.167  66.284 -34.837  1.00  0.00    -0.390 OA
HETATM   32  H34 UNL     1       6.699  65.931 -34.093  1.00  0.00     0.210 HD
ENDBRANCH  24  31
BRANCH  25  33
HETATM   33  O8  UNL     1       5.472  63.068 -36.493  1.00  0.00    -0.388 OA
HETATM   34  H36 UNL     1       5.163  63.515 -37.301  1.00  0.00     0.210 HD
ENDBRANCH  25  33
ENDBRANCH  19  20
ENDBRANCH   1  19
TORSDOF 13
ENDMDL
MODEL 6
REMARK minimizedAffinity -7.84825468
REMARK  13 active torsions:
REMARK  status: ('A' for Active; 'I' for Inactive)
REMARK    1  A    between atoms: C2_2  and  C3_3 
REMARK    2  A    between atoms: C3_3  and  C5_5 
REMARK    3  A    between atoms: C3_3  and  O3_18 
REMARK    4  A    between atoms: C5_5  and  C6_6 
REMARK    5  A    between atoms: C7_7  and  C8_8 
REMARK    6  A    between atoms: C12_12  and  C13_13 
REMARK    7  A    between atoms: C13_13  and  O1_16 
REMARK    8  A    between atoms: O3_18  and  C16_19 
REMARK    9  A    between atoms: C17_21  and  C18_22 
REMARK   10  A    between atoms: C18_22  and  O5_23 
REMARK   11  A    between atoms: C19_24  and  O6_25 
REMARK   12  A    between atoms: C20_26  and  O7_27 
REMARK   13  A    between atoms: C21_28  and  O8_29 
ROOT
HETATM    1  C3  UNL     1      -1.041  51.134 -22.657  1.00  0.00     0.081 C 
HETATM    2  C4  UNL     1      -2.259  51.955 -22.190  1.00  0.00     0.051 C 
ENDROOT
BRANCH   1   3
HETATM    3  C2  UNL     1       0.169  52.062 -22.690  1.00  0.00     0.001 C 
HETATM    4  C1  UNL     1       0.602  52.914 -21.750  1.00  0.00     0.010 C 
ENDBRANCH   1   3
BRANCH   1   5
HETATM    5  C5  UNL     1      -0.857  49.834 -21.807  1.00  0.00     0.068 C 
BRANCH   5   6
HETATM    6  C6  UNL     1      -1.008  49.813 -20.302  1.00  0.00    -0.024 C 
HETATM    7  C7  UNL     1      -0.429  50.600 -19.377  1.00  0.00     0.006 C 
BRANCH   7   8
HETATM    8  C8  UNL     1      -0.667  50.546 -17.884  1.00  0.00     0.075 C 
HETATM    9  C9  UNL     1      -2.085  51.039 -17.573  1.00  0.00     0.050 C 
HETATM   10  C10 UNL     1       0.398  51.340 -17.125  1.00  0.00     0.044 C 
HETATM   11  C11 UNL     1       0.505  50.584 -15.821  1.00  0.00     0.038 C 
HETATM   12  C12 UNL     1       0.343  49.143 -16.285  1.00  0.00     0.156 C 
HETATM   13  O2  UNL     1      -0.575  49.195 -17.396  1.00  0.00    -0.368 OA
BRANCH  12  14
HETATM   14  C13 UNL     1      -0.137  48.136 -15.206  1.00  0.00     0.076 C 
HETATM   15  C14 UNL     1      -0.803  48.861 -14.031  1.00  0.00     0.048 C 
HETATM   16  C15 UNL     1       1.038  47.296 -14.692  1.00  0.00     0.048 C 
BRANCH  14  17
HETATM   17  O1  UNL     1      -1.090  47.207 -15.746  1.00  0.00    -0.388 OA
HETATM   18  H25 UNL     1      -1.912  47.682 -15.945  1.00  0.00     0.210 HD
ENDBRANCH  14  17
ENDBRANCH  12  14
ENDBRANCH   7   8
ENDBRANCH   5   6
ENDBRANCH   1   5
BRANCH   1  19
HETATM   19  O3  UNL     1      -1.157  50.765 -24.052  1.00  0.00    -0.344 OA
BRANCH  19  20
HETATM   20  C16 UNL     1      -0.361  51.478 -25.004  1.00  0.00     0.293 C 
HETATM   21  O4  UNL     1       0.182  50.531 -25.925  1.00  0.00    -0.348 OA
HETATM   22  C17 UNL     1       0.754  51.119 -27.105  1.00  0.00     0.179 C 
HETATM   23  C19 UNL     1      -0.369  51.730 -27.970  1.00  0.00     0.180 C 
HETATM   24  C20 UNL     1      -1.634  52.035 -27.139  1.00  0.00     0.183 C 
HETATM   25  C21 UNL     1      -1.301  52.493 -25.711  1.00  0.00     0.204 C 
BRANCH  22  26
HETATM   26  C18 UNL     1       1.941  52.057 -26.814  1.00  0.00     0.198 C 
BRANCH  26  27
HETATM   27  O5  UNL     1       3.153  51.465 -27.288  1.00  0.00    -0.398 OA
HETATM   28  H30 UNL     1       3.881  52.046 -27.007  1.00  0.00     0.209 HD
ENDBRANCH  26  27
ENDBRANCH  22  26
BRANCH  23  29
HETATM   29  O6  UNL     1       0.077  52.888 -28.679  1.00  0.00    -0.390 OA
HETATM   30  H32 UNL     1      -0.617  53.114 -29.324  1.00  0.00     0.210 HD
ENDBRANCH  23  29
BRANCH  24  31
HETATM   31  O7  UNL     1      -2.486  50.884 -27.108  1.00  0.00    -0.390 OA
HETATM   32  H34 UNL     1      -2.025  50.194 -26.587  1.00  0.00     0.210 HD
ENDBRANCH  24  31
BRANCH  25  33
HETATM   33  O8  UNL     1      -0.689  53.793 -25.739  1.00  0.00    -0.388 OA
HETATM   34  H36 UNL     1      -1.340  54.412 -26.114  1.00  0.00     0.210 HD
ENDBRANCH  25  33
ENDBRANCH  19  20
ENDBRANCH   1  19
TORSDOF 13
ENDMDL
MODEL 7
REMARK minimizedAffinity -7.80744457
REMARK  13 active torsions:
REMARK  status: ('A' for Active; 'I' for Inactive)
REMARK    1  A    between atoms: C2_2  and  C3_3 
REMARK    2  A    between atoms: C3_3  and  C5_5 
REMARK    3  A    between atoms: C3_3  and  O3_18 
REMARK    4  A    between atoms: C5_5  and  C6_6 
REMARK    5  A    between atoms: C7_7  and  C8_8 
REMARK    6  A    between atoms: C12_12  and  C13_13 
REMARK    7  A    between atoms: C13_13  and  O1_16 
REMARK    8  A    between atoms: O3_18  and  C16_19 
REMARK    9  A    between atoms: C17_21  and  C18_22 
REMARK   10  A    between atoms: C18_22  and  O5_23 
REMARK   11  A    between atoms: C19_24  and  O6_25 
REMARK   12  A    between atoms: C20_26  and  O7_27 
REMARK   13  A    between atoms: C21_28  and  O8_29 
ROOT
HETATM    1  C3  UNL     1       5.311  63.795 -33.834  1.00  0.00     0.081 C 
HETATM    2  C4  UNL     1       5.340  65.039 -32.924  1.00  0.00     0.051 C 
ENDROOT
BRANCH   1   3
HETATM    3  C2  UNL     1       4.127  62.930 -33.414  1.00  0.00     0.001 C 
HETATM    4  C1  UNL     1       3.648  62.697 -32.183  1.00  0.00     0.010 C 
ENDBRANCH   1   3
BRANCH   1   5
HETATM    5  C5  UNL     1       5.344  64.184 -35.349  1.00  0.00     0.068 C 
BRANCH   5   6
HETATM    6  C6  UNL     1       4.321  65.103 -35.980  1.00  0.00    -0.024 C 
HETATM    7  C7  UNL     1       4.474  66.357 -36.442  1.00  0.00     0.006 C 
BRANCH   7   8
HETATM    8  C8  UNL     1       3.406  67.200 -37.105  1.00  0.00     0.075 C 
HETATM    9  C9  UNL     1       3.552  68.658 -36.655  1.00  0.00     0.050 C 
HETATM   10  C10 UNL     1       2.009  66.647 -36.818  1.00  0.00     0.044 C 
HETATM   11  C11 UNL     1       1.242  67.025 -38.064  1.00  0.00     0.038 C 
HETATM   12  C12 UNL     1       2.294  66.825 -39.146  1.00  0.00     0.156 C 
HETATM   13  O2  UNL     1       3.551  67.183 -38.537  1.00  0.00    -0.368 OA
BRANCH  12  14
HETATM   14  C13 UNL     1       2.064  67.610 -40.465  1.00  0.00     0.076 C 
HETATM   15  C14 UNL     1       3.355  68.290 -40.935  1.00  0.00     0.048 C 
HETATM   16  C15 UNL     1       0.967  68.665 -40.279  1.00  0.00     0.048 C 
BRANCH  14  17
HETATM   17  O1  UNL     1       1.615  66.743 -41.517  1.00  0.00    -0.388 OA
HETATM   18  H25 UNL     1       2.343  66.154 -41.770  1.00  0.00     0.210 HD
ENDBRANCH  14  17
ENDBRANCH  12  14
ENDBRANCH   7   8
ENDBRANCH   5   6
ENDBRANCH   1   5
BRANCH   1  19
HETATM   19  O3  UNL     1       6.423  62.911 -33.556  1.00  0.00    -0.344 OA
BRANCH  19  20
HETATM   20  C16 UNL     1       7.544  62.943 -34.446  1.00  0.00     0.293 C 
HETATM   21  O4  UNL     1       8.412  63.997 -34.026  1.00  0.00    -0.348 OA
HETATM   22  C17 UNL     1       9.715  63.963 -34.632  1.00  0.00     0.179 C 
HETATM   23  C19 UNL     1      10.494  62.740 -34.104  1.00  0.00     0.180 C 
HETATM   24  C20 UNL     1       9.550  61.648 -33.556  1.00  0.00     0.183 C 
HETATM   25  C21 UNL     1       8.238  61.556 -34.350  1.00  0.00     0.204 C 
BRANCH  22  26
HETATM   26  C18 UNL     1       9.686  64.110 -36.166  1.00  0.00     0.198 C 
BRANCH  26  27
HETATM   27  O5  UNL     1       8.808  65.177 -36.533  1.00  0.00    -0.398 OA
HETATM   28  H30 UNL     1       8.754  65.177 -37.505  1.00  0.00     0.209 HD
ENDBRANCH  26  27
ENDBRANCH  22  26
BRANCH  23  29
HETATM   29  O6  UNL     1      11.382  62.209 -35.090  1.00  0.00    -0.390 OA
HETATM   30  H32 UNL     1      11.955  61.562 -34.642  1.00  0.00     0.210 HD
ENDBRANCH  23  29
BRANCH  24  31
HETATM   31  O7  UNL     1       9.278  61.888 -32.171  1.00  0.00    -0.390 OA
HETATM   32  H34 UNL     1       8.745  62.708 -32.116  1.00  0.00     0.210 HD
ENDBRANCH  24  31
BRANCH  25  33
HETATM   33  O8  UNL     1       8.492  61.042 -35.668  1.00  0.00    -0.388 OA
HETATM   34  H36 UNL     1       8.850  60.142 -35.565  1.00  0.00     0.210 HD
ENDBRANCH  25  33
ENDBRANCH  19  20
ENDBRANCH   1  19
TORSDOF 13
ENDMDL
MODEL 8
REMARK minimizedAffinity -7.74725151
REMARK  13 active torsions:
REMARK  status: ('A' for Active; 'I' for Inactive)
REMARK    1  A    between atoms: C2_2  and  C3_3 
REMARK    2  A    between atoms: C3_3  and  C5_5 
REMARK    3  A    between atoms: C3_3  and  O3_18 
REMARK    4  A    between atoms: C5_5  and  C6_6 
REMARK    5  A    between atoms: C7_7  and  C8_8 
REMARK    6  A    between atoms: C12_12  and  C13_13 
REMARK    7  A    between atoms: C13_13  and  O1_16 
REMARK    8  A    between atoms: O3_18  and  C16_19 
REMARK    9  A    between atoms: C17_21  and  C18_22 
REMARK   10  A    between atoms: C18_22  and  O5_23 
REMARK   11  A    between atoms: C19_24  and  O6_25 
REMARK   12  A    between atoms: C20_26  and  O7_27 
REMARK   13  A    between atoms: C21_28  and  O8_29 
ROOT
HETATM    1  C3  UNL     1      -3.151  49.316 -24.996  1.00  0.00     0.081 C 
HETATM    2  C4  UNL     1      -4.050  48.356 -25.800  1.00  0.00     0.051 C 
ENDROOT
BRANCH   1   3
HETATM    3  C2  UNL     1      -3.958  50.573 -24.688  1.00  0.00     0.001 C 
HETATM    4  C1  UNL     1      -5.064  50.701 -23.941  1.00  0.00     0.010 C 
ENDBRANCH   1   3
BRANCH   1   5
HETATM    5  C5  UNL     1      -2.519  48.612 -23.749  1.00  0.00     0.068 C 
BRANCH   5   6
HETATM    6  C6  UNL     1      -2.096  49.369 -22.510  1.00  0.00    -0.024 C 
HETATM    7  C7  UNL     1      -2.127  48.979 -21.222  1.00  0.00     0.006 C 
BRANCH   7   8
HETATM    8  C8  UNL     1      -1.641  49.783 -20.036  1.00  0.00     0.075 C 
HETATM    9  C9  UNL     1      -0.961  48.848 -19.029  1.00  0.00     0.050 C 
HETATM   10  C10 UNL     1      -2.784  50.578 -19.401  1.00  0.00     0.044 C 
HETATM   11  C11 UNL     1      -2.076  51.800 -18.864  1.00  0.00     0.038 C 
HETATM   12  C12 UNL     1      -1.038  52.057 -19.948  1.00  0.00     0.156 C 
HETATM   13  O2  UNL     1      -0.659  50.755 -20.439  1.00  0.00    -0.368 OA
BRANCH  12  14
HETATM   14  C13 UNL     1       0.205  52.877 -19.512  1.00  0.00     0.076 C 
HETATM   15  C14 UNL     1       1.275  52.886 -20.610  1.00  0.00     0.048 C 
HETATM   16  C15 UNL     1       0.801  52.305 -18.220  1.00  0.00     0.048 C 
BRANCH  14  17
HETATM   17  O1  UNL     1      -0.142  54.240 -19.225  1.00  0.00    -0.388 OA
HETATM   18  H25 UNL     1      -0.383  54.683 -20.055  1.00  0.00     0.210 HD
ENDBRANCH  14  17
ENDBRANCH  12  14
ENDBRANCH   7   8
ENDBRANCH   5   6
ENDBRANCH   1   5
BRANCH   1  19
HETATM   19  O3  UNL     1      -2.086  49.854 -25.816  1.00  0.00    -0.344 OA
BRANCH  19  20
HETATM   20  C16 UNL     1      -1.608  51.169 -25.518  1.00  0.00     0.293 C 
HETATM   21  O4  UNL     1      -0.181  51.116 -25.449  1.00  0.00    -0.348 OA
HETATM   22  C17 UNL     1       0.456  52.404 -25.454  1.00  0.00     0.179 C 
HETATM   23  C19 UNL     1       0.272  53.062 -26.838  1.00  0.00     0.180 C 
HETATM   24  C20 UNL     1      -0.933  52.472 -27.601  1.00  0.00     0.183 C 
HETATM   25  C21 UNL     1      -2.093  52.099 -26.665  1.00  0.00     0.204 C 
BRANCH  22  26
HETATM   26  C18 UNL     1       0.071  53.288 -24.252  1.00  0.00     0.198 C 
BRANCH  26  27
HETATM   27  O5  UNL     1       1.074  54.285 -24.044  1.00  0.00    -0.398 OA
HETATM   28  H30 UNL     1       0.836  54.761 -23.229  1.00  0.00     0.209 HD
ENDBRANCH  26  27
ENDBRANCH  22  26
BRANCH  23  29
HETATM   29  O6  UNL     1       0.179  54.485 -26.742  1.00  0.00    -0.390 OA
HETATM   30  H32 UNL     1       0.238  54.838 -27.648  1.00  0.00     0.210 HD
ENDBRANCH  23  29
BRANCH  24  31
HETATM   31  O7  UNL     1      -0.519  51.332 -28.362  1.00  0.00    -0.390 OA
HETATM   32  H34 UNL     1      -0.278  50.628 -27.724  1.00  0.00     0.210 HD
ENDBRANCH  24  31
BRANCH  25  33
HETATM   33  O8  UNL     1      -2.688  53.286 -26.116  1.00  0.00    -0.388 OA
HETATM   34  H36 UNL     1      -3.050  53.799 -26.860  1.00  0.00     0.210 HD
ENDBRANCH  25  33
ENDBRANCH  19  20
ENDBRANCH   1  19
TORSDOF 13
ENDMDL
MODEL 9
REMARK minimizedAffinity -7.73916769
REMARK  13 active torsions:
REMARK  status: ('A' for Active; 'I' for Inactive)
REMARK    1  A    between atoms: C2_2  and  C3_3 
REMARK    2  A    between atoms: C3_3  and  C5_5 
REMARK    3  A    between atoms: C3_3  and  O3_18 
REMARK    4  A    between atoms: C5_5  and  C6_6 
REMARK    5  A    between atoms: C7_7  and  C8_8 
REMARK    6  A    between atoms: C12_12  and  C13_13 
REMARK    7  A    between atoms: C13_13  and  O1_16 
REMARK    8  A    between atoms: O3_18  and  C16_19 
REMARK    9  A    between atoms: C17_21  and  C18_22 
REMARK   10  A    between atoms: C18_22  and  O5_23 
REMARK   11  A    between atoms: C19_24  and  O6_25 
REMARK   12  A    between atoms: C20_26  and  O7_27 
REMARK   13  A    between atoms: C21_28  and  O8_29 
ROOT
HETATM    1  C3  UNL     1       9.035  62.802 -34.331  1.00  0.00     0.081 C 
HETATM    2  C4  UNL     1       8.570  61.440 -33.780  1.00  0.00     0.051 C 
ENDROOT
BRANCH   1   3
HETATM    3  C2  UNL     1      10.178  63.302 -33.454  1.00  0.00     0.001 C 
HETATM    4  C1  UNL     1      10.851  62.648 -32.496  1.00  0.00     0.010 C 
ENDBRANCH   1   3
BRANCH   1   5
HETATM    5  C5  UNL     1       9.356  62.730 -35.861  1.00  0.00     0.068 C 
BRANCH   5   6
HETATM    6  C6  UNL     1      10.717  62.341 -36.394  1.00  0.00    -0.024 C 
HETATM    7  C7  UNL     1      11.759  63.127 -36.722  1.00  0.00     0.006 C 
BRANCH   7   8
HETATM    8  C8  UNL     1      13.112  62.657 -37.209  1.00  0.00     0.075 C 
HETATM    9  C9  UNL     1      12.969  61.283 -37.871  1.00  0.00     0.050 C 
HETATM   10  C10 UNL     1      14.134  62.644 -36.070  1.00  0.00     0.044 C 
HETATM   11  C11 UNL     1      15.430  62.942 -36.788  1.00  0.00     0.038 C 
HETATM   12  C12 UNL     1      14.978  63.949 -37.836  1.00  0.00     0.156 C 
HETATM   13  O2  UNL     1      13.642  63.552 -38.204  1.00  0.00    -0.368 OA
BRANCH  12  14
HETATM   14  C13 UNL     1      15.890  64.078 -39.086  1.00  0.00     0.076 C 
HETATM   15  C14 UNL     1      15.333  65.112 -40.071  1.00  0.00     0.048 C 
HETATM   16  C15 UNL     1      16.035  62.724 -39.789  1.00  0.00     0.048 C 
BRANCH  14  17
HETATM   17  O1  UNL     1      17.217  64.488 -38.723  1.00  0.00    -0.388 OA
HETATM   18  H25 UNL     1      17.188  65.406 -38.411  1.00  0.00     0.210 HD
ENDBRANCH  14  17
ENDBRANCH  12  14
ENDBRANCH   7   8
ENDBRANCH   5   6
ENDBRANCH   1   5
BRANCH   1  19
HETATM   19  O3  UNL     1       8.037  63.828 -34.113  1.00  0.00    -0.344 OA
BRANCH  19  20
HETATM   20  C16 UNL     1       6.660  63.462 -34.237  1.00  0.00     0.293 C 
HETATM   21  O4  UNL     1       5.964  63.966 -33.095  1.00  0.00    -0.348 OA
HETATM   22  C17 UNL     1       4.533  63.939 -33.219  1.00  0.00     0.179 C 
HETATM   23  C19 UNL     1       4.090  64.965 -34.283  1.00  0.00     0.180 C 
HETATM   24  C20 UNL     1       5.233  65.307 -35.263  1.00  0.00     0.183 C 
HETATM   25  C21 UNL     1       6.137  64.099 -35.554  1.00  0.00     0.204 C 
BRANCH  22  26
HETATM   26  C18 UNL     1       3.955  62.522 -33.394  1.00  0.00     0.198 C 
BRANCH  26  27
HETATM   27  O5  UNL     1       3.120  62.198 -32.279  1.00  0.00    -0.398 OA
HETATM   28  H30 UNL     1       2.849  61.270 -32.389  1.00  0.00     0.209 HD
ENDBRANCH  26  27
ENDBRANCH  22  26
BRANCH  23  29
HETATM   29  O6  UNL     1       2.921  64.535 -34.982  1.00  0.00    -0.390 OA
HETATM   30  H32 UNL     1       2.605  65.292 -35.506  1.00  0.00     0.210 HD
ENDBRANCH  23  29
BRANCH  24  31
HETATM   31  O7  UNL     1       6.008  66.397 -34.748  1.00  0.00    -0.390 OA
HETATM   32  H34 UNL     1       6.473  66.071 -33.949  1.00  0.00     0.210 HD
ENDBRANCH  24  31
BRANCH  25  33
HETATM   33  O8  UNL     1       5.421  63.119 -36.323  1.00  0.00    -0.388 OA
HETATM   34  H36 UNL     1       5.183  63.534 -37.172  1.00  0.00     0.210 HD
ENDBRANCH  25  33
ENDBRANCH  19  20
ENDBRANCH   1  19
TORSDOF 13
ENDMDL
