MODEL 1
REMARK minimizedAffinity -9.73373222
REMARK  9 active torsions:
REMARK  status: ('A' for Active; 'I' for Inactive)
REMARK    1  A    between atoms: C2_2  and  C3_3 
REMARK    2  A    between atoms: C2_2  and  C9_11 
REMARK    3  A    between atoms: C3_3  and  C4_4 
REMARK    4  A    between atoms: C4_4  and  C5_5 
REMARK    5  A    between atoms: C6_6  and  C7_7 
REMARK    6  A    between atoms: C6_6  and  C8_9 
REMARK    7  A    between atoms: C7_7  and  O1_8 
REMARK    8  A    between atoms: C8_9  and  O2_10 
REMARK    9  A    between atoms: C30_34  and  O5_35 
ROOT
HETATM    1  C9  UNL     1      -1.137  50.889 -23.027  1.00  0.00    -0.001 C 
HETATM    2  C10 UNL     1      -0.382  52.236 -23.211  1.00  0.00     0.007 C 
HETATM    3  C11 UNL     1       0.080  52.683 -21.813  1.00  0.00     0.015 C 
HETATM    4  C12 UNL     1       0.038  51.402 -20.959  1.00  0.00    -0.009 C 
HETATM    5  C13 UNL     1       1.337  50.599 -21.301  1.00  0.00     0.021 C 
HETATM    6  C14 UNL     1       0.028  51.465 -19.428  1.00  0.00    -0.032 C 
HETATM    7  C15 UNL     1      -0.439  50.413 -18.697  1.00  0.00     0.002 C 
HETATM    8  C16 UNL     1      -1.182  49.297 -19.424  1.00  0.00     0.157 C 
HETATM    9  O3  UNL     1      -1.647  48.339 -18.809  1.00  0.00    -0.293 OA
HETATM   10  C17 UNL     1      -1.369  49.342 -20.935  1.00  0.00     0.094 C 
HETATM   11  C18 UNL     1      -1.298  50.765 -21.478  1.00  0.00    -0.022 C 
HETATM   12  C19 UNL     1      -2.557  51.532 -20.981  1.00  0.00     0.017 C 
HETATM   13  C20 UNL     1      -0.276  50.320 -17.149  1.00  0.00    -0.008 C 
HETATM   14  C21 UNL     1      -1.648  50.717 -16.562  1.00  0.00     0.021 C 
HETATM   15  C22 UNL     1       0.112  48.894 -16.662  1.00  0.00     0.022 C 
HETATM   16  C23 UNL     1       0.455  48.802 -15.182  1.00  0.00     0.080 C 
HETATM   17  C24 UNL     1       1.554  49.761 -14.809  1.00  0.00     0.135 C 
HETATM   18  O4  UNL     1       2.510  49.374 -14.136  1.00  0.00    -0.297 OA
HETATM   19  C25 UNL     1       1.377  51.227 -15.221  1.00  0.00     0.018 C 
HETATM   20  C26 UNL     1       0.426  51.901 -14.222  1.00  0.00     0.023 C 
HETATM   21  C27 UNL     1       2.754  51.929 -15.083  1.00  0.00     0.023 C 
HETATM   22  C28 UNL     1       0.922  51.262 -16.721  1.00  0.00     0.016 C 
HETATM   23  C29 UNL     1       0.687  52.675 -17.260  1.00  0.00     0.043 C 
HETATM   24  C30 UNL     1       0.659  52.682 -18.789  1.00  0.00     0.149 C 
ENDROOT
BRANCH   1  25
HETATM   25  C2  UNL     1      -2.320  50.725 -24.028  1.00  0.00    -0.014 C 
HETATM   26  C1  UNL     1      -2.828  49.296 -24.274  1.00  0.00     0.010 C 
BRANCH  25  27
HETATM   27  C3  UNL     1      -2.106  51.405 -25.402  1.00  0.00     0.008 C 
BRANCH  27  28
HETATM   28  C4  UNL     1      -1.364  50.586 -26.465  1.00  0.00     0.028 C 
BRANCH  28  29
HETATM   29  C5  UNL     1       0.129  50.568 -26.289  1.00  0.00    -0.020 C 
HETATM   30  C6  UNL     1       1.016  51.524 -26.640  1.00  0.00    -0.037 C 
BRANCH  30  31
HETATM   31  C7  UNL     1       0.627  52.843 -27.252  1.00  0.00     0.200 C 
BRANCH  31  32
HETATM   32  O1  UNL     1       0.528  53.819 -26.228  1.00  0.00    -0.397 OA
HETATM   33  H12 UNL     1       1.422  53.922 -25.855  1.00  0.00     0.209 HD
ENDBRANCH  31  32
ENDBRANCH  30  31
BRANCH  30  34
HETATM   34  C8  UNL     1       2.506  51.394 -26.403  1.00  0.00     0.200 C 
BRANCH  34  35
HETATM   35  O2  UNL     1       3.244  51.531 -27.612  1.00  0.00    -0.397 OA
HETATM   36  H15 UNL     1       4.182  51.448 -27.373  1.00  0.00     0.209 HD
ENDBRANCH  34  35
ENDBRANCH  30  34
ENDBRANCH  28  29
ENDBRANCH  27  28
ENDBRANCH  25  27
ENDBRANCH   1  25
BRANCH  24  37
HETATM   37  O5  UNL     1      -0.069  53.839 -19.181  1.00  0.00    -0.391 OA
HETATM   38  H46 UNL     1       0.370  54.612 -18.790  1.00  0.00     0.210 HD
ENDBRANCH  24  37
TORSDOF 9
ENDMDL
MODEL 2
REMARK minimizedAffinity -9.63088036
REMARK  9 active torsions:
REMARK  status: ('A' for Active; 'I' for Inactive)
REMARK    1  A    between atoms: C2_2  and  C3_3 
REMARK    2  A    between atoms: C2_2  and  C9_11 
REMARK    3  A    between atoms: C3_3  and  C4_4 
REMARK    4  A    between atoms: C4_4  and  C5_5 
REMARK    5  A    between atoms: C6_6  and  C7_7 
REMARK    6  A    between atoms: C6_6  and  C8_9 
REMARK    7  A    between atoms: C7_7  and  O1_8 
REMARK    8  A    between atoms: C8_9  and  O2_10 
REMARK    9  A    between atoms: C30_34  and  O5_35 
ROOT
HETATM    1  C9  UNL     1      -0.793  50.361 -21.884  1.00  0.00    -0.001 C 
HETATM    2  C10 UNL     1      -0.813  49.802 -20.432  1.00  0.00     0.007 C 
HETATM    3  C11 UNL     1      -2.178  49.122 -20.234  1.00  0.00     0.015 C 
HETATM    4  C12 UNL     1      -2.695  48.858 -21.661  1.00  0.00    -0.009 C 
HETATM    5  C13 UNL     1      -1.955  47.576 -22.170  1.00  0.00     0.021 C 
HETATM    6  C14 UNL     1      -4.175  48.571 -21.933  1.00  0.00    -0.032 C 
HETATM    7  C15 UNL     1      -4.700  48.769 -23.174  1.00  0.00     0.002 C 
HETATM    8  C16 UNL     1      -3.863  49.520 -24.205  1.00  0.00     0.157 C 
HETATM    9  O3  UNL     1      -4.300  49.751 -25.332  1.00  0.00    -0.293 OA
HETATM   10  C17 UNL     1      -2.461  50.008 -23.863  1.00  0.00     0.094 C 
HETATM   11  C18 UNL     1      -2.271  50.196 -22.362  1.00  0.00    -0.022 C 
HETATM   12  C19 UNL     1      -3.144  51.404 -21.916  1.00  0.00     0.017 C 
HETATM   13  C20 UNL     1      -6.130  48.294 -23.574  1.00  0.00    -0.008 C 
HETATM   14  C21 UNL     1      -7.018  49.555 -23.522  1.00  0.00     0.021 C 
HETATM   15  C22 UNL     1      -6.188  47.668 -24.999  1.00  0.00     0.022 C 
HETATM   16  C23 UNL     1      -7.523  47.031 -25.356  1.00  0.00     0.080 C 
HETATM   17  C24 UNL     1      -7.924  45.986 -24.348  1.00  0.00     0.135 C 
HETATM   18  O4  UNL     1      -8.313  44.880 -24.725  1.00  0.00    -0.297 OA
HETATM   19  C25 UNL     1      -7.912  46.395 -22.870  1.00  0.00     0.018 C 
HETATM   20  C26 UNL     1      -9.189  47.194 -22.577  1.00  0.00     0.023 C 
HETATM   21  C27 UNL     1      -7.979  45.099 -22.019  1.00  0.00     0.023 C 
HETATM   22  C28 UNL     1      -6.563  47.140 -22.581  1.00  0.00     0.016 C 
HETATM   23  C29 UNL     1      -6.426  47.624 -21.135  1.00  0.00     0.043 C 
HETATM   24  C30 UNL     1      -4.971  47.957 -20.803  1.00  0.00     0.149 C 
ENDROOT
BRANCH   1  25
HETATM   25  C2  UNL     1       0.003  51.695 -22.001  1.00  0.00    -0.014 C 
HETATM   26  C1  UNL     1       0.026  52.601 -20.760  1.00  0.00     0.010 C 
BRANCH  25  27
HETATM   27  C3  UNL     1      -0.365  52.564 -23.227  1.00  0.00     0.008 C 
BRANCH  27  28
HETATM   28  C4  UNL     1       0.760  52.849 -24.230  1.00  0.00     0.028 C 
BRANCH  28  29
HETATM   29  C5  UNL     1       0.391  52.560 -25.659  1.00  0.00    -0.020 C 
HETATM   30  C6  UNL     1       1.129  51.920 -26.591  1.00  0.00    -0.037 C 
BRANCH  30  31
HETATM   31  C7  UNL     1       2.486  51.327 -26.323  1.00  0.00     0.200 C 
BRANCH  31  32
HETATM   32  O1  UNL     1       3.308  51.516 -27.462  1.00  0.00    -0.397 OA
HETATM   33  H12 UNL     1       3.426  52.478 -27.564  1.00  0.00     0.209 HD
ENDBRANCH  31  32
ENDBRANCH  30  31
BRANCH  30  34
HETATM   34  C8  UNL     1       0.643  51.681 -28.005  1.00  0.00     0.200 C 
BRANCH  34  35
HETATM   35  O2  UNL     1      -0.205  52.732 -28.454  1.00  0.00    -0.397 OA
HETATM   36  H15 UNL     1      -0.460  52.510 -29.365  1.00  0.00     0.209 HD
ENDBRANCH  34  35
ENDBRANCH  30  34
ENDBRANCH  28  29
ENDBRANCH  27  28
ENDBRANCH  25  27
ENDBRANCH   1  25
BRANCH  24  37
HETATM   37  O5  UNL     1      -4.997  48.865 -19.709  1.00  0.00    -0.391 OA
HETATM   38  H46 UNL     1      -5.482  48.442 -18.982  1.00  0.00     0.210 HD
ENDBRANCH  24  37
TORSDOF 9
ENDMDL
MODEL 3
REMARK minimizedAffinity -9.08609962
REMARK  9 active torsions:
REMARK  status: ('A' for Active; 'I' for Inactive)
REMARK    1  A    between atoms: C2_2  and  C3_3 
REMARK    2  A    between atoms: C2_2  and  C9_11 
REMARK    3  A    between atoms: C3_3  and  C4_4 
REMARK    4  A    between atoms: C4_4  and  C5_5 
REMARK    5  A    between atoms: C6_6  and  C7_7 
REMARK    6  A    between atoms: C6_6  and  C8_9 
REMARK    7  A    between atoms: C7_7  and  O1_8 
REMARK    8  A    between atoms: C8_9  and  O2_10 
REMARK    9  A    between atoms: C30_34  and  O5_35 
ROOT
HETATM    1  C9  UNL     1      -6.403  49.463 -23.920  1.00  0.00    -0.001 C 
HETATM    2  C10 UNL     1      -7.255  49.831 -22.671  1.00  0.00     0.007 C 
HETATM    3  C11 UNL     1      -6.275  50.317 -21.589  1.00  0.00     0.015 C 
HETATM    4  C12 UNL     1      -4.995  50.692 -22.360  1.00  0.00    -0.009 C 
HETATM    5  C13 UNL     1      -5.252  52.106 -22.982  1.00  0.00     0.021 C 
HETATM    6  C14 UNL     1      -3.648  50.835 -21.646  1.00  0.00    -0.032 C 
HETATM    7  C15 UNL     1      -2.482  50.731 -22.344  1.00  0.00     0.002 C 
HETATM    8  C16 UNL     1      -2.539  50.217 -23.779  1.00  0.00     0.157 C 
HETATM    9  O3  UNL     1      -1.513  50.078 -24.445  1.00  0.00    -0.293 OA
HETATM   10  C17 UNL     1      -3.870  49.860 -24.426  1.00  0.00     0.094 C 
HETATM   11  C18 UNL     1      -4.934  49.510 -23.390  1.00  0.00    -0.022 C 
HETATM   12  C19 UNL     1      -4.532  48.162 -22.726  1.00  0.00     0.017 C 
HETATM   13  C20 UNL     1      -1.093  51.081 -21.729  1.00  0.00    -0.008 C 
HETATM   14  C21 UNL     1      -0.441  49.727 -21.374  1.00  0.00     0.021 C 
HETATM   15  C22 UNL     1      -0.173  51.867 -22.709  1.00  0.00     0.022 C 
HETATM   16  C23 UNL     1       1.118  52.382 -22.088  1.00  0.00     0.080 C 
HETATM   17  C24 UNL     1       0.847  53.240 -20.881  1.00  0.00     0.135 C 
HETATM   18  O4  UNL     1       1.406  54.330 -20.759  1.00  0.00    -0.297 OA
HETATM   19  C25 UNL     1      -0.065  52.655 -19.795  1.00  0.00     0.018 C 
HETATM   20  C26 UNL     1       0.759  51.682 -18.941  1.00  0.00     0.023 C 
HETATM   21  C27 UNL     1      -0.501  53.819 -18.866  1.00  0.00     0.023 C 
HETATM   22  C28 UNL     1      -1.327  52.044 -20.494  1.00  0.00     0.016 C 
HETATM   23  C29 UNL     1      -2.320  51.404 -19.521  1.00  0.00     0.043 C 
HETATM   24  C30 UNL     1      -3.686  51.207 -20.180  1.00  0.00     0.149 C 
ENDROOT
BRANCH   1  25
HETATM   25  C2  UNL     1      -6.991  48.256 -24.711  1.00  0.00    -0.014 C 
HETATM   26  C1  UNL     1      -7.397  47.021 -23.893  1.00  0.00     0.010 C 
BRANCH  25  27
HETATM   27  C3  UNL     1      -6.128  47.783 -25.905  1.00  0.00     0.008 C 
BRANCH  27  28
HETATM   28  C4  UNL     1      -6.868  47.509 -27.221  1.00  0.00     0.028 C 
BRANCH  28  29
HETATM   29  C5  UNL     1      -6.052  47.796 -28.450  1.00  0.00    -0.020 C 
HETATM   30  C6  UNL     1      -6.496  48.138 -29.678  1.00  0.00    -0.037 C 
BRANCH  30  31
HETATM   31  C7  UNL     1      -7.948  48.341 -30.017  1.00  0.00     0.200 C 
BRANCH  31  32
HETATM   32  O1  UNL     1      -8.436  49.472 -29.315  1.00  0.00    -0.397 OA
HETATM   33  H12 UNL     1      -7.947  50.243 -29.655  1.00  0.00     0.209 HD
ENDBRANCH  31  32
ENDBRANCH  30  31
BRANCH  30  34
HETATM   34  C8  UNL     1      -5.569  48.412 -30.844  1.00  0.00     0.200 C 
BRANCH  34  35
HETATM   35  O2  UNL     1      -4.747  49.549 -30.605  1.00  0.00    -0.397 OA
HETATM   36  H15 UNL     1      -4.179  49.647 -31.388  1.00  0.00     0.209 HD
ENDBRANCH  34  35
ENDBRANCH  30  34
ENDBRANCH  28  29
ENDBRANCH  27  28
ENDBRANCH  25  27
ENDBRANCH   1  25
BRANCH  24  37
HETATM   37  O5  UNL     1      -4.344  50.173 -19.459  1.00  0.00    -0.391 OA
HETATM   38  H46 UNL     1      -4.391  50.444 -18.527  1.00  0.00     0.210 HD
ENDBRANCH  24  37
TORSDOF 9
ENDMDL
MODEL 4
REMARK minimizedAffinity -9.04698753
REMARK  9 active torsions:
REMARK  status: ('A' for Active; 'I' for Inactive)
REMARK    1  A    between atoms: C2_2  and  C3_3 
REMARK    2  A    between atoms: C2_2  and  C9_11 
REMARK    3  A    between atoms: C3_3  and  C4_4 
REMARK    4  A    between atoms: C4_4  and  C5_5 
REMARK    5  A    between atoms: C6_6  and  C7_7 
REMARK    6  A    between atoms: C6_6  and  C8_9 
REMARK    7  A    between atoms: C7_7  and  O1_8 
REMARK    8  A    between atoms: C8_9  and  O2_10 
REMARK    9  A    between atoms: C30_34  and  O5_35 
ROOT
HETATM    1  C9  UNL     1      -2.241  51.290 -22.687  1.00  0.00    -0.001 C 
HETATM    2  C10 UNL     1      -3.276  52.378 -23.091  1.00  0.00     0.007 C 
HETATM    3  C11 UNL     1      -4.672  51.771 -22.868  1.00  0.00     0.015 C 
HETATM    4  C12 UNL     1      -4.437  50.593 -21.904  1.00  0.00    -0.009 C 
HETATM    5  C13 UNL     1      -4.308  51.213 -20.472  1.00  0.00     0.021 C 
HETATM    6  C14 UNL     1      -5.476  49.479 -21.739  1.00  0.00    -0.032 C 
HETATM    7  C15 UNL     1      -5.109  48.260 -21.253  1.00  0.00     0.002 C 
HETATM    8  C16 UNL     1      -3.622  47.947 -21.126  1.00  0.00     0.157 C 
HETATM    9  O3  UNL     1      -3.236  46.852 -20.718  1.00  0.00    -0.293 OA
HETATM   10  C17 UNL     1      -2.573  48.985 -21.502  1.00  0.00     0.094 C 
HETATM   11  C18 UNL     1      -3.111  50.006 -22.500  1.00  0.00    -0.022 C 
HETATM   12  C19 UNL     1      -3.338  49.278 -23.856  1.00  0.00     0.017 C 
HETATM   13  C20 UNL     1      -6.142  47.162 -20.855  1.00  0.00    -0.008 C 
HETATM   14  C21 UNL     1      -6.153  46.157 -22.026  1.00  0.00     0.021 C 
HETATM   15  C22 UNL     1      -5.771  46.427 -19.534  1.00  0.00     0.022 C 
HETATM   16  C23 UNL     1      -6.841  45.476 -19.018  1.00  0.00     0.080 C 
HETATM   17  C24 UNL     1      -8.161  46.176 -18.831  1.00  0.00     0.135 C 
HETATM   18  O4  UNL     1      -8.797  46.030 -17.787  1.00  0.00    -0.297 OA
HETATM   19  C25 UNL     1      -8.699  46.985 -20.018  1.00  0.00     0.018 C 
HETATM   20  C26 UNL     1      -9.337  46.013 -21.019  1.00  0.00     0.023 C 
HETATM   21  C27 UNL     1      -9.834  47.904 -19.490  1.00  0.00     0.023 C 
HETATM   22  C28 UNL     1      -7.532  47.868 -20.578  1.00  0.00     0.016 C 
HETATM   23  C29 UNL     1      -7.929  48.718 -21.787  1.00  0.00     0.043 C 
HETATM   24  C30 UNL     1      -6.917  49.839 -22.027  1.00  0.00     0.149 C 
ENDROOT
BRANCH   1  25
HETATM   25  C2  UNL     1      -0.953  51.334 -23.564  1.00  0.00    -0.014 C 
HETATM   26  C1  UNL     1       0.243  52.116 -23.002  1.00  0.00     0.010 C 
BRANCH  25  27
HETATM   27  C3  UNL     1      -1.181  51.784 -25.027  1.00  0.00     0.008 C 
BRANCH  27  28
HETATM   28  C4  UNL     1      -0.853  50.759 -26.120  1.00  0.00     0.028 C 
BRANCH  28  29
HETATM   29  C5  UNL     1       0.519  50.919 -26.714  1.00  0.00    -0.020 C 
HETATM   30  C6  UNL     1       0.952  51.886 -27.550  1.00  0.00    -0.037 C 
BRANCH  30  31
HETATM   31  C7  UNL     1       0.101  53.040 -28.009  1.00  0.00     0.200 C 
BRANCH  31  32
HETATM   32  O1  UNL     1       0.288  54.134 -27.126  1.00  0.00    -0.397 OA
HETATM   33  H12 UNL     1       1.220  54.406 -27.214  1.00  0.00     0.209 HD
ENDBRANCH  31  32
ENDBRANCH  30  31
BRANCH  30  34
HETATM   34  C8  UNL     1       2.370  51.946 -28.079  1.00  0.00     0.200 C 
BRANCH  34  35
HETATM   35  O2  UNL     1       3.294  51.361 -27.168  1.00  0.00    -0.397 OA
HETATM   36  H15 UNL     1       4.170  51.427 -27.584  1.00  0.00     0.209 HD
ENDBRANCH  34  35
ENDBRANCH  30  34
ENDBRANCH  28  29
ENDBRANCH  27  28
ENDBRANCH  25  27
ENDBRANCH   1  25
BRANCH  24  37
HETATM   37  O5  UNL     1      -7.034  50.213 -23.394  1.00  0.00    -0.391 OA
HETATM   38  H46 UNL     1      -7.957  50.473 -23.553  1.00  0.00     0.210 HD
ENDBRANCH  24  37
TORSDOF 9
ENDMDL
MODEL 5
REMARK minimizedAffinity -8.98326969
REMARK  9 active torsions:
REMARK  status: ('A' for Active; 'I' for Inactive)
REMARK    1  A    between atoms: C2_2  and  C3_3 
REMARK    2  A    between atoms: C2_2  and  C9_11 
REMARK    3  A    between atoms: C3_3  and  C4_4 
REMARK    4  A    between atoms: C4_4  and  C5_5 
REMARK    5  A    between atoms: C6_6  and  C7_7 
REMARK    6  A    between atoms: C6_6  and  C8_9 
REMARK    7  A    between atoms: C7_7  and  O1_8 
REMARK    8  A    between atoms: C8_9  and  O2_10 
REMARK    9  A    between atoms: C30_34  and  O5_35 
ROOT
HETATM    1  C9  UNL     1      -2.795  50.937 -24.790  1.00  0.00    -0.001 C 
HETATM    2  C10 UNL     1      -3.904  52.020 -24.920  1.00  0.00     0.007 C 
HETATM    3  C11 UNL     1      -5.075  51.569 -24.029  1.00  0.00     0.015 C 
HETATM    4  C12 UNL     1      -4.453  50.554 -23.051  1.00  0.00    -0.009 C 
HETATM    5  C13 UNL     1      -3.731  51.392 -21.944  1.00  0.00     0.021 C 
HETATM    6  C14 UNL     1      -5.325  49.567 -22.267  1.00  0.00    -0.032 C 
HETATM    7  C15 UNL     1      -4.786  48.421 -21.762  1.00  0.00     0.002 C 
HETATM    8  C16 UNL     1      -3.385  48.019 -22.210  1.00  0.00     0.157 C 
HETATM    9  O3  UNL     1      -2.863  46.981 -21.806  1.00  0.00    -0.293 OA
HETATM   10  C17 UNL     1      -2.594  48.895 -23.173  1.00  0.00     0.094 C 
HETATM   11  C18 UNL     1      -3.503  49.774 -24.025  1.00  0.00    -0.022 C 
HETATM   12  C19 UNL     1      -4.283  48.850 -25.004  1.00  0.00     0.017 C 
HETATM   13  C20 UNL     1      -5.554  47.488 -20.776  1.00  0.00    -0.008 C 
HETATM   14  C21 UNL     1      -6.059  46.306 -21.630  1.00  0.00     0.021 C 
HETATM   15  C22 UNL     1      -4.659  46.957 -19.618  1.00  0.00     0.022 C 
HETATM   16  C23 UNL     1      -5.410  46.192 -18.539  1.00  0.00     0.080 C 
HETATM   17  C24 UNL     1      -6.527  47.014 -17.953  1.00  0.00     0.135 C 
HETATM   18  O4  UNL     1      -6.662  47.094 -16.732  1.00  0.00    -0.297 OA
HETATM   19  C25 UNL     1      -7.517  47.653 -18.935  1.00  0.00     0.018 C 
HETATM   20  C26 UNL     1      -8.518  46.579 -19.382  1.00  0.00     0.023 C 
HETATM   21  C27 UNL     1      -8.321  48.732 -18.162  1.00  0.00     0.023 C 
HETATM   22  C28 UNL     1      -6.696  48.336 -20.082  1.00  0.00     0.016 C 
HETATM   23  C29 UNL     1      -7.568  49.001 -21.150  1.00  0.00     0.043 C 
HETATM   24  C30 UNL     1      -6.752  49.984 -21.991  1.00  0.00     0.149 C 
ENDROOT
BRANCH   1  25
HETATM   25  C2  UNL     1      -1.999  50.734 -26.115  1.00  0.00    -0.014 C 
HETATM   26  C1  UNL     1      -2.713  49.974 -27.243  1.00  0.00     0.010 C 
BRANCH  25  27
HETATM   27  C3  UNL     1      -0.589  50.122 -25.936  1.00  0.00     0.008 C 
BRANCH  27  28
HETATM   28  C4  UNL     1       0.577  50.889 -26.571  1.00  0.00     0.028 C 
BRANCH  28  29
HETATM   29  C5  UNL     1       0.152  52.058 -27.414  1.00  0.00    -0.020 C 
HETATM   30  C6  UNL     1      -0.075  53.328 -27.016  1.00  0.00    -0.037 C 
BRANCH  30  31
HETATM   31  C7  UNL     1       0.114  53.808 -25.602  1.00  0.00     0.200 C 
BRANCH  31  32
HETATM   32  O1  UNL     1       0.242  55.220 -25.605  1.00  0.00    -0.397 OA
HETATM   33  H12 UNL     1      -0.607  55.576 -25.923  1.00  0.00     0.209 HD
ENDBRANCH  31  32
ENDBRANCH  30  31
BRANCH  30  34
HETATM   34  C8  UNL     1      -0.496  54.428 -27.967  1.00  0.00     0.200 C 
BRANCH  34  35
HETATM   35  O2  UNL     1      -1.833  54.248 -28.420  1.00  0.00    -0.397 OA
HETATM   36  H15 UNL     1      -2.027  54.995 -29.010  1.00  0.00     0.209 HD
ENDBRANCH  34  35
ENDBRANCH  30  34
ENDBRANCH  28  29
ENDBRANCH  27  28
ENDBRANCH  25  27
ENDBRANCH   1  25
BRANCH  24  37
HETATM   37  O5  UNL     1      -7.437  50.132 -23.228  1.00  0.00    -0.391 OA
HETATM   38  H46 UNL     1      -8.340  50.433 -23.034  1.00  0.00     0.210 HD
ENDBRANCH  24  37
TORSDOF 9
ENDMDL
MODEL 6
REMARK minimizedAffinity -8.91244698
REMARK  9 active torsions:
REMARK  status: ('A' for Active; 'I' for Inactive)
REMARK    1  A    between atoms: C2_2  and  C3_3 
REMARK    2  A    between atoms: C2_2  and  C9_11 
REMARK    3  A    between atoms: C3_3  and  C4_4 
REMARK    4  A    between atoms: C4_4  and  C5_5 
REMARK    5  A    between atoms: C6_6  and  C7_7 
REMARK    6  A    between atoms: C6_6  and  C8_9 
REMARK    7  A    between atoms: C7_7  and  O1_8 
REMARK    8  A    between atoms: C8_9  and  O2_10 
REMARK    9  A    between atoms: C30_34  and  O5_35 
ROOT
HETATM    1  C9  UNL     1      -1.718  48.511 -18.227  1.00  0.00    -0.001 C 
HETATM    2  C10 UNL     1      -2.813  47.475 -18.614  1.00  0.00     0.007 C 
HETATM    3  C11 UNL     1      -3.246  47.800 -20.054  1.00  0.00     0.015 C 
HETATM    4  C12 UNL     1      -2.093  48.645 -20.628  1.00  0.00    -0.009 C 
HETATM    5  C13 UNL     1      -0.964  47.637 -21.030  1.00  0.00     0.021 C 
HETATM    6  C14 UNL     1      -2.285  49.511 -21.877  1.00  0.00    -0.032 C 
HETATM    7  C15 UNL     1      -1.450  50.558 -22.126  1.00  0.00     0.002 C 
HETATM    8  C16 UNL     1      -0.498  51.006 -21.021  1.00  0.00     0.157 C 
HETATM    9  O3  UNL     1       0.258  51.963 -21.183  1.00  0.00    -0.293 OA
HETATM   10  C17 UNL     1      -0.460  50.278 -19.684  1.00  0.00     0.094 C 
HETATM   11  C18 UNL     1      -1.769  49.552 -19.390  1.00  0.00    -0.022 C 
HETATM   12  C19 UNL     1      -2.867  50.625 -19.136  1.00  0.00     0.017 C 
HETATM   13  C20 UNL     1      -1.450  51.339 -23.475  1.00  0.00    -0.008 C 
HETATM   14  C21 UNL     1      -2.225  52.645 -23.201  1.00  0.00     0.021 C 
HETATM   15  C22 UNL     1      -0.017  51.674 -23.985  1.00  0.00     0.022 C 
HETATM   16  C23 UNL     1       0.032  52.275 -25.382  1.00  0.00     0.080 C 
HETATM   17  C24 UNL     1      -0.649  51.388 -26.390  1.00  0.00     0.135 C 
HETATM   18  O4  UNL     1      -0.093  51.123 -27.457  1.00  0.00    -0.297 OA
HETATM   19  C25 UNL     1      -2.072  50.920 -26.065  1.00  0.00     0.018 C 
HETATM   20  C26 UNL     1      -3.045  52.063 -26.389  1.00  0.00     0.023 C 
HETATM   21  C27 UNL     1      -2.416  49.746 -27.021  1.00  0.00     0.023 C 
HETATM   22  C28 UNL     1      -2.093  50.410 -24.584  1.00  0.00     0.016 C 
HETATM   23  C29 UNL     1      -3.469  49.928 -24.118  1.00  0.00     0.043 C 
HETATM   24  C30 UNL     1      -3.354  49.075 -22.854  1.00  0.00     0.149 C 
ENDROOT
BRANCH   1  25
HETATM   25  C2  UNL     1      -1.772  48.904 -16.720  1.00  0.00    -0.014 C 
HETATM   26  C1  UNL     1      -2.716  50.054 -16.337  1.00  0.00     0.010 C 
BRANCH  25  27
HETATM   27  C3  UNL     1      -0.394  49.173 -16.071  1.00  0.00     0.008 C 
BRANCH  27  28
HETATM   28  C4  UNL     1      -0.324  50.324 -15.059  1.00  0.00     0.028 C 
BRANCH  28  29
HETATM   29  C5  UNL     1       1.073  50.671 -14.625  1.00  0.00    -0.020 C 
HETATM   30  C6  UNL     1       1.987  51.411 -15.288  1.00  0.00    -0.037 C 
BRANCH  30  31
HETATM   31  C7  UNL     1       1.724  52.077 -16.612  1.00  0.00     0.200 C 
BRANCH  31  32
HETATM   32  O1  UNL     1       1.409  53.441 -16.391  1.00  0.00    -0.397 OA
HETATM   33  H12 UNL     1       2.205  53.853 -16.010  1.00  0.00     0.209 HD
ENDBRANCH  31  32
ENDBRANCH  30  31
BRANCH  30  34
HETATM   34  C8  UNL     1       3.369  51.699 -14.741  1.00  0.00     0.200 C 
BRANCH  34  35
HETATM   35  O2  UNL     1       3.936  52.862 -15.333  1.00  0.00    -0.397 OA
HETATM   36  H15 UNL     1       4.808  52.983 -14.922  1.00  0.00     0.209 HD
ENDBRANCH  34  35
ENDBRANCH  30  34
ENDBRANCH  28  29
ENDBRANCH  27  28
ENDBRANCH  25  27
ENDBRANCH   1  25
BRANCH  24  37
HETATM   37  O5  UNL     1      -4.620  49.127 -22.207  1.00  0.00    -0.391 OA
HETATM   38  H46 UNL     1      -5.289  48.812 -22.837  1.00  0.00     0.210 HD
ENDBRANCH  24  37
TORSDOF 9
ENDMDL
MODEL 7
REMARK minimizedAffinity -8.85478306
REMARK  9 active torsions:
REMARK  status: ('A' for Active; 'I' for Inactive)
REMARK    1  A    between atoms: C2_2  and  C3_3 
REMARK    2  A    between atoms: C2_2  and  C9_11 
REMARK    3  A    between atoms: C3_3  and  C4_4 
REMARK    4  A    between atoms: C4_4  and  C5_5 
REMARK    5  A    between atoms: C6_6  and  C7_7 
REMARK    6  A    between atoms: C6_6  and  C8_9 
REMARK    7  A    between atoms: C7_7  and  O1_8 
REMARK    8  A    between atoms: C8_9  and  O2_10 
REMARK    9  A    between atoms: C30_34  and  O5_35 
ROOT
HETATM    1  C9  UNL     1      -1.103  49.723 -17.915  1.00  0.00    -0.001 C 
HETATM    2  C10 UNL     1      -2.031  48.483 -18.060  1.00  0.00     0.007 C 
HETATM    3  C11 UNL     1      -2.559  48.487 -19.505  1.00  0.00     0.015 C 
HETATM    4  C12 UNL     1      -1.576  49.385 -20.279  1.00  0.00    -0.009 C 
HETATM    5  C13 UNL     1      -0.315  48.506 -20.577  1.00  0.00     0.021 C 
HETATM    6  C14 UNL     1      -1.946  49.985 -21.639  1.00  0.00    -0.032 C 
HETATM    7  C15 UNL     1      -1.297  51.088 -22.106  1.00  0.00     0.002 C 
HETATM    8  C16 UNL     1      -0.391  51.857 -21.149  1.00  0.00     0.157 C 
HETATM    9  O3  UNL     1       0.197  52.875 -21.512  1.00  0.00    -0.293 OA
HETATM   10  C17 UNL     1      -0.193  51.384 -19.716  1.00  0.00     0.094 C 
HETATM   11  C18 UNL     1      -1.359  50.530 -19.229  1.00  0.00    -0.022 C 
HETATM   12  C19 UNL     1      -2.603  51.452 -19.088  1.00  0.00     0.017 C 
HETATM   13  C20 UNL     1      -1.467  51.617 -23.563  1.00  0.00    -0.008 C 
HETATM   14  C21 UNL     1      -2.431  52.819 -23.460  1.00  0.00     0.021 C 
HETATM   15  C22 UNL     1      -0.125  52.072 -24.207  1.00  0.00     0.022 C 
HETATM   16  C23 UNL     1      -0.220  52.425 -25.684  1.00  0.00     0.080 C 
HETATM   17  C24 UNL     1      -0.784  51.285 -26.490  1.00  0.00     0.135 C 
HETATM   18  O4  UNL     1      -0.230  50.929 -27.530  1.00  0.00    -0.297 OA
HETATM   19  C25 UNL     1      -2.103  50.670 -26.007  1.00  0.00     0.018 C 
HETATM   20  C26 UNL     1      -3.256  51.581 -26.454  1.00  0.00     0.023 C 
HETATM   21  C27 UNL     1      -2.288  49.312 -26.734  1.00  0.00     0.023 C 
HETATM   22  C28 UNL     1      -1.992  50.425 -24.463  1.00  0.00     0.016 C 
HETATM   23  C29 UNL     1      -3.257  49.828 -23.842  1.00  0.00     0.043 C 
HETATM   24  C30 UNL     1      -2.965  49.232 -22.465  1.00  0.00     0.149 C 
ENDROOT
BRANCH   1  25
HETATM   25  C2  UNL     1      -1.167  50.356 -16.493  1.00  0.00    -0.014 C 
HETATM   26  C1  UNL     1       0.127  50.338 -15.666  1.00  0.00     0.010 C 
BRANCH  25  27
HETATM   27  C3  UNL     1      -2.318  49.832 -15.602  1.00  0.00     0.008 C 
BRANCH  27  28
HETATM   28  C4  UNL     1      -2.234  50.163 -14.106  1.00  0.00     0.028 C 
BRANCH  28  29
HETATM   29  C5  UNL     1      -3.004  51.392 -13.710  1.00  0.00    -0.020 C 
HETATM   30  C6  UNL     1      -3.107  51.944 -12.482  1.00  0.00    -0.037 C 
BRANCH  30  31
HETATM   31  C7  UNL     1      -2.397  51.417 -11.264  1.00  0.00     0.200 C 
BRANCH  31  32
HETATM   32  O1  UNL     1      -1.921  52.509 -10.496  1.00  0.00    -0.397 OA
HETATM   33  H12 UNL     1      -2.707  52.996 -10.187  1.00  0.00     0.209 HD
ENDBRANCH  31  32
ENDBRANCH  30  31
BRANCH  30  34
HETATM   34  C8  UNL     1      -3.912  53.197 -12.206  1.00  0.00     0.200 C 
BRANCH  34  35
HETATM   35  O2  UNL     1      -4.314  53.838 -13.411  1.00  0.00    -0.397 OA
HETATM   36  H15 UNL     1      -4.831  54.618 -13.149  1.00  0.00     0.209 HD
ENDBRANCH  34  35
ENDBRANCH  30  34
ENDBRANCH  28  29
ENDBRANCH  27  28
ENDBRANCH  25  27
ENDBRANCH   1  25
BRANCH  24  37
HETATM   37  O5  UNL     1      -4.200  49.202 -21.760  1.00  0.00    -0.391 OA
HETATM   38  H46 UNL     1      -4.831  48.686 -22.287  1.00  0.00     0.210 HD
ENDBRANCH  24  37
TORSDOF 9
ENDMDL
MODEL 8
REMARK minimizedAffinity -8.8182621
REMARK  9 active torsions:
REMARK  status: ('A' for Active; 'I' for Inactive)
REMARK    1  A    between atoms: C2_2  and  C3_3 
REMARK    2  A    between atoms: C2_2  and  C9_11 
REMARK    3  A    between atoms: C3_3  and  C4_4 
REMARK    4  A    between atoms: C4_4  and  C5_5 
REMARK    5  A    between atoms: C6_6  and  C7_7 
REMARK    6  A    between atoms: C6_6  and  C8_9 
REMARK    7  A    between atoms: C7_7  and  O1_8 
REMARK    8  A    between atoms: C8_9  and  O2_10 
REMARK    9  A    between atoms: C30_34  and  O5_35 
ROOT
HETATM    1  C9  UNL     1      -2.317  51.506 -24.489  1.00  0.00    -0.001 C 
HETATM    2  C10 UNL     1      -3.515  52.367 -24.983  1.00  0.00     0.007 C 
HETATM    3  C11 UNL     1      -4.786  51.755 -24.370  1.00  0.00     0.015 C 
HETATM    4  C12 UNL     1      -4.282  50.913 -23.182  1.00  0.00    -0.009 C 
HETATM    5  C13 UNL     1      -4.014  51.917 -22.011  1.00  0.00     0.021 C 
HETATM    6  C14 UNL     1      -5.155  49.824 -22.550  1.00  0.00    -0.032 C 
HETATM    7  C15 UNL     1      -4.587  48.817 -21.828  1.00  0.00     0.002 C 
HETATM    8  C16 UNL     1      -3.072  48.652 -21.881  1.00  0.00     0.157 C 
HETATM    9  O3  UNL     1      -2.511  47.743 -21.270  1.00  0.00    -0.293 OA
HETATM   10  C17 UNL     1      -2.212  49.610 -22.695  1.00  0.00     0.094 C 
HETATM   11  C18 UNL     1      -3.001  50.271 -23.820  1.00  0.00    -0.022 C 
HETATM   12  C19 UNL     1      -3.343  49.179 -24.873  1.00  0.00     0.017 C 
HETATM   13  C20 UNL     1      -5.421  47.809 -20.981  1.00  0.00    -0.008 C 
HETATM   14  C21 UNL     1      -5.492  46.517 -21.823  1.00  0.00     0.021 C 
HETATM   15  C22 UNL     1      -4.781  47.500 -19.596  1.00  0.00     0.022 C 
HETATM   16  C23 UNL     1      -5.650  46.663 -18.669  1.00  0.00     0.080 C 
HETATM   17  C24 UNL     1      -6.998  47.299 -18.452  1.00  0.00     0.135 C 
HETATM   18  O4  UNL     1      -7.453  47.410 -17.313  1.00  0.00    -0.297 OA
HETATM   19  C25 UNL     1      -7.792  47.705 -19.699  1.00  0.00     0.018 C 
HETATM   20  C26 UNL     1      -8.458  46.450 -20.280  1.00  0.00     0.023 C 
HETATM   21  C27 UNL     1      -8.931  48.657 -19.247  1.00  0.00     0.023 C 
HETATM   22  C28 UNL     1      -6.825  48.470 -20.667  1.00  0.00     0.016 C 
HETATM   23  C29 UNL     1      -7.488  48.919 -21.971  1.00  0.00     0.043 C 
HETATM   24  C30 UNL     1      -6.653  49.992 -22.671  1.00  0.00     0.149 C 
ENDROOT
BRANCH   1  25
HETATM   25  C2  UNL     1      -1.186  51.388 -25.554  1.00  0.00    -0.014 C 
HETATM   26  C1  UNL     1      -1.341  50.283 -26.611  1.00  0.00     0.010 C 
BRANCH  25  27
HETATM   27  C3  UNL     1       0.246  51.302 -24.972  1.00  0.00     0.008 C 
BRANCH  27  28
HETATM   28  C4  UNL     1       0.713  52.490 -24.121  1.00  0.00     0.028 C 
BRANCH  28  29
HETATM   29  C5  UNL     1       0.263  52.427 -22.688  1.00  0.00    -0.020 C 
HETATM   30  C6  UNL     1       0.741  53.130 -21.639  1.00  0.00    -0.037 C 
BRANCH  30  31
HETATM   31  C7  UNL     1       1.821  54.171 -21.751  1.00  0.00     0.200 C 
BRANCH  31  32
HETATM   32  O1  UNL     1       1.480  55.087 -22.777  1.00  0.00    -0.397 OA
HETATM   33  H12 UNL     1       0.667  55.540 -22.488  1.00  0.00     0.209 HD
ENDBRANCH  31  32
ENDBRANCH  30  31
BRANCH  30  34
HETATM   34  C8  UNL     1       0.197  52.985 -20.233  1.00  0.00     0.200 C 
BRANCH  34  35
HETATM   35  O2  UNL     1       0.287  54.206 -19.507  1.00  0.00    -0.397 OA
HETATM   36  H15 UNL     1      -0.090  54.032 -18.629  1.00  0.00     0.209 HD
ENDBRANCH  34  35
ENDBRANCH  30  34
ENDBRANCH  28  29
ENDBRANCH  27  28
ENDBRANCH  25  27
ENDBRANCH   1  25
BRANCH  24  37
HETATM   37  O5  UNL     1      -7.012  49.958 -24.047  1.00  0.00    -0.391 OA
HETATM   38  H46 UNL     1      -7.971  50.102 -24.108  1.00  0.00     0.210 HD
ENDBRANCH  24  37
TORSDOF 9
ENDMDL
MODEL 9
REMARK minimizedAffinity -8.80922985
REMARK  9 active torsions:
REMARK  status: ('A' for Active; 'I' for Inactive)
REMARK    1  A    between atoms: C2_2  and  C3_3 
REMARK    2  A    between atoms: C2_2  and  C9_11 
REMARK    3  A    between atoms: C3_3  and  C4_4 
REMARK    4  A    between atoms: C4_4  and  C5_5 
REMARK    5  A    between atoms: C6_6  and  C7_7 
REMARK    6  A    between atoms: C6_6  and  C8_9 
REMARK    7  A    between atoms: C7_7  and  O1_8 
REMARK    8  A    between atoms: C8_9  and  O2_10 
REMARK    9  A    between atoms: C30_34  and  O5_35 
ROOT
HETATM    1  C9  UNL     1      -1.944  52.064 -22.812  1.00  0.00    -0.001 C 
HETATM    2  C10 UNL     1      -2.249  52.277 -24.322  1.00  0.00     0.007 C 
HETATM    3  C11 UNL     1      -3.343  51.266 -24.704  1.00  0.00     0.015 C 
HETATM    4  C12 UNL     1      -3.986  50.861 -23.364  1.00  0.00    -0.009 C 
HETATM    5  C13 UNL     1      -4.970  52.015 -22.979  1.00  0.00     0.021 C 
HETATM    6  C14 UNL     1      -4.831  49.589 -23.238  1.00  0.00    -0.032 C 
HETATM    7  C15 UNL     1      -5.025  49.007 -22.022  1.00  0.00     0.002 C 
HETATM    8  C16 UNL     1      -4.183  49.487 -20.845  1.00  0.00     0.157 C 
HETATM    9  O3  UNL     1      -4.298  48.977 -19.731  1.00  0.00    -0.293 OA
HETATM   10  C17 UNL     1      -3.172  50.613 -21.019  1.00  0.00     0.094 C 
HETATM   11  C18 UNL     1      -2.706  50.745 -22.465  1.00  0.00    -0.022 C 
HETATM   12  C19 UNL     1      -1.848  49.494 -22.808  1.00  0.00     0.017 C 
HETATM   13  C20 UNL     1      -6.044  47.849 -21.790  1.00  0.00    -0.008 C 
HETATM   14  C21 UNL     1      -5.201  46.557 -21.738  1.00  0.00     0.021 C 
HETATM   15  C22 UNL     1      -6.852  48.004 -20.469  1.00  0.00     0.022 C 
HETATM   16  C23 UNL     1      -7.978  46.996 -20.294  1.00  0.00     0.080 C 
HETATM   17  C24 UNL     1      -8.935  47.028 -21.456  1.00  0.00     0.135 C 
HETATM   18  O4  UNL     1     -10.149  47.072 -21.258  1.00  0.00    -0.297 OA
HETATM   19  C25 UNL     1      -8.334  46.913 -22.863  1.00  0.00     0.018 C 
HETATM   20  C26 UNL     1      -8.022  45.435 -23.138  1.00  0.00     0.023 C 
HETATM   21  C27 UNL     1      -9.423  47.345 -23.880  1.00  0.00     0.023 C 
HETATM   22  C28 UNL     1      -7.115  47.892 -22.956  1.00  0.00     0.016 C 
HETATM   23  C29 UNL     1      -6.404  47.864 -24.311  1.00  0.00     0.043 C 
HETATM   24  C30 UNL     1      -5.518  49.097 -24.493  1.00  0.00     0.149 C 
ENDROOT
BRANCH   1  25
HETATM   25  C2  UNL     1      -0.445  52.306 -22.463  1.00  0.00    -0.014 C 
HETATM   26  C1  UNL     1      -0.130  52.762 -21.030  1.00  0.00     0.010 C 
BRANCH  25  27
HETATM   27  C3  UNL     1       0.306  53.239 -23.443  1.00  0.00     0.008 C 
BRANCH  27  28
HETATM   28  C4  UNL     1       1.241  52.563 -24.454  1.00  0.00     0.028 C 
BRANCH  28  29
HETATM   29  C5  UNL     1       0.674  52.473 -25.843  1.00  0.00    -0.020 C 
HETATM   30  C6  UNL     1       1.264  51.968 -26.948  1.00  0.00    -0.037 C 
BRANCH  30  31
HETATM   31  C7  UNL     1       2.633  51.343 -26.954  1.00  0.00     0.200 C 
BRANCH  31  32
HETATM   32  O1  UNL     1       3.575  52.294 -27.421  1.00  0.00    -0.397 OA
HETATM   33  H12 UNL     1       3.588  53.017 -26.769  1.00  0.00     0.209 HD
ENDBRANCH  31  32
ENDBRANCH  30  31
BRANCH  30  34
HETATM   34  C8  UNL     1       0.584  51.925 -28.300  1.00  0.00     0.200 C 
BRANCH  34  35
HETATM   35  O2  UNL     1      -0.373  52.970 -28.439  1.00  0.00    -0.397 OA
HETATM   36  H15 UNL     1      -0.751  52.880 -29.330  1.00  0.00     0.209 HD
ENDBRANCH  34  35
ENDBRANCH  30  34
ENDBRANCH  28  29
ENDBRANCH  27  28
ENDBRANCH  25  27
ENDBRANCH   1  25
BRANCH  24  37
HETATM   37  O5  UNL     1      -4.530  48.753 -25.456  1.00  0.00    -0.391 OA
HETATM   38  H46 UNL     1      -4.988  48.473 -26.265  1.00  0.00     0.210 HD
ENDBRANCH  24  37
TORSDOF 9
ENDMDL
