MODEL 1
REMARK minimizedAffinity -9.26349258
REMARK CNNscore 0.633674324
REMARK CNNaffinity 6.97585535
REMARK  4 active torsions:
REMARK  status: ('A' for Active; 'I' for Inactive)
REMARK    1  A    between atoms: C7_11  and  O3_12 
REMARK    2  A    between atoms: C10_16  and  C11_17 
REMARK    3  A    between atoms: C21_28  and  C22_29 
REMARK    4  A    between atoms: C28_37  and  O8_38 
ROOT
HETATM    1  C1  UNL     1      -8.520  39.925 -17.697  1.00  0.00     0.040 C 
HETATM    2  C2  UNL     1      -7.392  40.726 -18.333  1.00  0.00     0.124 C 
HETATM    3  C3  UNL     1      -6.055  40.411 -17.664  1.00  0.00     0.082 C 
HETATM    4  C4  UNL     1      -5.007  41.535 -17.871  1.00  0.00     0.175 C 
HETATM    5  N1  UNL     1      -4.840  42.331 -16.664  1.00  0.00    -0.335 N 
HETATM    6  C5  UNL     1      -3.861  41.994 -15.777  1.00  0.00     0.230 C 
HETATM    7  O1  UNL     1      -3.798  42.455 -14.646  1.00  0.00    -0.273 OA
HETATM    8  C6  UNL     1      -2.926  40.965 -16.326  1.00  0.00     0.214 C 
HETATM    9  S1  UNL     1      -3.369  40.670 -18.055  1.00  0.00     0.059 S 
HETATM   10  O2  UNL     1      -2.348  41.559 -19.018  1.00  0.00    -0.255 OA
HETATM   11  C7  UNL     1      -5.346  42.417 -19.112  1.00  0.00     0.252 C 
HETATM   12  O4  UNL     1      -4.386  43.459 -19.315  1.00  0.00    -0.340 OA
HETATM   13  C8  UNL     1      -4.983  44.645 -19.824  1.00  0.00     0.156 C 
HETATM   14  C9  UNL     1      -3.877  45.659 -20.126  1.00  0.00     0.056 C 
HETATM   15  C10 UNL     1      -4.411  47.042 -20.582  1.00  0.00     0.043 C 
HETATM   16  C12 UNL     1      -5.605  47.495 -19.734  1.00  0.00    -0.065 C 
HETATM   17  C13 UNL     1      -5.782  48.780 -19.377  1.00  0.00    -0.022 C 
HETATM   18  C14 UNL     1      -4.860  49.906 -19.733  1.00  0.00     0.035 C 
HETATM   19  C15 UNL     1      -3.731  49.547 -20.723  1.00  0.00     0.030 C 
HETATM   20  C16 UNL     1      -3.237  48.098 -20.482  1.00  0.00     0.012 C 
HETATM   21  C17 UNL     1      -2.028  47.764 -21.370  1.00  0.00     0.007 C 
HETATM   22  C18 UNL     1      -0.902  48.776 -21.195  1.00  0.00     0.013 C 
HETATM   23  C19 UNL     1      -1.325  50.234 -21.520  1.00  0.00    -0.005 C 
HETATM   24  C20 UNL     1      -1.541  50.358 -23.042  1.00  0.00     0.019 C 
HETATM   25  C21 UNL     1      -0.200  51.186 -20.956  1.00  0.00     0.028 C 
HETATM   26  C26 UNL     1      -0.759  51.748 -19.628  1.00  0.00     0.013 C 
HETATM   27  C27 UNL     1      -2.022  50.952 -19.323  1.00  0.00     0.040 C 
HETATM   28  C28 UNL     1      -2.600  50.622 -20.709  1.00  0.00     0.070 C 
HETATM   29  C29 UNL     1      -6.613  46.447 -19.296  1.00  0.00     0.069 C 
HETATM   30  C30 UNL     1      -5.926  45.195 -18.759  1.00  0.00     0.158 C 
HETATM   31  O9  UNL     1      -6.892  44.247 -18.292  1.00  0.00    -0.347 OA
HETATM   32  C31 UNL     1      -6.829  42.965 -18.934  1.00  0.00     0.326 C 
HETATM   33  O10 UNL     1      -7.676  42.104 -18.159  1.00  0.00    -0.351 OA
HETATM   34  H7  UNL     1      -5.574  42.961 -16.348  1.00  0.00     0.164 HD
ENDROOT
BRANCH  11  35
HETATM   35  O3  UNL     1      -5.290  41.614 -20.304  1.00  0.00    -0.359 OA
HETATM   36  H10 UNL     1      -4.329  41.631 -20.527  1.00  0.00     0.213 HD
ENDBRANCH  11  35
BRANCH  15  37
HETATM   37  C11 UNL     1      -4.894  46.877 -22.042  1.00  0.00     0.245 C 
HETATM   38  O5  UNL     1      -5.858  47.455 -22.538  1.00  0.00    -0.306 OA
ENDBRANCH  15  37
BRANCH  28  39
HETATM   39  O8  UNL     1      -3.140  51.833 -21.258  1.00  0.00    -0.389 OA
HETATM   40  H35 UNL     1      -3.732  52.235 -20.595  1.00  0.00     0.210 HD
ENDBRANCH  28  39
BRANCH  25  41
HETATM   41  C22 UNL     1       0.344  52.253 -21.862  1.00  0.00    -0.045 A 
HETATM   42  C23 UNL     1       0.220  52.387 -23.185  1.00  0.00     0.087 A 
HETATM   43  C24 UNL     1       0.911  53.620 -23.558  1.00  0.00     0.283 A 
HETATM   44  O6  UNL     1       0.983  54.068 -24.684  1.00  0.00    -0.260 OA
HETATM   45  O7  UNL     1       1.428  54.199 -22.442  1.00  0.00    -0.314 OA
HETATM   46  C25 UNL     1       1.122  53.386 -21.313  1.00  0.00     0.213 A 
ENDBRANCH  25  41
TORSDOF 4
ENDMDL
MODEL 2
REMARK minimizedAffinity -7.22404718
REMARK CNNscore 0.54996562
REMARK CNNaffinity 5.93446159
REMARK  4 active torsions:
REMARK  status: ('A' for Active; 'I' for Inactive)
REMARK    1  A    between atoms: C7_11  and  O3_12 
REMARK    2  A    between atoms: C10_16  and  C11_17 
REMARK    3  A    between atoms: C21_28  and  C22_29 
REMARK    4  A    between atoms: C28_37  and  O8_38 
ROOT
HETATM    1  C1  UNL     1       9.088  63.793  -0.300  1.00  0.00     0.040 C 
HETATM    2  C2  UNL     1       9.050  62.587  -1.228  1.00  0.00     0.124 C 
HETATM    3  C3  UNL     1       9.950  62.805  -2.444  1.00  0.00     0.082 C 
HETATM    4  C4  UNL     1       9.557  61.906  -3.643  1.00  0.00     0.175 C 
HETATM    5  N1  UNL     1       8.857  62.667  -4.668  1.00  0.00    -0.335 N 
HETATM    6  C5  UNL     1       9.570  63.211  -5.695  1.00  0.00     0.230 C 
HETATM    7  O1  UNL     1       9.106  64.045  -6.459  1.00  0.00    -0.273 OA
HETATM    8  C6  UNL     1      10.979  62.716  -5.733  1.00  0.00     0.214 C 
HETATM    9  S1  UNL     1      11.159  61.436  -4.467  1.00  0.00     0.059 S 
HETATM   10  O2  UNL     1      11.021  59.950  -5.199  1.00  0.00    -0.255 OA
HETATM   11  C7  UNL     1       8.746  60.655  -3.185  1.00  0.00     0.252 C 
HETATM   12  O4  UNL     1       8.376  59.815  -4.284  1.00  0.00    -0.340 OA
HETATM   13  C8  UNL     1       7.105  59.208  -4.090  1.00  0.00     0.156 C 
HETATM   14  C9  UNL     1       6.845  58.240  -5.245  1.00  0.00     0.056 C 
HETATM   15  C10 UNL     1       5.434  57.595  -5.209  1.00  0.00     0.043 C 
HETATM   16  C12 UNL     1       4.352  58.624  -4.861  1.00  0.00    -0.065 C 
HETATM   17  C13 UNL     1       3.136  58.603  -5.434  1.00  0.00    -0.022 C 
HETATM   18  C14 UNL     1       2.689  57.616  -6.469  1.00  0.00     0.035 C 
HETATM   19  C15 UNL     1       3.671  56.456  -6.742  1.00  0.00     0.030 C 
HETATM   20  C16 UNL     1       5.136  56.944  -6.620  1.00  0.00     0.012 C 
HETATM   21  C17 UNL     1       6.129  55.838  -7.012  1.00  0.00     0.007 C 
HETATM   22  C18 UNL     1       5.837  55.283  -8.400  1.00  0.00     0.013 C 
HETATM   23  C19 UNL     1       4.407  54.693  -8.543  1.00  0.00    -0.005 C 
HETATM   24  C20 UNL     1       4.330  53.386  -7.728  1.00  0.00     0.019 C 
HETATM   25  C21 UNL     1       4.130  54.501 -10.085  1.00  0.00     0.028 C 
HETATM   26  C26 UNL     1       3.241  55.697 -10.499  1.00  0.00     0.013 C 
HETATM   27  C27 UNL     1       3.234  56.657  -9.315  1.00  0.00     0.040 C 
HETATM   28  C28 UNL     1       3.342  55.737  -8.087  1.00  0.00     0.070 C 
HETATM   29  C29 UNL     1       4.680  59.690  -3.830  1.00  0.00     0.069 C 
HETATM   30  C30 UNL     1       6.051  60.311  -4.079  1.00  0.00     0.158 C 
HETATM   31  O9  UNL     1       6.312  61.356  -3.136  1.00  0.00    -0.347 OA
HETATM   32  C31 UNL     1       7.494  61.164  -2.344  1.00  0.00     0.326 C 
HETATM   33  O10 UNL     1       7.715  62.413  -1.674  1.00  0.00    -0.351 OA
HETATM   34  H7  UNL     1       7.911  63.009  -4.509  1.00  0.00     0.164 HD
ENDROOT
BRANCH  11  35
HETATM   35  O3  UNL     1       9.566  59.832  -2.339  1.00  0.00    -0.359 OA
HETATM   36  H10 UNL     1      10.071  59.292  -2.993  1.00  0.00     0.213 HD
ENDBRANCH  11  35
BRANCH  15  37
HETATM   37  C11 UNL     1       5.458  56.527  -4.092  1.00  0.00     0.245 C 
HETATM   38  O5  UNL     1       4.504  56.230  -3.376  1.00  0.00    -0.306 OA
ENDBRANCH  15  37
BRANCH  28  39
HETATM   39  O8  UNL     1       2.083  55.067  -7.930  1.00  0.00    -0.389 OA
HETATM   40  H35 UNL     1       1.373  55.736  -7.945  1.00  0.00     0.210 HD
ENDBRANCH  28  39
BRANCH  25  41
HETATM   41  C22 UNL     1       3.588  53.179 -10.547  1.00  0.00    -0.045 A 
HETATM   42  C23 UNL     1       2.421  52.897 -11.129  1.00  0.00     0.087 A 
HETATM   43  C24 UNL     1       2.413  51.462 -11.404  1.00  0.00     0.283 A 
HETATM   44  O6  UNL     1       1.512  50.859 -11.950  1.00  0.00    -0.260 OA
HETATM   45  O7  UNL     1       3.586  50.918 -10.982  1.00  0.00    -0.314 OA
HETATM   46  C25 UNL     1       4.393  51.944 -10.410  1.00  0.00     0.213 A 
ENDBRANCH  25  41
TORSDOF 4
ENDMDL
MODEL 3
REMARK minimizedAffinity -7.98056459
REMARK CNNscore 0.456074834
REMARK CNNaffinity 5.87042427
REMARK  4 active torsions:
REMARK  status: ('A' for Active; 'I' for Inactive)
REMARK    1  A    between atoms: C7_11  and  O3_12 
REMARK    2  A    between atoms: C10_16  and  C11_17 
REMARK    3  A    between atoms: C21_28  and  C22_29 
REMARK    4  A    between atoms: C28_37  and  O8_38 
ROOT
HETATM    1  C1  UNL     1     -23.263  41.719 -19.522  1.00  0.00     0.040 C 
HETATM    2  C2  UNL     1     -22.258  41.715 -20.665  1.00  0.00     0.124 C 
HETATM    3  C3  UNL     1     -21.302  40.529 -20.547  1.00  0.00     0.082 C 
HETATM    4  C4  UNL     1     -19.977  40.755 -21.318  1.00  0.00     0.175 C 
HETATM    5  N1  UNL     1     -18.883  41.068 -20.409  1.00  0.00    -0.335 N 
HETATM    6  C5  UNL     1     -18.093  40.057 -19.948  1.00  0.00     0.230 C 
HETATM    7  O1  UNL     1     -17.312  40.194 -19.017  1.00  0.00    -0.273 OA
HETATM    8  C6  UNL     1     -18.339  38.770 -20.666  1.00  0.00     0.214 C 
HETATM    9  S1  UNL     1     -19.506  39.091 -22.010  1.00  0.00     0.059 S 
HETATM   10  O2  UNL     1     -18.646  39.273 -23.420  1.00  0.00    -0.255 OA
HETATM   11  C7  UNL     1     -20.136  41.830 -22.436  1.00  0.00     0.252 C 
HETATM   12  O4  UNL     1     -18.918  42.049 -23.156  1.00  0.00    -0.340 OA
HETATM   13  C8  UNL     1     -18.767  43.406 -23.554  1.00  0.00     0.156 C 
HETATM   14  C9  UNL     1     -17.510  43.526 -24.417  1.00  0.00     0.056 C 
HETATM   15  C10 UNL     1     -17.171  44.984 -24.821  1.00  0.00     0.043 C 
HETATM   16  C12 UNL     1     -17.344  45.951 -23.643  1.00  0.00    -0.065 C 
HETATM   17  C13 UNL     1     -16.507  46.985 -23.439  1.00  0.00    -0.022 C 
HETATM   18  C14 UNL     1     -15.322  47.315 -24.295  1.00  0.00     0.035 C 
HETATM   19  C15 UNL     1     -15.190  46.482 -25.589  1.00  0.00     0.030 C 
HETATM   20  C16 UNL     1     -15.682  45.032 -25.354  1.00  0.00     0.012 C 
HETATM   21  C17 UNL     1     -15.441  44.152 -26.591  1.00  0.00     0.007 C 
HETATM   22  C18 UNL     1     -13.983  44.184 -27.031  1.00  0.00     0.013 C 
HETATM   23  C19 UNL     1     -13.471  45.610 -27.372  1.00  0.00    -0.005 C 
HETATM   24  C20 UNL     1     -14.139  46.075 -28.681  1.00  0.00     0.019 C 
HETATM   25  C21 UNL     1     -11.896  45.537 -27.450  1.00  0.00     0.028 C 
HETATM   26  C26 UNL     1     -11.386  46.113 -26.108  1.00  0.00     0.013 C 
HETATM   27  C27 UNL     1     -12.610  46.257 -25.211  1.00  0.00     0.040 C 
HETATM   28  C28 UNL     1     -13.752  46.585 -26.186  1.00  0.00     0.070 C 
HETATM   29  C29 UNL     1     -18.503  45.722 -22.691  1.00  0.00     0.069 C 
HETATM   30  C30 UNL     1     -18.625  44.254 -22.294  1.00  0.00     0.158 C 
HETATM   31  O9  UNL     1     -19.683  44.071 -21.347  1.00  0.00    -0.347 OA
HETATM   32  C31 UNL     1     -20.706  43.156 -21.764  1.00  0.00     0.326 C 
HETATM   33  O10 UNL     1     -21.507  42.916 -20.598  1.00  0.00    -0.351 OA
HETATM   34  H7  UNL     1     -18.848  41.961 -19.923  1.00  0.00     0.164 HD
ENDROOT
BRANCH  11  35
HETATM   35  O3  UNL     1     -21.079  41.369 -23.418  1.00  0.00    -0.359 OA
HETATM   36  H10 UNL     1     -20.517  40.809 -24.006  1.00  0.00     0.213 HD
ENDBRANCH  11  35
BRANCH  15  37
HETATM   37  C11 UNL     1     -18.176  45.389 -25.925  1.00  0.00     0.245 C 
HETATM   38  O5  UNL     1     -19.073  46.218 -25.795  1.00  0.00    -0.306 OA
ENDBRANCH  15  37
BRANCH  28  39
HETATM   39  O8  UNL     1     -13.564  47.930 -26.646  1.00  0.00    -0.389 OA
HETATM   40  H35 UNL     1     -13.440  48.508 -25.869  1.00  0.00     0.210 HD
ENDBRANCH  28  39
BRANCH  25  41
HETATM   41  C22 UNL     1     -11.219  46.146 -28.644  1.00  0.00    -0.045 A 
HETATM   42  C23 UNL     1     -10.864  47.414 -28.864  1.00  0.00     0.087 A 
HETATM   43  C24 UNL     1     -10.207  47.456 -30.169  1.00  0.00     0.283 A 
HETATM   44  O6  UNL     1      -9.735  48.450 -30.683  1.00  0.00    -0.260 OA
HETATM   45  O7  UNL     1     -10.179  46.204 -30.698  1.00  0.00    -0.314 OA
HETATM   46  C25 UNL     1     -10.815  45.305 -29.794  1.00  0.00     0.213 A 
ENDBRANCH  25  41
TORSDOF 4
ENDMDL
MODEL 4
REMARK minimizedAffinity -7.88017416
REMARK CNNscore 0.450538754
REMARK CNNaffinity 6.27662659
REMARK  4 active torsions:
REMARK  status: ('A' for Active; 'I' for Inactive)
REMARK    1  A    between atoms: C7_11  and  O3_12 
REMARK    2  A    between atoms: C10_16  and  C11_17 
REMARK    3  A    between atoms: C21_28  and  C22_29 
REMARK    4  A    between atoms: C28_37  and  O8_38 
ROOT
HETATM    1  C1  UNL     1      11.240  57.337  -3.295  1.00  0.00     0.040 C 
HETATM    2  C2  UNL     1       9.753  57.115  -3.535  1.00  0.00     0.124 C 
HETATM    3  C3  UNL     1       9.197  56.063  -2.577  1.00  0.00     0.082 C 
HETATM    4  C4  UNL     1       7.891  55.414  -3.100  1.00  0.00     0.175 C 
HETATM    5  N1  UNL     1       8.135  54.074  -3.613  1.00  0.00    -0.335 N 
HETATM    6  C5  UNL     1       7.979  53.005  -2.781  1.00  0.00     0.230 C 
HETATM    7  O1  UNL     1       8.379  51.883  -3.055  1.00  0.00    -0.273 OA
HETATM    8  C6  UNL     1       7.324  53.380  -1.491  1.00  0.00     0.214 C 
HETATM    9  S1  UNL     1       6.836  55.119  -1.594  1.00  0.00     0.059 S 
HETATM   10  O2  UNL     1       5.224  55.190  -1.992  1.00  0.00    -0.255 OA
HETATM   11  C7  UNL     1       7.175  56.321  -4.147  1.00  0.00     0.252 C 
HETATM   12  O4  UNL     1       5.966  55.732  -4.639  1.00  0.00    -0.340 OA
HETATM   13  C8  UNL     1       5.737  56.044  -6.008  1.00  0.00     0.156 C 
HETATM   14  C9  UNL     1       4.374  55.483  -6.415  1.00  0.00     0.056 C 
HETATM   15  C10 UNL     1       4.055  55.659  -7.923  1.00  0.00     0.043 C 
HETATM   16  C12 UNL     1       5.271  55.332  -8.799  1.00  0.00    -0.065 C 
HETATM   17  C13 UNL     1       5.151  54.700  -9.980  1.00  0.00    -0.022 C 
HETATM   18  C14 UNL     1       3.860  54.229 -10.577  1.00  0.00     0.035 C 
HETATM   19  C15 UNL     1       2.585  54.674  -9.827  1.00  0.00     0.030 C 
HETATM   20  C16 UNL     1       2.841  54.717  -8.300  1.00  0.00     0.012 C 
HETATM   21  C17 UNL     1       1.551  55.032  -7.525  1.00  0.00     0.007 C 
HETATM   22  C18 UNL     1       0.430  54.064  -7.879  1.00  0.00     0.013 C 
HETATM   23  C19 UNL     1       0.071  54.057  -9.390  1.00  0.00    -0.005 C 
HETATM   24  C20 UNL     1      -0.626  55.388  -9.738  1.00  0.00     0.019 C 
HETATM   25  C21 UNL     1      -0.820  52.782  -9.655  1.00  0.00     0.028 C 
HETATM   26  C26 UNL     1       0.128  51.737 -10.288  1.00  0.00     0.013 C 
HETATM   27  C27 UNL     1       1.539  52.296 -10.145  1.00  0.00     0.040 C 
HETATM   28  C28 UNL     1       1.351  53.818 -10.249  1.00  0.00     0.070 C 
HETATM   29  C29 UNL     1       6.645  55.746  -8.303  1.00  0.00     0.069 C 
HETATM   30  C30 UNL     1       6.843  55.393  -6.832  1.00  0.00     0.158 C 
HETATM   31  O9  UNL     1       8.166  55.733  -6.403  1.00  0.00    -0.347 OA
HETATM   32  C31 UNL     1       8.218  56.653  -5.303  1.00  0.00     0.326 C 
HETATM   33  O10 UNL     1       9.585  56.654  -4.866  1.00  0.00    -0.351 OA
HETATM   34  H7  UNL     1       8.649  53.932  -4.480  1.00  0.00     0.164 HD
ENDROOT
BRANCH  11  35
HETATM   35  O3  UNL     1       6.770  57.551  -3.524  1.00  0.00    -0.359 OA
HETATM   36  H10 UNL     1       5.906  57.307  -3.112  1.00  0.00     0.213 HD
ENDBRANCH  11  35
BRANCH  15  37
HETATM   37  C11 UNL     1       3.698  57.148  -8.135  1.00  0.00     0.245 C 
HETATM   38  O5  UNL     1       3.277  57.906  -7.264  1.00  0.00    -0.306 OA
ENDBRANCH  15  37
BRANCH  28  39
HETATM   39  O8  UNL     1       1.048  54.130 -11.616  1.00  0.00    -0.389 OA
HETATM   40  H35 UNL     1       1.719  53.707 -12.185  1.00  0.00     0.210 HD
ENDBRANCH  28  39
BRANCH  25  41
HETATM   41  C22 UNL     1      -2.097  52.959 -10.426  1.00  0.00    -0.045 A 
HETATM   42  C23 UNL     1      -2.295  52.983 -11.746  1.00  0.00     0.087 A 
HETATM   43  C24 UNL     1      -3.731  53.147 -11.961  1.00  0.00     0.283 A 
HETATM   44  O6  UNL     1      -4.275  53.189 -13.047  1.00  0.00    -0.260 OA
HETATM   45  O7  UNL     1      -4.361  53.212 -10.759  1.00  0.00    -0.314 OA
HETATM   46  C25 UNL     1      -3.390  53.110  -9.721  1.00  0.00     0.213 A 
ENDBRANCH  25  41
TORSDOF 4
ENDMDL
MODEL 5
REMARK minimizedAffinity -7.10895824
REMARK CNNscore 0.380925357
REMARK CNNaffinity 5.91830063
REMARK  4 active torsions:
REMARK  status: ('A' for Active; 'I' for Inactive)
REMARK    1  A    between atoms: C7_11  and  O3_12 
REMARK    2  A    between atoms: C10_16  and  C11_17 
REMARK    3  A    between atoms: C21_28  and  C22_29 
REMARK    4  A    between atoms: C28_37  and  O8_38 
ROOT
HETATM    1  C1  UNL     1      -4.938  47.044 -31.615  1.00  0.00     0.040 C 
HETATM    2  C2  UNL     1      -6.057  46.081 -31.243  1.00  0.00     0.124 C 
HETATM    3  C3  UNL     1      -6.635  45.409 -32.488  1.00  0.00     0.082 C 
HETATM    4  C4  UNL     1      -8.068  44.865 -32.259  1.00  0.00     0.175 C 
HETATM    5  N1  UNL     1      -9.065  45.720 -32.885  1.00  0.00    -0.335 N 
HETATM    6  C5  UNL     1      -9.483  45.436 -34.152  1.00  0.00     0.230 C 
HETATM    7  O1  UNL     1     -10.132  46.218 -34.831  1.00  0.00    -0.273 OA
HETATM    8  C6  UNL     1      -9.006  44.100 -34.621  1.00  0.00     0.214 C 
HETATM    9  S1  UNL     1      -8.170  43.285 -33.239  1.00  0.00     0.059 S 
HETATM   10  O2  UNL     1      -9.238  42.229 -32.527  1.00  0.00    -0.255 OA
HETATM   11  C7  UNL     1      -8.361  44.635 -30.745  1.00  0.00     0.252 C 
HETATM   12  O4  UNL     1      -9.683  44.131 -30.519  1.00  0.00    -0.340 OA
HETATM   13  C8  UNL     1     -10.246  44.628 -29.311  1.00  0.00     0.156 C 
HETATM   14  C9  UNL     1     -11.598  43.950 -29.086  1.00  0.00     0.056 C 
HETATM   15  C10 UNL     1     -12.368  44.493 -27.854  1.00  0.00     0.043 C 
HETATM   16  C12 UNL     1     -12.296  46.022 -27.772  1.00  0.00    -0.065 C 
HETATM   17  C13 UNL     1     -13.340  46.766 -27.366  1.00  0.00    -0.022 C 
HETATM   18  C14 UNL     1     -14.679  46.225 -26.967  1.00  0.00     0.035 C 
HETATM   19  C15 UNL     1     -14.765  44.686 -26.868  1.00  0.00     0.030 C 
HETATM   20  C16 UNL     1     -13.876  44.021 -27.948  1.00  0.00     0.012 C 
HETATM   21  C17 UNL     1     -14.046  42.494 -27.951  1.00  0.00     0.007 C 
HETATM   22  C18 UNL     1     -15.507  42.089 -28.101  1.00  0.00     0.013 C 
HETATM   23  C19 UNL     1     -16.424  42.654 -26.983  1.00  0.00    -0.005 C 
HETATM   24  C20 UNL     1     -16.097  41.929 -25.663  1.00  0.00     0.019 C 
HETATM   25  C21 UNL     1     -17.917  42.466 -27.461  1.00  0.00     0.028 C 
HETATM   26  C26 UNL     1     -18.366  43.855 -27.973  1.00  0.00     0.013 C 
HETATM   27  C27 UNL     1     -17.111  44.718 -28.029  1.00  0.00     0.040 C 
HETATM   28  C28 UNL     1     -16.248  44.200 -26.867  1.00  0.00     0.070 C 
HETATM   29  C29 UNL     1     -10.994  46.701 -28.160  1.00  0.00     0.069 C 
HETATM   30  C30 UNL     1     -10.430  46.135 -29.460  1.00  0.00     0.158 C 
HETATM   31  O9  UNL     1      -9.238  46.832 -29.840  1.00  0.00    -0.347 OA
HETATM   32  C31 UNL     1      -8.077  45.999 -29.976  1.00  0.00     0.326 C 
HETATM   33  O10 UNL     1      -7.085  46.822 -30.606  1.00  0.00    -0.351 OA
HETATM   34  H7  UNL     1      -9.268  46.645 -32.512  1.00  0.00     0.164 HD
ENDROOT
BRANCH  11  35
HETATM   35  O3  UNL     1      -7.479  43.623 -30.230  1.00  0.00    -0.359 OA
HETATM   36  H10 UNL     1      -7.948  42.788 -30.471  1.00  0.00     0.213 HD
ENDBRANCH  11  35
BRANCH  15  37
HETATM   37  C11 UNL     1     -11.675  43.911 -26.600  1.00  0.00     0.245 C 
HETATM   38  O5  UNL     1     -10.974  42.902 -26.583  1.00  0.00    -0.306 OA
ENDBRANCH  15  37
BRANCH  28  39
HETATM   39  O8  UNL     1     -16.852  44.638 -25.642  1.00  0.00    -0.389 OA
HETATM   40  H35 UNL     1     -17.015  45.598 -25.704  1.00  0.00     0.210 HD
ENDBRANCH  28  39
BRANCH  25  41
HETATM   41  C22 UNL     1     -18.894  41.850 -26.502  1.00  0.00    -0.045 A 
HETATM   42  C23 UNL     1     -19.624  42.429 -25.546  1.00  0.00     0.087 A 
HETATM   43  C24 UNL     1     -20.435  41.379 -24.930  1.00  0.00     0.283 A 
HETATM   44  O6  UNL     1     -21.237  41.550 -24.034  1.00  0.00    -0.260 OA
HETATM   45  O7  UNL     1     -20.172  40.193 -25.541  1.00  0.00    -0.314 OA
HETATM   46  C25 UNL     1     -19.189  40.400 -26.552  1.00  0.00     0.213 A 
ENDBRANCH  25  41
TORSDOF 4
ENDMDL
MODEL 6
REMARK minimizedAffinity -8.36934376
REMARK CNNscore 0.331610233
REMARK CNNaffinity 5.81455374
REMARK  4 active torsions:
REMARK  status: ('A' for Active; 'I' for Inactive)
REMARK    1  A    between atoms: C7_11  and  O3_12 
REMARK    2  A    between atoms: C10_16  and  C11_17 
REMARK    3  A    between atoms: C21_28  and  C22_29 
REMARK    4  A    between atoms: C28_37  and  O8_38 
ROOT
HETATM    1  C1  UNL     1      -9.729  48.288 -30.672  1.00  0.00     0.040 C 
HETATM    2  C2  UNL     1     -10.360  48.202 -29.290  1.00  0.00     0.124 C 
HETATM    3  C3  UNL     1      -9.347  47.711 -28.257  1.00  0.00     0.082 C 
HETATM    4  C4  UNL     1     -10.024  47.100 -27.004  1.00  0.00     0.175 C 
HETATM    5  N1  UNL     1      -9.945  45.646 -27.016  1.00  0.00    -0.335 N 
HETATM    6  C5  UNL     1      -8.905  45.032 -26.384  1.00  0.00     0.230 C 
HETATM    7  O1  UNL     1      -8.637  43.849 -26.538  1.00  0.00    -0.273 OA
HETATM    8  C6  UNL     1      -8.111  45.979 -25.544  1.00  0.00     0.214 C 
HETATM    9  S1  UNL     1      -8.948  47.583 -25.564  1.00  0.00     0.059 S 
HETATM   10  O2  UNL     1      -9.858  47.717 -24.179  1.00  0.00    -0.255 OA
HETATM   11  C7  UNL     1     -11.489  47.606 -26.836  1.00  0.00     0.252 C 
HETATM   12  O4  UNL     1     -12.126  47.048 -25.681  1.00  0.00    -0.340 OA
HETATM   13  C8  UNL     1     -13.514  46.817 -25.894  1.00  0.00     0.156 C 
HETATM   14  C9  UNL     1     -14.137  46.341 -24.581  1.00  0.00     0.056 C 
HETATM   15  C10 UNL     1     -15.631  45.944 -24.711  1.00  0.00     0.043 C 
HETATM   16  C12 UNL     1     -15.890  45.126 -25.982  1.00  0.00    -0.065 C 
HETATM   17  C13 UNL     1     -16.759  44.100 -26.006  1.00  0.00    -0.022 C 
HETATM   18  C14 UNL     1     -17.556  43.619 -24.832  1.00  0.00     0.035 C 
HETATM   19  C15 UNL     1     -17.467  44.502 -23.568  1.00  0.00     0.030 C 
HETATM   20  C16 UNL     1     -16.050  45.113 -23.431  1.00  0.00     0.012 C 
HETATM   21  C17 UNL     1     -15.902  45.891 -22.114  1.00  0.00     0.007 C 
HETATM   22  C18 UNL     1     -16.261  45.033 -20.908  1.00  0.00     0.013 C 
HETATM   23  C19 UNL     1     -17.709  44.475 -20.954  1.00  0.00    -0.005 C 
HETATM   24  C20 UNL     1     -18.694  45.641 -20.735  1.00  0.00     0.019 C 
HETATM   25  C21 UNL     1     -17.810  43.341 -19.861  1.00  0.00     0.028 C 
HETATM   26  C26 UNL     1     -17.703  42.007 -20.637  1.00  0.00     0.013 C 
HETATM   27  C27 UNL     1     -17.296  42.369 -22.060  1.00  0.00     0.040 C 
HETATM   28  C28 UNL     1     -17.962  43.734 -22.303  1.00  0.00     0.070 C 
HETATM   29  C29 UNL     1     -15.135  45.504 -27.244  1.00  0.00     0.069 C 
HETATM   30  C30 UNL     1     -13.654  45.742 -26.966  1.00  0.00     0.158 C 
HETATM   31  O9  UNL     1     -12.951  46.033 -28.179  1.00  0.00    -0.347 OA
HETATM   32  C31 UNL     1     -12.273  47.298 -28.186  1.00  0.00     0.326 C 
HETATM   33  O10 UNL     1     -11.435  47.278 -29.350  1.00  0.00    -0.351 OA
HETATM   34  H7  UNL     1     -10.491  45.099 -27.679  1.00  0.00     0.164 HD
ENDROOT
BRANCH  11  35
HETATM   35  O3  UNL     1     -11.487  49.026 -26.617  1.00  0.00    -0.359 OA
HETATM   36  H10 UNL     1     -11.329  49.092 -25.645  1.00  0.00     0.213 HD
ENDBRANCH  11  35
BRANCH  15  37
HETATM   37  C11 UNL     1     -16.437  47.260 -24.815  1.00  0.00     0.245 C 
HETATM   38  O5  UNL     1     -17.662  47.344 -24.775  1.00  0.00    -0.306 OA
ENDBRANCH  15  37
BRANCH  28  39
HETATM   39  O8  UNL     1     -19.372  43.514 -22.447  1.00  0.00    -0.389 OA
HETATM   40  H35 UNL     1     -19.509  42.810 -23.108  1.00  0.00     0.210 HD
ENDBRANCH  28  39
BRANCH  25  41
HETATM   41  C22 UNL     1     -18.973  43.375 -18.912  1.00  0.00    -0.045 A 
HETATM   42  C23 UNL     1     -20.278  43.483 -19.172  1.00  0.00     0.087 A 
HETATM   43  C24 UNL     1     -20.977  43.430 -17.889  1.00  0.00     0.283 A 
HETATM   44  O6  UNL     1     -22.182  43.479 -17.747  1.00  0.00    -0.260 OA
HETATM   45  O7  UNL     1     -20.068  43.286 -16.889  1.00  0.00    -0.314 OA
HETATM   46  C25 UNL     1     -18.760  43.253 -17.452  1.00  0.00     0.213 A 
ENDBRANCH  25  41
TORSDOF 4
ENDMDL
MODEL 7
REMARK minimizedAffinity -7.3899045
REMARK CNNscore 0.322711587
REMARK CNNaffinity 5.81615305
REMARK  4 active torsions:
REMARK  status: ('A' for Active; 'I' for Inactive)
REMARK    1  A    between atoms: C7_11  and  O3_12 
REMARK    2  A    between atoms: C10_16  and  C11_17 
REMARK    3  A    between atoms: C21_28  and  C22_29 
REMARK    4  A    between atoms: C28_37  and  O8_38 
ROOT
HETATM    1  C1  UNL     1      13.639  55.488  -0.632  1.00  0.00     0.040 C 
HETATM    2  C2  UNL     1      12.580  54.817  -1.496  1.00  0.00     0.124 C 
HETATM    3  C3  UNL     1      13.226  53.999  -2.613  1.00  0.00     0.082 C 
HETATM    4  C4  UNL     1      12.263  53.751  -3.802  1.00  0.00     0.175 C 
HETATM    5  N1  UNL     1      12.592  54.603  -4.935  1.00  0.00    -0.335 N 
HETATM    6  C5  UNL     1      13.427  54.128  -5.903  1.00  0.00     0.230 C 
HETATM    7  O1  UNL     1      13.933  54.843  -6.756  1.00  0.00    -0.273 OA
HETATM    8  C6  UNL     1      13.690  52.665  -5.758  1.00  0.00     0.214 C 
HETATM    9  S1  UNL     1      12.651  52.037  -4.417  1.00  0.00     0.059 S 
HETATM   10  O2  UNL     1      11.297  51.340  -5.083  1.00  0.00    -0.255 OA
HETATM   11  C7  UNL     1      10.770  53.896  -3.374  1.00  0.00     0.252 C 
HETATM   12  O4  UNL     1       9.869  53.669  -4.463  1.00  0.00    -0.340 OA
HETATM   13  C8  UNL     1       8.713  54.494  -4.382  1.00  0.00     0.156 C 
HETATM   14  C9  UNL     1       7.754  54.103  -5.508  1.00  0.00     0.056 C 
HETATM   15  C10 UNL     1       6.498  55.010  -5.597  1.00  0.00     0.043 C 
HETATM   16  C12 UNL     1       6.858  56.491  -5.424  1.00  0.00    -0.065 C 
HETATM   17  C13 UNL     1       6.248  57.461  -6.128  1.00  0.00    -0.022 C 
HETATM   18  C14 UNL     1       5.180  57.237  -7.155  1.00  0.00     0.035 C 
HETATM   19  C15 UNL     1       4.655  55.788  -7.256  1.00  0.00     0.030 C 
HETATM   20  C16 UNL     1       5.800  54.777  -6.997  1.00  0.00     0.012 C 
HETATM   21  C17 UNL     1       5.330  53.330  -7.219  1.00  0.00     0.007 C 
HETATM   22  C18 UNL     1       4.718  53.142  -8.601  1.00  0.00     0.013 C 
HETATM   23  C19 UNL     1       3.502  54.069  -8.872  1.00  0.00    -0.005 C 
HETATM   24  C20 UNL     1       2.318  53.596  -8.006  1.00  0.00     0.019 C 
HETATM   25  C21 UNL     1       3.215  54.026 -10.424  1.00  0.00     0.028 C 
HETATM   26  C26 UNL     1       3.823  55.329 -10.995  1.00  0.00     0.013 C 
HETATM   27  C27 UNL     1       4.643  55.949  -9.869  1.00  0.00     0.040 C 
HETATM   28  C28 UNL     1       3.882  55.556  -8.592  1.00  0.00     0.070 C 
HETATM   29  C29 UNL     1       7.936  56.855  -4.419  1.00  0.00     0.069 C 
HETATM   30  C30 UNL     1       9.154  55.945  -4.545  1.00  0.00     0.158 C 
HETATM   31  O9  UNL     1      10.182  56.346  -3.633  1.00  0.00    -0.347 OA
HETATM   32  C31 UNL     1      10.588  55.328  -2.705  1.00  0.00     0.326 C 
HETATM   33  O10 UNL     1      11.777  55.830  -2.078  1.00  0.00    -0.351 OA
HETATM   34  H7  UNL     1      12.423  55.606  -4.901  1.00  0.00     0.164 HD
ENDROOT
BRANCH  11  35
HETATM   35  O3  UNL     1      10.447  52.888  -2.401  1.00  0.00    -0.359 OA
HETATM   36  H10 UNL     1      10.233  52.107  -2.966  1.00  0.00     0.213 HD
ENDBRANCH  11  35
BRANCH  15  37
HETATM   37  C11 UNL     1       5.568  54.604  -4.431  1.00  0.00     0.245 C 
HETATM   38  O5  UNL     1       4.737  55.337  -3.899  1.00  0.00    -0.306 OA
ENDBRANCH  15  37
BRANCH  28  39
HETATM   39  O8  UNL     1       2.678  56.334  -8.542  1.00  0.00    -0.389 OA
HETATM   40  H35 UNL     1       2.911  57.273  -8.670  1.00  0.00     0.210 HD
ENDBRANCH  28  39
BRANCH  25  41
HETATM   41  C22 UNL     1       1.803  53.791 -10.875  1.00  0.00    -0.045 A 
HETATM   42  C23 UNL     1       1.256  52.702 -11.420  1.00  0.00     0.087 A 
HETATM   43  C24 UNL     1      -0.159  52.994 -11.636  1.00  0.00     0.283 A 
HETATM   44  O6  UNL     1      -0.971  52.218 -12.099  1.00  0.00    -0.260 OA
HETATM   45  O7  UNL     1      -0.428  54.255 -11.207  1.00  0.00    -0.314 OA
HETATM   46  C25 UNL     1       0.773  54.843 -10.715  1.00  0.00     0.213 A 
ENDBRANCH  25  41
TORSDOF 4
ENDMDL
MODEL 8
REMARK minimizedAffinity -10.0335007
REMARK CNNscore 0.284527063
REMARK CNNaffinity 5.82577896
REMARK  4 active torsions:
REMARK  status: ('A' for Active; 'I' for Inactive)
REMARK    1  A    between atoms: C7_11  and  O3_12 
REMARK    2  A    between atoms: C10_16  and  C11_17 
REMARK    3  A    between atoms: C21_28  and  C22_29 
REMARK    4  A    between atoms: C28_37  and  O8_38 
ROOT
HETATM    1  C1  UNL     1     -12.807  42.485 -21.265  1.00  0.00     0.040 C 
HETATM    2  C2  UNL     1     -11.664  43.103 -22.058  1.00  0.00     0.124 C 
HETATM    3  C3  UNL     1     -10.526  42.100 -22.246  1.00  0.00     0.082 C 
HETATM    4  C4  UNL     1      -9.170  42.788 -22.545  1.00  0.00     0.175 C 
HETATM    5  N1  UNL     1      -8.302  42.775 -21.376  1.00  0.00    -0.335 N 
HETATM    6  C5  UNL     1      -7.409  41.755 -21.223  1.00  0.00     0.230 C 
HETATM    7  O1  UNL     1      -6.814  41.542 -20.177  1.00  0.00    -0.273 OA
HETATM    8  C6  UNL     1      -7.297  40.910 -22.450  1.00  0.00     0.214 C 
HETATM    9  S1  UNL     1      -8.295  41.674 -23.752  1.00  0.00     0.059 S 
HETATM   10  O2  UNL     1      -7.288  42.560 -24.734  1.00  0.00    -0.255 OA
HETATM   11  C7  UNL     1      -9.367  44.227 -23.112  1.00  0.00     0.252 C 
HETATM   12  O4  UNL     1      -8.121  44.874 -23.393  1.00  0.00    -0.340 OA
HETATM   13  C8  UNL     1      -8.176  46.273 -23.140  1.00  0.00     0.156 C 
HETATM   14  C9  UNL     1      -6.852  46.901 -23.580  1.00  0.00     0.056 C 
HETATM   15  C10 UNL     1      -6.742  48.413 -23.250  1.00  0.00     0.043 C 
HETATM   16  C12 UNL     1      -7.266  48.724 -21.843  1.00  0.00    -0.065 C 
HETATM   17  C13 UNL     1      -6.682  49.638 -21.048  1.00  0.00    -0.022 C 
HETATM   18  C14 UNL     1      -5.470  50.441 -21.408  1.00  0.00     0.035 C 
HETATM   19  C15 UNL     1      -4.993  50.298 -22.870  1.00  0.00     0.030 C 
HETATM   20  C16 UNL     1      -5.228  48.854 -23.379  1.00  0.00     0.012 C 
HETATM   21  C17 UNL     1      -4.645  48.654 -24.787  1.00  0.00     0.007 C 
HETATM   22  C18 UNL     1      -3.171  49.036 -24.846  1.00  0.00     0.013 C 
HETATM   23  C19 UNL     1      -2.896  50.509 -24.437  1.00  0.00    -0.005 C 
HETATM   24  C20 UNL     1      -3.443  51.437 -25.540  1.00  0.00     0.019 C 
HETATM   25  C21 UNL     1      -1.342  50.648 -24.197  1.00  0.00     0.028 C 
HETATM   26  C26 UNL     1      -1.154  50.610 -22.663  1.00  0.00     0.013 C 
HETATM   27  C27 UNL     1      -2.501  50.204 -22.075  1.00  0.00     0.040 C 
HETATM   28  C28 UNL     1      -3.529  50.811 -23.043  1.00  0.00     0.070 C 
HETATM   29  C29 UNL     1      -8.488  47.969 -21.349  1.00  0.00     0.069 C 
HETATM   30  C30 UNL     1      -8.383  46.475 -21.643  1.00  0.00     0.158 C 
HETATM   31  O9  UNL     1      -9.514  45.775 -21.113  1.00  0.00    -0.347 OA
HETATM   32  C31 UNL     1     -10.271  45.040 -22.086  1.00  0.00     0.326 C 
HETATM   33  O10 UNL     1     -11.174  44.218 -21.332  1.00  0.00    -0.351 OA
HETATM   34  H7  UNL     1      -8.510  43.353 -20.565  1.00  0.00     0.164 HD
ENDROOT
BRANCH  11  35
HETATM   35  O3  UNL     1     -10.050  44.158 -24.375  1.00  0.00    -0.359 OA
HETATM   36  H10 UNL     1      -9.311  43.986 -25.008  1.00  0.00     0.213 HD
ENDBRANCH  11  35
BRANCH  15  37
HETATM   37  C11 UNL     1      -7.633  49.160 -24.270  1.00  0.00     0.245 C 
HETATM   38  O5  UNL     1      -8.861  49.199 -24.241  1.00  0.00    -0.306 OA
ENDBRANCH  15  37
BRANCH  28  39
HETATM   39  O8  UNL     1      -3.536  52.231 -22.843  1.00  0.00    -0.389 OA
HETATM   40  H35 UNL     1      -3.640  52.408 -21.889  1.00  0.00     0.210 HD
ENDBRANCH  28  39
BRANCH  25  41
HETATM   41  C22 UNL     1      -0.627  51.796 -24.848  1.00  0.00    -0.045 A 
HETATM   42  C23 UNL     1      -0.806  53.109 -24.687  1.00  0.00     0.087 A 
HETATM   43  C24 UNL     1       0.178  53.783 -25.531  1.00  0.00     0.283 A 
HETATM   44  O6  UNL     1       0.318  54.987 -25.617  1.00  0.00    -0.260 OA
HETATM   45  O7  UNL     1       0.930  52.852 -26.176  1.00  0.00    -0.314 OA
HETATM   46  C25 UNL     1       0.476  51.553 -25.806  1.00  0.00     0.213 A 
ENDBRANCH  25  41
TORSDOF 4
ENDMDL
MODEL 9
REMARK minimizedAffinity -10.6544285
REMARK CNNscore 0.280626416
REMARK CNNaffinity 6.37525225
REMARK  4 active torsions:
REMARK  status: ('A' for Active; 'I' for Inactive)
REMARK    1  A    between atoms: C7_11  and  O3_12 
REMARK    2  A    between atoms: C10_16  and  C11_17 
REMARK    3  A    between atoms: C21_28  and  C22_29 
REMARK    4  A    between atoms: C28_37  and  O8_38 
ROOT
HETATM    1  C1  UNL     1     -12.817  45.000 -29.270  1.00  0.00     0.040 C 
HETATM    2  C2  UNL     1     -11.687  45.903 -28.796  1.00  0.00     0.124 C 
HETATM    3  C3  UNL     1     -10.537  45.910 -29.802  1.00  0.00     0.082 C 
HETATM    4  C4  UNL     1      -9.192  46.342 -29.165  1.00  0.00     0.175 C 
HETATM    5  N1  UNL     1      -8.317  45.198 -28.949  1.00  0.00    -0.335 N 
HETATM    6  C5  UNL     1      -7.410  44.865 -29.911  1.00  0.00     0.230 C 
HETATM    7  O1  UNL     1      -6.806  43.802 -29.918  1.00  0.00    -0.273 OA
HETATM    8  C6  UNL     1      -7.293  45.914 -30.969  1.00  0.00     0.214 C 
HETATM    9  S1  UNL     1      -8.307  47.328 -30.473  1.00  0.00     0.059 S 
HETATM   10  O2  UNL     1      -7.318  48.465 -29.773  1.00  0.00    -0.255 OA
HETATM   11  C7  UNL     1      -9.411  47.166 -27.859  1.00  0.00     0.252 C 
HETATM   12  O4  UNL     1      -8.176  47.572 -27.260  1.00  0.00    -0.340 OA
HETATM   13  C8  UNL     1      -8.249  47.584 -25.839  1.00  0.00     0.156 C 
HETATM   14  C9  UNL     1      -6.936  48.142 -25.287  1.00  0.00     0.056 C 
HETATM   15  C10 UNL     1      -6.846  48.101 -23.739  1.00  0.00     0.043 C 
HETATM   16  C12 UNL     1      -7.367  46.772 -23.179  1.00  0.00    -0.065 C 
HETATM   17  C13 UNL     1      -6.791  46.166 -22.125  1.00  0.00    -0.022 C 
HETATM   18  C14 UNL     1      -5.592  46.679 -21.387  1.00  0.00     0.035 C 
HETATM   19  C15 UNL     1      -5.121  48.092 -21.795  1.00  0.00     0.030 C 
HETATM   20  C16 UNL     1      -5.338  48.321 -23.311  1.00  0.00     0.012 C 
HETATM   21  C17 UNL     1      -4.760  49.672 -23.762  1.00  0.00     0.007 C 
HETATM   22  C18 UNL     1      -3.292  49.813 -23.379  1.00  0.00     0.013 C 
HETATM   23  C19 UNL     1      -3.036  49.687 -21.853  1.00  0.00    -0.005 C 
HETATM   24  C20 UNL     1      -3.600  50.939 -21.152  1.00  0.00     0.019 C 
HETATM   25  C21 UNL     1      -1.482  49.489 -21.652  1.00  0.00     0.028 C 
HETATM   26  C26 UNL     1      -1.286  47.976 -21.401  1.00  0.00     0.013 C 
HETATM   27  C27 UNL     1      -2.624  47.312 -21.707  1.00  0.00     0.040 C 
HETATM   28  C28 UNL     1      -3.665  48.369 -21.304  1.00  0.00     0.070 C 
HETATM   29  C29 UNL     1      -8.575  46.137 -23.844  1.00  0.00     0.069 C 
HETATM   30  C30 UNL     1      -8.452  46.148 -25.365  1.00  0.00     0.158 C 
HETATM   31  O9  UNL     1      -9.570  45.489 -25.968  1.00  0.00    -0.347 OA
HETATM   32  C31 UNL     1     -10.322  46.302 -26.880  1.00  0.00     0.326 C 
HETATM   33  O10 UNL     1     -11.208  45.401 -27.559  1.00  0.00    -0.351 OA
HETATM   34  H7  UNL     1      -8.529  44.507 -28.233  1.00  0.00     0.164 HD
ENDROOT
BRANCH  11  35
HETATM   35  O3  UNL     1     -10.100  48.389 -28.171  1.00  0.00    -0.359 OA
HETATM   36  H10 UNL     1      -9.362  48.984 -28.449  1.00  0.00     0.213 HD
ENDBRANCH  11  35
BRANCH  15  37
HETATM   37  C11 UNL     1      -7.752  49.235 -23.206  1.00  0.00     0.245 C 
HETATM   38  O5  UNL     1      -7.372  50.182 -22.522  1.00  0.00    -0.306 OA
ENDBRANCH  15  37
BRANCH  28  39
HETATM   39  O8  UNL     1      -3.691  48.436 -19.872  1.00  0.00    -0.389 OA
HETATM   40  H35 UNL     1      -3.792  47.531 -19.522  1.00  0.00     0.210 HD
ENDBRANCH  28  39
BRANCH  25  41
HETATM   41  C22 UNL     1      -0.786  50.348 -20.636  1.00  0.00    -0.045 A 
HETATM   42  C23 UNL     1      -0.157  51.514 -20.799  1.00  0.00     0.087 A 
HETATM   43  C24 UNL     1       0.311  51.937 -19.480  1.00  0.00     0.283 A 
HETATM   44  O6  UNL     1       0.909  52.968 -19.248  1.00  0.00    -0.260 OA
HETATM   45  O7  UNL     1      -0.057  51.011 -18.555  1.00  0.00    -0.314 OA
HETATM   46  C25 UNL     1      -0.755  49.955 -19.209  1.00  0.00     0.213 A 
ENDBRANCH  25  41
TORSDOF 4
ENDMDL
