MODEL 1
REMARK minimizedAffinity -6.28217983
REMARK CNNscore 0.567401171
REMARK CNNaffinity 6.46813631
REMARK  4 active torsions:
REMARK  status: ('A' for Active; 'I' for Inactive)
REMARK    1  A    between atoms: C4_4  and  C5_5 
REMARK    2  A    between atoms: C5_5  and  C6_6 
REMARK    3  A    between atoms: C6_6  and  C7_7 
REMARK    4  A    between atoms: C7_7  and  C9_9 
ROOT
HETATM    1  C9  UNL     1      -3.206  13.260  18.309  1.00  0.00    -0.002 C 
HETATM    2  C10 UNL     1      -2.485  14.284  17.380  1.00  0.00     0.007 C 
HETATM    3  C11 UNL     1      -1.711  13.482  16.318  1.00  0.00     0.015 C 
HETATM    4  C12 UNL     1      -1.722  12.030  16.839  1.00  0.00    -0.013 C 
HETATM    5  C13 UNL     1      -0.550  11.933  17.867  1.00  0.00     0.021 C 
HETATM    6  C14 UNL     1      -1.502  10.906  15.833  1.00  0.00    -0.070 C 
HETATM    7  C15 UNL     1      -0.763  11.062  14.723  1.00  0.00    -0.022 C 
HETATM    8  C16 UNL     1      -0.458   9.984  13.734  1.00  0.00     0.034 C 
HETATM    9  C17 UNL     1      -0.971   8.555  14.050  1.00  0.00     0.013 C 
HETATM   10  C18 UNL     1      -2.025   8.004  13.023  1.00  0.00     0.018 C 
HETATM   11  C19 UNL     1      -1.427   7.986  11.596  1.00  0.00     0.023 C 
HETATM   12  C20 UNL     1      -3.340   8.792  12.996  1.00  0.00     0.023 C 
HETATM   13  C21 UNL     1      -2.357   6.540  13.366  1.00  0.00     0.135 C 
HETATM   14  O1  UNL     1      -2.976   5.811  12.588  1.00  0.00    -0.297 OA
HETATM   15  C22 UNL     1      -1.881   6.002  14.694  1.00  0.00     0.080 C 
HETATM   16  C23 UNL     1      -2.155   7.039  15.769  1.00  0.00     0.017 C 
HETATM   17  C24 UNL     1      -1.331   8.344  15.575  1.00  0.00    -0.031 C 
HETATM   18  C25 UNL     1       0.010   8.176  16.348  1.00  0.00     0.016 C 
HETATM   19  C26 UNL     1      -2.147   9.563  16.148  1.00  0.00     0.024 C 
HETATM   20  C27 UNL     1      -2.543   9.422  17.641  1.00  0.00     0.010 C 
HETATM   21  C28 UNL     1      -3.298  10.625  18.250  1.00  0.00     0.011 C 
HETATM   22  C29 UNL     1      -3.163  11.946  17.460  1.00  0.00    -0.029 C 
HETATM   23  C30 UNL     1      -4.304  12.013  16.395  1.00  0.00     0.016 C 
ENDROOT
BRANCH   1  24
HETATM   24  C7  UNL     1      -4.567  13.808  18.841  1.00  0.00    -0.014 C 
HETATM   25  C8  UNL     1      -5.640  13.845  17.748  1.00  0.00     0.010 C 
BRANCH  24  26
HETATM   26  C6  UNL     1      -5.055  12.943  20.039  1.00  0.00     0.008 C 
BRANCH  26  27
HETATM   27  C5  UNL     1      -5.915  13.656  21.092  1.00  0.00     0.028 C 
BRANCH  27  28
HETATM   28  C4  UNL     1      -7.385  13.373  20.953  1.00  0.00    -0.025 C 
HETATM   29  C2  UNL     1      -8.255  13.059  21.934  1.00  0.00    -0.091 C 
HETATM   30  C1  UNL     1      -9.699  12.771  21.618  1.00  0.00     0.042 C 
HETATM   31  C3  UNL     1      -7.912  12.977  23.396  1.00  0.00     0.042 C 
ENDBRANCH  27  28
ENDBRANCH  26  27
ENDBRANCH  24  26
ENDBRANCH   1  24
TORSDOF 4
ENDMDL
MODEL 2
REMARK minimizedAffinity -7.87686014
REMARK CNNscore 0.48783046
REMARK CNNaffinity 7.12492609
REMARK  4 active torsions:
REMARK  status: ('A' for Active; 'I' for Inactive)
REMARK    1  A    between atoms: C4_4  and  C5_5 
REMARK    2  A    between atoms: C5_5  and  C6_6 
REMARK    3  A    between atoms: C6_6  and  C7_7 
REMARK    4  A    between atoms: C7_7  and  C9_9 
ROOT
HETATM    1  C9  UNL     1       0.136   7.861  13.159  1.00  0.00    -0.002 C 
HETATM    2  C10 UNL     1       0.639   6.961  14.328  1.00  0.00     0.007 C 
HETATM    3  C11 UNL     1      -0.598   6.483  15.110  1.00  0.00     0.015 C 
HETATM    4  C12 UNL     1      -1.753   7.366  14.595  1.00  0.00    -0.013 C 
HETATM    5  C13 UNL     1      -1.669   8.699  15.406  1.00  0.00     0.021 C 
HETATM    6  C14 UNL     1      -3.178   6.853  14.764  1.00  0.00    -0.070 C 
HETATM    7  C15 UNL     1      -3.542   6.045  15.772  1.00  0.00    -0.022 C 
HETATM    8  C16 UNL     1      -4.933   5.560  16.028  1.00  0.00     0.034 C 
HETATM    9  C17 UNL     1      -6.058   6.091  15.102  1.00  0.00     0.013 C 
HETATM   10  C18 UNL     1      -6.759   4.984  14.235  1.00  0.00     0.018 C 
HETATM   11  C19 UNL     1      -7.372   3.895  15.146  1.00  0.00     0.023 C 
HETATM   12  C20 UNL     1      -5.831   4.310  13.217  1.00  0.00     0.023 C 
HETATM   13  C21 UNL     1      -7.936   5.607  13.462  1.00  0.00     0.135 C 
HETATM   14  O1  UNL     1      -8.782   4.916  12.891  1.00  0.00    -0.297 OA
HETATM   15  C22 UNL     1      -8.041   7.114  13.434  1.00  0.00     0.080 C 
HETATM   16  C23 UNL     1      -6.664   7.696  13.175  1.00  0.00     0.017 C 
HETATM   17  C24 UNL     1      -5.660   7.411  14.330  1.00  0.00    -0.031 C 
HETATM   18  C25 UNL     1      -5.757   8.589  15.343  1.00  0.00     0.016 C 
HETATM   19  C26 UNL     1      -4.203   7.316  13.737  1.00  0.00     0.024 C 
HETATM   20  C27 UNL     1      -3.746   8.575  12.957  1.00  0.00     0.010 C 
HETATM   21  C28 UNL     1      -2.301   8.536  12.409  1.00  0.00     0.011 C 
HETATM   22  C29 UNL     1      -1.382   7.487  13.074  1.00  0.00    -0.029 C 
HETATM   23  C30 UNL     1      -1.511   6.139  12.294  1.00  0.00     0.016 C 
ENDROOT
BRANCH   1  24
HETATM   24  C7  UNL     1       1.046   7.745  11.896  1.00  0.00    -0.014 C 
HETATM   25  C8  UNL     1       2.130   6.676  12.063  1.00  0.00     0.010 C 
BRANCH  24  26
HETATM   26  C6  UNL     1       0.177   7.434  10.643  1.00  0.00     0.008 C 
BRANCH  26  27
HETATM   27  C5  UNL     1       0.126   8.521   9.559  1.00  0.00     0.028 C 
BRANCH  27  28
HETATM   28  C4  UNL     1       0.460   8.010   8.185  1.00  0.00    -0.025 C 
HETATM   29  C2  UNL     1       1.681   7.716   7.695  1.00  0.00    -0.091 C 
HETATM   30  C1  UNL     1       1.846   7.242   6.276  1.00  0.00     0.042 C 
HETATM   31  C3  UNL     1       2.965   7.805   8.472  1.00  0.00     0.042 C 
ENDBRANCH  27  28
ENDBRANCH  26  27
ENDBRANCH  24  26
ENDBRANCH   1  24
TORSDOF 4
ENDMDL
MODEL 3
REMARK minimizedAffinity -7.46009779
REMARK CNNscore 0.438807845
REMARK CNNaffinity 5.92917681
REMARK  4 active torsions:
REMARK  status: ('A' for Active; 'I' for Inactive)
REMARK    1  A    between atoms: C4_4  and  C5_5 
REMARK    2  A    between atoms: C5_5  and  C6_6 
REMARK    3  A    between atoms: C6_6  and  C7_7 
REMARK    4  A    between atoms: C7_7  and  C9_9 
ROOT
HETATM    1  C9  UNL     1       3.072   7.735  12.426  1.00  0.00    -0.002 C 
HETATM    2  C10 UNL     1       2.407   9.044  12.951  1.00  0.00     0.007 C 
HETATM    3  C11 UNL     1       3.492   9.856  13.680  1.00  0.00     0.015 C 
HETATM    4  C12 UNL     1       4.667   8.872  13.855  1.00  0.00    -0.013 C 
HETATM    5  C13 UNL     1       4.339   8.033  15.131  1.00  0.00     0.021 C 
HETATM    6  C14 UNL     1       6.060   9.451  14.071  1.00  0.00    -0.070 C 
HETATM    7  C15 UNL     1       6.268  10.632  14.674  1.00  0.00    -0.022 C 
HETATM    8  C16 UNL     1       7.610  11.222  14.972  1.00  0.00     0.034 C 
HETATM    9  C17 UNL     1       8.859  10.372  14.625  1.00  0.00     0.013 C 
HETATM   10  C18 UNL     1       9.787  11.003  13.525  1.00  0.00     0.018 C 
HETATM   11  C19 UNL     1      10.276  12.402  13.972  1.00  0.00     0.023 C 
HETATM   12  C20 UNL     1       9.124  11.129  12.148  1.00  0.00     0.023 C 
HETATM   13  C21 UNL     1      11.052  10.139  13.365  1.00  0.00     0.135 C 
HETATM   14  O1  UNL     1      12.037  10.533  12.737  1.00  0.00    -0.297 OA
HETATM   15  C22 UNL     1      11.064   8.779  14.022  1.00  0.00     0.080 C 
HETATM   16  C23 UNL     1       9.731   8.100  13.768  1.00  0.00     0.017 C 
HETATM   17  C24 UNL     1       8.538   8.835  14.446  1.00  0.00    -0.031 C 
HETATM   18  C25 UNL     1       8.358   8.230  15.869  1.00  0.00     0.016 C 
HETATM   19  C26 UNL     1       7.237   8.614  13.586  1.00  0.00     0.024 C 
HETATM   20  C27 UNL     1       6.864   7.126  13.361  1.00  0.00     0.010 C 
HETATM   21  C28 UNL     1       5.561   6.875  12.567  1.00  0.00     0.011 C 
HETATM   22  C29 UNL     1       4.598   8.080  12.500  1.00  0.00    -0.029 C 
HETATM   23  C30 UNL     1       4.965   8.948  11.254  1.00  0.00     0.016 C 
ENDROOT
BRANCH   1  24
HETATM   24  C7  UNL     1       2.440   7.253  11.083  1.00  0.00    -0.014 C 
HETATM   25  C8  UNL     1       2.545   5.735  10.909  1.00  0.00     0.010 C 
BRANCH  24  26
HETATM   26  C6  UNL     1       0.951   7.698  11.008  1.00  0.00     0.008 C 
BRANCH  26  27
HETATM   27  C5  UNL     1       0.539   8.504   9.767  1.00  0.00     0.028 C 
BRANCH  27  28
HETATM   28  C4  UNL     1       0.760   7.766   8.476  1.00  0.00    -0.025 C 
HETATM   29  C2  UNL     1       1.821   7.859   7.650  1.00  0.00    -0.091 C 
HETATM   30  C1  UNL     1       1.870   7.070   6.369  1.00  0.00     0.042 C 
HETATM   31  C3  UNL     1       3.035   8.711   7.900  1.00  0.00     0.042 C 
ENDBRANCH  27  28
ENDBRANCH  26  27
ENDBRANCH  24  26
ENDBRANCH   1  24
TORSDOF 4
ENDMDL
MODEL 4
REMARK minimizedAffinity -6.46531296
REMARK CNNscore 0.354076385
REMARK CNNaffinity 6.45358038
REMARK  4 active torsions:
REMARK  status: ('A' for Active; 'I' for Inactive)
REMARK    1  A    between atoms: C4_4  and  C5_5 
REMARK    2  A    between atoms: C5_5  and  C6_6 
REMARK    3  A    between atoms: C6_6  and  C7_7 
REMARK    4  A    between atoms: C7_7  and  C9_9 
ROOT
HETATM    1  C9  UNL     1     -14.749   3.150  24.293  1.00  0.00    -0.002 C 
HETATM    2  C10 UNL     1     -14.533   2.866  22.775  1.00  0.00     0.007 C 
HETATM    3  C11 UNL     1     -14.282   4.217  22.081  1.00  0.00     0.015 C 
HETATM    4  C12 UNL     1     -14.680   5.276  23.129  1.00  0.00    -0.013 C 
HETATM    5  C13 UNL     1     -16.231   5.429  23.018  1.00  0.00     0.021 C 
HETATM    6  C14 UNL     1     -14.102   6.679  22.986  1.00  0.00    -0.070 C 
HETATM    7  C15 UNL     1     -13.778   7.211  21.797  1.00  0.00    -0.022 C 
HETATM    8  C16 UNL     1     -13.268   8.601  21.585  1.00  0.00     0.034 C 
HETATM    9  C17 UNL     1     -13.177   9.526  22.826  1.00  0.00     0.013 C 
HETATM   10  C18 UNL     1     -11.716   9.974  23.193  1.00  0.00     0.018 C 
HETATM   11  C19 UNL     1     -11.065  10.716  22.001  1.00  0.00     0.023 C 
HETATM   12  C20 UNL     1     -10.798   8.821  23.617  1.00  0.00     0.023 C 
HETATM   13  C21 UNL     1     -11.767  10.988  24.351  1.00  0.00     0.135 C 
HETATM   14  O1  UNL     1     -10.786  11.661  24.674  1.00  0.00    -0.297 OA
HETATM   15  C22 UNL     1     -13.077  11.156  25.083  1.00  0.00     0.080 C 
HETATM   16  C23 UNL     1     -13.671   9.783  25.345  1.00  0.00     0.017 C 
HETATM   17  C24 UNL     1     -14.064   9.035  24.038  1.00  0.00    -0.031 C 
HETATM   18  C25 UNL     1     -15.541   9.401  23.710  1.00  0.00     0.016 C 
HETATM   19  C26 UNL     1     -13.920   7.483  24.267  1.00  0.00     0.024 C 
HETATM   20  C27 UNL     1     -14.757   6.930  25.448  1.00  0.00     0.010 C 
HETATM   21  C28 UNL     1     -14.681   5.401  25.665  1.00  0.00     0.011 C 
HETATM   22  C29 UNL     1     -14.169   4.596  24.450  1.00  0.00    -0.029 C 
HETATM   23  C30 UNL     1     -12.613   4.494  24.535  1.00  0.00     0.016 C 
ENDROOT
BRANCH   1  24
HETATM   24  C7  UNL     1     -14.216   1.989  25.189  1.00  0.00    -0.014 C 
HETATM   25  C8  UNL     1     -13.029   1.264  24.548  1.00  0.00     0.010 C 
BRANCH  24  26
HETATM   26  C6  UNL     1     -13.814   2.539  26.587  1.00  0.00     0.008 C 
BRANCH  26  27
HETATM   27  C5  UNL     1     -12.432   2.125  27.114  1.00  0.00     0.028 C 
BRANCH  27  28
HETATM   28  C4  UNL     1     -12.362   2.054  28.614  1.00  0.00    -0.025 C 
HETATM   29  C2  UNL     1     -12.580   3.052  29.493  1.00  0.00    -0.091 C 
HETATM   30  C1  UNL     1     -12.436   2.819  30.973  1.00  0.00     0.042 C 
HETATM   31  C3  UNL     1     -12.990   4.451  29.123  1.00  0.00     0.042 C 
ENDBRANCH  27  28
ENDBRANCH  26  27
ENDBRANCH  24  26
ENDBRANCH   1  24
TORSDOF 4
ENDMDL
MODEL 5
REMARK minimizedAffinity -7.13605976
REMARK CNNscore 0.349010825
REMARK CNNaffinity 6.21644545
REMARK  4 active torsions:
REMARK  status: ('A' for Active; 'I' for Inactive)
REMARK    1  A    between atoms: C4_4  and  C5_5 
REMARK    2  A    between atoms: C5_5  and  C6_6 
REMARK    3  A    between atoms: C6_6  and  C7_7 
REMARK    4  A    between atoms: C7_7  and  C9_9 
ROOT
HETATM    1  C9  UNL     1      -0.532   7.281  13.033  1.00  0.00    -0.002 C 
HETATM    2  C10 UNL     1      -1.498   6.257  13.703  1.00  0.00     0.007 C 
HETATM    3  C11 UNL     1      -1.946   6.855  15.049  1.00  0.00     0.015 C 
HETATM    4  C12 UNL     1      -0.991   8.042  15.288  1.00  0.00    -0.013 C 
HETATM    5  C13 UNL     1       0.305   7.433  15.911  1.00  0.00     0.021 C 
HETATM    6  C14 UNL     1      -1.443   9.146  16.237  1.00  0.00    -0.070 C 
HETATM    7  C15 UNL     1      -2.270   8.919  17.270  1.00  0.00    -0.022 C 
HETATM    8  C16 UNL     1      -2.699   9.944  18.271  1.00  0.00     0.034 C 
HETATM    9  C17 UNL     1      -2.082  11.362  18.153  1.00  0.00     0.013 C 
HETATM   10  C18 UNL     1      -3.122  12.496  17.835  1.00  0.00     0.018 C 
HETATM   11  C19 UNL     1      -4.215  12.545  18.930  1.00  0.00     0.023 C 
HETATM   12  C20 UNL     1      -3.800  12.354  16.467  1.00  0.00     0.023 C 
HETATM   13  C21 UNL     1      -2.416  13.864  17.874  1.00  0.00     0.135 C 
HETATM   14  O1  UNL     1      -3.046  14.924  17.885  1.00  0.00    -0.297 OA
HETATM   15  C22 UNL     1      -0.907  13.877  17.917  1.00  0.00     0.080 C 
HETATM   16  C23 UNL     1      -0.380  12.859  16.921  1.00  0.00     0.017 C 
HETATM   17  C24 UNL     1      -0.754  11.396  17.296  1.00  0.00    -0.031 C 
HETATM   18  C25 UNL     1       0.389  10.830  18.189  1.00  0.00     0.016 C 
HETATM   19  C26 UNL     1      -0.895  10.544  15.979  1.00  0.00     0.024 C 
HETATM   20  C27 UNL     1       0.369  10.538  15.083  1.00  0.00     0.010 C 
HETATM   21  C28 UNL     1       0.283   9.666  13.808  1.00  0.00     0.011 C 
HETATM   22  C29 UNL     1      -0.832   8.596  13.826  1.00  0.00    -0.029 C 
HETATM   23  C30 UNL     1      -2.142   9.226  13.254  1.00  0.00     0.016 C 
ENDROOT
BRANCH   1  24
HETATM   24  C7  UNL     1      -0.643   7.260  11.476  1.00  0.00    -0.014 C 
HETATM   25  C8  UNL     1      -0.355   8.632  10.859  1.00  0.00     0.010 C 
BRANCH  24  26
HETATM   26  C6  UNL     1       0.329   6.196  10.889  1.00  0.00     0.008 C 
BRANCH  26  27
HETATM   27  C5  UNL     1       1.829   6.499  11.012  1.00  0.00     0.028 C 
BRANCH  27  28
HETATM   28  C4  UNL     1       2.300   7.577  10.077  1.00  0.00    -0.025 C 
HETATM   29  C2  UNL     1       2.659   7.442   8.785  1.00  0.00    -0.091 C 
HETATM   30  C1  UNL     1       3.142   8.627   7.992  1.00  0.00     0.042 C 
HETATM   31  C3  UNL     1       2.609   6.155   8.007  1.00  0.00     0.042 C 
ENDBRANCH  27  28
ENDBRANCH  26  27
ENDBRANCH  24  26
ENDBRANCH   1  24
TORSDOF 4
ENDMDL
MODEL 6
REMARK minimizedAffinity -6.92698479
REMARK CNNscore 0.344599098
REMARK CNNaffinity 6.50069857
REMARK  4 active torsions:
REMARK  status: ('A' for Active; 'I' for Inactive)
REMARK    1  A    between atoms: C4_4  and  C5_5 
REMARK    2  A    between atoms: C5_5  and  C6_6 
REMARK    3  A    between atoms: C6_6  and  C7_7 
REMARK    4  A    between atoms: C7_7  and  C9_9 
ROOT
HETATM    1  C9  UNL     1      -4.871   5.120  12.948  1.00  0.00    -0.002 C 
HETATM    2  C10 UNL     1      -4.203   3.711  12.959  1.00  0.00     0.007 C 
HETATM    3  C11 UNL     1      -2.678   3.921  13.003  1.00  0.00     0.015 C 
HETATM    4  C12 UNL     1      -2.479   5.417  12.686  1.00  0.00    -0.013 C 
HETATM    5  C13 UNL     1      -2.520   5.535  11.128  1.00  0.00     0.021 C 
HETATM    6  C14 UNL     1      -1.180   6.078  13.130  1.00  0.00    -0.070 C 
HETATM    7  C15 UNL     1      -0.024   5.403  13.235  1.00  0.00    -0.022 C 
HETATM    8  C16 UNL     1       1.294   6.006  13.603  1.00  0.00     0.034 C 
HETATM    9  C17 UNL     1       1.347   7.542  13.807  1.00  0.00     0.013 C 
HETATM   10  C18 UNL     1       1.714   7.989  15.268  1.00  0.00     0.018 C 
HETATM   11  C19 UNL     1       3.088   7.410  15.679  1.00  0.00     0.023 C 
HETATM   12  C20 UNL     1       0.674   7.587  16.321  1.00  0.00     0.023 C 
HETATM   13  C21 UNL     1       1.864   9.521  15.313  1.00  0.00     0.135 C 
HETATM   14  O1  UNL     1       2.367  10.101  16.278  1.00  0.00    -0.297 OA
HETATM   15  C22 UNL     1       1.389  10.311  14.116  1.00  0.00     0.080 C 
HETATM   16  C23 UNL     1       0.045   9.765  13.671  1.00  0.00     0.017 C 
HETATM   17  C24 UNL     1       0.129   8.302  13.147  1.00  0.00    -0.031 C 
HETATM   18  C25 UNL     1       0.395   8.364  11.615  1.00  0.00     0.016 C 
HETATM   19  C26 UNL     1      -1.234   7.568  13.438  1.00  0.00     0.024 C 
HETATM   20  C27 UNL     1      -2.478   8.263  12.827  1.00  0.00     0.010 C 
HETATM   21  C28 UNL     1      -3.827   7.539  13.048  1.00  0.00     0.011 C 
HETATM   22  C29 UNL     1      -3.708   6.048  13.435  1.00  0.00    -0.029 C 
HETATM   23  C30 UNL     1      -3.612   5.938  14.990  1.00  0.00     0.016 C 
ENDROOT
BRANCH   1  24
HETATM   24  C7  UNL     1      -6.243   5.124  13.691  1.00  0.00    -0.014 C 
HETATM   25  C8  UNL     1      -6.391   6.333  14.620  1.00  0.00     0.010 C 
BRANCH  24  26
HETATM   26  C6  UNL     1      -7.406   5.098  12.659  1.00  0.00     0.008 C 
BRANCH  26  27
HETATM   27  C5  UNL     1      -8.818   5.343  13.211  1.00  0.00     0.028 C 
BRANCH  27  28
HETATM   28  C4  UNL     1      -8.930   6.601  14.026  1.00  0.00    -0.025 C 
HETATM   29  C2  UNL     1     -10.034   7.344  14.240  1.00  0.00    -0.091 C 
HETATM   30  C1  UNL     1      -9.967   8.604  15.061  1.00  0.00     0.042 C 
HETATM   31  C3  UNL     1     -11.407   7.013  13.722  1.00  0.00     0.042 C 
ENDBRANCH  27  28
ENDBRANCH  26  27
ENDBRANCH  24  26
ENDBRANCH   1  24
TORSDOF 4
ENDMDL
MODEL 7
REMARK minimizedAffinity -6.89333534
REMARK CNNscore 0.336806387
REMARK CNNaffinity 5.78053904
REMARK  4 active torsions:
REMARK  status: ('A' for Active; 'I' for Inactive)
REMARK    1  A    between atoms: C4_4  and  C5_5 
REMARK    2  A    between atoms: C5_5  and  C6_6 
REMARK    3  A    between atoms: C6_6  and  C7_7 
REMARK    4  A    between atoms: C7_7  and  C9_9 
ROOT
HETATM    1  C9  UNL     1       2.381   7.793  10.703  1.00  0.00    -0.002 C 
HETATM    2  C10 UNL     1       3.137   6.540  10.167  1.00  0.00     0.007 C 
HETATM    3  C11 UNL     1       4.581   6.607  10.697  1.00  0.00     0.015 C 
HETATM    4  C12 UNL     1       4.731   8.041  11.244  1.00  0.00    -0.013 C 
HETATM    5  C13 UNL     1       5.068   8.940  10.011  1.00  0.00     0.021 C 
HETATM    6  C14 UNL     1       5.823   8.305  12.275  1.00  0.00    -0.070 C 
HETATM    7  C15 UNL     1       6.967   7.605  12.313  1.00  0.00    -0.022 C 
HETATM    8  C16 UNL     1       8.100   7.856  13.255  1.00  0.00     0.034 C 
HETATM    9  C17 UNL     1       7.977   9.067  14.216  1.00  0.00     0.013 C 
HETATM   10  C18 UNL     1       7.933   8.684  15.739  1.00  0.00     0.018 C 
HETATM   11  C19 UNL     1       9.205   7.896  16.132  1.00  0.00     0.023 C 
HETATM   12  C20 UNL     1       6.701   7.863  16.139  1.00  0.00     0.023 C 
HETATM   13  C21 UNL     1       7.943   9.967  16.591  1.00  0.00     0.135 C 
HETATM   14  O1  UNL     1       8.143   9.942  17.807  1.00  0.00    -0.297 OA
HETATM   15  C22 UNL     1       7.717  11.283  15.885  1.00  0.00     0.080 C 
HETATM   16  C23 UNL     1       6.573  11.120  14.901  1.00  0.00     0.017 C 
HETATM   17  C24 UNL     1       6.902  10.128  13.749  1.00  0.00    -0.031 C 
HETATM   18  C25 UNL     1       7.533  10.947  12.585  1.00  0.00     0.016 C 
HETATM   19  C26 UNL     1       5.573   9.430  13.271  1.00  0.00     0.024 C 
HETATM   20  C27 UNL     1       4.467  10.411  12.805  1.00  0.00     0.010 C 
HETATM   21  C28 UNL     1       3.169   9.756  12.278  1.00  0.00     0.011 C 
HETATM   22  C29 UNL     1       3.308   8.273  11.870  1.00  0.00    -0.029 C 
HETATM   23  C30 UNL     1       3.026   7.379  13.119  1.00  0.00     0.016 C 
ENDROOT
BRANCH   1  24
HETATM   24  C7  UNL     1       0.872   7.498  10.970  1.00  0.00    -0.014 C 
HETATM   25  C8  UNL     1      -0.047   8.401  10.141  1.00  0.00     0.010 C 
BRANCH  24  26
HETATM   26  C6  UNL     1       0.562   6.003  10.671  1.00  0.00     0.008 C 
BRANCH  26  27
HETATM   27  C5  UNL     1      -0.003   5.175  11.834  1.00  0.00     0.028 C 
BRANCH  27  28
HETATM   28  C4  UNL     1      -1.445   4.793  11.649  1.00  0.00    -0.025 C 
HETATM   29  C2  UNL     1      -2.436   4.867  12.560  1.00  0.00    -0.091 C 
HETATM   30  C1  UNL     1      -3.829   4.409  12.220  1.00  0.00     0.042 C 
HETATM   31  C3  UNL     1      -2.283   5.403  13.957  1.00  0.00     0.042 C 
ENDBRANCH  27  28
ENDBRANCH  26  27
ENDBRANCH  24  26
ENDBRANCH   1  24
TORSDOF 4
ENDMDL
MODEL 8
REMARK minimizedAffinity -8.46175194
REMARK CNNscore 0.328375489
REMARK CNNaffinity 6.71038675
REMARK  4 active torsions:
REMARK  status: ('A' for Active; 'I' for Inactive)
REMARK    1  A    between atoms: C4_4  and  C5_5 
REMARK    2  A    between atoms: C5_5  and  C6_6 
REMARK    3  A    between atoms: C6_6  and  C7_7 
REMARK    4  A    between atoms: C7_7  and  C9_9 
ROOT
HETATM    1  C9  UNL     1      -4.460   7.811  15.320  1.00  0.00    -0.002 C 
HETATM    2  C10 UNL     1      -4.229   9.350  15.413  1.00  0.00     0.007 C 
HETATM    3  C11 UNL     1      -2.832   9.645  14.837  1.00  0.00     0.015 C 
HETATM    4  C12 UNL     1      -2.153   8.265  14.730  1.00  0.00    -0.013 C 
HETATM    5  C13 UNL     1      -1.578   7.956  16.149  1.00  0.00     0.021 C 
HETATM    6  C14 UNL     1      -0.990   8.113  13.756  1.00  0.00    -0.070 C 
HETATM    7  C15 UNL     1      -0.171   9.129  13.441  1.00  0.00    -0.022 C 
HETATM    8  C16 UNL     1       1.022   9.027  12.545  1.00  0.00     0.034 C 
HETATM    9  C17 UNL     1       1.387   7.624  11.996  1.00  0.00     0.013 C 
HETATM   10  C18 UNL     1       1.284   7.495  10.433  1.00  0.00     0.018 C 
HETATM   11  C19 UNL     1       2.208   8.528   9.745  1.00  0.00     0.023 C 
HETATM   12  C20 UNL     1      -0.139   7.665   9.887  1.00  0.00     0.023 C 
HETATM   13  C21 UNL     1       1.795   6.108   9.999  1.00  0.00     0.135 C 
HETATM   14  O1  UNL     1       2.032   5.838   8.820  1.00  0.00    -0.297 OA
HETATM   15  C22 UNL     1       2.020   5.072  11.075  1.00  0.00     0.080 C 
HETATM   16  C23 UNL     1       0.847   5.102  12.037  1.00  0.00     0.017 C 
HETATM   17  C24 UNL     1       0.742   6.442  12.822  1.00  0.00    -0.031 C 
HETATM   18  C25 UNL     1       1.566   6.288  14.133  1.00  0.00     0.016 C 
HETATM   19  C26 UNL     1      -0.771   6.730  13.155  1.00  0.00     0.024 C 
HETATM   20  C27 UNL     1      -1.474   5.607  13.959  1.00  0.00     0.010 C 
HETATM   21  C28 UNL     1      -2.945   5.882  14.349  1.00  0.00     0.011 C 
HETATM   22  C29 UNL     1      -3.366   7.368  14.292  1.00  0.00    -0.029 C 
HETATM   23  C30 UNL     1      -3.887   7.686  12.854  1.00  0.00     0.016 C 
ENDROOT
BRANCH   1  24
HETATM   24  C7  UNL     1      -5.959   7.455  15.074  1.00  0.00    -0.014 C 
HETATM   25  C8  UNL     1      -6.845   8.704  15.019  1.00  0.00     0.010 C 
BRANCH  24  26
HETATM   26  C6  UNL     1      -6.102   6.641  13.757  1.00  0.00     0.008 C 
BRANCH  26  27
HETATM   27  C5  UNL     1      -6.449   5.152  13.907  1.00  0.00     0.028 C 
BRANCH  27  28
HETATM   28  C4  UNL     1      -5.874   4.292  12.816  1.00  0.00    -0.025 C 
HETATM   29  C2  UNL     1      -6.362   3.126  12.349  1.00  0.00    -0.091 C 
HETATM   30  C1  UNL     1      -5.640   2.369  11.266  1.00  0.00     0.042 C 
HETATM   31  C3  UNL     1      -7.634   2.476  12.817  1.00  0.00     0.042 C 
ENDBRANCH  27  28
ENDBRANCH  26  27
ENDBRANCH  24  26
ENDBRANCH   1  24
TORSDOF 4
ENDMDL
MODEL 9
REMARK minimizedAffinity -6.4163475
REMARK CNNscore 0.326428741
REMARK CNNaffinity 6.01243591
REMARK  4 active torsions:
REMARK  status: ('A' for Active; 'I' for Inactive)
REMARK    1  A    between atoms: C4_4  and  C5_5 
REMARK    2  A    between atoms: C5_5  and  C6_6 
REMARK    3  A    between atoms: C6_6  and  C7_7 
REMARK    4  A    between atoms: C7_7  and  C9_9 
ROOT
HETATM    1  C9  UNL     1     -14.709   9.220  23.522  1.00  0.00    -0.002 C 
HETATM    2  C10 UNL     1     -16.159   9.255  24.096  1.00  0.00     0.007 C 
HETATM    3  C11 UNL     1     -16.508   7.829  24.561  1.00  0.00     0.015 C 
HETATM    4  C12 UNL     1     -15.405   6.938  23.955  1.00  0.00    -0.013 C 
HETATM    5  C13 UNL     1     -15.848   6.643  22.486  1.00  0.00     0.021 C 
HETATM    6  C14 UNL     1     -15.142   5.583  24.601  1.00  0.00    -0.070 C 
HETATM    7  C15 UNL     1     -16.099   4.883  25.230  1.00  0.00    -0.022 C 
HETATM    8  C16 UNL     1     -15.920   3.524  25.827  1.00  0.00     0.034 C 
HETATM    9  C17 UNL     1     -14.542   2.836  25.643  1.00  0.00     0.013 C 
HETATM   10  C18 UNL     1     -13.763   2.579  26.983  1.00  0.00     0.018 C 
HETATM   11  C19 UNL     1     -14.607   1.699  27.935  1.00  0.00     0.023 C 
HETATM   12  C20 UNL     1     -13.358   3.859  27.723  1.00  0.00     0.023 C 
HETATM   13  C21 UNL     1     -12.481   1.780  26.684  1.00  0.00     0.135 C 
HETATM   14  O1  UNL     1     -11.815   1.255  27.579  1.00  0.00    -0.297 OA
HETATM   15  C22 UNL     1     -12.061   1.635  25.241  1.00  0.00     0.080 C 
HETATM   16  C23 UNL     1     -12.209   2.978  24.550  1.00  0.00     0.017 C 
HETATM   17  C24 UNL     1     -13.688   3.455  24.465  1.00  0.00    -0.031 C 
HETATM   18  C25 UNL     1     -14.282   2.919  23.130  1.00  0.00     0.016 C 
HETATM   19  C26 UNL     1     -13.727   5.030  24.491  1.00  0.00     0.024 C 
HETATM   20  C27 UNL     1     -12.902   5.708  23.367  1.00  0.00     0.010 C 
HETATM   21  C28 UNL     1     -12.963   7.253  23.331  1.00  0.00     0.011 C 
HETATM   22  C29 UNL     1     -14.152   7.875  24.097  1.00  0.00    -0.029 C 
HETATM   23  C30 UNL     1     -13.722   8.117  25.579  1.00  0.00     0.016 C 
ENDROOT
BRANCH   1  24
HETATM   24  C7  UNL     1     -13.947  10.558  23.772  1.00  0.00    -0.014 C 
HETATM   25  C8  UNL     1     -13.592  10.751  25.250  1.00  0.00     0.010 C 
BRANCH  24  26
HETATM   26  C6  UNL     1     -12.657  10.604  22.903  1.00  0.00     0.008 C 
BRANCH  26  27
HETATM   27  C5  UNL     1     -11.321  10.587  23.660  1.00  0.00     0.028 C 
BRANCH  27  28
HETATM   28  C4  UNL     1     -10.194  11.226  22.897  1.00  0.00    -0.025 C 
HETATM   29  C2  UNL     1      -9.475  12.309  23.253  1.00  0.00    -0.091 C 
HETATM   30  C1  UNL     1      -8.394  12.844  22.351  1.00  0.00     0.042 C 
HETATM   31  C3  UNL     1      -9.644  13.071  24.538  1.00  0.00     0.042 C 
ENDBRANCH  27  28
ENDBRANCH  26  27
ENDBRANCH  24  26
ENDBRANCH   1  24
TORSDOF 4
ENDMDL
